data_PCOD9190381
_publ_section_title
;
Structure prediction by ZEFSAII (Michael W. Deem and Ramdas Pophale) SiO2 
 PCOD9190381
Probable space group: C 2/M
;
_chemical_formula_sum "Si O2"
_cell_formula_units_Z 56
_cell_length_a 16.365034
_cell_length_b 7.319128
_cell_length_c 17.542194
_cell_angle_alpha 90.000000
_cell_angle_beta 101.436896
_cell_angle_gamma 90.000000
_cell_volume 2059.443641
_symmetry_space_group_name_H-M "C 2/M"
_symmetry_group_IT_number 12
_symmetry_cell_setting 'monoclinic'
loop_
_space_group_symop_operation_xyz
x,y,z
-x,y,-z
-x,-y,-z
x,-y,z
1/2+x,1/2+y,z
1/2-x,1/2+y,-z
1/2-x,1/2-y,-z
1/2+x,1/2-y,z
loop_
_atom_site_type_symbol
_atom_site_label
_atom_site_fract_x
_atom_site_fract_y
_atom_site_fract_z
Si Si1 0.747546 0.282807 0.327600
Si Si2 0.954825 0.210366 0.089473
Si Si3 0.313372 0.221442 0.186827
Si Si4 0.493122 0.277538 0.619303
Si Si5 0.322933 0.717380 0.951238
Si Si6 0.132864 0.217648 0.525986
Si Si7 0.431445 0.724046 0.763777
O O1 0.743539 0.500000 0.318961
O O2 0.811950 0.216583 0.274206
O O3 0.778136 0.253657 0.419332
O O4 0.657805 0.215774 0.283977
O O5 0.884739 0.209512 0.143735
O O6 0.034799 0.288307 0.148381
O O7 0.974033 0.000000 0.075739
O O8 0.907188 0.289537 0.006920
O O9 0.223393 0.277026 0.134091
O O10 0.318093 0.000000 0.184217
O O11 0.494613 0.500000 0.620184
O O12 0.407331 0.219528 0.560680
O O13 0.567627 0.215951 0.578727
O O14 0.493108 0.219373 0.706565
O O15 0.334984 0.500000 0.945674
O O16 0.250000 0.750000 0.000000
O O17 0.127217 0.000000 0.521308
O O18 0.430459 0.500000 0.767424
#
# Coordination Sequence:
#
# PCOD9190381 Si02
#       7
#     8   8   8   8   8   8   8
#     4  10  20  31  43  63  93 124 146 170 215 267
#     4   9  16  28  49  70  84 109 152 189 212 247
#     4   9  17  29  44  64  92 119 141 175 224 265
#     4   8  15  29  49  69  87 110 143 184 224 256
#     4   8  14  25  42  65  88 109 140 181 219 253
#     4   9  17  31  51  70  85 108 147 188 220 253
#     4   9  17  29  44  64  91 119 146 177 215 260
#
# _framework density 27.191811000000001
#
# number of rings (size 3 to 8) (size 9 to 14) (size 15 to 20)
#    0.000    3.143    0.000    1.714    0.000    2.286 
#    0.000    2.857    0.000    6.000    0.000    0.000 
#    0.000   12.571    0.000    0.000    0.000    0.000 
#
# Total GULP energy -156465.579359 kJ/mol
# GULP energy per Si atom -5588.056406 kJ/mol
# Density = 2.712992 g / cm^3
# Si number density = 27.191811 Si / 1000 Ang^3
#
#
#
# Elastic Constant Matrix: (Units=GPa)
#
#
# Indices 1 2 3 4 5 6 
#
# 1 83.7851 -3.3896 31.3565 0.0000 21.1803 0.0000
# 2 -3.3896 114.4867 0.1197 0.0000 -1.7744 0.0000
# 3 31.3565 0.1197 217.8766 0.0000 21.2326 0.0000
# 4 0.0000 0.0000 0.0000 5.0473 0.0000 6.7524
# 5 21.1803 -1.7744 21.2326 0.0000 55.9501 0.0000
# 6 0.0000 0.0000 0.0000 6.7524 0.0000 -1.2353
#
#
#
# Elastic Compliance Matrix: (Units=1/GPa)
#
#
# Indices 1 2 3 4 5 6 
#
# 1 0.013679 0.000335 -0.001521 0.000000 -0.004590 0.000000
# 2 0.000335 0.008747 -0.000070 0.000000 0.000177 0.000000
# 3 -0.001521 -0.000070 0.004935 0.000000 -0.001299 0.000000
# 4 0.000000 0.000000 0.000000 0.023834 0.000000 0.130280
# 5 -0.004590 0.000177 -0.001299 0.000000 0.020109 0.000000
# 6 0.000000 0.000000 0.000000 0.130280 0.000000 -0.097381
#
#
# Mechanical properties :
#
#
# Convention : Reuss Voigt Hill
#
# Bulk Modulus (GPa) = 40.24365 52.48016 46.36190
# Shear Modulus (GPa) = -327.19675 37.82321 -144.68677
#
# Velocity S-wave (km/s) = -10.98136 3.73363 -7.30241
# Velocity P-wave (km/s) = 12.08119 6.15861 7.34937
#
# Compressibility (1/GPa) = 0.02484864
#
# Stress axis : x y z
#
# Youngs Moduli (GPa) = 73.10669 114.31980 202.61906
#
# Poissons Ratio (x) = -0.03835 0.30828
# Poissons Ratio (y) = -0.02452 0.01425
# Poissons Ratio (z) = 0.11123 0.00804
#
# Static dielectric constant tensor:
#      x y z
#    x 2.211630 0.000000 0.089520 
#    y 0.000000 1.902380 0.000000 
#    z 0.089520 0.000000 2.210940 
# 
# From -- ./inp_files/315114.got.cif
#   From: 2010.05.17/outbox.cif.g08.bks.cpg/sg12_158_cif.got.tgz:315114.got - 2010.06.03 13:09:07.
