data_PCOD9190029
_publ_section_title
;
Structure prediction by ZEFSAII (Michael W. Deem and Ramdas Pophale) SiO2 
 PCOD9190029
Probable space group: C 2/M
;
_chemical_formula_sum "Si O2"
_cell_formula_units_Z 60
_cell_length_a 21.641496
_cell_length_b 9.481807
_cell_length_c 17.650223
_cell_angle_alpha 90.000000
_cell_angle_beta 132.056566
_cell_angle_gamma 90.000000
_cell_volume 2689.153553
_symmetry_space_group_name_H-M "C 2/M"
_symmetry_group_IT_number 12
_symmetry_cell_setting 'monoclinic'
loop_
_space_group_symop_operation_xyz
x,y,z
-x,y,-z
-x,-y,-z
x,-y,z
1/2+x,1/2+y,z
1/2-x,1/2+y,-z
1/2-x,1/2-y,-z
1/2+x,1/2-y,z
loop_
_atom_site_type_symbol
_atom_site_label
_atom_site_fract_x
_atom_site_fract_y
_atom_site_fract_z
Si Si1 0.351251 0.665904 0.321842
Si Si2 0.076721 0.661376 0.269590
Si Si3 0.781788 0.000000 0.536553
Si Si4 0.568745 0.660577 0.122111
Si Si5 0.323104 0.165088 0.894972
Si Si6 0.228829 0.229066 0.586122
Si Si7 0.475123 0.331984 0.296581
Si Si8 0.665479 0.332947 0.948607
O O1 0.358937 0.500000 0.345948
O O2 0.275556 0.677754 0.198910
O O3 0.317958 0.735051 0.371836
O O4 0.434649 0.706680 0.344783
O O5 0.048544 0.500000 0.236254
O O6 0.042212 0.771396 0.179194
O O7 0.176532 0.663108 0.338571
O O8 0.043937 0.723909 0.321786
O O9 0.816324 0.877599 0.507070
O O10 0.743185 0.878604 0.560675
O O11 0.598042 0.500000 0.159107
O O12 0.637253 0.766958 0.146758
O O13 0.500000 0.656196 0.000000
O O14 0.343695 0.000000 0.920441
O O15 0.357788 0.258054 0.991864
O O16 0.497677 0.500000 0.314628
O O17 0.401124 0.318612 0.172932
O O18 0.679886 0.500000 0.971936
O O19 0.750000 0.250000 0.000000
#
# Coordination Sequence:
#
# PCOD9190029 Si02
#       8
#     8   8   4   8   8   8   8   8
#     4  10  19  39  64  89 123 162 208 256 305 375
#     4  12  24  40  64  95 133 170 211 268 322 382
#     4  10  24  42  74 106 130 154 202 264 330 396
#     4  11  24  39  56  85 126 173 220 267 315 373
#     4  11  21  35  58  85 117 163 215 273 318 357
#     4  11  22  44  72 105 127 162 205 264 323 393
#     4  10  23  40  60  86 126 179 219 256 314 377
#     4  11  21  36  54  80 122 173 227 274 314 367
#
# _framework density 22.311852999999999
#
# number of rings (size 3 to 8) (size 9 to 14) (size 15 to 20)
#    0.000    1.200    4.000    2.400    1.867    5.333 
#    2.400    0.000    0.000    4.800    0.000    0.000 
#    0.000    0.000    0.000    0.000    0.000    0.000 
#
# Total GULP energy -167019.028328 kJ/mol
# GULP energy per Si atom -5567.300944 kJ/mol
# Density = 2.226107 g / cm^3
# Si number density = 22.311853 Si / 1000 Ang^3
#
#
#
# Elastic Constant Matrix: (Units=GPa)
#
#
# Indices 1 2 3 4 5 6 
#
# 1 118.9092 20.4216 29.3133 0.0000 -32.2238 0.0000
# 2 20.4216 149.0780 33.7832 0.0000 -11.3819 0.0000
# 3 29.3133 33.7832 42.5787 0.0000 -18.3989 0.0000
# 4 0.0000 0.0000 0.0000 237.6495 0.0000 40.3154
# 5 -32.2238 -11.3819 -18.3989 0.0000 39.6127 0.0000
# 6 0.0000 0.0000 0.0000 40.3154 0.0000 39.2953
#
#
#
# Elastic Compliance Matrix: (Units=1/GPa)
#
#
# Indices 1 2 3 4 5 6 
#
# 1 0.011542 0.000080 -0.004933 0.000000 0.007121 0.000000
# 2 0.000080 0.008201 -0.006901 0.000000 -0.000783 0.000000
# 3 -0.004933 -0.006901 0.037241 0.000000 0.011302 0.000000
# 4 0.000000 0.000000 0.000000 0.005095 0.000000 -0.005227
# 5 0.007121 -0.000783 0.011302 0.000000 0.036061 0.000000
# 6 0.000000 0.000000 0.000000 -0.005227 0.000000 0.030811
#
#
# Mechanical properties :
#
#
# Convention : Reuss Voigt Hill
#
# Bulk Modulus (GPa) = 29.87081 53.06688 41.46884
# Shear Modulus (GPa) = 30.55955 78.44801 54.50378
#
# Velocity S-wave (km/s) = 3.70490 5.93600 4.94785
# Velocity P-wave (km/s) = 5.63193 8.41530 7.16017
#
# Compressibility (1/GPa) = 0.03347750
#
# Stress axis : x y z
#
# Youngs Moduli (GPa) = 86.64256 121.93843 26.85235
#
# Poissons Ratio (x) = -0.00981 0.13245
# Poissons Ratio (y) = -0.00697 0.18530
# Poissons Ratio (z) = 0.42737 0.84146
#
# Static dielectric constant tensor:
#      x y z
#    x 1.338400 0.000000 0.207810 
#    y 0.000000 1.747970 0.000000 
#    z 0.207810 0.000000 1.878990 
# 
# From -- ./inp_files/282204.got.cif
#   From: 2010.05.17/outbox.cif.g08.bks.cpg/sg12_142_cif.got.tgz:282204.got - 2010.06.03 13:09:07.
