data_PCOD9190391
_publ_section_title
;
Structure prediction by ZEFSAII (Michael W. Deem and Ramdas Pophale) SiO2 
 PCOD9190391
Probable space group: C 2/M
;
_chemical_formula_sum "Si O2"
_cell_formula_units_Z 56
_cell_length_a 17.705348
_cell_length_b 14.256969
_cell_length_c 10.500716
_cell_angle_alpha 90.000000
_cell_angle_beta 69.558538
_cell_angle_gamma 90.000000
_cell_volume 2483.726948
_symmetry_space_group_name_H-M "C 2/M"
_symmetry_group_IT_number 12
_symmetry_cell_setting 'monoclinic'
loop_
_space_group_symop_operation_xyz
x,y,z
-x,y,-z
-x,-y,-z
x,-y,z
1/2+x,1/2+y,z
1/2-x,1/2+y,-z
1/2-x,1/2-y,-z
1/2+x,1/2-y,z
loop_
_atom_site_type_symbol
_atom_site_label
_atom_site_fract_x
_atom_site_fract_y
_atom_site_fract_z
Si Si1 0.093217 0.294275 0.191777
Si Si2 0.409623 0.810136 0.085861
Si Si3 0.352454 0.606885 0.169497
Si Si4 0.854474 0.900021 0.875116
Si Si5 0.799203 0.306142 0.620103
Si Si6 0.052283 0.608086 0.600417
Si Si7 0.737992 0.104837 0.701881
O O1 0.129648 0.317679 0.032721
O O2 0.084261 0.182622 0.190468
O O3 0.152995 0.313919 0.272968
O O4 0.007560 0.341444 0.267180
O O5 0.500000 0.838850 0.000000
O O6 0.407273 0.701313 0.134667
O O7 0.354497 0.872064 0.209537
O O8 0.383152 0.500000 0.174536
O O9 0.280164 0.631962 0.308416
O O10 0.323152 0.606845 0.038415
O O11 0.785468 0.895804 0.809472
O O12 0.896238 0.000000 0.839565
O O13 0.862842 0.343699 0.480651
O O14 0.775323 0.197202 0.612796
O O15 0.063811 0.500000 0.625897
O O16 0.000000 0.611295 0.500000
O O17 0.747770 0.000000 0.640716
#
# Coordination Sequence:
#
# PCOD9190391 Si02
#       7
#     8   8   8   8   8   8   8
#     4   9  17  29  44  66  96 121 143 179 222 262
#     4  10  20  31  44  65  92 122 153 181 214 261
#     4   9  16  27  46  68  89 114 145 186 231 266
#     4   8  14  26  45  68  89 112 145 184 228 270
#     4   9  16  28  47  70  92 113 143 183 226 269
#     4   9  17  28  44  68  95 119 142 174 221 272
#     4   9  17  29  45  64  88 117 149 186 223 260
#
# _framework density 22.546762000000001
#
# number of rings (size 3 to 8) (size 9 to 14) (size 15 to 20)
#    0.000    3.000    0.000    1.286    0.000    5.143 
#    0.000    0.714    0.000    7.714    0.000    2.000 
#    0.000    0.000    0.000    0.000    0.000    0.000 
#
# Total GULP energy -156225.001500 kJ/mol
# GULP energy per Si atom -5579.464339 kJ/mol
# Density = 2.249544 g / cm^3
# Si number density = 22.546762 Si / 1000 Ang^3
#
#
#
# Elastic Constant Matrix: (Units=GPa)
#
#
# Indices 1 2 3 4 5 6 
#
# 1 61.7083 19.2680 17.0284 0.0000 -3.9445 0.0000
# 2 19.2680 150.2051 71.8648 0.0000 -18.1136 0.0000
# 3 17.0284 71.8648 111.0445 0.0000 -10.8210 0.0000
# 4 0.0000 0.0000 0.0000 25.8660 0.0000 0.8598
# 5 -3.9445 -18.1136 -10.8210 0.0000 35.9934 0.0000
# 6 0.0000 0.0000 0.0000 0.8598 0.0000 16.0694
#
#
#
# Elastic Compliance Matrix: (Units=1/GPa)
#
#
# Indices 1 2 3 4 5 6 
#
# 1 0.017128 -0.001286 -0.001725 0.000000 0.000711 0.000000
# 2 -0.001286 0.010080 -0.006022 0.000000 0.003121 0.000000
# 3 -0.001725 -0.006022 0.013242 0.000000 0.000761 0.000000
# 4 0.000000 0.000000 0.000000 0.038730 0.000000 -0.002072
# 5 0.000711 0.003121 0.000761 0.000000 0.029660 0.000000
# 6 0.000000 0.000000 0.000000 -0.002072 0.000000 0.062341
#
#
# Mechanical properties :
#
#
# Convention : Reuss Voigt Hill
#
# Bulk Modulus (GPa) = 44.67582 59.92004 52.29793
# Shear Modulus (GPa) = 25.41827 29.90556 27.66191
#
# Velocity S-wave (km/s) = 3.36126 3.64590 3.50647
# Velocity P-wave (km/s) = 5.90947 6.66011 6.29599
#
# Compressibility (1/GPa) = 0.02238347
#
# Stress axis : x y z
#
# Youngs Moduli (GPa) = 58.38286 99.20349 75.51998
#
# Poissons Ratio (x) = 0.12759 0.13027
# Poissons Ratio (y) = 0.07509 0.45480
# Poissons Ratio (z) = 0.10071 0.59743
#
# Static dielectric constant tensor:
#      x y z
#    x 1.917780 0.000000 0.065970 
#    y 0.000000 1.824120 0.000000 
#    z 0.065970 0.000000 1.796190 
# 
# From -- ./inp_files/240393.got.cif
#   From: 2010.05.17/outbox.cif.g08.bks.cpg/sg12_121_cif.got.tgz:240393.got - 2010.06.03 13:09:07.
