data_PCOD9190946
_publ_section_title
;
Structure prediction by ZEFSAII (Michael W. Deem and Ramdas Pophale) SiO2 
 PCOD9190946
Probable space group: C 2/M
;
_chemical_formula_sum "Si O2"
_cell_formula_units_Z 40
_cell_length_a 18.927512
_cell_length_b 13.577330
_cell_length_c 16.406852
_cell_angle_alpha 90.000000
_cell_angle_beta 32.167129
_cell_angle_gamma 90.000000
_cell_volume 2244.727578
_symmetry_space_group_name_H-M "C 2/M"
_symmetry_group_IT_number 12
_symmetry_cell_setting 'monoclinic'
loop_
_space_group_symop_operation_xyz
x,y,z
-x,y,-z
-x,-y,-z
x,-y,z
1/2+x,1/2+y,z
1/2-x,1/2+y,-z
1/2-x,1/2-y,-z
1/2+x,1/2-y,z
loop_
_atom_site_type_symbol
_atom_site_label
_atom_site_fract_x
_atom_site_fract_y
_atom_site_fract_z
Si Si1 0.047428 0.315011 0.184514
Si Si2 0.163785 0.888541 0.122902
Si Si3 0.851658 0.884065 0.668248
Si Si4 0.718994 0.885788 0.490149
Si Si5 0.684721 0.201202 0.691517
O O1 0.078504 0.200310 0.169289
O O2 0.937358 0.355933 0.354837
O O3 0.968738 0.325359 0.175565
O O4 0.184716 0.372543 0.053863
O O5 0.165523 0.874240 0.218628
O O6 0.118261 0.000000 0.149473
O O7 0.745104 0.827086 0.718055
O O8 0.000000 0.851181 0.500000
O O9 0.840557 0.000000 0.658372
O O10 0.759285 0.857721 0.544359
O O11 0.791830 0.814152 0.356556
O O12 0.737556 0.000000 0.457010
#
# Coordination Sequence:
#
# PCOD9190946 Si02
#       5
#     8   8   8   8   8
#     4   9  19  34  49  76 104 135 174 207 249 302
#     4  10  20  33  53  77 104 137 169 211 262 301
#     4  10  20  32  50  77 106 131 164 216 265 303
#     4   9  17  31  52  74  98 132 173 210 246 295
#     4   9  19  32  50  76 102 137 165 211 251 300
#
# _framework density 17.819534000000001
#
# number of rings (size 3 to 8) (size 9 to 14) (size 15 to 20)
#    1.200    1.400    0.000    2.400    0.000    1.600 
#    0.000    2.000    0.000   10.200    0.000    7.000 
#    0.000    0.000    0.000    0.000    0.000    0.000 
#
# Total GULP energy -111344.523858 kJ/mol
# GULP energy per Si atom -5567.226193 kJ/mol
# Density = 1.777898 g / cm^3
# Si number density = 17.819534 Si / 1000 Ang^3
#
#
#
# Elastic Constant Matrix: (Units=GPa)
#
#
# Indices 1 2 3 4 5 6 
#
# 1 59.1253 13.9141 -8.5581 0.0000 -10.7996 0.0000
# 2 13.9141 77.8995 -11.3023 0.0000 -3.6506 0.0000
# 3 -8.5581 -11.3023 17.2513 0.0001 -3.4128 0.0000
# 4 0.0000 0.0000 0.0001 9.3172 0.0000 -1.1880
# 5 -10.7996 -3.6506 -3.4128 0.0000 15.5601 0.0000
# 6 0.0000 0.0000 0.0000 -1.1880 0.0000 15.0032
#
#
#
# Elastic Compliance Matrix: (Units=1/GPa)
#
#
# Indices 1 2 3 4 5 6 
#
# 1 0.022610 -0.001117 0.014151 0.000000 0.018534 0.000000
# 2 -0.001117 0.014725 0.010060 0.000000 0.004886 0.000000
# 3 0.014151 0.010060 0.077344 -0.000001 0.029146 0.000000
# 4 0.000000 0.000000 -0.000001 0.108423 0.000000 0.008586
# 5 0.018534 0.004886 0.029146 0.000000 0.084670 0.000000
# 6 0.000000 0.000000 0.000000 0.008586 0.000000 0.067332
#
#
# Mechanical properties :
#
#
# Convention : Reuss Voigt Hill
#
# Bulk Modulus (GPa) = 6.21629 15.82038 11.01834
# Shear Modulus (GPa) = 13.07062 18.65759 15.86410
#
# Velocity S-wave (km/s) = 2.71126 3.23929 2.98697
# Velocity P-wave (km/s) = 3.64654 4.78415 4.25355
#
# Compressibility (1/GPa) = 0.16086767
#
# Stress axis : x y z
#
# Youngs Moduli (GPa) = 44.22854 67.91147 12.92933
#
# Poissons Ratio (x) = 0.07584 -0.18297
# Poissons Ratio (y) = 0.04939 -0.13007
# Poissons Ratio (z) = -0.62590 -0.68318
#
# Static dielectric constant tensor:
#      x y z
#    x 1.600900 0.000000 -0.017590 
#    y 0.000000 1.607150 0.000000 
#    z -0.017590 0.000000 1.642060 
# 
# From -- ./inp_files/277287.got.cif
#   From: 2010.05.17/outbox.cif.g08.bks.cpg/sg12_139_cif.got.tgz:277287.got - 2010.06.03 13:09:07.
