data_PCOD9190563
_publ_section_title
;
Structure prediction by ZEFSAII (Michael W. Deem and Ramdas Pophale) SiO2 
 PCOD9190563
Probable space group: C 2/M
;
_chemical_formula_sum "Si O2"
_cell_formula_units_Z 50
_cell_length_a 20.367683
_cell_length_b 7.317145
_cell_length_c 17.281963
_cell_angle_alpha 90.000000
_cell_angle_beta 61.807001
_cell_angle_gamma 90.000000
_cell_volume 2270.023120
_symmetry_space_group_name_H-M "C 2/M"
_symmetry_group_IT_number 12
_symmetry_cell_setting 'monoclinic'
loop_
_space_group_symop_operation_xyz
x,y,z
-x,y,-z
-x,-y,-z
x,-y,z
1/2+x,1/2+y,z
1/2-x,1/2+y,-z
1/2-x,1/2-y,-z
1/2+x,1/2-y,z
loop_
_atom_site_type_symbol
_atom_site_label
_atom_site_fract_x
_atom_site_fract_y
_atom_site_fract_z
Si Si1 0.611332 0.222345 0.272287
Si Si2 0.840210 0.277288 0.582335
Si Si3 0.674009 0.719190 0.666807
Si Si4 0.000000 0.500000 0.000000
Si Si5 0.947662 0.708936 0.392182
Si Si6 0.256026 0.217163 0.905765
Si Si7 0.120890 0.220779 0.870599
O O1 0.645176 0.269988 0.336943
O O2 0.526033 0.287438 0.319862
O O3 0.667377 0.287908 0.174623
O O4 0.609998 0.000000 0.266931
O O5 0.839889 0.500000 0.578780
O O6 0.757929 0.216501 0.603242
O O7 0.905578 0.210257 0.489846
O O8 0.673473 0.500000 0.658736
O O9 0.612482 0.791467 0.642571
O O10 0.652776 0.758431 0.767261
O O11 0.951382 0.339578 0.072106
O O12 0.965274 0.500000 0.405037
O O13 0.183729 0.278593 0.898259
O O14 0.256946 0.000000 0.893807
O O15 0.250000 0.250000 0.000000
O O16 0.108628 0.000000 0.883096
#
# Coordination Sequence:
#
# PCOD9190563 Si02
#       7
#     8   8   8   2   8   8   8
#     4   9  17  34  57  83 117 156 199 257 308 366
#     4   9  16  32  58  84 115 162 205 248 302 371
#     4  10  20  37  59  79 123 168 202 240 309 381
#     4  12  26  40  72  94 128 158 220 270 312 386
#     4  10  20  31  55  94 122 148 205 260 304 361
#     4  10  21  39  63  87 120 162 214 262 319 386
#     4  10  23  44  65  93 127 172 210 259 323 384
#
# _framework density 22.026208
#
# number of rings (size 3 to 8) (size 9 to 14) (size 15 to 20)
#    0.000    2.240    1.600    1.200    2.240    3.200 
#    2.880    2.400    0.000    3.840    0.000    0.000 
#    0.000    0.000    0.000    0.000    0.000    0.000 
#
# Total GULP energy -139411.983335 kJ/mol
# GULP energy per Si atom -5576.479333 kJ/mol
# Density = 2.197608 g / cm^3
# Si number density = 22.026208 Si / 1000 Ang^3
#
#
#
# Elastic Constant Matrix: (Units=GPa)
#
#
# Indices 1 2 3 4 5 6 
#
# 1 54.6049 -4.3207 23.2455 0.0000 4.0284 0.0000
# 2 -4.3207 96.6113 21.2660 0.0004 -14.0044 0.0003
# 3 23.2455 21.2660 135.1931 0.0002 8.5633 0.0002
# 4 0.0000 0.0004 0.0002 -16.9992 0.0000 10.0266
# 5 4.0284 -14.0044 8.5633 0.0000 21.1775 0.0000
# 6 0.0000 0.0003 0.0002 10.0266 0.0000 4.7038
#
#
#
# Elastic Compliance Matrix: (Units=1/GPa)
#
#
# Indices 1 2 3 4 5 6 
#
# 1 0.020064 0.001489 -0.003597 0.000000 -0.001377 0.000000
# 2 0.001489 0.012329 -0.002765 0.000000 0.008987 -0.000001
# 3 -0.003597 -0.002765 0.008747 0.000000 -0.004681 0.000000
# 4 0.000000 0.000000 0.000000 -0.026061 0.000000 0.055551
# 5 -0.001377 0.008987 -0.004681 0.000000 0.055318 0.000000
# 6 0.000000 -0.000001 0.000000 0.055551 0.000000 0.094182
#
#
# Mechanical properties :
#
#
# Convention : Reuss Voigt Hill
#
# Bulk Modulus (GPa) = 31.85211 40.75453 36.30332
# Shear Modulus (GPa) = 27.05799 18.19097 22.62448
#
# Velocity S-wave (km/s) = 3.50872 2.87693 3.20841
# Velocity P-wave (km/s) = 5.55943 5.43861 5.49935
#
# Compressibility (1/GPa) = 0.03139509
#
# Stress axis : x y z
#
# Youngs Moduli (GPa) = 49.84033 81.11136 114.32915
#
# Poissons Ratio (x) = -0.12081 0.41123
# Poissons Ratio (y) = -0.07423 0.31609
# Poissons Ratio (z) = 0.17927 0.22425
#
# Static dielectric constant tensor:
#      x y z
#    x 0.506570 0.000000 -2.534820 
#    y 0.000000 1.687750 0.000010 
#    z -2.534820 0.000010 -3.173840 
# 
# From -- ./inp_files/274924.got.cif
#   From: 2010.05.17/outbox.cif.g08.bks.cpg/sg12_138_cif.got.tgz:274924.got - 2010.06.03 13:09:07.
