data_PCOD9190862
_publ_section_title
;
Structure prediction by ZEFSAII (Michael W. Deem and Ramdas Pophale) SiO2 
 PCOD9190862
Probable space group: C 2/M
;
_chemical_formula_sum "Si O2"
_cell_formula_units_Z 64
_cell_length_a 20.734297
_cell_length_b 7.734829
_cell_length_c 22.995930
_cell_angle_alpha 90.000000
_cell_angle_beta 116.012732
_cell_angle_gamma 90.000000
_cell_volume 3314.393847
_symmetry_space_group_name_H-M "C 2/M"
_symmetry_group_IT_number 12
_symmetry_cell_setting 'monoclinic'
loop_
_space_group_symop_operation_xyz
x,y,z
-x,y,-z
-x,-y,-z
x,-y,z
1/2+x,1/2+y,z
1/2-x,1/2+y,-z
1/2-x,1/2-y,-z
1/2+x,1/2-y,z
loop_
_atom_site_type_symbol
_atom_site_label
_atom_site_fract_x
_atom_site_fract_y
_atom_site_fract_z
Si Si1 0.077454 0.297710 0.546011
Si Si2 0.772698 0.293467 0.443967
Si Si3 0.954853 0.711282 0.800188
Si Si4 0.328325 0.207337 0.054024
Si Si5 0.601747 0.790908 0.799845
Si Si6 0.850288 0.795741 0.310096
Si Si7 0.973055 0.288789 0.051807
Si Si8 0.200232 0.703817 0.298568
O O1 0.074455 0.500000 0.528384
O O2 0.147673 0.225024 0.540917
O O3 0.095625 0.284171 0.621447
O O4 0.000000 0.220822 0.500000
O O5 0.750000 0.250000 0.500000
O O6 0.718148 0.224777 0.373632
O O7 0.726187 0.000000 0.562265
O O8 0.954541 0.500000 0.798517
O O9 0.877101 0.775651 0.749787
O O10 0.021074 0.764966 0.785218
O O11 0.975902 0.761144 0.874225
O O12 0.347081 0.268318 0.126786
O O13 0.392781 0.268082 0.037509
O O14 0.333873 0.000000 0.057939
O O15 0.250000 0.250000 0.000000
O O16 0.626935 0.731966 0.746905
O O17 0.602265 0.000000 0.799565
O O18 0.770258 0.725844 0.292508
O O19 0.849624 0.000000 0.322069
O O20 0.972724 0.500000 0.050144
O O21 0.000000 0.227748 0.000000
O O22 0.197123 0.500000 0.283871
#
# Coordination Sequence:
#
# PCOD9190862 Si02
#       8
#     8   8   8   8   8   8   8   8
#     4   9  19  36  55  72  93 128 169 199 229 279
#     4  10  20  34  52  73  98 126 157 195 238 283
#     4   8  15  29  48  68  91 124 163 197 230 274
#     4   9  18  31  48  71  97 126 159 197 241 285
#     4   9  18  33  50  68  95 130 164 195 231 284
#     4  10  20  32  49  75 102 125 153 197 248 286
#     4   8  14  26  46  71  95 120 157 202 238 271
#     4   9  18  33  51  71  96 124 158 199 239 280
#
# _framework density 19.309716000000002
#
# number of rings (size 3 to 8) (size 9 to 14) (size 15 to 20)
#    0.000    3.000    0.000    2.250    0.000    3.750 
#    0.000    8.125    0.000    1.125    0.000    0.000 
#    0.000    0.000    0.000    0.000    0.000    0.000 
#
# Total GULP energy -178402.821052 kJ/mol
# GULP energy per Si atom -5575.088158 kJ/mol
# Density = 1.926577 g / cm^3
# Si number density = 19.309716 Si / 1000 Ang^3
#
#
#
# Elastic Constant Matrix: (Units=GPa)
#
#
# Indices 1 2 3 4 5 6 
#
# 1 139.6476 -3.9331 129.0508 0.0000 9.0095 0.0000
# 2 -3.9331 24.3506 -12.9912 0.0000 6.1413 0.0000
# 3 129.0508 -12.9912 146.5652 0.0000 9.2846 0.0000
# 4 0.0000 0.0000 0.0000 20.6922 0.0000 0.8290
# 5 9.0095 6.1413 9.2846 0.0000 47.4993 0.0000
# 6 0.0000 0.0000 0.0000 0.8290 0.0000 8.8707
#
#
#
# Elastic Compliance Matrix: (Units=1/GPa)
#
#
# Indices 1 2 3 4 5 6 
#
# 1 0.042472 -0.014145 -0.038736 0.000000 0.001345 0.000000
# 2 -0.014145 0.049826 0.017324 0.000000 -0.007145 0.000000
# 3 -0.038736 0.017324 0.042670 0.000000 -0.003233 0.000000
# 4 0.000000 0.000000 0.000000 0.048509 0.000000 -0.004534
# 5 0.001345 -0.007145 -0.003233 0.000000 0.022354 0.000000
# 6 0.000000 0.000000 0.000000 -0.004534 0.000000 0.113155
#
#
# Mechanical properties :
#
#
# Convention : Reuss Voigt Hill
#
# Bulk Modulus (GPa) = 15.66050 59.42407 37.54228
# Shear Modulus (GPa) = 12.15407 28.64154 20.39781
#
# Velocity S-wave (km/s) = 2.51156 3.85550 3.25368
# Velocity P-wave (km/s) = 4.06674 7.11764 5.79652
#
# Compressibility (1/GPa) = 0.06385493
#
# Stress axis : x y z
#
# Youngs Moduli (GPa) = 23.54487 20.06969 23.43564
#
# Poissons Ratio (x) = 0.28388 0.90780
# Poissons Ratio (y) = 0.33304 -0.40599
# Poissons Ratio (z) = 0.91203 -0.34768
#
# Static dielectric constant tensor:
#      x y z
#    x 1.681960 0.000000 0.017530 
#    y 0.000000 1.736050 0.000000 
#    z 0.017530 0.000000 1.643250 
# 
# From -- ./inp_files/320087.got.cif
#   From: 2010.05.17/outbox.cif.g08.bks.cpg/sg12_161_cif.got.tgz:320087.got - 2010.06.03 13:09:07.
