data_PCOD9190829
_publ_section_title
;
Structure prediction by ZEFSAII (Michael W. Deem and Ramdas Pophale) SiO2 
 PCOD9190829
Probable space group: C 2/M
;
_chemical_formula_sum "Si O2"
_cell_formula_units_Z 44
_cell_length_a 5.392438
_cell_length_b 25.191438
_cell_length_c 14.166393
_cell_angle_alpha 90.000000
_cell_angle_beta 110.494693
_cell_angle_gamma 90.000000
_cell_volume 1802.602914
_symmetry_space_group_name_H-M "C 2/M"
_symmetry_group_IT_number 12
_symmetry_cell_setting 'monoclinic'
loop_
_space_group_symop_operation_xyz
x,y,z
-x,y,-z
-x,-y,-z
x,-y,z
1/2+x,1/2+y,z
1/2-x,1/2+y,-z
1/2-x,1/2-y,-z
1/2+x,1/2-y,z
loop_
_atom_site_type_symbol
_atom_site_label
_atom_site_fract_x
_atom_site_fract_y
_atom_site_fract_z
Si Si1 0.421289 0.896448 0.381065
Si Si2 0.062391 0.090188 0.792171
Si Si3 0.419098 0.778067 0.377036
Si Si4 0.717836 0.664296 0.963475
Si Si5 0.809190 0.500000 0.567694
Si Si6 0.156274 0.557927 0.898442
O O1 0.500000 0.890204 0.500000
O O2 0.110413 0.908319 0.325460
O O3 0.461099 0.837901 0.344108
O O4 0.597465 0.945792 0.370146
O O5 0.853462 0.063215 0.836412
O O6 0.114909 0.147754 0.846961
O O7 0.348763 0.063741 0.829556
O O8 0.500000 0.776385 0.500000
O O9 0.615457 0.740699 0.343719
O O10 0.500000 0.690202 0.000000
O O11 0.000000 0.691419 0.000000
O O12 0.776004 0.607318 0.024880
O O13 0.500000 0.500000 0.500000
O O14 0.000000 0.500000 0.500000
O O15 0.196849 0.500000 0.947582
#
# Coordination Sequence:
#
# PCOD9190829 Si02
#       6
#     8   8   8   8   4   8
#     4  10  23  41  58  82 118 155 195 232 273 339
#     4  10  21  33  50  74 102 143 184 220 277 329
#     4   9  19  36  61  85 104 135 185 247 299 323
#     4   8  16  30  46  69  98 128 178 224 280 321
#     4  10  24  40  54  74 110 162 194 216 260 326
#     4  10  20  32  49  72 101 138 188 237 274 317
#
# _framework density 24.409147999999998
#
# number of rings (size 3 to 8) (size 9 to 14) (size 15 to 20)
#    0.000    2.545    0.000    0.545    2.545   16.000 
#    0.000    0.000    0.000    0.000    0.000    0.000 
#    0.000   39.273    0.000    0.000    0.000    0.000 
#
# Total GULP energy -122810.075891 kJ/mol
# GULP energy per Si atom -5582.276177 kJ/mol
# Density = 2.435359 g / cm^3
# Si number density = 24.409148 Si / 1000 Ang^3
#
#
#
# Elastic Constant Matrix: (Units=GPa)
#
#
# Indices 1 2 3 4 5 6 
#
# 1 190.6118 40.2228 47.8522 0.0000 42.9920 0.0000
# 2 40.2228 160.0021 15.0111 0.0000 14.4738 0.0000
# 3 47.8522 15.0111 129.6800 0.0000 40.2949 0.0000
# 4 0.0000 0.0000 0.0000 -96.5145 0.0000 -5.9202
# 5 42.9920 14.4738 40.2949 0.0000 49.3163 0.0000
# 6 0.0000 0.0000 0.0000 -5.9202 0.0000 9.8423
#
#
#
# Elastic Compliance Matrix: (Units=1/GPa)
#
#
# Indices 1 2 3 4 5 6 
#
# 1 0.006816 -0.001191 -0.000857 0.000000 -0.004892 0.000000
# 2 -0.001191 0.006633 -0.000062 0.000000 -0.000858 0.000000
# 3 -0.000857 -0.000062 0.010450 0.000000 -0.007773 0.000000
# 4 0.000000 0.000000 0.000000 -0.009992 0.000000 -0.006010
# 5 -0.004892 -0.000858 -0.007773 0.000000 0.031145 0.000000
# 6 0.000000 0.000000 0.000000 -0.006010 0.000000 0.097987
#
#
# Mechanical properties :
#
#
# Convention : Reuss Voigt Hill
#
# Bulk Modulus (GPa) = 50.81361 76.27400 63.54381
# Shear Modulus (GPa) = 32.50615 17.67601 25.09108
#
# Velocity S-wave (km/s) = 3.65323 2.69393 3.20962
# Velocity P-wave (km/s) = 6.21751 6.40252 6.31070
#
# Compressibility (1/GPa) = 0.01967977
#
# Stress axis : x y z
#
# Youngs Moduli (GPa) = 146.71121 150.76956 95.69348
#
# Poissons Ratio (x) = 0.17950 0.08203
# Poissons Ratio (y) = 0.17466 0.00591
# Poissons Ratio (z) = 0.12576 0.00931
#
# Static dielectric constant tensor:
#      x y z
#    x 1.996570 0.000000 -0.049690 
#    y 0.000000 1.992010 0.000000 
#    z -0.049690 0.000000 2.009850 
# 
# From -- ./inp_files/191967.got.cif
#   From: 2010.05.17/outbox.cif.g08.bks.cpg/sg12_96_cif.got.tgz:191967.got - 2010.06.03 13:09:07.
