data_PCOD9190949
_publ_section_title
;
Structure prediction by ZEFSAII (Michael W. Deem and Ramdas Pophale) SiO2 
 PCOD9190949
Probable space group: C 2/M
;
_chemical_formula_sum "Si O2"
_cell_formula_units_Z 40
_cell_length_a 23.877669
_cell_length_b 10.809576
_cell_length_c 9.497541
_cell_angle_alpha 90.000000
_cell_angle_beta 37.393167
_cell_angle_gamma 90.000000
_cell_volume 1488.680588
_symmetry_space_group_name_H-M "C 2/M"
_symmetry_group_IT_number 12
_symmetry_cell_setting 'monoclinic'
loop_
_space_group_symop_operation_xyz
x,y,z
-x,y,-z
-x,-y,-z
x,-y,z
1/2+x,1/2+y,z
1/2-x,1/2+y,-z
1/2-x,1/2-y,-z
1/2+x,1/2-y,z
loop_
_atom_site_type_symbol
_atom_site_label
_atom_site_fract_x
_atom_site_fract_y
_atom_site_fract_z
Si Si1 0.109916 0.873429 0.306603
Si Si2 0.147580 0.850998 0.846226
Si Si3 0.490295 0.138470 0.850785
Si Si4 0.102917 0.372934 0.359329
Si Si5 0.799680 0.861616 0.573773
O O1 0.148074 0.740763 0.189664
O O2 0.136858 0.874246 0.416415
O O3 0.000000 0.872005 0.500000
O O4 0.144488 0.000000 0.173667
O O5 0.143840 0.847643 0.683516
O O6 0.233368 0.758946 0.712266
O O7 0.150898 0.000000 0.871590
O O8 0.063587 0.766694 0.071827
O O9 0.580643 0.138503 0.570277
O O10 0.449807 0.000000 0.896608
O O11 0.500000 0.135821 0.000000
O O12 0.152377 0.500000 0.232570
O O13 0.000000 0.378911 0.500000
O O14 0.753384 0.000000 0.652450
#
# Coordination Sequence:
#
# PCOD9190949 Si02
#       5
#     8   8   8   8   8
#     4   9  17  30  51  77 101 130 171 216 260 308
#     4  10  20  32  50  77 107 141 178 218 264 315
#     4  10  20  33  51  77 108 140 174 217 269 319
#     4   9  18  32  50  73 102 136 172 211 258 313
#     4   9  18  33  51  74 108 144 175 213 266 322
#
# _framework density 26.869430000000001
#
# number of rings (size 3 to 8) (size 9 to 14) (size 15 to 20)
#    0.000    2.600    0.000    1.800    0.000    2.800 
#    0.000    0.000    0.000    4.800    0.000    2.800 
#    0.000    0.000    0.000    0.000    0.000    0.000 
#
# Total GULP energy -111398.125252 kJ/mol
# GULP energy per Si atom -5569.906263 kJ/mol
# Density = 2.680827 g / cm^3
# Si number density = 26.869430 Si / 1000 Ang^3
#
#
#
# Elastic Constant Matrix: (Units=GPa)
#
#
# Indices 1 2 3 4 5 6 
#
# 1 132.5369 -14.3011 38.2941 0.0000 38.1726 0.0000
# 2 -14.3011 359.3891 34.3285 0.0000 -8.1237 0.0000
# 3 38.2941 34.3285 61.2432 0.0000 4.9495 0.0000
# 4 0.0000 0.0000 0.0000 -3.3154 0.0000 -10.6466
# 5 38.1726 -8.1237 4.9495 0.0000 56.8265 0.0000
# 6 0.0000 0.0000 0.0000 -10.6466 0.0000 12.4960
#
#
#
# Elastic Compliance Matrix: (Units=1/GPa)
#
#
# Indices 1 2 3 4 5 6 
#
# 1 0.011862 0.001017 -0.007407 0.000000 -0.007178 0.000000
# 2 0.001017 0.003045 -0.002340 0.000000 -0.000044 0.000000
# 3 -0.007407 -0.002340 0.022052 0.000000 0.002721 0.000000
# 4 0.000000 0.000000 0.000000 -0.080735 0.000000 -0.068786
# 5 -0.007178 -0.000044 0.002721 0.000000 0.022176 0.000000
# 6 0.000000 0.000000 0.000000 -0.068786 0.000000 0.021420
#
#
# Mechanical properties :
#
#
# Convention : Reuss Voigt Hill
#
# Bulk Modulus (GPa) = 51.28206 74.42358 62.85282
# Shear Modulus (GPa) = 210.26007 46.19128 128.22567
#
# Velocity S-wave (km/s) = 8.85564 4.15070 6.91559
# Velocity P-wave (km/s) = 11.12161 7.12246 9.33862
#
# Compressibility (1/GPa) = 0.01950000
#
# Stress axis : x y z
#
# Youngs Moduli (GPa) = 84.29982 328.35763 45.34814
#
# Poissons Ratio (x) = -0.33405 0.33592
# Poissons Ratio (y) = -0.08576 0.10610
# Poissons Ratio (z) = 0.62445 0.76823
#
# Static dielectric constant tensor:
#      x y z
#    x 2.248460 0.000000 0.121750 
#    y 0.000000 2.328710 0.000000 
#    z 0.121750 0.000000 2.174580 
# 
# From -- ./inp_files/181840.got.cif
#   From: 2010.05.17/outbox.cif.g08.bks.cpg/sg12_91_cif.got.tgz:181840.got - 2010.06.03 13:09:07.
