data_PCOD9190152
_publ_section_title
;
Structure prediction by ZEFSAII (Michael W. Deem and Ramdas Pophale) SiO2 
 PCOD9190152
Probable space group: C 2/M
;
_chemical_formula_sum "Si O2"
_cell_formula_units_Z 64
_cell_length_a 20.908178
_cell_length_b 8.594197
_cell_length_c 18.987825
_cell_angle_alpha 90.000000
_cell_angle_beta 96.165851
_cell_angle_gamma 90.000000
_cell_volume 3392.165972
_symmetry_space_group_name_H-M "C 2/M"
_symmetry_group_IT_number 12
_symmetry_cell_setting 'monoclinic'
loop_
_space_group_symop_operation_xyz
x,y,z
-x,y,-z
-x,-y,-z
x,-y,z
1/2+x,1/2+y,z
1/2-x,1/2+y,-z
1/2-x,1/2-y,-z
1/2+x,1/2-y,z
loop_
_atom_site_type_symbol
_atom_site_label
_atom_site_fract_x
_atom_site_fract_y
_atom_site_fract_z
Si Si1 0.133883 0.811814 0.934021
Si Si2 0.629839 0.813502 0.089697
Si Si3 0.237657 0.810688 0.828735
Si Si4 0.483347 0.184932 0.300009
Si Si5 0.341126 0.688577 0.315651
Si Si6 0.003813 0.813798 0.148694
Si Si7 0.685801 0.687863 0.527957
Si Si8 0.550837 0.312060 0.444943
O O1 0.188866 0.763883 0.885248
O O2 0.064165 0.767952 0.894558
O O3 0.135670 0.000000 0.940566
O O4 0.142767 0.738040 0.011340
O O5 0.690271 0.760642 0.144471
O O6 0.563487 0.742482 0.109418
O O7 0.625725 0.000000 0.092504
O O8 0.208492 0.759767 0.750681
O O9 0.237709 0.000000 0.828047
O O10 0.412162 0.252431 0.305605
O O11 0.506959 0.244732 0.227242
O O12 0.528637 0.241859 0.368663
O O13 0.480451 0.000000 0.299248
O O14 0.343500 0.500000 0.315210
O O15 0.321335 0.738597 0.391613
O O16 0.004335 0.000000 0.153400
O O17 0.687257 0.500000 0.527976
O O18 0.750000 0.750000 0.500000
O O19 0.621761 0.736151 0.478155
O O20 0.500000 0.268166 0.500000
O O21 0.549175 0.500000 0.439229
#
# Coordination Sequence:
#
# PCOD9190152 Si02
#       8
#     8   8   8   8   8   8   8   8
#     4  10  20  38  63  85 110 158 210 242 287 361
#     4  11  23  37  56  89 128 155 191 252 307 347
#     4   9  19  37  62  87 115 156 202 243 294 357
#     4  12  24  37  60  94 123 149 193 255 309 345
#     4  10  19  40  65  84 113 161 205 238 288 359
#     4  11  23  41  63  84 115 160 205 243 292 364
#     4  10  22  38  62  91 122 159 199 245 295 349
#     4  10  20  39  64  88 118 160 205 237 282 354
#
# _framework density 18.867001999999999
#
# number of rings (size 3 to 8) (size 9 to 14) (size 15 to 20)
#    0.000    1.625    2.500    2.625    0.000    4.750 
#    0.000    3.125    0.000    0.000    0.000    0.000 
#    0.000    0.000    0.000    0.000    0.000    0.000 
#
# Total GULP energy -178835.234988 kJ/mol
# GULP energy per Si atom -5588.601093 kJ/mol
# Density = 1.882406 g / cm^3
# Si number density = 18.867002 Si / 1000 Ang^3
#
#
#
# Elastic Constant Matrix: (Units=GPa)
#
#
# Indices 1 2 3 4 5 6 
#
# 1 65.6037 8.7915 -11.3437 0.0000 13.6903 0.0000
# 2 8.7915 21.8333 12.4513 0.0000 7.5297 0.0000
# 3 -11.3437 12.4513 71.2337 0.0000 22.3423 0.0000
# 4 0.0000 0.0000 0.0000 22.3165 0.0000 1.7326
# 5 13.6903 7.5297 22.3423 0.0000 29.0656 0.0000
# 6 0.0000 0.0000 0.0000 1.7326 0.0000 22.6592
#
#
#
# Elastic Compliance Matrix: (Units=1/GPa)
#
#
# Indices 1 2 3 4 5 6 
#
# 1 0.021276 -0.008863 0.009698 0.000000 -0.015180 0.000000
# 2 -0.008863 0.056154 -0.010506 0.000000 -0.002297 0.000000
# 3 0.009698 -0.010506 0.023716 0.000000 -0.020077 0.000000
# 4 0.000000 0.000000 0.000000 0.045077 0.000000 -0.003447
# 5 -0.015180 -0.002297 -0.020077 0.000000 0.057583 0.000000
# 6 0.000000 0.000000 0.000000 -0.003447 0.000000 0.044396
#
#
# Mechanical properties :
#
#
# Convention : Reuss Voigt Hill
#
# Bulk Modulus (GPa) = 12.22429 19.82990 16.02709
# Shear Modulus (GPa) = 16.96003 24.72636 20.84320
#
# Velocity S-wave (km/s) = 3.00146 3.62409 3.32737
# Velocity P-wave (km/s) = 4.30174 5.29578 4.82443
#
# Compressibility (1/GPa) = 0.08180437
#
# Stress axis : x y z
#
# Youngs Moduli (GPa) = 47.00237 17.80819 42.16535
#
# Poissons Ratio (x) = 0.15783 -0.40894
# Poissons Ratio (y) = 0.41656 0.44301
# Poissons Ratio (z) = -0.45585 0.18710
#
# Static dielectric constant tensor:
#      x y z
#    x 1.628470 0.000000 0.015040 
#    y 0.000000 1.645670 0.000000 
#    z 0.015040 0.000000 1.632170 
# 
# From -- ./inp_files/281329.got.cif
#   From: 2010.05.17/outbox.cif.g08.bks.cpg/sg12_141_cif.got.tgz:281329.got - 2010.06.03 13:09:07.
