data_PCOD9190033
_publ_section_title
;
Structure prediction by ZEFSAII (Michael W. Deem and Ramdas Pophale) SiO2 
 PCOD9190033
Probable space group: C 2/M
;
_chemical_formula_sum "Si O2"
_cell_formula_units_Z 40
_cell_length_a 14.160641
_cell_length_b 14.854203
_cell_length_c 9.253812
_cell_angle_alpha 90.000000
_cell_angle_beta 94.301992
_cell_angle_gamma 90.000000
_cell_volume 1941.009224
_symmetry_space_group_name_H-M "C 2/M"
_symmetry_group_IT_number 12
_symmetry_cell_setting 'monoclinic'
loop_
_space_group_symop_operation_xyz
x,y,z
-x,y,-z
-x,-y,-z
x,-y,z
1/2+x,1/2+y,z
1/2-x,1/2+y,-z
1/2-x,1/2-y,-z
1/2+x,1/2-y,z
loop_
_atom_site_type_symbol
_atom_site_label
_atom_site_fract_x
_atom_site_fract_y
_atom_site_fract_z
Si Si1 0.566906 0.100458 0.379114
Si Si2 0.275222 0.768449 0.168656
Si Si3 0.614915 0.605070 0.296156
Si Si4 0.509824 0.757745 0.829983
Si Si5 0.270178 0.347150 0.431892
O O1 0.500000 0.135463 0.500000
O O2 0.559956 0.168342 0.245572
O O3 0.674420 0.098176 0.444969
O O4 0.534965 0.000000 0.337654
O O5 0.201456 0.842149 0.223361
O O6 0.385486 0.794445 0.191295
O O7 0.276700 0.676756 0.264248
O O8 0.250000 0.750000 0.000000
O O9 0.608543 0.500000 0.256026
O O10 0.522351 0.663717 0.246282
O O11 0.642626 0.613284 0.468933
O O12 0.500000 0.748216 0.000000
O O13 0.250000 0.250000 0.500000
#
# Coordination Sequence:
#
# PCOD9190033 Si02
#       5
#     8   8   8   8   8
#     4  11  22  38  66  99 128 166 217 270 330 399
#     4  11  22  43  68  93 131 177 215 272 334 390
#     4  11  24  44  69  98 134 177 223 272 332 403
#     4  12  24  42  68  94 135 174 221 274 337 392
#     4  10  19  39  64  91 129 171 211 265 328 391
#
# _framework density 20.607835999999999
#
# number of rings (size 3 to 8) (size 9 to 14) (size 15 to 20)
#    0.000    1.000    6.000    3.000    0.000    3.200 
#    0.000    7.000    0.000    0.000    0.000    0.000 
#    0.000    0.000    0.000    0.000    0.000    0.000 
#
# Total GULP energy -111573.336992 kJ/mol
# GULP energy per Si atom -5578.666850 kJ/mol
# Density = 2.056093 g / cm^3
# Si number density = 20.607836 Si / 1000 Ang^3
#
#
#
# Elastic Constant Matrix: (Units=GPa)
#
#
# Indices 1 2 3 4 5 6 
#
# 1 59.3628 6.8737 10.6537 0.0000 15.3790 0.0000
# 2 6.8737 109.1543 35.5056 0.0000 15.4476 0.0000
# 3 10.6537 35.5056 133.1950 0.0000 22.2672 0.0000
# 4 0.0000 0.0000 0.0000 11.9003 0.0000 -5.7518
# 5 15.3790 15.4476 22.2672 0.0000 26.9909 0.0000
# 6 0.0000 0.0000 0.0000 -5.7518 0.0000 6.2264
#
#
#
# Elastic Compliance Matrix: (Units=1/GPa)
#
#
# Indices 1 2 3 4 5 6 
#
# 1 0.019786 0.000315 0.000288 0.000000 -0.011692 0.000000
# 2 0.000315 0.010443 -0.002065 0.000000 -0.004453 0.000000
# 3 0.000288 -0.002065 0.009123 0.000000 -0.006509 0.000000
# 4 0.000000 0.000000 0.000000 0.151813 0.000000 0.140239
# 5 -0.011692 -0.004453 -0.006509 0.000000 0.051630 0.000000
# 6 0.000000 0.000000 0.000000 0.140239 0.000000 0.290153
#
#
# Mechanical properties :
#
#
# Convention : Reuss Voigt Hill
#
# Bulk Modulus (GPa) = 27.45006 45.30867 36.37937
# Shear Modulus (GPa) = 9.12383 25.60215 17.36299
#
# Velocity S-wave (km/s) = 2.10641 3.52852 2.90581
# Velocity P-wave (km/s) = 4.38920 6.21567 5.38050
#
# Compressibility (1/GPa) = 0.03642979
#
# Stress axis : x y z
#
# Youngs Moduli (GPa) = 50.53973 95.75527 109.60978
#
# Poissons Ratio (x) = -0.03016 -0.03157
# Poissons Ratio (y) = -0.01592 0.22630
# Poissons Ratio (z) = -0.01456 0.19769
#
# Static dielectric constant tensor:
#      x y z
#    x 1.813950 0.000000 -0.023110 
#    y 0.000000 4.593400 0.000000 
#    z -0.023110 0.000000 1.774390 
# 
# From -- ./inp_files/58967.got.cif
#   From: 2010.05.17/outbox.cif.g08.bks.cpg/sg12_30_cif.got.tgz:58967.got - 2010.06.03 13:09:07.
