data_PCOD9190951
_publ_section_title
;
Structure prediction by ZEFSAII (Michael W. Deem and Ramdas Pophale) SiO2 
 PCOD9190951
Probable space group: C 2/M
;
_chemical_formula_sum "Si O2"
_cell_formula_units_Z 52
_cell_length_a 22.471679
_cell_length_b 18.414765
_cell_length_c 6.034627
_cell_angle_alpha 90.000000
_cell_angle_beta 72.402319
_cell_angle_gamma 90.000000
_cell_volume 2380.331766
_symmetry_space_group_name_H-M "C 2/M"
_symmetry_group_IT_number 12
_symmetry_cell_setting 'monoclinic'
loop_
_space_group_symop_operation_xyz
x,y,z
-x,y,-z
-x,-y,-z
x,-y,z
1/2+x,1/2+y,z
1/2-x,1/2+y,-z
1/2-x,1/2-y,-z
1/2+x,1/2-y,z
loop_
_atom_site_type_symbol
_atom_site_label
_atom_site_fract_x
_atom_site_fract_y
_atom_site_fract_z
Si Si1 0.813239 0.342456 0.290815
Si Si2 0.825971 0.202636 0.032114
Si Si3 0.966653 0.000000 0.291212
Si Si4 0.245707 0.419827 0.270327
Si Si5 0.596624 0.779645 0.432487
Si Si6 0.386213 0.080797 0.823210
Si Si7 0.439610 0.341033 0.223016
O O1 0.791357 0.272187 0.178303
O O2 0.758961 0.384158 0.481585
O O3 0.860003 0.311064 0.422216
O O4 0.855121 0.394606 0.089703
O O5 0.781236 0.134103 0.067321
O O6 0.880040 0.177741 0.140571
O O7 0.860099 0.232472 0.778739
O O8 0.932461 0.922168 0.326775
O O9 0.000000 0.000000 0.500000
O O10 0.000000 0.000000 0.000000
O O11 0.273276 0.500000 0.243623
O O12 0.174629 0.425042 0.265521
O O13 0.574838 0.850541 0.316160
O O14 0.552627 0.722028 0.603299
O O15 0.415203 0.000000 0.802247
O O16 0.500000 0.339664 0.000000
#
# Coordination Sequence:
#
# PCOD9190951 Si02
#       7
#     8   8   4   8   8   8   8
#     4   9  18  34  54  77 110 152 192 234 288 351
#     4  10  21  35  54  83 114 148 197 244 293 357
#     4  10  24  42  66  94 118 164 210 260 314 364
#     4  10  20  32  50  77 115 153 192 238 287 349
#     4   9  20  36  57  84 111 150 193 245 297 358
#     4   9  18  33  55  85 116 153 192 236 292 355
#     4  10  23  40  62  84 114 154 201 250 306 359
#
# _framework density 21.845693000000001
#
# number of rings (size 3 to 8) (size 9 to 14) (size 15 to 20)
#    0.000    2.462    0.000    0.923    5.385    8.615 
#    1.385    0.000    0.000    0.462    0.000    9.692 
#    0.000    0.000    0.000    0.000    0.000    0.000 
#
# Total GULP energy -145005.398769 kJ/mol
# GULP energy per Si atom -5577.130722 kJ/mol
# Density = 2.179597 g / cm^3
# Si number density = 21.845693 Si / 1000 Ang^3
#
#
#
# Elastic Constant Matrix: (Units=GPa)
#
#
# Indices 1 2 3 4 5 6 
#
# 1 32.1219 23.5858 5.4823 0.0000 3.6052 0.0000
# 2 23.5858 216.6922 70.3539 0.0000 -18.5740 0.0000
# 3 5.4823 70.3539 92.0287 0.0000 -6.7079 0.0000
# 4 0.0000 0.0000 0.0000 4.4625 0.0000 -11.1607
# 5 3.6052 -18.5740 -6.7079 0.0000 15.3503 0.0000
# 6 0.0000 0.0000 0.0000 -11.1607 0.0000 21.4681
#
#
#
# Elastic Compliance Matrix: (Units=1/GPa)
#
#
# Indices 1 2 3 4 5 6 
#
# 1 0.036763 -0.005614 0.001009 0.000000 -0.014986 0.000000
# 2 -0.005614 0.007491 -0.004788 0.000000 0.008290 0.000000
# 3 0.001009 -0.004788 0.014488 0.000000 0.000301 0.000000
# 4 0.000000 0.000000 0.000000 -0.746489 0.000000 -0.388079
# 5 -0.014986 0.008290 0.000301 0.000000 0.078828 0.000000
# 6 0.000000 0.000000 0.000000 -0.388079 0.000000 -0.155171
#
#
# Mechanical properties :
#
#
# Convention : Reuss Voigt Hill
#
# Bulk Modulus (GPa) = 25.02666 59.96519 42.49593
# Shear Modulus (GPa) = -6.83073 24.35091 8.76009
#
# Velocity S-wave (km/s) = -1.77020 3.34230 2.00467
# Velocity P-wave (km/s) = 2.70238 6.51181 4.98530
#
# Compressibility (1/GPa) = 0.03995739
#
# Stress axis : x y z
#
# Youngs Moduli (GPa) = 27.20121 133.49344 69.02112
#
# Poissons Ratio (x) = 0.74938 -0.06965
# Poissons Ratio (y) = 0.15270 0.33047
# Poissons Ratio (z) = -0.02745 0.63917
#
# Static dielectric constant tensor:
#      x y z
#    x 1.833740 0.000000 0.020530 
#    y 0.000000 1.841970 0.000000 
#    z 0.020530 0.000000 1.813870 
# 
# From -- ./inp_files/28504.got.cif
#   From: 2010.05.17/outbox.cif.g08.bks.cpg/sg12_15_cif.got.tgz:28504.got - 2010.06.03 13:09:07.
