data_PCOD9190276
_publ_section_title
;
Structure prediction by ZEFSAII (Michael W. Deem and Ramdas Pophale) SiO2 
 PCOD9190276
Probable space group: C 2/M
;
_chemical_formula_sum "Si O2"
_cell_formula_units_Z 56
_cell_length_a 18.407825
_cell_length_b 25.156480
_cell_length_c 5.388668
_cell_angle_alpha 90.000000
_cell_angle_beta 101.521457
_cell_angle_gamma 90.000000
_cell_volume 2445.081626
_symmetry_space_group_name_H-M "C 2/M"
_symmetry_group_IT_number 12
_symmetry_cell_setting 'monoclinic'
loop_
_space_group_symop_operation_xyz
x,y,z
-x,y,-z
-x,-y,-z
x,-y,z
1/2+x,1/2+y,z
1/2-x,1/2+y,-z
1/2-x,1/2-y,-z
1/2+x,1/2-y,z
loop_
_atom_site_type_symbol
_atom_site_label
_atom_site_fract_x
_atom_site_fract_y
_atom_site_fract_z
Si Si1 0.717731 0.323711 0.222553
Si Si2 0.090881 0.598222 0.047806
Si Si3 0.627583 0.302203 0.664382
Si Si4 0.083273 0.577575 0.540491
Si Si5 0.081583 0.921063 0.633547
Si Si6 0.112960 0.689298 0.726932
Si Si7 0.171805 0.057749 0.193979
O O1 0.670857 0.305301 0.430459
O O2 0.801824 0.305212 0.294623
O O3 0.718550 0.388075 0.209411
O O4 0.682049 0.304425 0.940493
O O5 0.121233 0.568890 0.308194
O O6 0.118479 0.566664 0.826044
O O7 0.110114 0.659500 0.993630
O O8 0.000000 0.595806 0.000000
O O9 0.582338 0.356811 0.646969
O O10 0.582128 0.247868 0.673143
O O11 0.078279 0.642538 0.536871
O O12 0.000000 0.556639 0.500000
O O13 0.133232 0.937837 0.437894
O O14 0.000000 0.939034 0.500000
O O15 0.113365 0.939025 0.922672
O O16 0.208787 0.000000 0.202186
#
# Coordination Sequence:
#
# PCOD9190276 Si02
#       7
#     8   8   8   8   8   8   8
#     4  10  22  35  48  71  96 126 169 199 239 303
#     4   8  16  28  40  64  90 118 161 199 223 265
#     4  10  22  34  46  69 102 130 159 203 238 285
#     4   8  16  27  41  63  90 118 158 199 224 265
#     4  10  21  37  54  79 102 127 167 205 256 314
#     4  10  20  29  53  64  98 137 168 190 242 289
#     4  10  21  38  57  76 101 126 161 221 267 294
#
# _framework density 22.903120000000001
#
# number of rings (size 3 to 8) (size 9 to 14) (size 15 to 20)
#    0.857    1.714    0.000    1.714    4.000    2.286 
#    0.000    0.000    0.000    0.000    0.000    0.000 
#    0.000    1.143    0.000    0.000    0.000    2.571 
#
# Total GULP energy -155904.716193 kJ/mol
# GULP energy per Si atom -5568.025578 kJ/mol
# Density = 2.285099 g / cm^3
# Si number density = 22.903120 Si / 1000 Ang^3
#
#
#
# Elastic Constant Matrix: (Units=GPa)
#
#
# Indices 1 2 3 4 5 6 
#
# 1 23.2102 2.4217 3.1999 0.0000 4.8825 0.0000
# 2 2.4217 155.3593 19.7354 0.0000 0.4309 0.0000
# 3 3.1999 19.7354 163.3013 0.0000 -26.8124 0.0000
# 4 0.0000 0.0000 0.0000 14.4207 0.0000 76.8972
# 5 4.8825 0.4309 -26.8124 0.0000 22.4055 0.0000
# 6 0.0000 0.0000 0.0000 76.8972 0.0000 54.0437
#
#
#
# Elastic Compliance Matrix: (Units=1/GPa)
#
#
# Indices 1 2 3 4 5 6 
#
# 1 0.046474 -0.000285 -0.003159 0.000000 -0.013902 0.000000
# 2 -0.000285 0.006571 -0.000995 0.000000 -0.001254 0.000000
# 3 -0.003159 -0.000995 0.007992 0.000000 0.010272 0.000000
# 4 0.000000 0.000000 0.000000 -0.010527 0.000000 0.014979
# 5 -0.013902 -0.001254 0.010272 0.000000 0.059977 0.000000
# 6 0.000000 0.000000 0.000000 0.014979 0.000000 -0.002809
#
#
# Mechanical properties :
#
#
# Convention : Reuss Voigt Hill
#
# Bulk Modulus (GPa) = 19.17124 43.62053 31.39589
# Shear Modulus (GPa) = 37.32958 39.27488 38.30223
#
# Velocity S-wave (km/s) = 4.04157 4.14554 4.09388
# Velocity P-wave (km/s) = 5.49252 6.48082 6.00703
#
# Compressibility (1/GPa) = 0.05216148
#
# Stress axis : x y z
#
# Youngs Moduli (GPa) = 21.51732 152.18522 125.12121
#
# Poissons Ratio (x) = 0.04331 0.39524
# Poissons Ratio (y) = 0.00612 0.12443
# Poissons Ratio (z) = 0.06797 0.15135
#
# Static dielectric constant tensor:
#      x y z
#    x 1.803540 0.000000 0.004640 
#    y 0.000000 1.901010 0.000000 
#    z 0.004640 0.000000 1.949140 
# 
# From -- ./inp_files/21669.got.cif
#   From: 2010.05.17/outbox.cif.g08.bks.cpg/sg12_11_cif.got.tgz:21669.got - 2010.06.03 13:09:07.
