data_PCOD9190952
_publ_section_title
;
Structure prediction by ZEFSAII (Michael W. Deem and Ramdas Pophale) SiO2 
 PCOD9190952
Probable space group: C 2/M
;
_chemical_formula_sum "Si O2"
_cell_formula_units_Z 48
_cell_length_a 7.831670
_cell_length_b 15.770876
_cell_length_c 14.131903
_cell_angle_alpha 90.000000
_cell_angle_beta 83.453844
_cell_angle_gamma 90.000000
_cell_volume 1734.083962
_symmetry_space_group_name_H-M "C 2/M"
_symmetry_group_IT_number 12
_symmetry_cell_setting 'monoclinic'
loop_
_space_group_symop_operation_xyz
x,y,z
-x,y,-z
-x,-y,-z
x,-y,z
1/2+x,1/2+y,z
1/2-x,1/2+y,-z
1/2-x,1/2-y,-z
1/2+x,1/2-y,z
loop_
_atom_site_type_symbol
_atom_site_label
_atom_site_fract_x
_atom_site_fract_y
_atom_site_fract_z
Si Si1 0.025951 0.396911 0.276651
Si Si2 0.314340 0.661546 0.065796
Si Si3 0.684749 0.858312 0.886699
Si Si4 0.163511 0.098499 0.390777
Si Si5 0.691760 0.163347 0.449586
Si Si6 0.532118 0.405278 0.759245
O O1 0.038511 0.500000 0.280668
O O2 0.979033 0.369419 0.171600
O O3 0.844909 0.370120 0.337437
O O4 0.166285 0.352991 0.338760
O O5 0.276527 0.758394 0.098728
O O6 0.340768 0.618545 0.164717
O O7 0.500000 0.662981 0.000000
O O8 0.192230 0.615961 0.996711
O O9 0.845712 0.901625 0.824249
O O10 0.179950 0.101721 0.502337
O O11 0.019465 0.143847 0.334569
O O12 0.158678 0.000000 0.367350
O O13 0.500000 0.144970 0.500000
O O14 0.750000 0.250000 0.500000
O O15 0.586035 0.500000 0.731695
#
# Coordination Sequence:
#
# PCOD9190952 Si02
#       6
#     8   8   8   8   8   8
#     4   9  17  30  50  72  94 127 169 210 248 291
#     4   9  18  29  44  69 100 129 159 201 258 301
#     4   9  17  29  45  69  98 127 162 204 247 293
#     4   8  15  29  48  71  98 123 160 207 245 286
#     4  10  20  32  50  78 104 131 165 205 252 303
#     4   9  17  29  49  73  95 126 166 207 248 292
#
# _framework density 27.680323000000001
#
# number of rings (size 3 to 8) (size 9 to 14) (size 15 to 20)
#    0.000    3.000    0.000    2.000    2.333    5.667 
#    0.000    0.000    0.000    4.000    0.000   14.000 
#    0.000    0.000    0.000    0.000    0.000    0.000 
#
# Total GULP energy -133845.731206 kJ/mol
# GULP energy per Si atom -5576.905467 kJ/mol
# Density = 2.761732 g / cm^3
# Si number density = 27.680323 Si / 1000 Ang^3
#
#
#
# Elastic Constant Matrix: (Units=GPa)
#
#
# Indices 1 2 3 4 5 6 
#
# 1 134.7666 -5.0297 92.2519 0.0000 65.5657 0.0000
# 2 -5.0297 61.2374 29.9643 0.0000 27.7843 0.0000
# 3 92.2519 29.9643 332.7232 0.0000 59.5099 0.0000
# 4 0.0000 0.0000 0.0000 2.6602 0.0000 9.3642
# 5 65.5657 27.7843 59.5099 0.0000 89.8916 0.0000
# 6 0.0000 0.0000 0.0000 9.3642 0.0000 13.0473
#
#
#
# Elastic Compliance Matrix: (Units=1/GPa)
#
#
# Indices 1 2 3 4 5 6 
#
# 1 0.015477 0.008072 -0.002896 0.000000 -0.011867 0.000000
# 2 0.008072 0.023370 -0.002266 0.000000 -0.011611 0.000000
# 3 -0.002896 -0.002266 0.003981 0.000000 0.000177 0.000000
# 4 0.000000 0.000000 0.000000 -0.246273 0.000000 0.176752
# 5 -0.011867 -0.011611 0.000177 0.000000 0.023251 0.000000
# 6 0.000000 0.000000 0.000000 0.176752 0.000000 -0.050212
#
#
# Mechanical properties :
#
#
# Convention : Reuss Voigt Hill
#
# Bulk Modulus (GPa) = 20.55567 84.78892 52.67230
# Shear Modulus (GPa) = -22.72616 48.55586 12.91485
#
# Velocity S-wave (km/s) = -2.86846 4.19282 2.16237
# Velocity P-wave (km/s) = 1.87843 7.35783 5.03036
#
# Compressibility (1/GPa) = 0.04864837
#
# Stress axis : x y z
#
# Youngs Moduli (GPa) = 64.61181 42.79041 251.20769
#
# Poissons Ratio (x) = -0.34541 0.72743
# Poissons Ratio (y) = -0.52156 0.56926
# Poissons Ratio (z) = 0.18710 0.09697
#
# Static dielectric constant tensor:
#      x y z
#    x 2.328300 0.000000 0.101590 
#    y 0.000000 2.127830 0.000000 
#    z 0.101590 0.000000 2.373300 
# 
# From -- ./inp_files/205701.got.cif
#   From: 2010.05.17/outbox.cif.g08.bks.cpg/sg12_103_cif.got.tgz:205701.got - 2010.06.03 13:09:07.
