data_PCOD9190195
_publ_section_title
;
Structure prediction by ZEFSAII (Michael W. Deem and Ramdas Pophale) SiO2 
 PCOD9190195
Probable space group: C 2/M
;
_chemical_formula_sum "Si O2"
_cell_formula_units_Z 58
_cell_length_a 10.199710
_cell_length_b 22.706251
_cell_length_c 23.200608
_cell_angle_alpha 90.000000
_cell_angle_beta 32.929657
_cell_angle_gamma 90.000000
_cell_volume 2920.917177
_symmetry_space_group_name_H-M "C 2/M"
_symmetry_group_IT_number 12
_symmetry_cell_setting 'monoclinic'
loop_
_space_group_symop_operation_xyz
x,y,z
-x,y,-z
-x,-y,-z
x,-y,z
1/2+x,1/2+y,z
1/2-x,1/2+y,-z
1/2-x,1/2-y,-z
1/2+x,1/2-y,z
loop_
_atom_site_type_symbol
_atom_site_label
_atom_site_fract_x
_atom_site_fract_y
_atom_site_fract_z
Si Si1 0.089756 0.616956 0.401570
Si Si2 0.619598 0.569611 0.516457
Si Si3 0.894943 0.904833 0.804661
Si Si4 0.236633 0.324130 0.075080
Si Si5 0.732347 0.637090 0.274866
Si Si6 0.262662 0.691818 0.928935
Si Si7 0.500000 0.000000 0.000000
Si Si8 0.479667 0.746444 0.575442
O O1 0.327721 0.576683 0.307170
O O2 0.132650 0.687773 0.380306
O O3 0.000000 0.608544 0.500000
O O4 0.871338 0.600534 0.439450
O O5 0.500000 0.587624 0.500000
O O6 0.659994 0.500000 0.500552
O O7 0.423061 0.587044 0.636945
O O8 0.820571 0.870057 0.773659
O O9 0.929414 0.857999 0.842772
O O10 0.685282 0.949169 0.902896
O O11 0.174669 0.257062 0.115857
O O12 0.021076 0.365973 0.173830
O O13 0.500000 0.340691 0.000000
O O14 0.250760 0.316435 0.001296
O O15 0.649242 0.697439 0.337097
O O16 0.000000 0.680711 0.000000
O O17 0.500000 0.730223 0.500000
O O18 0.750000 0.750000 0.500000
#
# Coordination Sequence:
#
# PCOD9190195 Si02
#       8
#     8   8   8   8   8   8   2   8
#     4  11  23  42  69 106 136 177 231 284 335 413
#     4  11  26  46  65  95 137 178 225 270 336 402
#     4  12  24  43  67  98 135 172 229 292 336 400
#     4  10  22  36  63  92 125 172 224 264 335 410
#     4  12  22  41  68  93 134 183 213 280 349 404
#     4  10  19  41  58  88 132 167 215 276 329 396
#     4  12  28  44  70 100 130 180 236 302 362 378
#     4  11  22  40  64 104 146 177 221 274 342 425
#
# _framework density 19.856777000000001
#
# number of rings (size 3 to 8) (size 9 to 14) (size 15 to 20)
#    0.000    0.966    4.828    2.069    1.931    1.379 
#    0.000    0.000    0.000    0.414    0.000    0.000 
#    0.000    0.000    0.000    0.000    0.000    0.000 
#
# Total GULP energy -161450.414144 kJ/mol
# GULP energy per Si atom -5567.255660 kJ/mol
# Density = 1.981158 g / cm^3
# Si number density = 19.856777 Si / 1000 Ang^3
#
#
#
# Elastic Constant Matrix: (Units=GPa)
#
#
# Indices 1 2 3 4 5 6 
#
# 1 116.8709 24.6165 48.2520 0.0261 -17.8194 -0.0835
# 2 24.6165 80.4663 39.9516 -0.1455 6.8821 0.0140
# 3 48.2520 39.9516 114.9293 -0.1308 -12.6436 0.0787
# 4 0.0261 -0.1455 -0.1308 26.6473 0.1146 4.4894
# 5 -17.8194 6.8821 -12.6436 0.1146 26.4099 -0.0265
# 6 -0.0835 0.0140 0.0787 4.4894 -0.0265 12.1477
#
#
#
# Elastic Compliance Matrix: (Units=1/GPa)
#
#
# Indices 1 2 3 4 5 6 
#
# 1 0.011442 -0.002509 -0.003178 -0.000096 0.006853 0.000152
# 2 -0.002509 0.016812 -0.005762 0.000114 -0.008833 -0.000061
# 3 -0.003178 -0.005762 0.012633 0.000026 0.005405 -0.000095
# 4 -0.000096 0.000114 0.000026 0.040021 -0.000270 -0.014792
# 5 0.006853 -0.008833 0.005405 -0.000270 0.047379 0.000226
# 6 0.000152 -0.000061 -0.000095 -0.014792 0.000226 0.087789
#
#
# Mechanical properties :
#
#
# Convention : Reuss Voigt Hill
#
# Bulk Modulus (GPa) = 55.59100 59.76740 57.67920
# Shear Modulus (GPa) = 20.41058 26.33742 23.37400
#
# Velocity S-wave (km/s) = 3.20955 3.64589 3.43465
# Velocity P-wave (km/s) = 6.46465 6.92011 6.69625
#
# Compressibility (1/GPa) = 0.01798852
#
# Stress axis : x y z
#
# Youngs Moduli (GPa) = 87.39737 59.48217 79.15732
#
# Poissons Ratio (x) = 0.14923 0.25156
# Poissons Ratio (y) = 0.21926 0.45613
# Poissons Ratio (z) = 0.27775 0.34276
#
# Static dielectric constant tensor:
#      x y z
#    x 1.695330 -0.000030 0.019740 
#    y -0.000030 1.741160 0.000060 
#    z 0.019740 0.000060 1.731990 
# 
# From -- ./inp_files/302443.got.cif
#   From: 2010.05.17/outbox.cif.g08.bks.cpg/sg12_152_cif.got.tgz:302443.got - 2010.06.03 13:09:07.
