data_PCOD9190376
_publ_section_title
;
Structure prediction by ZEFSAII (Michael W. Deem and Ramdas Pophale) SiO2 
 PCOD9190376
Probable space group: C 2/M
;
_chemical_formula_sum "Si O2"
_cell_formula_units_Z 64
_cell_length_a 20.166576
_cell_length_b 25.588106
_cell_length_c 17.781013
_cell_angle_alpha 90.000000
_cell_angle_beta 157.270478
_cell_angle_gamma 90.000000
_cell_volume 3545.218004
_symmetry_space_group_name_H-M "C 2/M"
_symmetry_group_IT_number 12
_symmetry_cell_setting 'monoclinic'
loop_
_space_group_symop_operation_xyz
x,y,z
-x,y,-z
-x,-y,-z
x,-y,z
1/2+x,1/2+y,z
1/2-x,1/2+y,-z
1/2-x,1/2-y,-z
1/2+x,1/2-y,z
loop_
_atom_site_type_symbol
_atom_site_label
_atom_site_fract_x
_atom_site_fract_y
_atom_site_fract_z
Si Si1 0.066135 0.059670 0.814802
Si Si2 0.401467 0.325164 0.161587
Si Si3 0.628232 0.773217 0.982176
Si Si4 0.249535 0.218830 0.577568
Si Si5 0.188441 0.115514 0.673499
Si Si6 0.292155 0.059924 0.630773
Si Si7 0.332588 0.059237 0.959583
Si Si8 0.686645 0.740215 0.671878
O O1 0.119275 0.117906 0.898721
O O2 0.861525 0.064245 0.589388
O O3 0.100883 0.000000 0.881964
O O4 0.169286 0.060881 0.843579
O O5 0.265845 0.311380 0.086070
O O6 0.587941 0.319404 0.396576
O O7 0.383872 0.278346 0.083061
O O8 0.684132 0.753553 0.123298
O O9 0.443366 0.801216 0.790236
O O10 0.250000 0.250000 0.500000
O O11 0.224287 0.255234 0.625028
O O12 0.249957 0.093299 0.659456
O O13 0.178329 0.177449 0.657060
O O14 0.000000 0.095361 0.500000
O O15 0.313120 0.098380 0.870605
O O16 0.487711 0.068869 0.809512
O O17 0.283456 0.000000 0.647543
O O18 0.338850 0.000000 0.935408
O O19 0.500000 0.760659 0.500000
#
# Coordination Sequence:
#
# PCOD9190376 Si02
#       8
#     8   8   8   8   8   8   8   8
#     4  10  20  33  49  68  97 133 170 212 257 306
#     4  10  20  36  53  78 108 139 181 220 265 317
#     4  10  21  35  55  77 105 143 176 222 267 309
#     4  10  21  36  55  79 106 137 173 216 264 316
#     4  11  20  28  43  65  90 129 170 211 249 288
#     4  10  20  31  43  61  89 128 173 213 248 287
#     4  10  20  31  43  63  92 129 175 215 246 290
#     4  11  21  34  52  75 106 135 175 218 258 317
#
# _framework density 18.052485999999998
#
# number of rings (size 3 to 8) (size 9 to 14) (size 15 to 20)
#    0.000    1.750    2.500    2.625    0.000    6.500 
#    0.000    0.000    0.000    0.000    0.000    0.000 
#    0.000    8.500    0.000    0.000    0.000    0.500 
#
# Total GULP energy -178251.297159 kJ/mol
# GULP energy per Si atom -5570.353036 kJ/mol
# Density = 1.801140 g / cm^3
# Si number density = 18.052486 Si / 1000 Ang^3
#
#
#
# Elastic Constant Matrix: (Units=GPa)
#
#
# Indices 1 2 3 4 5 6 
#
# 1 64.9633 3.7807 29.9618 -0.0001 -3.1181 0.0000
# 2 3.7807 72.1200 12.9465 0.0000 -2.3465 0.0000
# 3 29.9618 12.9465 86.4967 -0.0001 10.6814 -0.0001
# 4 -0.0001 0.0000 -0.0001 16.1892 -0.0001 -4.6533
# 5 -3.1181 -2.3465 10.6814 -0.0001 29.0651 -0.0001
# 6 0.0000 0.0000 -0.0001 -4.6533 -0.0001 11.3075
#
#
#
# Elastic Compliance Matrix: (Units=1/GPa)
#
#
# Indices 1 2 3 4 5 6 
#
# 1 0.018915 0.000455 -0.007202 0.000000 0.004713 0.000000
# 2 0.000455 0.014374 -0.002575 0.000000 0.002156 0.000000
# 3 -0.007202 -0.002575 0.015255 0.000000 -0.006587 0.000000
# 4 0.000000 0.000000 0.000000 0.070056 0.000000 0.028830
# 5 0.004713 0.002156 -0.006587 0.000000 0.037506 0.000000
# 6 0.000000 0.000000 0.000000 0.028830 0.000000 0.100301
#
#
# Mechanical properties :
#
#
# Convention : Reuss Voigt Hill
#
# Bulk Modulus (GPa) = 33.44622 35.21755 34.33189
# Shear Modulus (GPa) = 17.54279 23.10510 20.32395
#
# Velocity S-wave (km/s) = 3.12070 3.58143 3.35897
# Velocity P-wave (km/s) = 5.61716 6.05417 5.83975
#
# Compressibility (1/GPa) = 0.02989874
#
# Stress axis : x y z
#
# Youngs Moduli (GPa) = 52.86906 69.56839 65.55385
#
# Poissons Ratio (x) = -0.03163 0.47211
# Poissons Ratio (y) = -0.02403 0.16881
# Poissons Ratio (z) = 0.38076 0.17915
#
# Static dielectric constant tensor:
#      x y z
#    x 1.632330 0.000000 0.036710 
#    y 0.000000 1.663800 0.000000 
#    z 0.036710 0.000000 1.682280 
# 
# From -- ./inp_files/286444.got.cif
#   From: 2010.05.17/outbox.cif.g08.bks.cpg/sg12_144_cif.got.tgz:286444.got - 2010.06.03 13:09:07.
