data_PCOD9190418
_publ_section_title
;
Structure prediction by ZEFSAII (Michael W. Deem and Ramdas Pophale) SiO2 
 PCOD9190418
Probable space group: C 2/M
;
_chemical_formula_sum "Si O2"
_cell_formula_units_Z 64
_cell_length_a 27.565321
_cell_length_b 9.320258
_cell_length_c 15.135806
_cell_angle_alpha 90.000000
_cell_angle_beta 111.149527
_cell_angle_gamma 90.000000
_cell_volume 3626.698991
_symmetry_space_group_name_H-M "C 2/M"
_symmetry_group_IT_number 12
_symmetry_cell_setting 'monoclinic'
loop_
_space_group_symop_operation_xyz
x,y,z
-x,y,-z
-x,-y,-z
x,-y,z
1/2+x,1/2+y,z
1/2-x,1/2+y,-z
1/2-x,1/2-y,-z
1/2+x,1/2-y,z
loop_
_atom_site_type_symbol
_atom_site_label
_atom_site_fract_x
_atom_site_fract_y
_atom_site_fract_z
Si Si1 0.421199 0.668362 0.388327
Si Si2 0.039564 0.332100 0.219880
Si Si3 0.694578 0.671157 0.456917
Si Si4 0.541107 0.335572 0.945304
Si Si5 0.327367 0.170785 0.385408
Si Si6 0.793594 0.831345 0.735430
Si Si7 0.031188 0.832007 0.384843
Si Si8 0.879276 0.668206 0.888472
O O1 0.407461 0.500000 0.370910
O O2 0.370863 0.767746 0.348466
O O3 0.444450 0.688885 0.502428
O O4 0.469544 0.698401 0.355615
O O5 0.028782 0.500000 0.222472
O O6 0.083563 0.316489 0.173597
O O7 0.988907 0.248838 0.150822
O O8 0.054562 0.263586 0.323046
O O9 0.698185 0.500000 0.475255
O O10 0.750000 0.750000 0.500000
O O11 0.663949 0.746658 0.515799
O O12 0.680663 0.689994 0.345026
O O13 0.552000 0.500000 0.928098
O O14 0.500000 0.337374 0.000000
O O15 0.591561 0.253943 0.014911
O O16 0.268018 0.200198 0.315155
O O17 0.331844 0.000000 0.400990
O O18 0.824338 0.735773 0.825106
O O19 0.798915 0.000000 0.760169
O O20 0.038017 0.000000 0.366861
O O21 0.875611 0.500000 0.906498
#
# Coordination Sequence:
#
# PCOD9190418 Si02
#       8
#     8   8   8   8   8   8   8   8
#     4   9  19  35  52  70  94 126 164 207 247 285
#     4  10  20  32  48  73 101 127 158 198 243 286
#     4   9  17  29  43  61  87 121 159 199 235 274
#     4   9  17  31  50  70  94 128 162 192 233 287
#     4  10  20  32  47  67  93 126 163 202 245 288
#     4   9  19  32  44  64  93 127 164 196 230 284
#     4   9  19  35  52  71  95 125 164 203 244 293
#     4  10  20  31  46  71 102 130 158 198 239 279
#
# _framework density 17.646901
#
# number of rings (size 3 to 8) (size 9 to 14) (size 15 to 20)
#    0.000    2.625    0.000    3.375    1.750    7.000 
#    0.000    1.250    0.000    0.000    0.000    0.875 
#    0.000    0.000    0.000    0.000    0.000    0.000 
#
# Total GULP energy -178403.026542 kJ/mol
# GULP energy per Si atom -5575.094579 kJ/mol
# Density = 1.760674 g / cm^3
# Si number density = 17.646901 Si / 1000 Ang^3
#
#
#
# Elastic Constant Matrix: (Units=GPa)
#
#
# Indices 1 2 3 4 5 6 
#
# 1 54.2759 31.5744 3.9525 0.0000 15.7753 0.0000
# 2 31.5744 77.4885 32.7364 0.0000 19.2488 0.0000
# 3 3.9525 32.7364 40.4903 0.0000 15.5005 0.0000
# 4 0.0000 0.0000 0.0000 21.7731 0.0000 -0.7481
# 5 15.7753 19.2488 15.5005 0.0000 23.6600 0.0000
# 6 0.0000 0.0000 0.0000 -0.7481 0.0000 17.9961
#
#
#
# Elastic Compliance Matrix: (Units=1/GPa)
#
#
# Indices 1 2 3 4 5 6 
#
# 1 0.031719 -0.015033 0.016647 0.000000 -0.019825 0.000000
# 2 -0.015033 0.027753 -0.021576 0.000000 0.001579 0.000000
# 3 0.016647 -0.021576 0.050781 0.000000 -0.026815 0.000000
# 4 0.000000 0.000000 0.000000 0.045994 0.000000 0.001912
# 5 -0.019825 0.001579 -0.026815 0.000000 0.071766 0.000000
# 6 0.000000 0.000000 0.000000 0.001912 0.000000 0.055647
#
#
# Mechanical properties :
#
#
# Convention : Reuss Voigt Hill
#
# Bulk Modulus (GPa) = 14.21843 34.30902 24.26373
# Shear Modulus (GPa) = 14.40804 19.61861 17.01332
#
# Velocity S-wave (km/s) = 2.86048 3.33788 3.10836
# Velocity P-wave (km/s) = 4.35712 5.85998 5.16352
#
# Compressibility (1/GPa) = 0.07033128
#
# Stress axis : x y z
#
# Youngs Moduli (GPa) = 31.52637 36.03160 19.69221
#
# Poissons Ratio (x) = 0.54166 -0.32782
# Poissons Ratio (y) = 0.47394 0.42487
# Poissons Ratio (z) = -0.52483 0.77741
#
# Static dielectric constant tensor:
#      x y z
#    x 1.655070 0.000000 0.007660 
#    y 0.000000 1.586720 0.000000 
#    z 0.007660 0.000000 1.598190 
# 
# From -- ./inp_files/244197.got.cif
#   From: 2010.05.17/outbox.cif.g08.bks.cpg/sg12_123_cif.got.tgz:244197.got - 2010.06.03 13:09:07.
