data_PCOD9190964
_publ_section_title
;
Structure prediction by ZEFSAII (Michael W. Deem and Ramdas Pophale) SiO2 
 PCOD9190964
Probable space group: C 2/M
;
_chemical_formula_sum "Si O2"
_cell_formula_units_Z 56
_cell_length_a 27.991214
_cell_length_b 9.282932
_cell_length_c 10.283939
_cell_angle_alpha 90.000000
_cell_angle_beta 104.483133
_cell_angle_gamma 90.000000
_cell_volume 2587.265700
_symmetry_space_group_name_H-M "C 2/M"
_symmetry_group_IT_number 12
_symmetry_cell_setting 'monoclinic'
loop_
_space_group_symop_operation_xyz
x,y,z
-x,y,-z
-x,-y,-z
x,-y,z
1/2+x,1/2+y,z
1/2-x,1/2+y,-z
1/2-x,1/2-y,-z
1/2+x,1/2-y,z
loop_
_atom_site_type_symbol
_atom_site_label
_atom_site_fract_x
_atom_site_fract_y
_atom_site_fract_z
Si Si1 0.860467 0.668570 0.762639
Si Si2 0.916809 0.340322 0.529526
Si Si3 0.101551 0.334231 0.776677
Si Si4 0.550192 0.663256 0.087898
Si Si5 0.502386 0.659477 0.675780
Si Si6 0.760409 0.172457 0.644972
Si Si7 0.209887 0.673692 0.881024
O O1 0.851401 0.500000 0.784546
O O2 0.881246 0.678769 0.628298
O O3 0.902444 0.736240 0.883439
O O4 0.812046 0.764829 0.732273
O O5 0.939148 0.500000 0.560835
O O6 0.889722 0.335594 0.373855
O O7 0.962541 0.232884 0.553946
O O8 0.093368 0.500000 0.811760
O O9 0.050769 0.246666 0.754448
O O10 0.153251 0.280771 0.870759
O O11 0.557592 0.500000 0.038617
O O12 0.534240 0.646857 0.225856
O O13 0.500000 0.730433 0.000000
O O14 0.518441 0.500000 0.649077
O O15 0.750000 0.250000 0.500000
O O16 0.722980 0.202588 0.738360
O O17 0.762155 0.000000 0.625942
O O18 0.212408 0.500000 0.900335
O O19 0.250000 0.750000 0.000000
#
# Coordination Sequence:
#
# PCOD9190964 Si02
#       7
#     8   8   8   8   8   8   8
#     4  10  20  35  57  85 114 145 188 241 294 348
#     4   9  18  34  55  79 111 148 182 221 276 342
#     4  10  20  36  56  76 105 147 187 224 276 341
#     4   9  19  36  54  74 107 148 186 227 280 343
#     4  10  20  32  50  80 111 138 177 227 277 333
#     4  11  23  41  65  92 121 155 200 252 305 360
#     4  10  24  44  63  86 119 158 202 251 300 355
#
# _framework density 21.644470999999999
#
# number of rings (size 3 to 8) (size 9 to 14) (size 15 to 20)
#    0.000    2.143    0.000    2.571    0.000    8.857 
#    0.000    5.714    0.000    0.000    0.000    0.000 
#    0.000    0.000    0.000    0.000    0.000    0.000 
#
# Total GULP energy -156211.497727 kJ/mol
# GULP energy per Si atom -5578.982062 kJ/mol
# Density = 2.159521 g / cm^3
# Si number density = 21.644471 Si / 1000 Ang^3
#
#
#
# Elastic Constant Matrix: (Units=GPa)
#
#
# Indices 1 2 3 4 5 6 
#
# 1 107.1111 61.7353 27.0413 0.0000 24.8038 0.0000
# 2 61.7353 87.1957 18.0091 0.0000 14.3942 0.0000
# 3 27.0413 18.0091 55.2386 0.0000 16.8515 0.0000
# 4 0.0000 0.0000 0.0000 30.6904 0.0000 6.0642
# 5 24.8038 14.3942 16.8515 0.0000 42.5799 0.0000
# 6 0.0000 0.0000 0.0000 6.0642 0.0000 26.9556
#
#
#
# Elastic Compliance Matrix: (Units=1/GPa)
#
#
# Indices 1 2 3 4 5 6 
#
# 1 0.017774 -0.010992 -0.003517 0.000000 -0.005246 0.000000
# 2 -0.010992 0.019422 -0.001025 0.000000 0.000243 0.000000
# 3 -0.003517 -0.001025 0.022096 0.000000 -0.006349 0.000000
# 4 0.000000 0.000000 0.000000 0.034099 0.000000 -0.007671
# 5 -0.005246 0.000243 -0.006349 0.000000 0.028972 0.000000
# 6 0.000000 0.000000 0.000000 -0.007671 0.000000 0.038824
#
#
# Mechanical properties :
#
#
# Convention : Reuss Voigt Hill
#
# Bulk Modulus (GPa) = 35.43047 51.45742 43.44394
# Shear Modulus (GPa) = 24.79361 29.56251 27.17806
#
# Velocity S-wave (km/s) = 3.38819 3.69971 3.54737
# Velocity P-wave (km/s) = 5.63127 6.48661 6.07401
#
# Compressibility (1/GPa) = 0.02822430
#
# Stress axis : x y z
#
# Youngs Moduli (GPa) = 56.26116 51.48681 45.25637
#
# Poissons Ratio (x) = 0.56594 0.15917
# Poissons Ratio (y) = 0.61842 0.04641
# Poissons Ratio (z) = 0.19788 0.05279
#
# Static dielectric constant tensor:
#      x y z
#    x 1.802950 0.000000 -0.056940 
#    y 0.000000 1.798410 0.000000 
#    z -0.056940 0.000000 1.893830 
# 
# From -- ./inp_files/181082.got.cif
#   From: 2010.05.17/outbox.cif.g08.bks.cpg/sg12_91_cif.got.tgz:181082.got - 2010.06.03 13:09:07.
