data_PCOD9190664
_publ_section_title
;
Structure prediction by ZEFSAII (Michael W. Deem and Ramdas Pophale) SiO2 
 PCOD9190664
Probable space group: C 2/M
;
_chemical_formula_sum "Si O2"
_cell_formula_units_Z 56
_cell_length_a 22.845629
_cell_length_b 7.387205
_cell_length_c 20.203977
_cell_angle_alpha 90.000000
_cell_angle_beta 134.264535
_cell_angle_gamma 90.000000
_cell_volume 2441.793383
_symmetry_space_group_name_H-M "C 2/M"
_symmetry_group_IT_number 12
_symmetry_cell_setting 'monoclinic'
loop_
_space_group_symop_operation_xyz
x,y,z
-x,y,-z
-x,-y,-z
x,-y,z
1/2+x,1/2+y,z
1/2-x,1/2+y,-z
1/2-x,1/2-y,-z
1/2+x,1/2-y,z
loop_
_atom_site_type_symbol
_atom_site_label
_atom_site_fract_x
_atom_site_fract_y
_atom_site_fract_z
Si Si1 0.693167 0.283436 0.612615
Si Si2 0.152057 0.778207 0.726809
Si Si3 0.403098 0.708179 0.942031
Si Si4 0.368821 0.283917 0.773767
Si Si5 0.316178 0.284547 0.108367
Si Si6 0.023720 0.209539 0.440246
Si Si7 0.451405 0.722204 0.120324
O O1 0.682654 0.500000 0.605971
O O2 0.683352 0.214544 0.680379
O O3 0.786734 0.249341 0.668133
O O4 0.615397 0.213269 0.509697
O O5 0.199579 0.717963 0.829776
O O6 0.057284 0.717879 0.658481
O O7 0.152806 0.000000 0.724078
O O8 0.376084 0.500000 0.926307
O O9 0.361941 0.790260 0.844040
O O10 0.500000 0.706659 0.000000
O O11 0.403319 0.785758 0.016062
O O12 0.377202 0.500000 0.787481
O O13 0.454351 0.220073 0.810481
O O14 0.322501 0.500000 0.119592
O O15 0.401913 0.219518 0.145407
O O16 0.250000 0.250000 0.000000
O O17 0.000000 0.212171 0.500000
O O18 0.028629 0.000000 0.422856
O O19 0.450799 0.500000 0.117839
#
# Coordination Sequence:
#
# PCOD9190664 Si02
#       7
#     8   8   8   8   8   8   8
#     4   9  16  26  44  69  91 109 137 180 224 260
#     4   8  15  28  45  65  88 114 145 179 213 253
#     4   7  11  21  37  55  74 102 140 172 194 229
#     4   9  16  26  43  64  85 112 144 178 214 253
#     4  10  20  32  47  66  88 115 147 181 212 250
#     4   7  11  23  43  63  83 111 144 175 210 254
#     4   8  15  28  43  59  82 115 151 176 202 250
#
# _framework density 22.933965000000001
#
# number of rings (size 3 to 8) (size 9 to 14) (size 15 to 20)
#    0.000    3.714    0.000    3.429    2.000    0.000 
#    0.000    0.714    0.000    9.429    0.000    0.000 
#    0.000    0.000    0.000    0.000    0.000    0.000 
#
# Total GULP energy -156011.631081 kJ/mol
# GULP energy per Si atom -5571.843967 kJ/mol
# Density = 2.288177 g / cm^3
# Si number density = 22.933965 Si / 1000 Ang^3
#
#
#
# Elastic Constant Matrix: (Units=GPa)
#
#
# Indices 1 2 3 4 5 6 
#
# 1 45.2758 0.2324 9.2708 0.0000 13.8328 0.0000
# 2 0.2324 79.4903 -5.7634 0.0000 -2.9716 0.0000
# 3 9.2708 -5.7634 87.2886 0.0000 29.9668 0.0000
# 4 0.0000 0.0000 0.0000 12.3628 0.0000 8.8424
# 5 13.8328 -2.9716 29.9668 0.0000 38.9542 0.0000
# 6 0.0000 0.0000 0.0000 8.8424 0.0000 0.5900
#
#
#
# Elastic Compliance Matrix: (Units=1/GPa)
#
#
# Indices 1 2 3 4 5 6 
#
# 1 0.024804 -0.000381 0.000509 0.000000 -0.009228 0.000000
# 2 -0.000381 0.012652 0.000677 0.000000 0.000580 0.000000
# 3 0.000509 0.000677 0.015615 0.000000 -0.012141 0.000000
# 4 0.000000 0.000000 0.000000 -0.008322 0.000000 0.124726
# 5 -0.009228 0.000580 -0.012141 0.000000 0.038333 0.000000
# 6 0.000000 0.000000 0.000000 0.124726 0.000000 -0.174382
#
#
# Mechanical properties :
#
#
# Convention : Reuss Voigt Hill
#
# Bulk Modulus (GPa) = 18.28793 24.39269 21.34031
# Shear Modulus (GPa) = -66.94980 24.26906 -21.34037
#
# Velocity S-wave (km/s) = -5.40886 3.25655 -3.05374
# Velocity P-wave (km/s) = 5.56922 4.97989 1.76309
#
# Compressibility (1/GPa) = 0.05468088
#
# Stress axis : x y z
#
# Youngs Moduli (GPa) = 40.31583 79.03886 64.04037
#
# Poissons Ratio (x) = 0.03008 -0.03257
# Poissons Ratio (y) = 0.01535 -0.04334
# Poissons Ratio (z) = -0.02050 -0.05349
#
# Static dielectric constant tensor:
#      x y z
#    x 1.878700 0.000000 0.014410 
#    y 0.000000 1.913300 0.000000 
#    z 0.014410 0.000000 1.924350 
# 
# From -- ./inp_files/324787.got.cif
#   From: 2010.05.17/outbox.cif.g08.bks.cpg/sg12_163_cif.got.tgz:324787.got - 2010.06.03 13:09:07.
