data_PCOD9190390
_publ_section_title
;
Structure prediction by ZEFSAII (Michael W. Deem and Ramdas Pophale) SiO2 
 PCOD9190390
Probable space group: C 2/M
;
_chemical_formula_sum "Si O2"
_cell_formula_units_Z 48
_cell_length_a 23.211178
_cell_length_b 8.830185
_cell_length_c 16.546132
_cell_angle_alpha 90.000000
_cell_angle_beta 59.009694
_cell_angle_gamma 90.000000
_cell_volume 2907.188599
_symmetry_space_group_name_H-M "C 2/M"
_symmetry_group_IT_number 12
_symmetry_cell_setting 'monoclinic'
loop_
_space_group_symop_operation_xyz
x,y,z
-x,y,-z
-x,-y,-z
x,-y,z
1/2+x,1/2+y,z
1/2-x,1/2+y,-z
1/2-x,1/2-y,-z
1/2+x,1/2-y,z
loop_
_atom_site_type_symbol
_atom_site_label
_atom_site_fract_x
_atom_site_fract_y
_atom_site_fract_z
Si Si1 0.875761 0.181708 0.278721
Si Si2 0.269365 0.182582 0.860593
Si Si3 0.147142 0.317331 0.043808
Si Si4 0.180766 0.181307 0.515431
Si Si5 0.725899 0.817664 0.326152
Si Si6 0.000554 0.317275 0.093349
O O1 0.873036 0.221710 0.376255
O O2 0.803069 0.224369 0.293310
O O3 0.936696 0.255313 0.187193
O O4 0.880786 0.000000 0.268888
O O5 0.323806 0.226790 0.889284
O O6 0.286827 0.228786 0.756911
O O7 0.263885 0.000000 0.865133
O O8 0.198596 0.250259 0.941093
O O9 0.149659 0.500000 0.036553
O O10 0.071125 0.268721 0.082053
O O11 0.250000 0.250000 0.500000
O O12 0.176684 0.245815 0.428226
O O13 0.185802 0.000000 0.509378
O O14 0.721393 0.000000 0.335769
O O15 0.998014 0.500000 0.096809
O O16 0.000000 0.269269 0.000000
#
# Coordination Sequence:
#
# PCOD9190390 Si02
#       6
#     8   8   8   8   8   8
#     4   9  18  30  44  65  91 116 144 179 218 263
#     4   9  17  30  48  67  89 117 149 187 226 265
#     4   9  18  31  45  65  92 119 150 186 223 265
#     4   9  17  29  45  67  93 118 147 184 224 265
#     4   9  17  29  46  69  92 115 148 187 226 266
#     4  10  20  31  44  65  92 120 149 180 216 262
#
# _framework density 16.510795999999999
#
# number of rings (size 3 to 8) (size 9 to 14) (size 15 to 20)
#    0.000    2.833    0.000    2.500    0.000    5.000 
#    0.000    0.000    0.000    1.000    0.000    7.000 
#    0.000    0.000    0.000    0.000    0.000    0.000 
#
# Total GULP energy -133700.644050 kJ/mol
# GULP energy per Si atom -5570.860169 kJ/mol
# Density = 1.647322 g / cm^3
# Si number density = 16.510796 Si / 1000 Ang^3
#
#
#
# Elastic Constant Matrix: (Units=GPa)
#
#
# Indices 1 2 3 4 5 6 
#
# 1 61.4845 19.1699 60.8480 0.0000 4.6045 -0.0001
# 2 19.1699 11.1468 35.5925 0.0000 4.5786 -0.0001
# 3 60.8480 35.5925 169.4450 0.0000 20.2675 0.0000
# 4 0.0000 0.0000 0.0000 33.8303 0.0000 -1.0030
# 5 4.6045 4.5786 20.2675 0.0000 29.1211 0.0000
# 6 -0.0001 -0.0001 0.0000 -1.0030 0.0000 12.2048
#
#
#
# Elastic Compliance Matrix: (Units=1/GPa)
#
#
# Indices 1 2 3 4 5 6 
#
# 1 0.035559 -0.062268 -0.000205 0.000000 0.004311 0.000000
# 2 -0.062268 0.381769 -0.056536 0.000000 -0.010831 0.000003
# 3 -0.000205 -0.056536 0.018308 0.000000 -0.003820 0.000000
# 4 0.000000 0.000000 0.000000 0.029632 0.000000 0.002435
# 5 0.004311 -0.010831 -0.003820 0.000000 0.038020 0.000000
# 6 0.000000 0.000003 0.000000 0.002435 0.000000 0.082135
#
#
# Mechanical properties :
#
#
# Convention : Reuss Voigt Hill
#
# Bulk Modulus (GPa) = 5.06028 52.58859 28.82443
# Shear Modulus (GPa) = 5.62232 23.46230 14.54231
#
# Velocity S-wave (km/s) = 1.84733 3.77374 2.97101
# Velocity P-wave (km/s) = 2.76073 7.13501 5.40971
#
# Compressibility (1/GPa) = 0.19761753
#
# Stress axis : x y z
#
# Youngs Moduli (GPa) = 28.12245 2.61938 54.62153
#
# Poissons Ratio (x) = 0.16310 0.01121
# Poissons Ratio (y) = 1.75114 3.08807
# Poissons Ratio (z) = 0.00577 0.14809
#
# Static dielectric constant tensor:
#      x y z
#    x 1.563510 0.000000 0.032910 
#    y 0.000000 1.555140 0.000000 
#    z 0.032910 0.000000 1.557910 
# 
# From -- ./inp_files/281819.got.cif
#   From: 2010.05.17/outbox.cif.g08.bks.cpg/sg12_141_cif.got.tgz:281819.got - 2010.06.03 13:09:07.
