data_PCOD9190049
_publ_section_title
;
Structure prediction by ZEFSAII (Michael W. Deem and Ramdas Pophale) SiO2 
 PCOD9190049
Probable space group: C 2/M
;
_chemical_formula_sum "Si O2"
_cell_formula_units_Z 40
_cell_length_a 11.987559
_cell_length_b 19.390512
_cell_length_c 9.162153
_cell_angle_alpha 90.000000
_cell_angle_beta 80.781879
_cell_angle_gamma 90.000000
_cell_volume 2102.192162
_symmetry_space_group_name_H-M "C 2/M"
_symmetry_group_IT_number 12
_symmetry_cell_setting 'monoclinic'
loop_
_space_group_symop_operation_xyz
x,y,z
-x,y,-z
-x,-y,-z
x,-y,z
1/2+x,1/2+y,z
1/2-x,1/2+y,-z
1/2-x,1/2-y,-z
1/2+x,1/2-y,z
loop_
_atom_site_type_symbol
_atom_site_label
_atom_site_fract_x
_atom_site_fract_y
_atom_site_fract_z
Si Si1 0.597372 0.138558 0.699250
Si Si2 0.459300 0.500000 0.790901
Si Si3 0.218913 0.500000 0.694531
Si Si4 0.000000 0.122933 0.000000
Si Si5 0.218578 0.000000 0.654555
Si Si6 0.340269 0.138768 0.653219
Si Si7 0.814820 0.766738 0.136112
O O1 0.651525 0.068656 0.751272
O O2 0.464112 0.131769 0.697136
O O3 0.648513 0.147318 0.524394
O O4 0.625740 0.201386 0.800557
O O5 0.347596 0.500000 0.718920
O O6 0.454923 0.569562 0.888137
O O7 0.582706 0.500000 0.688820
O O8 0.229364 0.500000 0.517732
O O9 0.094823 0.173355 0.915929
O O10 0.268418 0.070463 0.709223
O O11 0.276836 0.203961 0.732109
O O12 0.750000 0.750000 0.000000
#
# Coordination Sequence:
#
# PCOD9190049 Si02
#       7
#     8   4   4   4   4   8   8
#     4  10  22  40  62  91 121 156 201 249 306 358
#     4  11  21  40  59  87 124 157 202 248 296 361
#     4  10  21  37  62  92 117 153 198 254 302 359
#     4  11  24  38  60  83 120 164 200 237 304 354
#     4  10  19  39  65  88 117 156 201 248 305 353
#     4  10  21  40  64  88 121 158 200 250 300 363
#     4  12  23  39  60  87 124 163 201 248 298 360
#
# _framework density 19.027756
#
# number of rings (size 3 to 8) (size 9 to 14) (size 15 to 20)
#    0.000    1.400    2.000    3.900    0.000    2.400 
#    0.000    2.000    0.000    4.200    0.000    0.000 
#    0.000    0.000    0.000    0.000    0.000    0.000 
#
# Total GULP energy -111662.557343 kJ/mol
# GULP energy per Si atom -5583.127867 kJ/mol
# Density = 1.898445 g / cm^3
# Si number density = 19.027756 Si / 1000 Ang^3
#
#
#
# Elastic Constant Matrix: (Units=GPa)
#
#
# Indices 1 2 3 4 5 6 
#
# 1 90.8555 52.0472 17.5403 0.0000 4.1047 0.0000
# 2 52.0472 147.0245 39.6135 0.0000 9.4212 0.0000
# 3 17.5403 39.6135 31.3798 0.0000 10.7414 0.0000
# 4 0.0000 0.0000 0.0000 6.3482 0.0000 -22.4282
# 5 4.1047 9.4212 10.7414 0.0000 31.3750 0.0000
# 6 0.0000 0.0000 0.0000 -22.4282 0.0000 19.4954
#
#
#
# Elastic Compliance Matrix: (Units=1/GPa)
#
#
# Indices 1 2 3 4 5 6 
#
# 1 0.013924 -0.004278 -0.002490 0.000000 0.000316 0.000000
# 2 -0.004278 0.011688 -0.012861 0.000000 0.001453 0.000000
# 3 -0.002490 -0.012861 0.054442 0.000000 -0.014451 0.000000
# 4 0.000000 0.000000 0.000000 -0.051403 0.000000 -0.059136
# 5 0.000316 0.001453 -0.014451 0.000000 0.036342 0.000000
# 6 0.000000 0.000000 0.000000 -0.059136 0.000000 -0.016738
#
#
# Mechanical properties :
#
#
# Convention : Reuss Voigt Hill
#
# Bulk Modulus (GPa) = 24.51288 54.18465 39.34876
# Shear Modulus (GPa) = 49.45044 22.11433 35.78238
#
# Velocity S-wave (km/s) = 5.10343 3.41282 4.34122
# Velocity P-wave (km/s) = 6.90198 6.63839 6.77147
#
# Compressibility (1/GPa) = 0.04079488
#
# Stress axis : x y z
#
# Youngs Moduli (GPa) = 71.81919 85.55597 18.36833
#
# Poissons Ratio (x) = 0.36605 0.04574
# Poissons Ratio (y) = 0.30727 0.23624
# Poissons Ratio (z) = 0.17883 1.10034
#
# Static dielectric constant tensor:
#      x y z
#    x 1.646880 0.000000 0.011710 
#    y 0.000000 1.653980 0.000000 
#    z 0.011710 0.000000 1.694840 
# 
# From -- ./inp_files/47114.got.cif
#   From: 2010.05.17/outbox.cif.g08.bks.cpg/sg12_24_cif.got.tgz:47114.got - 2010.06.03 13:09:07.
