data_PCOD9190475
_publ_section_title
;
Structure prediction by ZEFSAII (Michael W. Deem and Ramdas Pophale) SiO2 
 PCOD9190475
Probable space group: C 2/M
;
_chemical_formula_sum "Si O2"
_cell_formula_units_Z 60
_cell_length_a 8.851189
_cell_length_b 25.364804
_cell_length_c 17.856000
_cell_angle_alpha 90.000000
_cell_angle_beta 118.416658
_cell_angle_gamma 90.000000
_cell_volume 3525.804353
_symmetry_space_group_name_H-M "C 2/M"
_symmetry_group_IT_number 12
_symmetry_cell_setting 'monoclinic'
loop_
_space_group_symop_operation_xyz
x,y,z
-x,y,-z
-x,-y,-z
x,-y,z
1/2+x,1/2+y,z
1/2-x,1/2+y,-z
1/2-x,1/2-y,-z
1/2+x,1/2-y,z
loop_
_atom_site_type_symbol
_atom_site_label
_atom_site_fract_x
_atom_site_fract_y
_atom_site_fract_z
Si Si1 0.615792 0.701235 0.393401
Si Si2 0.214028 0.839914 0.739418
Si Si3 0.127219 0.061809 0.101856
Si Si4 0.147549 0.695932 0.972695
Si Si5 0.902849 0.139078 0.128428
Si Si6 0.000000 0.720543 0.500000
Si Si7 0.417520 0.854078 0.200567
Si Si8 0.187525 0.219315 0.238930
O O1 0.465424 0.658002 0.347957
O O2 0.817990 0.689217 0.456338
O O3 0.536815 0.741388 0.436483
O O4 0.636139 0.723022 0.313694
O O5 0.190774 0.865252 0.814890
O O6 0.381259 0.863157 0.739041
O O7 0.251990 0.777853 0.765815
O O8 0.302311 0.095860 0.149490
O O9 0.015376 0.087822 0.141329
O O10 0.161097 0.000000 0.116657
O O11 0.000000 0.069148 0.000000
O O12 0.093519 0.683420 0.875567
O O13 0.250000 0.750000 0.000000
O O14 0.271572 0.649631 0.030931
O O15 0.000000 0.699270 0.000000
O O16 0.026580 0.190943 0.160410
O O17 0.336513 0.821964 0.250950
#
# Coordination Sequence:
#
# PCOD9190475 Si02
#       8
#     8   8   8   8   8   4   8   8
#     4  10  20  31  49  69 104 144 188 207 235 286
#     4  11  19  33  48  74 105 140 171 209 262 305
#     4  10  21  39  55  68  92 132 184 239 285 316
#     4  12  23  32  44  71 106 139 174 221 257 296
#     4  10  21  33  47  70  99 135 181 221 261 306
#     4  10  20  34  48  72 102 148 198 202 220 294
#     4  11  22  32  52  72 101 136 181 228 265 310
#     4  10  20  32  47  74 105 145 175 204 258 307
#
# _framework density 17.017392999999998
#
# number of rings (size 3 to 8) (size 9 to 14) (size 15 to 20)
#    0.000    1.467    4.000    3.200    3.733    0.000 
#    0.000    0.667    0.000    2.400    0.000    0.000 
#    0.000    0.000    0.000  213.600    0.000    0.000 
#
# Total GULP energy -167020.810164 kJ/mol
# GULP energy per Si atom -5567.360339 kJ/mol
# Density = 1.697866 g / cm^3
# Si number density = 17.017393 Si / 1000 Ang^3
#
#
#
# Elastic Constant Matrix: (Units=GPa)
#
#
# Indices 1 2 3 4 5 6 
#
# 1 133.3175 38.0609 30.9096 0.0000 12.5257 0.0000
# 2 38.0609 73.4422 10.2122 0.0000 1.2471 0.0000
# 3 30.9096 10.2122 57.3294 0.0000 4.9712 0.0000
# 4 0.0000 0.0000 0.0000 6.9438 0.0000 3.1236
# 5 12.5257 1.2471 4.9712 0.0000 39.3882 0.0000
# 6 0.0000 0.0000 0.0000 3.1236 0.0000 12.4528
#
#
#
# Elastic Compliance Matrix: (Units=1/GPa)
#
#
# Indices 1 2 3 4 5 6 
#
# 1 0.010055 -0.004558 -0.004393 0.000000 -0.002499 0.000000
# 2 -0.004558 0.016029 -0.000485 0.000000 0.001003 0.000000
# 3 -0.004393 -0.000485 0.019994 0.000000 -0.001111 0.000000
# 4 0.000000 0.000000 0.000000 0.162329 0.000000 -0.040718
# 5 -0.002499 0.001003 -0.001111 0.000000 0.026291 0.000000
# 6 0.000000 0.000000 0.000000 -0.040718 0.000000 0.090516
#
#
# Mechanical properties :
#
#
# Convention : Reuss Voigt Hill
#
# Bulk Modulus (GPa) = 36.75497 46.93938 41.84717
# Shear Modulus (GPa) = 14.15807 24.08407 19.12107
#
# Velocity S-wave (km/s) = 2.88753 3.76608 3.35568
# Velocity P-wave (km/s) = 5.72385 6.82306 6.29749
#
# Compressibility (1/GPa) = 0.02720721
#
# Stress axis : x y z
#
# Youngs Moduli (GPa) = 99.44925 62.38841 50.01451
#
# Poissons Ratio (x) = 0.28436 0.21971
# Poissons Ratio (y) = 0.45328 0.02425
# Poissons Ratio (z) = 0.43686 0.03024
#
# Static dielectric constant tensor:
#      x y z
#    x 1.647150 0.000000 0.046370 
#    y 0.000000 1.532650 0.000000 
#    z 0.046370 0.000000 1.649580 
# 
# From -- ./inp_files/259563.got.cif
#   From: 2010.05.17/outbox.cif.g08.bks.cpg/sg12_130_cif.got.tgz:259563.got - 2010.06.03 13:09:07.
