data_PCOD9190488
_publ_section_title
;
Structure prediction by ZEFSAII (Michael W. Deem and Ramdas Pophale) SiO2 
 PCOD9190488
Probable space group: C 2/M
;
_chemical_formula_sum "Si O2"
_cell_formula_units_Z 32
_cell_length_a 11.357424
_cell_length_b 24.554753
_cell_length_c 6.757961
_cell_angle_alpha 90.000000
_cell_angle_beta 146.493145
_cell_angle_gamma 90.000000
_cell_volume 1040.396974
_symmetry_space_group_name_H-M "C 2/M"
_symmetry_group_IT_number 12
_symmetry_cell_setting 'monoclinic'
loop_
_space_group_symop_operation_xyz
x,y,z
-x,y,-z
-x,-y,-z
x,-y,z
1/2+x,1/2+y,z
1/2-x,1/2+y,-z
1/2-x,1/2-y,-z
1/2+x,1/2-y,z
loop_
_atom_site_type_symbol
_atom_site_label
_atom_site_fract_x
_atom_site_fract_y
_atom_site_fract_z
Si Si1 0.217868 0.180374 0.680487
Si Si2 0.749493 0.918816 0.807112
Si Si3 0.810775 0.058813 0.427600
Si Si4 0.769696 0.297814 0.282993
O O1 0.280562 0.116326 0.786361
O O2 0.324520 0.238263 0.898735
O O3 0.240196 0.191446 0.476360
O O4 0.000000 0.184080 0.500000
O O5 0.500000 0.926916 0.500000
O O6 0.773694 0.936848 0.613922
O O7 0.815638 0.855317 0.912770
O O8 0.928741 0.942925 0.203719
O O9 0.724329 0.000000 0.242354
O O10 0.000000 0.299411 0.500000
#
# Coordination Sequence:
#
# PCOD9190488 Si02
#       4
#     8   8   8   8
#     4   9  17  31  50  74 107 139 168 210 261 315
#     4   9  17  32  53  77 101 130 175 228 265 294
#     4  10  20  31  49  78 105 138 178 209 254 315
#     4   8  15  30  52  74  98 129 171 217 259 299
#
# _framework density 30.757491000000002
#
# number of rings (size 3 to 8) (size 9 to 14) (size 15 to 20)
#    0.000    3.000    0.000    1.500    0.000    2.500 
#    0.000   11.250    0.000   28.500    0.000   17.500 
#    0.000    0.000    0.000    0.000    0.000    0.000 
#
# Total GULP energy -89395.580627 kJ/mol
# GULP energy per Si atom -5587.223789 kJ/mol
# Density = 3.068749 g / cm^3
# Si number density = 30.757491 Si / 1000 Ang^3
#
#
#
# Elastic Constant Matrix: (Units=GPa)
#
#
# Indices 1 2 3 4 5 6 
#
# 1 222.9621 44.3196 76.5449 0.0000 22.1815 0.0000
# 2 44.3196 378.7089 27.6059 0.0000 -5.7327 0.0000
# 3 76.5449 27.6059 90.9463 0.0000 27.6043 0.0000
# 4 0.0000 0.0000 0.0000 7.3161 0.0000 6.3688
# 5 22.1815 -5.7327 27.6043 0.0000 80.1601 0.0000
# 6 0.0000 0.0000 0.0000 6.3688 0.0000 21.8885
#
#
#
# Elastic Compliance Matrix: (Units=1/GPa)
#
#
# Indices 1 2 3 4 5 6 
#
# 1 0.006356 -0.000361 -0.005246 0.000000 0.000022 0.000000
# 2 -0.000361 0.002741 -0.000690 0.000000 0.000534 0.000000
# 3 -0.005246 -0.000690 0.016969 0.000000 -0.004441 0.000000
# 4 0.000000 0.000000 0.000000 0.183047 0.000000 -0.053260
# 5 0.000022 0.000534 -0.004441 0.000000 0.014036 0.000000
# 6 0.000000 0.000000 0.000000 -0.053260 0.000000 0.061183
#
#
# Mechanical properties :
#
#
# Convention : Reuss Voigt Hill
#
# Bulk Modulus (GPa) = 74.23766 109.95089 92.09428
# Shear Modulus (GPa) = 16.58828 58.14941 37.36885
#
# Velocity S-wave (km/s) = 2.32486 4.35279 3.48940
# Velocity P-wave (km/s) = 5.60316 7.81586 6.80012
#
# Compressibility (1/GPa) = 0.01347025
#
# Stress axis : x y z
#
# Youngs Moduli (GPa) = 157.33682 364.80536 58.93235
#
# Poissons Ratio (x) = 0.13171 0.30919
# Poissons Ratio (y) = 0.05680 0.04067
# Poissons Ratio (z) = 0.82546 0.25178
#
# Static dielectric constant tensor:
#      x y z
#    x 2.401430 0.000000 -0.024560 
#    y 0.000000 2.278890 0.000000 
#    z -0.024560 0.000000 2.533740 
# 
# From -- ./inp_files/52164.got.cif
#   From: 2010.05.17/outbox.cif.g08.bks.cpg/sg12_27_cif.got.tgz:52164.got - 2010.06.03 13:09:07.
