data_PCOD9190977
_publ_section_title
;
Structure prediction by ZEFSAII (Michael W. Deem and Ramdas Pophale) SiO2 
 PCOD9190977
Probable space group: C 2/M
;
_chemical_formula_sum "Si O2"
_cell_formula_units_Z 46
_cell_length_a 9.501230
_cell_length_b 22.352200
_cell_length_c 10.295983
_cell_angle_alpha 90.000000
_cell_angle_beta 115.371931
_cell_angle_gamma 90.000000
_cell_volume 1975.685729
_symmetry_space_group_name_H-M "C 2/M"
_symmetry_group_IT_number 12
_symmetry_cell_setting 'monoclinic'
loop_
_space_group_symop_operation_xyz
x,y,z
-x,y,-z
-x,-y,-z
x,-y,z
1/2+x,1/2+y,z
1/2-x,1/2+y,-z
1/2-x,1/2-y,-z
1/2+x,1/2-y,z
loop_
_atom_site_type_symbol
_atom_site_label
_atom_site_fract_x
_atom_site_fract_y
_atom_site_fract_z
Si Si1 0.104296 0.292226 0.250240
Si Si2 0.173930 0.160182 0.235680
Si Si3 0.344258 0.500000 0.357995
Si Si4 0.975137 0.500000 0.639131
Si Si5 0.000000 0.690533 0.500000
Si Si6 0.407101 0.627510 0.328026
Si Si7 0.500000 0.000000 0.000000
Si Si8 0.625648 0.899477 0.874314
O O1 0.127956 0.228862 0.191228
O O2 0.061310 0.280228 0.387251
O O3 0.267330 0.326076 0.291909
O O4 0.972938 0.338281 0.148193
O O5 0.337994 0.160175 0.384341
O O6 0.212017 0.122332 0.122153
O O7 0.032540 0.137099 0.265894
O O8 0.500000 0.500000 0.500000
O O9 0.205091 0.500000 0.403046
O O10 0.336313 0.561808 0.280846
O O11 0.000000 0.500000 0.500000
O O12 0.042785 0.440615 0.731414
O O13 0.500000 0.628881 0.500000
O O14 0.612471 0.053591 0.984744
#
# Coordination Sequence:
#
# PCOD9190977 Si02
#       8
#     8   8   4   4   4   8   2   8
#     4  11  21  35  56  91 131 171 206 240 304 367
#     4  11  23  33  56  94 129 168 209 240 303 369
#     4  10  23  31  45  73 116 168 201 234 287 337
#     4  11  23  37  55  87 121 162 212 250 299 364
#     4  10  20  32  50  85 140 189 204 218 274 376
#     4  11  21  33  49  80 134 175 200 238 289 365
#     4  10  24  54  74  86 102 156 234 268 334 344
#     4  10  24  42  69  86 116 162 212 271 303 380
#
# _framework density 23.283055999999998
#
# number of rings (size 3 to 8) (size 9 to 14) (size 15 to 20)
#    0.000    1.391    3.478    2.609   12.174    0.696 
#    0.000    0.870    0.000    2.087    0.000    0.000 
#    0.000    0.000    0.000    0.000    0.000    0.000 
#
# Total GULP energy -128168.723532 kJ/mol
# GULP energy per Si atom -5572.553197 kJ/mol
# Density = 2.323006 g / cm^3
# Si number density = 23.283056 Si / 1000 Ang^3
#
#
#
# Elastic Constant Matrix: (Units=GPa)
#
#
# Indices 1 2 3 4 5 6 
#
# 1 212.0179 84.7504 42.7955 0.0000 -45.7351 0.0000
# 2 84.7504 126.5776 45.9393 0.0000 -33.0502 0.0000
# 3 42.7955 45.9393 57.2452 0.0000 -0.2807 0.0000
# 4 0.0000 0.0000 0.0000 1.1141 0.0000 -10.8191
# 5 -45.7351 -33.0502 -0.2807 0.0000 21.2660 0.0000
# 6 0.0000 0.0000 0.0000 -10.8191 0.0000 88.4970
#
#
#
# Elastic Compliance Matrix: (Units=1/GPa)
#
#
# Indices 1 2 3 4 5 6 
#
# 1 0.013803 0.007024 -0.015757 0.000000 0.040393 0.000000
# 2 0.007024 0.029188 -0.028380 0.000000 0.060094 0.000000
# 3 -0.015757 -0.028380 0.051645 0.000000 -0.077313 0.000000
# 4 0.000000 0.000000 0.000000 -4.794901 0.000000 -0.586194
# 5 0.040393 0.060094 -0.077313 0.000000 0.226267 0.000000
# 6 0.000000 0.000000 0.000000 -0.586194 0.000000 -0.060365
#
#
# Mechanical properties :
#
#
# Convention : Reuss Voigt Hill
#
# Bulk Modulus (GPa) = 48.99847 82.53456 65.76652
# Shear Modulus (GPa) = -1.12275 36.99913 17.93819
#
# Velocity S-wave (km/s) = -0.69517 3.99068 2.77869
# Velocity P-wave (km/s) = 4.52173 7.53388 6.21310
#
# Compressibility (1/GPa) = 0.02040880
#
# Stress axis : x y z
#
# Youngs Moduli (GPa) = 72.44924 34.26032 19.36310
#
# Poissons Ratio (x) = -0.24065 0.30511
# Poissons Ratio (y) = -0.50889 0.54953
# Poissons Ratio (z) = 1.14162 0.97231
#
# Static dielectric constant tensor:
#      x y z
#    x 1.837710 0.000000 -0.009660 
#    y 0.000000 1.950290 0.000000 
#    z -0.009660 0.000000 1.909780 
# 
# From -- ./inp_files/122088.got.cif
#   From: 2010.05.17/outbox.cif.g08.bks.cpg/sg12_62_cif.got.tgz:122088.got - 2010.06.03 13:09:07.
