data_PCOD9190809
_publ_section_title
;
Structure prediction by ZEFSAII (Michael W. Deem and Ramdas Pophale) SiO2 
 PCOD9190809
Probable space group: C 2/M
;
_chemical_formula_sum "Si O2"
_cell_formula_units_Z 56
_cell_length_a 32.764259
_cell_length_b 15.038489
_cell_length_c 9.547161
_cell_angle_alpha 90.000000
_cell_angle_beta 148.297622
_cell_angle_gamma 90.000000
_cell_volume 2472.050132
_symmetry_space_group_name_H-M "C 2/M"
_symmetry_group_IT_number 12
_symmetry_cell_setting 'monoclinic'
loop_
_space_group_symop_operation_xyz
x,y,z
-x,y,-z
-x,-y,-z
x,-y,z
1/2+x,1/2+y,z
1/2-x,1/2+y,-z
1/2-x,1/2-y,-z
1/2+x,1/2-y,z
loop_
_atom_site_type_symbol
_atom_site_label
_atom_site_fract_x
_atom_site_fract_y
_atom_site_fract_z
Si Si1 0.264023 0.858816 0.695656
Si Si2 0.246921 0.144194 0.327893
Si Si3 0.496624 0.608052 0.827178
Si Si4 0.422309 0.645516 0.206303
Si Si5 0.082856 0.653223 0.698977
Si Si6 0.826092 0.103192 0.303430
Si Si7 0.327677 0.894363 0.294259
O O1 0.259464 0.888074 0.522339
O O2 0.260877 0.751241 0.689140
O O3 0.194410 0.890801 0.591887
O O4 0.343911 0.887658 0.004130
O O5 0.316442 0.122973 0.424991
O O6 0.164174 0.107271 0.028905
O O7 0.501795 0.500000 0.834447
O O8 0.560604 0.647395 0.910303
O O9 0.411600 0.638652 0.525830
O O10 0.500000 0.632438 0.000000
O O11 0.500000 0.602083 0.500000
O O12 0.419027 0.744289 0.258823
O O13 0.102608 0.645436 0.592614
O O14 0.000000 0.614219 0.500000
O O15 0.829176 0.000000 0.273789
O O16 0.752482 0.143156 0.008469
O O17 0.330899 0.000000 0.280974
#
# Coordination Sequence:
#
# PCOD9190809 Si02
#       7
#     8   8   8   8   8   8   8
#     4   9  19  34  54  78 106 138 170 210 257 305
#     4  10  20  34  52  79 108 135 172 214 256 304
#     4  10  20  32  48  75 111 146 176 208 249 298
#     4  10  20  33  52  78 108 143 176 210 252 300
#     4   9  20  38  56  77 101 132 173 217 266 314
#     4   9  18  33  52  75 104 140 177 209 247 301
#     4  10  21  36  56  78 100 132 173 217 263 310
#
# _framework density 22.653262999999999
#
# number of rings (size 3 to 8) (size 9 to 14) (size 15 to 20)
#    0.000    2.429    0.000    1.714    0.000    9.143 
#    0.000    0.714    0.000    0.857    0.000    0.000 
#    0.000    0.000    0.000    0.000    0.000    0.000 
#
# Total GULP energy -156408.631210 kJ/mol
# GULP energy per Si atom -5586.022543 kJ/mol
# Density = 2.260170 g / cm^3
# Si number density = 22.653263 Si / 1000 Ang^3
#
#
#
# Elastic Constant Matrix: (Units=GPa)
#
#
# Indices 1 2 3 4 5 6 
#
# 1 194.4910 18.5879 23.4969 0.0000 6.9773 0.0000
# 2 18.5879 73.1841 4.3882 0.0000 -1.4716 0.0000
# 3 23.4969 4.3882 42.3956 0.0000 12.5348 0.0000
# 4 0.0000 0.0000 0.0000 4.0656 0.0000 -7.7433
# 5 6.9773 -1.4716 12.5348 0.0000 42.4223 0.0000
# 6 0.0000 0.0000 0.0000 -7.7433 0.0000 42.1656
#
#
#
# Elastic Compliance Matrix: (Units=1/GPa)
#
#
# Indices 1 2 3 4 5 6 
#
# 1 0.005622 -0.001252 -0.002959 0.000000 -0.000094 0.000000
# 2 -0.001252 0.014066 -0.001059 0.000000 0.001007 0.000000
# 3 -0.002959 -0.001059 0.027616 0.000000 -0.007710 0.000000
# 4 0.000000 0.000000 0.000000 0.378271 0.000000 0.069466
# 5 -0.000094 0.001007 -0.007710 0.000000 0.025901 0.000000
# 6 0.000000 0.000000 0.000000 0.069466 0.000000 0.036473
#
#
# Mechanical properties :
#
#
# Convention : Reuss Voigt Hill
#
# Bulk Modulus (GPa) = 27.20082 44.77963 35.99023
# Shear Modulus (GPa) = 9.78963 35.30388 22.54675
#
# Velocity S-wave (km/s) = 2.08108 3.95200 3.15826
# Velocity P-wave (km/s) = 4.21996 6.37454 5.40568
#
# Compressibility (1/GPa) = 0.03676359
#
# Stress axis : x y z
#
# Youngs Moduli (GPa) = 177.86873 71.09318 36.21039
#
# Poissons Ratio (x) = 0.08904 0.10713
# Poissons Ratio (y) = 0.22277 0.03836
# Poissons Ratio (z) = 0.52623 0.07532
#
# Static dielectric constant tensor:
#      x y z
#    x 1.850130 0.000000 -0.016570 
#    y 0.000000 1.817570 0.000000 
#    z -0.016570 0.000000 1.899090 
# 
# From -- ./inp_files/106049.got.cif
#   From: 2010.05.17/outbox.cif.g08.bks.cpg/sg12_54_cif.got.tgz:106049.got - 2010.06.03 13:09:07.
