data_PCOD9190173
_publ_section_title
;
Structure prediction by ZEFSAII (Michael W. Deem and Ramdas Pophale) SiO2 
 PCOD9190173
Probable space group: C 2/M
;
_chemical_formula_sum "Si O2"
_cell_formula_units_Z 36
_cell_length_a 9.024043
_cell_length_b 27.962555
_cell_length_c 10.834739
_cell_angle_alpha 90.000000
_cell_angle_beta 41.563259
_cell_angle_gamma 90.000000
_cell_volume 1813.854309
_symmetry_space_group_name_H-M "C 2/M"
_symmetry_group_IT_number 12
_symmetry_cell_setting 'monoclinic'
loop_
_space_group_symop_operation_xyz
x,y,z
-x,y,-z
-x,-y,-z
x,-y,z
1/2+x,1/2+y,z
1/2-x,1/2+y,-z
1/2-x,1/2-y,-z
1/2+x,1/2-y,z
loop_
_atom_site_type_symbol
_atom_site_label
_atom_site_fract_x
_atom_site_fract_y
_atom_site_fract_z
Si Si1 0.192781 0.109056 0.643687
Si Si2 0.416560 0.056198 0.727752
Si Si3 0.500000 0.197733 0.500000
Si Si4 0.748727 0.789044 0.107822
Si Si5 0.817125 0.617119 0.009307
O O1 0.245112 0.083408 0.742498
O O2 0.340991 0.077994 0.457390
O O3 0.302287 0.161552 0.582930
O O4 0.932546 0.113615 0.782260
O O5 0.361566 0.070010 0.901086
O O6 0.409086 0.000000 0.709441
O O7 0.408051 0.224330 0.677988
O O8 0.672626 0.838800 0.093721
O O9 0.750000 0.750000 0.000000
O O10 0.000000 0.795192 0.000000
O O11 0.000000 0.623868 0.000000
#
# Coordination Sequence:
#
# PCOD9190173 Si02
#       5
#     8   8   4   8   8
#     4  10  19  40  67  90 124 161 221 265 315 382
#     4  10  21  39  66  94 122 167 221 268 322 384
#     4  10  20  42  71  92 122 168 211 268 324 368
#     4  12  24  45  68  98 130 168 219 269 322 389
#     4  12  24  40  61  93 133 174 209 264 326 383
#
# _framework density 19.847238000000001
#
# number of rings (size 3 to 8) (size 9 to 14) (size 15 to 20)
#    0.000    1.333    6.667    2.667    0.000    4.889 
#    0.000    1.111    0.000    0.000    0.000    0.000 
#    0.000    0.000    0.000    0.000    0.000    0.000 
#
# Total GULP energy -100582.518722 kJ/mol
# GULP energy per Si atom -5587.917707 kJ/mol
# Density = 1.980206 g / cm^3
# Si number density = 19.847238 Si / 1000 Ang^3
#
#
#
# Elastic Constant Matrix: (Units=GPa)
#
#
# Indices 1 2 3 4 5 6 
#
# 1 118.0115 14.9296 74.2486 0.0000 -23.1094 0.0000
# 2 14.9296 57.3564 26.1773 0.0000 13.6094 0.0000
# 3 74.2486 26.1773 123.3252 0.0000 -10.8088 0.0000
# 4 0.0000 0.0000 0.0000 24.0034 0.0000 15.6708
# 5 -23.1094 13.6094 -10.8088 0.0000 29.1367 0.0000
# 6 0.0000 0.0000 0.0000 15.6708 0.0000 15.7326
#
#
#
# Elastic Compliance Matrix: (Units=1/GPa)
#
#
# Indices 1 2 3 4 5 6 
#
# 1 0.016173 -0.003223 -0.008059 0.000000 0.011344 0.000000
# 2 -0.003223 0.023992 -0.004505 0.000000 -0.015434 0.000000
# 3 -0.008059 -0.004505 0.013996 0.000000 0.000904 0.000000
# 4 0.000000 0.000000 0.000000 0.119132 0.000000 -0.118665
# 5 0.011344 -0.015434 0.000904 0.000000 0.050863 0.000000
# 6 0.000000 0.000000 0.000000 -0.118665 0.000000 0.181762
#
#
# Mechanical properties :
#
#
# Convention : Reuss Voigt Hill
#
# Bulk Modulus (GPa) = 44.27239 58.82269 51.54754
# Shear Modulus (GPa) = 11.23543 25.99703 18.61623
#
# Velocity S-wave (km/s) = 2.38186 3.62312 3.06596
# Velocity P-wave (km/s) = 5.46986 6.87057 6.20983
#
# Compressibility (1/GPa) = 0.02258744
#
# Stress axis : x y z
#
# Youngs Moduli (GPa) = 61.83086 41.68068 71.44964
#
# Poissons Ratio (x) = 0.13435 0.57579
# Poissons Ratio (y) = 0.19931 0.32185
# Poissons Ratio (z) = 0.49828 0.18776
#
# Static dielectric constant tensor:
#      x y z
#    x 1.674490 0.000000 0.020840 
#    y 0.000000 1.707570 0.000000 
#    z 0.020840 0.000000 1.734420 
# 
# From -- ./inp_files/123360.got.cif
#   From: 2010.05.17/outbox.cif.g08.bks.cpg/sg12_62_cif.got.tgz:123360.got - 2010.06.03 13:09:07.
