data_PCOD9190962
_publ_section_title
;
Structure prediction by ZEFSAII (Michael W. Deem and Ramdas Pophale) SiO2 
 PCOD9190962
Probable space group: C 2/M
;
_chemical_formula_sum "Si O2"
_cell_formula_units_Z 56
_cell_length_a 15.310893
_cell_length_b 20.075005
_cell_length_c 14.772332
_cell_angle_alpha 90.000000
_cell_angle_beta 37.936654
_cell_angle_gamma 90.000000
_cell_volume 2791.463486
_symmetry_space_group_name_H-M "C 2/M"
_symmetry_group_IT_number 12
_symmetry_cell_setting 'monoclinic'
loop_
_space_group_symop_operation_xyz
x,y,z
-x,y,-z
-x,-y,-z
x,-y,z
1/2+x,1/2+y,z
1/2-x,1/2+y,-z
1/2-x,1/2-y,-z
1/2+x,1/2-y,z
loop_
_atom_site_type_symbol
_atom_site_label
_atom_site_fract_x
_atom_site_fract_y
_atom_site_fract_z
Si Si1 0.257424 0.206614 0.356342
Si Si2 0.239376 0.646129 0.455204
Si Si3 0.841490 0.925495 0.090426
Si Si4 0.537535 0.620266 0.180848
Si Si5 0.149527 0.804458 0.245898
Si Si6 0.944275 0.342058 0.647942
Si Si7 0.049257 0.256862 0.060370
O O1 0.241632 0.285072 0.394358
O O2 0.219770 0.167232 0.476782
O O3 0.173579 0.188584 0.333936
O O4 0.423983 0.197090 0.199717
O O5 0.370229 0.602726 0.311896
O O6 0.077266 0.621667 0.587531
O O7 0.711003 0.876005 0.219609
O O8 0.804857 0.000000 0.151273
O O9 0.866173 0.924301 0.961854
O O10 0.000000 0.909744 0.000000
O O11 0.582200 0.634190 0.247266
O O12 0.557279 0.693062 0.117828
O O13 0.068531 0.733361 0.303427
O O14 0.301508 0.791990 0.074635
O O15 0.000000 0.340168 0.500000
O O16 0.000000 0.235928 0.000000
#
# Coordination Sequence:
#
# PCOD9190962 Si02
#       7
#     8   8   8   8   8   8   8
#     4   9  18  31  46  79 128 157 180 219 272 359
#     4  10  20  32  50  79 119 157 182 221 286 346
#     4  11  26  45  62  80 108 152 207 253 288 334
#     4  11  21  34  55  81 113 152 190 236 289 350
#     4  11  20  29  51  87 120 155 186 222 288 359
#     4  12  22  35  59  86 119 151 186 236 294 352
#     4   9  17  28  46  73 113 152 184 219 272 345
#
# _framework density 20.061160999999998
#
# number of rings (size 3 to 8) (size 9 to 14) (size 15 to 20)
#    0.000    1.571    2.857    4.286    4.000    0.286 
#    0.000    0.714    0.000    0.000    0.000    4.000 
#    0.000    0.000    0.000    0.000    0.000    0.000 
#
# Total GULP energy -156192.157254 kJ/mol
# GULP energy per Si atom -5578.291331 kJ/mol
# Density = 2.001550 g / cm^3
# Si number density = 20.061161 Si / 1000 Ang^3
#
#
#
# Elastic Constant Matrix: (Units=GPa)
#
#
# Indices 1 2 3 4 5 6 
#
# 1 88.3398 6.0417 35.6294 -0.0007 0.8656 0.0002
# 2 6.0417 28.6052 15.3021 -0.0009 -3.7302 0.0003
# 3 35.6294 15.3021 126.6855 -0.0027 -17.8238 0.0010
# 4 -0.0007 -0.0009 -0.0027 4.7645 0.0010 0.4285
# 5 0.8656 -3.7302 -17.8238 0.0010 44.2368 -0.0003
# 6 0.0002 0.0003 0.0010 0.4285 -0.0003 8.8984
#
#
#
# Elastic Compliance Matrix: (Units=1/GPa)
#
#
# Indices 1 2 3 4 5 6 
#
# 1 0.012929 -0.000949 -0.003783 0.000000 -0.001857 0.000000
# 2 -0.000949 0.037527 -0.004047 0.000004 0.001552 -0.000001
# 3 -0.003783 -0.004047 0.009974 0.000004 0.003751 -0.000001
# 4 0.000000 0.000004 0.000004 0.210798 -0.000003 -0.010150
# 5 -0.001857 0.001552 0.003751 -0.000003 0.024284 0.000000
# 6 0.000000 -0.000001 -0.000001 -0.010150 0.000000 0.112869
#
#
# Mechanical properties :
#
#
# Convention : Reuss Voigt Hill
#
# Bulk Modulus (GPa) = 23.32601 39.73078 31.52839
# Shear Modulus (GPa) = 11.35769 24.02375 17.69072
#
# Velocity S-wave (km/s) = 2.38198 3.46428 2.97280
# Velocity P-wave (km/s) = 4.38381 5.98744 5.24725
#
# Compressibility (1/GPa) = 0.04287060
#
# Stress axis : x y z
#
# Youngs Moduli (GPa) = 77.34726 26.64769 100.25950
#
# Poissons Ratio (x) = 0.02530 0.37925
# Poissons Ratio (y) = 0.07343 0.40579
# Poissons Ratio (z) = 0.29258 0.10785
#
# Static dielectric constant tensor:
#      x y z
#    x 1.813940 0.000000 -0.024360 
#    y 0.000000 1.679400 0.000000 
#    z -0.024360 0.000000 1.760650 
# 
# From -- ./inp_files/217664.got.cif
#   From: 2010.05.17/outbox.cif.g08.bks.cpg/sg12_109_cif.got.tgz:217664.got - 2010.06.03 13:09:07.
