data_PCOD9190007
_publ_section_title
;
Structure prediction by ZEFSAII (Michael W. Deem and Ramdas Pophale) SiO2 
 PCOD9190007
Probable space group: C 2/M
;
_chemical_formula_sum "Si O2"
_cell_formula_units_Z 40
_cell_length_a 9.107255
_cell_length_b 27.890486
_cell_length_c 15.215538
_cell_angle_alpha 90.000000
_cell_angle_beta 150.883357
_cell_angle_gamma 90.000000
_cell_volume 1880.586567
_symmetry_space_group_name_H-M "C 2/M"
_symmetry_group_IT_number 12
_symmetry_cell_setting 'monoclinic'
loop_
_space_group_symop_operation_xyz
x,y,z
-x,y,-z
-x,-y,-z
x,-y,z
1/2+x,1/2+y,z
1/2-x,1/2+y,-z
1/2-x,1/2-y,-z
1/2+x,1/2-y,z
loop_
_atom_site_type_symbol
_atom_site_label
_atom_site_fract_x
_atom_site_fract_y
_atom_site_fract_z
Si Si1 0.326492 0.114501 0.819747
Si Si2 0.883200 0.785585 0.339600
Si Si3 0.355223 0.094133 0.195463
Si Si4 0.482756 0.817707 0.392284
Si Si5 0.771250 0.446837 0.462114
O O1 0.330539 0.171699 0.802559
O O2 0.483862 0.094086 0.814804
O O3 0.991947 0.092370 0.659398
O O4 0.500000 0.104208 0.000000
O O5 0.779382 0.730524 0.278073
O O6 0.000000 0.793420 0.500000
O O7 0.183465 0.796005 0.441819
O O8 0.405978 0.143908 0.277476
O O9 0.518516 0.055984 0.342496
O O10 0.000000 0.086682 0.000000
O O11 0.500000 0.837756 0.500000
O O12 0.633798 0.500000 0.380637
O O13 0.000000 0.439897 0.500000
#
# Coordination Sequence:
#
# PCOD9190007 Si02
#       5
#     8   8   8   8   8
#     4  12  25  42  67  97 133 172 218 266 319 385
#     4  10  19  39  62  93 128 175 221 267 317 377
#     4  12  25  42  65  99 134 172 218 263 321 382
#     4  10  21  36  65  92 130 174 220 268 318 375
#     4  11  25  48  74  98 126 162 208 267 334 393
#
# _framework density 21.269959
#
# number of rings (size 3 to 8) (size 9 to 14) (size 15 to 20)
#    0.000    1.000    4.000    2.400    2.800    3.200 
#    0.000    2.000    0.000    0.000    0.000    0.000 
#    0.000    0.000    0.000    0.000    0.000    0.000 
#
# Total GULP energy -111581.303587 kJ/mol
# GULP energy per Si atom -5579.065179 kJ/mol
# Density = 2.122155 g / cm^3
# Si number density = 21.269959 Si / 1000 Ang^3
#
#
#
# Elastic Constant Matrix: (Units=GPa)
#
#
# Indices 1 2 3 4 5 6 
#
# 1 171.6275 23.1231 47.2894 0.0000 -23.8901 0.0000
# 2 23.1231 111.1069 14.2589 0.0000 -5.7116 0.0000
# 3 47.2894 14.2589 98.1210 0.0000 -10.5702 0.0000
# 4 0.0000 0.0000 0.0000 6.6602 0.0000 -2.8062
# 5 -23.8901 -5.7116 -10.5702 0.0000 35.2442 0.0000
# 6 0.0000 0.0000 0.0000 -2.8062 0.0000 -15.1898
#
#
#
# Elastic Compliance Matrix: (Units=1/GPa)
#
#
# Indices 1 2 3 4 5 6 
#
# 1 0.007316 -0.000940 -0.002967 0.000000 0.003917 0.000000
# 2 -0.000940 0.009335 -0.000836 0.000000 0.000625 0.000000
# 3 -0.002967 -0.000836 0.011896 0.000000 0.001421 0.000000
# 4 0.000000 0.000000 0.000000 0.139303 0.000000 -0.025735
# 5 0.003917 0.000625 0.001421 0.000000 0.031556 0.000000
# 6 0.000000 0.000000 0.000000 -0.025735 0.000000 -0.061079
#
#
# Mechanical properties :
#
#
# Convention : Reuss Voigt Hill
#
# Bulk Modulus (GPa) = 52.46601 61.13312 56.79957
# Shear Modulus (GPa) = 32.43207 25.08851 28.76029
#
# Velocity S-wave (km/s) = 3.90908 3.43815 3.68116
# Velocity P-wave (km/s) = 6.71527 6.67571 6.69552
#
# Compressibility (1/GPa) = 0.01905996
#
# Stress axis : x y z
#
# Youngs Moduli (GPa) = 136.68467 107.11828 84.06050
#
# Poissons Ratio (x) = 0.10074 0.24944
# Poissons Ratio (y) = 0.12854 0.07028
# Poissons Ratio (z) = 0.40560 0.08956
#
# Static dielectric constant tensor:
#      x y z
#    x 1.832880 0.000000 0.022020 
#    y 0.000000 1.893130 0.000000 
#    z 0.022020 0.000000 1.745590 
# 
# From -- ./inp_files/68761.got.cif
#   From: 2010.05.17/outbox.cif.g08.bks.cpg/sg12_35_cif.got.tgz:68761.got - 2010.06.03 13:09:07.
