data_PCOD9190870
_publ_section_title
;
Structure prediction by ZEFSAII (Michael W. Deem and Ramdas Pophale) SiO2 
 PCOD9190870
Probable space group: C 2/M
;
_chemical_formula_sum "Si O2"
_cell_formula_units_Z 56
_cell_length_a 34.270739
_cell_length_b 8.824899
_cell_length_c 15.448208
_cell_angle_alpha 90.000000
_cell_angle_beta 45.982317
_cell_angle_gamma 90.000000
_cell_volume 3359.819416
_symmetry_space_group_name_H-M "C 2/M"
_symmetry_group_IT_number 12
_symmetry_cell_setting 'monoclinic'
loop_
_space_group_symop_operation_xyz
x,y,z
-x,y,-z
-x,-y,-z
x,-y,z
1/2+x,1/2+y,z
1/2-x,1/2+y,-z
1/2-x,1/2-y,-z
1/2+x,1/2-y,z
loop_
_atom_site_type_symbol
_atom_site_label
_atom_site_fract_x
_atom_site_fract_y
_atom_site_fract_z
Si Si1 0.817015 0.682341 0.260101
Si Si2 0.629255 0.682678 0.654032
Si Si3 0.600687 0.181586 0.020807
Si Si4 0.672452 0.318812 0.057837
Si Si5 0.992937 0.817320 0.112053
Si Si6 0.696489 0.682869 0.383748
Si Si7 0.295372 0.181031 0.814097
O O1 0.818102 0.500000 0.265375
O O2 0.834816 0.752072 0.323505
O O3 0.860010 0.727839 0.119739
O O4 0.756638 0.727051 0.324092
O O5 0.631412 0.500000 0.656077
O O6 0.566888 0.728927 0.764451
O O7 0.653853 0.727107 0.523605
O O8 0.600663 0.000000 0.025356
O O9 0.626657 0.248979 0.067483
O O10 0.541128 0.242937 0.091832
O O11 0.668165 0.500000 0.066319
O O12 0.673169 0.253653 0.153627
O O13 0.731612 0.278428 0.926318
O O14 0.997231 0.000000 0.111701
O O15 0.000000 0.776236 0.000000
O O16 0.695802 0.500000 0.375717
O O17 0.686507 0.756475 0.306269
O O18 0.299853 0.000000 0.810658
#
# Coordination Sequence:
#
# PCOD9190870 Si02
#       7
#     8   8   8   8   8   8   8
#     4  10  20  32  49  75 108 140 172 215 263 311
#     4  10  21  35  53  74 102 143 185 219 257 308
#     4  11  21  33  53  79 107 138 173 216 265 312
#     4  10  20  34  54  79 107 139 172 212 260 311
#     4  10  20  35  53  74 102 139 182 224 260 303
#     4  10  20  35  52  75 108 143 176 214 261 314
#     4  10  20  33  53  80 108 138 172 211 259 314
#
# _framework density 16.667563000000001
#
# number of rings (size 3 to 8) (size 9 to 14) (size 15 to 20)
#    0.000    1.857    2.857    1.714    0.000    3.714 
#    0.000    0.000    0.000    0.857    0.000    6.000 
#    0.000    0.000    0.000    0.000    0.000    0.000 
#
# Total GULP energy -156350.956300 kJ/mol
# GULP energy per Si atom -5583.962725 kJ/mol
# Density = 1.662963 g / cm^3
# Si number density = 16.667563 Si / 1000 Ang^3
#
#
#
# Elastic Constant Matrix: (Units=GPa)
#
#
# Indices 1 2 3 4 5 6 
#
# 1 136.0439 39.4427 64.8852 0.0000 26.7019 0.0000
# 2 39.4427 23.6342 29.2662 0.0000 8.9987 -0.0001
# 3 64.8852 29.2662 120.7849 0.0000 19.5858 0.0000
# 4 0.0000 0.0000 0.0000 19.2988 0.0000 5.7623
# 5 26.7019 8.9987 19.5858 0.0000 25.4800 0.0000
# 6 0.0000 -0.0001 0.0000 5.7623 0.0000 32.6058
#
#
#
# Elastic Compliance Matrix: (Units=1/GPa)
#
#
# Indices 1 2 3 4 5 6 
#
# 1 0.016030 -0.021027 -0.002281 0.000000 -0.007620 0.000000
# 2 -0.021027 0.091146 -0.010444 0.000000 -0.002126 0.000000
# 3 -0.002281 -0.010444 0.012623 0.000000 -0.003624 0.000000
# 4 0.000000 0.000000 0.000000 0.054703 0.000000 -0.009668
# 5 -0.007620 -0.002126 -0.003624 0.000000 0.050768 0.000000
# 6 0.000000 0.000000 0.000000 -0.009668 0.000000 0.032378
#
#
# Mechanical properties :
#
#
# Convention : Reuss Voigt Hill
#
# Bulk Modulus (GPa) = 19.12247 60.85012 39.98629
# Shear Modulus (GPa) = 14.59494 25.26816 19.93155
#
# Velocity S-wave (km/s) = 2.96235 3.89782 3.46183
# Velocity P-wave (km/s) = 4.81648 7.53954 6.32626
#
# Compressibility (1/GPa) = 0.05229451
#
# Stress axis : x y z
#
# Youngs Moduli (GPa) = 62.38195 10.97141 79.22156
#
# Poissons Ratio (x) = 0.23070 0.18070
# Poissons Ratio (y) = 1.31170 0.82742
# Poissons Ratio (z) = 0.14229 0.11459
#
# Static dielectric constant tensor:
#      x y z
#    x 1.527840 0.000000 -0.004120 
#    y 0.000000 1.554160 0.000000 
#    z -0.004120 0.000000 1.556400 
# 
# From -- ./inp_files/237307.got.cif
#   From: 2010.05.17/outbox.cif.g08.bks.cpg/sg12_119_cif.got.tgz:237307.got - 2010.06.03 13:09:07.
