data_PCOD9190228
_publ_section_title
;
Structure prediction by ZEFSAII (Michael W. Deem and Ramdas Pophale) SiO2 
 PCOD9190228
Probable space group: C 2/M
;
_chemical_formula_sum "Si O2"
_cell_formula_units_Z 36
_cell_length_a 12.567507
_cell_length_b 27.477301
_cell_length_c 8.887977
_cell_angle_alpha 90.000000
_cell_angle_beta 144.915118
_cell_angle_gamma 90.000000
_cell_volume 1764.147308
_symmetry_space_group_name_H-M "C 2/M"
_symmetry_group_IT_number 12
_symmetry_cell_setting 'monoclinic'
loop_
_space_group_symop_operation_xyz
x,y,z
-x,y,-z
-x,-y,-z
x,-y,z
1/2+x,1/2+y,z
1/2-x,1/2+y,-z
1/2-x,1/2-y,-z
1/2+x,1/2-y,z
loop_
_atom_site_type_symbol
_atom_site_label
_atom_site_fract_x
_atom_site_fract_y
_atom_site_fract_z
Si Si1 0.211720 0.813665 0.798132
Si Si2 0.198999 0.420998 0.174522
Si Si3 0.000000 0.867734 0.000000
Si Si4 0.279152 0.205209 0.228791
Si Si5 0.958691 0.945431 0.211548
O O1 0.308344 0.862533 0.854260
O O2 0.276937 0.761434 0.811058
O O3 0.000000 0.819297 0.500000
O O4 0.225071 0.808634 0.994592
O O5 0.277809 0.440573 0.107567
O O6 0.359561 0.436212 0.476437
O O7 0.000000 0.438543 0.000000
O O8 0.174161 0.831564 0.217485
O O9 0.960662 0.903244 0.092123
O O10 0.500000 0.201861 0.500000
O O11 0.966203 0.000000 0.157792
#
# Coordination Sequence:
#
# PCOD9190228 Si02
#       5
#     8   8   4   8   8
#     4  10  19  42  61  93 132 173 209 255 314 387
#     4  11  22  40  67  92 123 164 215 265 317 377
#     4  12  23  42  64  96 130 170 209 266 326 386
#     4  10  23  38  62  93 135 171 210 253 319 391
#     4  11  25  44  64  90 125 167 220 272 321 374
#
# _framework density 20.406459000000002
#
# number of rings (size 3 to 8) (size 9 to 14) (size 15 to 20)
#    0.000    1.333    4.444    1.667    4.667    1.778 
#    0.000    4.444    0.000    4.000    0.000    0.000 
#    0.000    0.000    0.000    0.000    0.000    0.000 
#
# Total GULP energy -100544.900853 kJ/mol
# GULP energy per Si atom -5585.827825 kJ/mol
# Density = 2.036001 g / cm^3
# Si number density = 20.406459 Si / 1000 Ang^3
#
#
#
# Elastic Constant Matrix: (Units=GPa)
#
#
# Indices 1 2 3 4 5 6 
#
# 1 91.1443 38.4231 28.2428 0.0000 26.9199 0.0000
# 2 38.4231 167.9137 7.7479 0.0000 13.4732 0.0000
# 3 28.2428 7.7479 64.7029 0.0000 10.3825 0.0000
# 4 0.0000 0.0000 0.0000 33.1656 0.0000 -22.9667
# 5 26.9199 13.4732 10.3825 0.0000 28.5940 0.0000
# 6 0.0000 0.0000 0.0000 -22.9667 0.0000 18.7662
#
#
#
# Elastic Compliance Matrix: (Units=1/GPa)
#
#
# Indices 1 2 3 4 5 6 
#
# 1 0.017740 -0.002733 -0.005249 0.000000 -0.013508 0.000000
# 2 -0.002733 0.006616 0.000518 0.000000 -0.000732 0.000000
# 3 -0.005249 0.000518 0.017978 0.000000 -0.001831 0.000000
# 4 0.000000 0.000000 0.000000 0.197700 0.000000 0.241951
# 5 -0.013508 -0.000732 -0.001831 0.000000 0.048699 0.000000
# 6 0.000000 0.000000 0.000000 0.241951 0.000000 0.349395
#
#
# Mechanical properties :
#
#
# Convention : Reuss Voigt Hill
#
# Bulk Modulus (GPa) = 36.48795 52.50983 44.49889
# Shear Modulus (GPa) = 7.55071 32.72829 20.13950
#
# Velocity S-wave (km/s) = 1.92567 4.00912 3.14493
# Velocity P-wave (km/s) = 4.78160 6.87157 5.91955
#
# Compressibility (1/GPa) = 0.02740630
#
# Stress axis : x y z
#
# Youngs Moduli (GPa) = 56.37044 151.15498 55.62362
#
# Poissons Ratio (x) = 0.41316 0.29195
# Poissons Ratio (y) = 0.15408 -0.02883
# Poissons Ratio (z) = 0.29587 -0.07836
#
# Static dielectric constant tensor:
#      x y z
#    x 1.743010 0.000000 -0.018610 
#    y 0.000000 1.740420 0.000000 
#    z -0.018610 0.000000 1.701340 
# 
# From -- ./inp_files/52233.got.cif
#   From: 2010.05.17/outbox.cif.g08.bks.cpg/sg12_27_cif.got.tgz:52233.got - 2010.06.03 13:09:07.
