data_PCOD9190409
_publ_section_title
;
Structure prediction by ZEFSAII (Michael W. Deem and Ramdas Pophale) SiO2 
 PCOD9190409
Probable space group: C 2/M
;
_chemical_formula_sum "Si O2"
_cell_formula_units_Z 56
_cell_length_a 28.862935
_cell_length_b 7.949773
_cell_length_c 18.755405
_cell_angle_alpha 90.000000
_cell_angle_beta 146.714154
_cell_angle_gamma 90.000000
_cell_volume 2361.830300
_symmetry_space_group_name_H-M "C 2/M"
_symmetry_group_IT_number 12
_symmetry_cell_setting 'monoclinic'
loop_
_space_group_symop_operation_xyz
x,y,z
-x,y,-z
-x,-y,-z
x,-y,z
1/2+x,1/2+y,z
1/2-x,1/2+y,-z
1/2-x,1/2-y,-z
1/2+x,1/2-y,z
loop_
_atom_site_type_symbol
_atom_site_label
_atom_site_fract_x
_atom_site_fract_y
_atom_site_fract_z
Si Si1 0.619063 0.804976 0.634346
Si Si2 0.203311 0.186508 0.510317
Si Si3 0.457497 0.297973 0.605968
Si Si4 0.468865 0.305787 0.032755
Si Si5 0.719667 0.312656 0.260942
Si Si6 0.422965 0.706529 0.119648
Si Si7 0.237129 0.296359 0.901762
O O1 0.550195 0.745749 0.487749
O O2 0.704785 0.788897 0.697331
O O3 0.653958 0.729207 0.753632
O O4 0.600198 0.000000 0.622437
O O5 0.250000 0.250000 0.500000
O O6 0.122285 0.265716 0.448057
O O7 0.271746 0.189085 0.662027
O O8 0.174197 0.000000 0.454306
O O9 0.454061 0.500000 0.602778
O O10 0.538826 0.241288 0.755275
O O11 0.501973 0.500000 0.075936
O O12 0.368631 0.309787 0.892134
O O13 0.500000 0.222624 0.000000
O O14 0.480590 0.236436 0.127137
O O15 0.728590 0.500000 0.303984
O O16 0.422818 0.500000 0.117548
O O17 0.326952 0.763057 0.985854
O O18 0.234507 0.500000 0.891820
O O19 0.250000 0.250000 0.000000
#
# Coordination Sequence:
#
# PCOD9190409 Si02
#       7
#     8   8   8   8   8   8   8
#     4   9  17  33  54  75 104 137 169 206 258 318
#     4  10  20  31  45  69 100 136 177 218 257 304
#     4   9  19  33  53  77 102 136 176 220 265 306
#     4   9  16  25  47  78 103 132 173 217 259 304
#     4   9  16  29  49  72  96 130 172 213 257 303
#     4   9  17  33  53  78 109 136 173 223 265 306
#     4  10  20  36  59  84 107 136 173 216 263 315
#
# _framework density 23.710424
#
# number of rings (size 3 to 8) (size 9 to 14) (size 15 to 20)
#    0.000    2.714    1.429    0.429    2.000    1.143 
#    0.000    1.429    0.000    5.571    0.000    0.000 
#    0.000    0.000    0.000    0.000    0.000    0.000 
#
# Total GULP energy -155957.645298 kJ/mol
# GULP energy per Si atom -5569.915904 kJ/mol
# Density = 2.365646 g / cm^3
# Si number density = 23.710424 Si / 1000 Ang^3
#
#
#
# Elastic Constant Matrix: (Units=GPa)
#
#
# Indices 1 2 3 4 5 6 
#
# 1 82.9762 -3.2725 35.9410 0.0000 -28.9379 0.0000
# 2 -3.2725 19.7676 12.4730 0.0000 -5.9098 0.0000
# 3 35.9410 12.4730 163.9971 0.0000 -30.7898 0.0000
# 4 0.0000 0.0000 0.0000 16.7162 0.0000 -8.5562
# 5 -28.9379 -5.9098 -30.7898 0.0000 29.5881 0.0000
# 6 0.0000 0.0000 0.0000 -8.5562 0.0000 14.8566
#
#
#
# Elastic Compliance Matrix: (Units=1/GPa)
#
#
# Indices 1 2 3 4 5 6 
#
# 1 0.020139 0.010279 -0.001382 0.000000 0.020312 0.000000
# 2 0.010279 0.059938 -0.003326 0.000000 0.018563 0.000000
# 3 -0.001382 -0.003326 0.007799 0.000000 0.006099 0.000000
# 4 0.000000 0.000000 0.000000 0.084828 0.000000 0.048854
# 5 0.020312 0.018563 0.006099 0.000000 0.063718 0.000000
# 6 0.000000 0.000000 0.000000 0.048854 0.000000 0.095446
#
#
# Mechanical properties :
#
#
# Convention : Reuss Voigt Hill
#
# Bulk Modulus (GPa) = 10.09928 39.66932 24.88430
# Shear Modulus (GPa) = 14.13496 27.00546 20.57021
#
# Velocity S-wave (km/s) = 2.44427 3.37852 2.94863
# Velocity P-wave (km/s) = 3.49780 5.65564 4.70217
#
# Compressibility (1/GPa) = 0.09901693
#
# Stress axis : x y z
#
# Youngs Moduli (GPa) = 49.65409 16.68390 128.22723
#
# Poissons Ratio (x) = -0.17149 0.17721
# Poissons Ratio (y) = -0.51037 0.42650
# Poissons Ratio (z) = 0.06862 0.05549
#
# Static dielectric constant tensor:
#      x y z
#    x 2.018230 0.000000 0.009320 
#    y 0.000000 1.895840 0.000000 
#    z 0.009320 0.000000 1.951180 
# 
# From -- ./inp_files/281713.got.cif
#   From: 2010.05.17/outbox.cif.g08.bks.cpg/sg12_141_cif.got.tgz:281713.got - 2010.06.03 13:09:07.
