data_PCOD9190438
_publ_section_title
;
Structure prediction by ZEFSAII (Michael W. Deem and Ramdas Pophale) SiO2 
 PCOD9190438
Probable space group: C 2/M
;
_chemical_formula_sum "Si O2"
_cell_formula_units_Z 64
_cell_length_a 24.468603
_cell_length_b 9.199279
_cell_length_c 18.964349
_cell_angle_alpha 90.000000
_cell_angle_beta 116.419550
_cell_angle_gamma 90.000000
_cell_volume 3822.923334
_symmetry_space_group_name_H-M "C 2/M"
_symmetry_group_IT_number 12
_symmetry_cell_setting 'monoclinic'
loop_
_space_group_symop_operation_xyz
x,y,z
-x,y,-z
-x,-y,-z
x,-y,z
1/2+x,1/2+y,z
1/2-x,1/2+y,-z
1/2-x,1/2-y,-z
1/2+x,1/2-y,z
loop_
_atom_site_type_symbol
_atom_site_label
_atom_site_fract_x
_atom_site_fract_y
_atom_site_fract_z
Si Si1 0.165457 0.668503 0.498129
Si Si2 0.354014 0.325495 0.655780
Si Si3 0.479986 0.830965 0.564830
Si Si4 0.993121 0.825266 0.716015
Si Si5 0.385626 0.325305 0.134285
Si Si6 0.697085 0.826192 0.015503
Si Si7 0.280638 0.327202 0.188206
Si Si8 0.241821 0.325162 0.678784
O O1 0.182431 0.500000 0.494729
O O2 0.173844 0.759994 0.432006
O O3 0.093288 0.673867 0.472935
O O4 0.201074 0.718728 0.587930
O O5 0.352650 0.500000 0.649222
O O6 0.424928 0.280056 0.700810
O O7 0.311011 0.285016 0.696440
O O8 0.500000 0.774303 0.500000
O O9 0.504548 0.743812 0.645935
O O10 0.499384 0.000000 0.581038
O O11 0.046994 0.786151 0.800509
O O12 0.993476 0.000000 0.709418
O O13 0.381702 0.500000 0.121421
O O14 0.337653 0.288920 0.169809
O O15 0.363873 0.243289 0.051450
O O16 0.718828 0.797346 0.107818
O O17 0.697977 0.000000 0.005587
O O18 0.750000 0.750000 0.000000
O O19 0.284231 0.500000 0.202141
O O20 0.279649 0.245627 0.261318
O O21 0.237661 0.500000 0.682666
#
# Coordination Sequence:
#
# PCOD9190438 Si02
#       8
#     8   8   8   8   8   8   8   8
#     4   9  18  31  45  65  91 122 161 199 234 274
#     4   9  18  33  49  67  91 122 161 200 236 274
#     4   9  18  30  43  62  94 128 156 191 233 279
#     4   9  18  32  49  68  92 122 157 196 234 275
#     4   9  18  32  50  73  98 123 155 193 231 282
#     4   9  17  31  50  72  99 127 154 188 230 281
#     4   9  19  32  46  70  99 121 147 185 232 280
#     4  10  20  31  47  70  94 121 158 199 235 278
#
# _framework density 16.741116000000002
#
# number of rings (size 3 to 8) (size 9 to 14) (size 15 to 20)
#    0.000    2.875    0.000    1.500    1.750    4.250 
#    0.000    0.000    0.000    0.750    0.000    5.250 
#    0.000    0.000    0.000    0.000    0.000    0.000 
#
# Total GULP energy -178261.968338 kJ/mol
# GULP energy per Si atom -5570.686511 kJ/mol
# Density = 1.670301 g / cm^3
# Si number density = 16.741116 Si / 1000 Ang^3
#
#
#
# Elastic Constant Matrix: (Units=GPa)
#
#
# Indices 1 2 3 4 5 6 
#
# 1 29.9735 12.9816 24.0723 0.0000 2.1232 0.0000
# 2 12.9816 15.6392 27.0965 0.0000 4.7333 0.0000
# 3 24.0723 27.0965 94.3637 0.0000 21.9443 0.0000
# 4 0.0000 0.0000 0.0000 32.8632 0.0000 -2.8049
# 5 2.1232 4.7333 21.9443 0.0000 22.9675 0.0000
# 6 0.0000 0.0000 0.0000 -2.8049 0.0000 15.4458
#
#
#
# Elastic Compliance Matrix: (Units=1/GPa)
#
#
# Indices 1 2 3 4 5 6 
#
# 1 0.053041 -0.039600 -0.003751 0.000000 0.006841 0.000000
# 2 -0.039600 0.159084 -0.037035 0.000000 0.006260 0.000000
# 3 -0.003751 -0.037035 0.026141 0.000000 -0.016998 0.000000
# 4 0.000000 0.000000 0.000000 0.030908 0.000000 0.005613
# 5 0.006841 0.006260 -0.016998 0.000000 0.057857 0.000000
# 6 0.000000 0.000000 0.000000 0.005613 0.000000 0.065762
#
#
# Mechanical properties :
#
#
# Convention : Reuss Voigt Hill
#
# Bulk Modulus (GPa) = 12.90390 29.80857 21.35623
# Shear Modulus (GPa) = 8.62968 19.31038 13.97003
#
# Velocity S-wave (km/s) = 2.27288 3.39996 2.89186
# Velocity P-wave (km/s) = 3.82264 5.76691 4.89233
#
# Compressibility (1/GPa) = 0.07749596
#
# Stress axis : x y z
#
# Youngs Moduli (GPa) = 18.85325 6.28600 38.25353
#
# Poissons Ratio (x) = 0.24892 0.14348
# Poissons Ratio (y) = 0.74658 1.41670
# Poissons Ratio (z) = 0.07072 0.23280
#
# Static dielectric constant tensor:
#      x y z
#    x 1.572170 0.000000 0.033690 
#    y 0.000000 1.564860 0.000000 
#    z 0.033690 0.000000 1.566100 
# 
# From -- ./inp_files/323786.got.cif
#   From: 2010.05.17/outbox.cif.g08.bks.cpg/sg12_162_cif.got.tgz:323786.got - 2010.06.03 13:09:07.
