data_PCOD9190023
_publ_section_title
;
Structure prediction by ZEFSAII (Michael W. Deem and Ramdas Pophale) SiO2 
 PCOD9190023
Probable space group: C 2/M
;
_chemical_formula_sum "Si O2"
_cell_formula_units_Z 56
_cell_length_a 16.700230
_cell_length_b 22.799037
_cell_length_c 9.934675
_cell_angle_alpha 90.000000
_cell_angle_beta 50.669531
_cell_angle_gamma 90.000000
_cell_volume 2925.868334
_symmetry_space_group_name_H-M "C 2/M"
_symmetry_group_IT_number 12
_symmetry_cell_setting 'monoclinic'
loop_
_space_group_symop_operation_xyz
x,y,z
-x,y,-z
-x,-y,-z
x,-y,z
1/2+x,1/2+y,z
1/2-x,1/2+y,-z
1/2-x,1/2-y,-z
1/2+x,1/2-y,z
loop_
_atom_site_type_symbol
_atom_site_label
_atom_site_fract_x
_atom_site_fract_y
_atom_site_fract_z
Si Si1 0.448168 0.065967 0.907817
Si Si2 0.266601 0.151053 0.181521
Si Si3 0.011781 0.135255 0.835911
Si Si4 0.414528 0.566328 0.706705
Si Si5 0.955803 0.347745 0.396696
Si Si6 0.241633 0.179694 0.518738
Si Si7 0.567084 0.762746 0.066469
O O1 0.517541 0.094406 0.717846
O O2 0.421129 0.000000 0.901647
O O3 0.500000 0.066645 0.000000
O O4 0.349584 0.106244 0.033139
O O5 0.160587 0.121029 0.248008
O O6 0.265328 0.154586 0.344646
O O7 0.316544 0.212869 0.079351
O O8 0.128285 0.157875 0.682220
O O9 0.974084 0.085073 0.777276
O O10 0.940947 0.193776 0.900093
O O11 0.000000 0.114456 0.000000
O O12 0.500000 0.564240 0.500000
O O13 0.367973 0.500000 0.764831
O O14 0.832663 0.339186 0.522469
O O15 0.000000 0.348657 0.500000
O O16 0.010184 0.296385 0.249393
O O17 0.250000 0.250000 0.500000
O O18 0.500000 0.775093 0.000000
#
# Coordination Sequence:
#
# PCOD9190023 Si02
#       7
#     8   8   8   8   8   8   8
#     4  10  20  38  65  90 122 167 218 267 311 373
#     4  11  20  39  68  91 123 173 220 257 318 381
#     4  11  24  41  64  94 131 170 213 265 338 378
#     4  11  25  43  64  93 127 167 229 279 298 371
#     4  11  22  36  60  98 136 163 207 260 328 382
#     4  12  21  39  64  91 129 173 207 255 318 398
#     4  10  19  39  63  93 128 167 211 264 311 396
#
# _framework density 19.139617999999999
#
# number of rings (size 3 to 8) (size 9 to 14) (size 15 to 20)
#    0.000    1.143    5.714    2.143    0.000    5.143 
#    0.000    0.714    0.000    0.000    0.000    0.000 
#    0.000    0.000    0.000    0.000    0.000    0.000 
#
# Total GULP energy -156226.083598 kJ/mol
# GULP energy per Si atom -5579.502986 kJ/mol
# Density = 1.909606 g / cm^3
# Si number density = 19.139618 Si / 1000 Ang^3
#
#
#
# Elastic Constant Matrix: (Units=GPa)
#
#
# Indices 1 2 3 4 5 6 
#
# 1 93.1286 35.7844 39.2899 0.0000 3.9931 0.0000
# 2 35.7844 72.0565 33.1280 0.0000 13.1267 0.0000
# 3 39.2899 33.1280 77.0541 0.0000 9.7911 0.0000
# 4 0.0000 0.0000 0.0000 13.4738 0.0000 -1.5919
# 5 3.9931 13.1267 9.7911 0.0000 37.8199 0.0000
# 6 0.0000 0.0000 0.0000 -1.5919 0.0000 14.8377
#
#
#
# Elastic Compliance Matrix: (Units=1/GPa)
#
#
# Indices 1 2 3 4 5 6 
#
# 1 0.015041 -0.005173 -0.005658 0.000000 0.001672 0.000000
# 2 -0.005173 0.019752 -0.005224 0.000000 -0.004957 0.000000
# 3 -0.005658 -0.005224 0.018408 0.000000 -0.002355 0.000000
# 4 0.000000 0.000000 0.000000 0.075171 0.000000 0.008065
# 5 0.001672 -0.004957 -0.002355 0.000000 0.028595 0.000000
# 6 0.000000 0.000000 0.000000 0.008065 0.000000 0.068261
#
#
# Mechanical properties :
#
#
# Convention : Reuss Voigt Hill
#
# Bulk Modulus (GPa) = 47.41448 50.96041 49.18745
# Shear Modulus (GPa) = 18.91305 22.16208 20.53756
#
# Velocity S-wave (km/s) = 3.14692 3.40651 3.27928
# Velocity P-wave (km/s) = 6.16691 6.49275 6.33193
#
# Compressibility (1/GPa) = 0.02109060
#
# Stress axis : x y z
#
# Youngs Moduli (GPa) = 66.48590 50.62803 54.32367
#
# Poissons Ratio (x) = 0.26190 0.30735
# Poissons Ratio (y) = 0.34393 0.28381
# Poissons Ratio (z) = 0.37616 0.26450
#
# Static dielectric constant tensor:
#      x y z
#    x 1.710600 0.000000 -0.021550 
#    y 0.000000 1.694470 0.000000 
#    z -0.021550 0.000000 1.649650 
# 
# From -- ./inp_files/79045.got.cif
#   From: 2010.05.17/outbox.cif.g08.bks.cpg/sg12_40_cif.got.tgz:79045.got - 2010.06.03 13:09:07.
