data_PCOD9190567
_publ_section_title
;
Structure prediction by ZEFSAII (Michael W. Deem and Ramdas Pophale) SiO2 
 PCOD9190567
Probable space group: C 2/M
;
_chemical_formula_sum "Si O2"
_cell_formula_units_Z 28
_cell_length_a 5.382861
_cell_length_b 28.771143
_cell_length_c 7.722205
_cell_angle_alpha 90.000000
_cell_angle_beta 60.775007
_cell_angle_gamma 90.000000
_cell_volume 1043.713147
_symmetry_space_group_name_H-M "C 2/M"
_symmetry_group_IT_number 12
_symmetry_cell_setting 'monoclinic'
loop_
_space_group_symop_operation_xyz
x,y,z
-x,y,-z
-x,-y,-z
x,-y,z
1/2+x,1/2+y,z
1/2-x,1/2+y,-z
1/2-x,1/2-y,-z
1/2+x,1/2-y,z
loop_
_atom_site_type_symbol
_atom_site_label
_atom_site_fract_x
_atom_site_fract_y
_atom_site_fract_z
Si Si1 0.000000 0.594964 0.000000
Si Si2 0.471562 0.733803 0.766088
Si Si3 0.239872 0.360451 0.221024
Si Si4 0.442364 0.449547 0.315768
O O1 0.732983 0.560994 0.113075
O O2 0.987799 0.629297 0.171171
O O3 0.738280 0.769586 0.692122
O O4 0.666162 0.687462 0.722287
O O5 0.250000 0.750000 0.000000
O O6 0.258590 0.404609 0.336031
O O7 0.500000 0.364612 0.000000
O O8 0.500000 0.450690 0.500000
O O9 0.323891 0.500000 0.303687
#
# Coordination Sequence:
#
# PCOD9190567 Si02
#       4
#     4   8   8   8
#     4  10  23  38  64  94 130 170 212 274 329 396
#     4  10  20  31  57  93 132 172 221 275 331 400
#     4  10  21  35  59  93 128 164 218 268 325 394
#     4  10  23  42  64  93 129 170 218 272 334 401
#
# _framework density 26.827293000000001
#
# number of rings (size 3 to 8) (size 9 to 14) (size 15 to 20)
#    0.000    2.000    2.857    0.429    8.000    7.429 
#    0.000    2.857    0.000    1.714    0.000    0.000 
#    0.000    0.000    0.000    0.000    0.000    0.000 
#
# Total GULP energy -77987.650787 kJ/mol
# GULP energy per Si atom -5570.546485 kJ/mol
# Density = 2.676623 g / cm^3
# Si number density = 26.827293 Si / 1000 Ang^3
#
#
#
# Elastic Constant Matrix: (Units=GPa)
#
#
# Indices 1 2 3 4 5 6 
#
# 1 138.8995 34.2045 22.2163 0.0000 5.4917 0.0000
# 2 34.2045 226.3564 25.5600 0.0000 25.6882 0.0000
# 3 22.2163 25.5600 64.9138 0.0000 -1.3528 0.0000
# 4 0.0000 0.0000 0.0000 -23.0966 0.0000 27.9559
# 5 5.4917 25.6882 -1.3528 0.0000 62.6156 0.0000
# 6 0.0000 0.0000 0.0000 27.9559 0.0000-1377.7982
#
#
#
# Elastic Compliance Matrix: (Units=1/GPa)
#
#
# Indices 1 2 3 4 5 6 
#
# 1 0.007803 -0.000873 -0.002335 0.000000 -0.000377 0.000000
# 2 -0.000873 0.004968 -0.001699 0.000000 -0.001998 0.000000
# 3 -0.002335 -0.001699 0.016900 0.000000 0.001267 0.000000
# 4 0.000000 0.000000 0.000000 -0.044386 0.000000 -0.000901
# 5 -0.000377 -0.001998 0.001267 0.000000 0.016851 0.000000
# 6 0.000000 0.000000 0.000000 -0.000901 0.000000 -0.000744
#
#
# Mechanical properties :
#
#
# Convention : Reuss Voigt Hill
#
# Bulk Modulus (GPa) = 50.35911 66.01460 58.18686
# Shear Modulus (GPa) = 280.53379 -244.44325 18.04527
#
# Velocity S-wave (km/s) = 10.23706 -9.55590 2.59636
# Velocity P-wave (km/s) = 12.59135 9.85357 5.54298
#
# Compressibility (1/GPa) = 0.01985738
#
# Stress axis : x y z
#
# Youngs Moduli (GPa) = 128.16148 201.27379 59.17313
#
# Poissons Ratio (x) = 0.17565 0.13815
# Poissons Ratio (y) = 0.11184 0.10055
# Poissons Ratio (z) = 0.29921 0.34202
#
# Static dielectric constant tensor:
#      x y z
#    x 2.593130 0.000000 0.520590 
#    y 0.000000 2.219580 0.000000 
#    z 0.520590 0.000000 2.731220 
# 
# From -- ./inp_files/33915.got.cif
#   From: 2010.05.17/outbox.cif.g08.bks.cpg/sg12_17_cif.got.tgz:33915.got - 2010.06.03 13:09:07.
