data_PCOD9190388
_publ_section_title
;
Structure prediction by ZEFSAII (Michael W. Deem and Ramdas Pophale) SiO2 
 PCOD9190388
Probable space group: C 2/M
;
_chemical_formula_sum "Si O2"
_cell_formula_units_Z 48
_cell_length_a 31.720418
_cell_length_b 15.522106
_cell_length_c 5.388024
_cell_angle_alpha 90.000000
_cell_angle_beta 111.176589
_cell_angle_gamma 90.000000
_cell_volume 2473.743278
_symmetry_space_group_name_H-M "C 2/M"
_symmetry_group_IT_number 12
_symmetry_cell_setting 'monoclinic'
loop_
_space_group_symop_operation_xyz
x,y,z
-x,y,-z
-x,-y,-z
x,-y,z
1/2+x,1/2+y,z
1/2-x,1/2+y,-z
1/2-x,1/2-y,-z
1/2+x,1/2-y,z
loop_
_atom_site_type_symbol
_atom_site_label
_atom_site_fract_x
_atom_site_fract_y
_atom_site_fract_z
Si Si1 0.236288 0.000000 0.656159
Si Si2 0.514146 0.266390 0.781636
Si Si3 0.183282 0.325187 0.859642
Si Si4 0.595992 0.153918 0.959749
Si Si5 0.224842 0.810664 0.648344
Si Si6 0.449292 0.904402 0.639396
Si Si7 0.293994 0.000000 0.288343
O O1 0.211810 0.091432 0.551860
O O2 0.275192 0.000000 0.527087
O O3 0.256455 0.000000 0.982065
O O4 0.500000 0.310948 0.500000
O O5 0.566247 0.240803 0.897107
O O6 0.485200 0.174804 0.721742
O O7 0.500000 0.313013 0.000000
O O8 0.147667 0.326434 0.006291
O O9 0.183822 0.242359 0.682864
O O10 0.178255 0.413232 0.697336
O O11 0.234037 0.325483 0.072397
O O12 0.577021 0.104064 0.676738
O O13 0.583159 0.108721 0.190839
O O14 0.250000 0.750000 0.500000
O O15 0.469972 0.000000 0.696673
#
# Coordination Sequence:
#
# PCOD9190388 Si02
#       7
#     4   8   8   8   8   8   4
#     4  10  20  36  54  72  90 125 166 198 249 308
#     4   8  16  30  43  58  86 124 163 199 233 280
#     4  10  22  34  49  75  99 132 167 211 258 291
#     4  10  21  31  44  66  91 123 166 209 239 280
#     4  10  20  37  55  69  99 131 164 209 259 311
#     4  10  20  31  44  64  94 133 170 202 241 285
#     4  10  20  32  48  72 100 123 162 207 241 297
#
# _framework density 19.403790999999998
#
# number of rings (size 3 to 8) (size 9 to 14) (size 15 to 20)
#    0.000    2.333    1.667    0.500    4.667    6.000 
#    0.000    0.000    0.000    0.000    0.000    0.000 
#    0.000    0.000    0.000   13.500    0.000    4.583 
#
# Total GULP energy -133658.631320 kJ/mol
# GULP energy per Si atom -5569.109638 kJ/mol
# Density = 1.935963 g / cm^3
# Si number density = 19.403791 Si / 1000 Ang^3
#
#
#
# Elastic Constant Matrix: (Units=GPa)
#
#
# Indices 1 2 3 4 5 6 
#
# 1 81.0420 19.4865 7.6153 0.0000 -24.4654 0.0000
# 2 19.4865 98.6323 3.1087 0.0000 -10.5203 0.0000
# 3 7.6153 3.1087 93.1505 0.0000 -24.1682 0.0000
# 4 0.0000 0.0000 0.0000 8.2704 0.0000 -9.4051
# 5 -24.4654 -10.5203 -24.1682 0.0000 30.5208 0.0000
# 6 0.0000 0.0000 0.0000 -9.4051 0.0000 6.7733
#
#
#
# Elastic Compliance Matrix: (Units=1/GPa)
#
#
# Indices 1 2 3 4 5 6 
#
# 1 0.017106 -0.001848 0.002587 0.000000 0.015124 0.000000
# 2 -0.001848 0.010766 0.000466 0.000000 0.002599 0.000000
# 3 0.002587 0.000466 0.013955 0.000000 0.013285 0.000000
# 4 0.000000 0.000000 0.000000 -0.208799 0.000000 -0.289932
# 5 0.015124 0.002599 0.013285 0.000000 0.056304 0.000000
# 6 0.000000 0.000000 0.000000 -0.289932 0.000000 -0.254951
#
#
# Mechanical properties :
#
#
# Convention : Reuss Voigt Hill
#
# Bulk Modulus (GPa) = 22.60499 37.02730 29.81614
# Shear Modulus (GPa) = -14.15296 25.28719 5.56712
#
# Velocity S-wave (km/s) = -2.70365 3.61391 1.69568
# Velocity P-wave (km/s) = 1.38879 6.04465 4.38557
#
# Compressibility (1/GPa) = 0.04423802
#
# Stress axis : x y z
#
# Youngs Moduli (GPa) = 58.45812 92.88274 71.65836
#
# Poissons Ratio (x) = 0.17165 -0.18539
# Poissons Ratio (y) = 0.10803 -0.03339
# Poissons Ratio (z) = -0.15124 -0.04329
#
# Static dielectric constant tensor:
#      x y z
#    x 1.695370 0.000000 -0.004130 
#    y 0.000000 1.727130 0.000000 
#    z -0.004130 0.000000 1.809470 
# 
# From -- ./inp_files/31249.got.cif
#   From: 2010.05.17/outbox.cif.g08.bks.cpg/sg12_16_cif.got.tgz:31249.got - 2010.06.03 13:09:07.
