data_PCOD9190406
_publ_section_title
;
Structure prediction by ZEFSAII (Michael W. Deem and Ramdas Pophale) SiO2 
 PCOD9190406
Probable space group: C 2/M
;
_chemical_formula_sum "Si O2"
_cell_formula_units_Z 48
_cell_length_a 32.383082
_cell_length_b 7.594685
_cell_length_c 11.611139
_cell_angle_alpha 90.000000
_cell_angle_beta 99.958643
_cell_angle_gamma 90.000000
_cell_volume 2812.609159
_symmetry_space_group_name_H-M "C 2/M"
_symmetry_group_IT_number 12
_symmetry_cell_setting 'monoclinic'
loop_
_space_group_symop_operation_xyz
x,y,z
-x,y,-z
-x,-y,-z
x,-y,z
1/2+x,1/2+y,z
1/2-x,1/2+y,-z
1/2-x,1/2-y,-z
1/2+x,1/2-y,z
loop_
_atom_site_type_symbol
_atom_site_label
_atom_site_fract_x
_atom_site_fract_y
_atom_site_fract_z
Si Si1 0.379197 0.292042 0.022929
Si Si2 0.773723 0.789574 0.336845
Si Si3 0.396446 0.707962 0.759801
Si Si4 0.444354 0.000000 0.087840
Si Si5 0.813152 0.787974 0.592547
Si Si6 0.461771 0.000000 0.820862
Si Si7 0.208186 0.211141 0.908620
O O1 0.384886 0.500000 0.050904
O O2 0.415811 0.171936 0.093196
O O3 0.334150 0.230609 0.048266
O O4 0.381508 0.272761 0.885547
O O5 0.799403 0.720864 0.459911
O O6 0.724817 0.757489 0.339777
O O7 0.787141 0.719279 0.219230
O O8 0.779778 0.000000 0.337994
O O9 0.404566 0.500000 0.744670
O O10 0.358014 0.769612 0.661357
O O11 0.437222 0.828289 0.764220
O O12 0.488541 0.000000 0.174484
O O13 0.454971 0.000000 0.956196
O O14 0.814773 0.000000 0.588593
O O15 0.205116 0.000000 0.900445
O O16 0.250000 0.250000 0.000000
#
# Coordination Sequence:
#
# PCOD9190406 Si02
#       7
#     8   8   8   4   8   4   8
#     4   9  18  31  46  67  95 127 158 190 236 285
#     4   9  18  30  45  65  91 126 162 192 231 278
#     4   9  17  29  47  69  94 123 154 193 241 287
#     4   9  18  32  48  69  97 125 153 196 243 291
#     4   9  17  30  45  65  94 123 155 196 237 280
#     4   9  18  30  48  73  95 119 157 196 243 294
#     4  10  20  31  45  67  94 126 162 195 228 276
#
# _framework density 17.066004
#
# number of rings (size 3 to 8) (size 9 to 14) (size 15 to 20)
#    0.000    2.833    0.000    1.000    2.333    2.667 
#    0.000    3.333    0.000    0.000    0.000    2.333 
#    0.000    6.667    0.000    0.000    0.000    0.000 
#
# Total GULP energy -133770.821901 kJ/mol
# GULP energy per Si atom -5573.784246 kJ/mol
# Density = 1.702716 g / cm^3
# Si number density = 17.066004 Si / 1000 Ang^3
#
#
#
# Elastic Constant Matrix: (Units=GPa)
#
#
# Indices 1 2 3 4 5 6 
#
# 1 146.1995 47.6970 52.1638 0.0000 28.9572 0.0000
# 2 47.6970 61.4313 26.9819 0.0000 12.1531 0.0000
# 3 52.1638 26.9819 54.9318 0.0000 12.8949 0.0000
# 4 0.0000 0.0000 0.0000 12.2358 0.0000 5.3678
# 5 28.9572 12.1531 12.8949 0.0000 27.8434 0.0000
# 6 0.0000 0.0000 0.0000 5.3678 0.0000 25.2724
#
#
#
# Elastic Compliance Matrix: (Units=1/GPa)
#
#
# Indices 1 2 3 4 5 6 
#
# 1 0.012760 -0.004949 -0.007942 0.000000 -0.007433 0.000000
# 2 -0.004949 0.023281 -0.006237 0.000000 -0.002126 0.000000
# 3 -0.007942 -0.006237 0.029431 0.000000 -0.002649 0.000000
# 4 0.000000 0.000000 0.000000 0.090125 0.000000 -0.019142
# 5 -0.007433 -0.002126 -0.002649 0.000000 0.045800 0.000000
# 6 0.000000 0.000000 0.000000 -0.019142 0.000000 0.043635
#
#
# Mechanical properties :
#
#
# Convention : Reuss Voigt Hill
#
# Bulk Modulus (GPa) = 36.74075 57.36091 47.05083
# Shear Modulus (GPa) = 17.10231 22.11832 19.61031
#
# Velocity S-wave (km/s) = 3.16907 3.60397 3.39350
# Velocity P-wave (km/s) = 5.91321 7.14159 6.55623
#
# Compressibility (1/GPa) = 0.02721773
#
# Stress axis : x y z
#
# Youngs Moduli (GPa) = 78.36843 42.95409 33.97777
#
# Poissons Ratio (x) = 0.21257 0.26984
# Poissons Ratio (y) = 0.38783 0.21191
# Poissons Ratio (z) = 0.62238 0.26789
#
# Static dielectric constant tensor:
#      x y z
#    x 1.554140 0.000000 0.001210 
#    y 0.000000 1.610210 0.000000 
#    z 0.001210 0.000000 1.585810 
# 
# From -- ./inp_files/179351.got.cif
#   From: 2010.05.17/outbox.cif.g08.bks.cpg/sg12_90_cif.got.tgz:179351.got - 2010.06.03 13:09:07.
