data_PCOD9190985
_publ_section_title
;
Structure prediction by ZEFSAII (Michael W. Deem and Ramdas Pophale) SiO2 
 PCOD9190985
Probable space group: C 2/M
;
_chemical_formula_sum "Si O2"
_cell_formula_units_Z 58
_cell_length_a 22.448379
_cell_length_b 7.549980
_cell_length_c 25.832186
_cell_angle_alpha 90.000000
_cell_angle_beta 32.372592
_cell_angle_gamma 90.000000
_cell_volume 2344.168580
_symmetry_space_group_name_H-M "C 2/M"
_symmetry_group_IT_number 12
_symmetry_cell_setting 'monoclinic'
loop_
_space_group_symop_operation_xyz
x,y,z
-x,y,-z
-x,-y,-z
x,-y,z
1/2+x,1/2+y,z
1/2-x,1/2+y,-z
1/2-x,1/2-y,-z
1/2+x,1/2-y,z
loop_
_atom_site_type_symbol
_atom_site_label
_atom_site_fract_x
_atom_site_fract_y
_atom_site_fract_z
Si Si1 0.023124 0.203896 0.290592
Si Si2 0.383191 0.287583 0.113283
Si Si3 0.757186 0.287586 0.933631
Si Si4 0.614191 0.205504 0.702834
Si Si5 0.854994 0.203593 0.701488
Si Si6 0.000000 0.500000 0.500000
Si Si7 0.484011 0.294684 0.893662
Si Si8 0.159498 0.215371 0.406670
O O1 0.134395 0.213906 0.173581
O O2 0.061419 0.283912 0.317454
O O3 0.921673 0.274512 0.330327
O O4 0.995988 0.000000 0.320216
O O5 0.365447 0.500000 0.122987
O O6 0.266845 0.207164 0.182216
O O7 0.413280 0.221918 0.149114
O O8 0.500000 0.247973 0.000000
O O9 0.762202 0.500000 0.922710
O O10 0.750000 0.250000 0.000000
O O11 0.636077 0.218610 0.004646
O O12 0.518412 0.289530 0.808886
O O13 0.734388 0.264425 0.635798
O O14 0.608604 0.000000 0.719693
O O15 0.829306 0.275552 0.662554
O O16 0.888240 0.000000 0.668623
O O17 0.943677 0.340871 0.504626
O O18 0.476452 0.500000 0.914676
O O19 0.143361 0.000000 0.421685
#
# Coordination Sequence:
#
# PCOD9190985 Si02
#       8
#     8   8   8   8   8   2   8   8
#     4  11  23  37  57  85 123 174 224 266 320 381
#     4  10  20  33  52  80 118 166 221 274 316 370
#     4  11  21  33  48  74 116 168 225 280 320 363
#     4  11  22  37  61  90 123 163 206 264 315 373
#     4  10  22  40  60  89 129 172 213 269 326 381
#     4  12  26  44  84 114 126 176 194 262 354 402
#     4  10  20  32  51  75 113 161 216 273 319 367
#     4  10  24  46  72 109 139 161 215 267 323 409
#
# _framework density 24.742249000000001
#
# number of rings (size 3 to 8) (size 9 to 14) (size 15 to 20)
#    0.000    1.517    2.759    2.276    2.897    3.034 
#    0.000    0.000    0.000    0.828    0.000    0.000 
#    0.000    0.000    0.000    0.000    0.000    0.000 
#
# Total GULP energy -161584.127388 kJ/mol
# GULP energy per Si atom -5571.866462 kJ/mol
# Density = 2.468593 g / cm^3
# Si number density = 24.742249 Si / 1000 Ang^3
#
#
#
# Elastic Constant Matrix: (Units=GPa)
#
#
# Indices 1 2 3 4 5 6 
#
# 1 204.6513 12.0527 54.6836 -0.0219 -31.7900 0.0040
# 2 12.0527 78.9400 -0.4892 -0.0567 -11.4248 -0.0108
# 3 54.6836 -0.4892 65.7206 -0.0077 -21.3007 -0.0126
# 4 -0.0219 -0.0567 -0.0077 32.7265 0.0048 -20.6805
# 5 -31.7900 -11.4248 -21.3007 0.0048 44.6313 -0.0097
# 6 0.0040 -0.0108 -0.0126 -20.6805 -0.0097 20.5791
#
#
#
# Elastic Compliance Matrix: (Units=1/GPa)
#
#
# Indices 1 2 3 4 5 6 
#
# 1 0.006535 -0.000706 -0.004723 -0.000001 0.002220 -0.000005
# 2 -0.000706 0.013342 0.001929 0.000079 0.003833 0.000090
# 3 -0.004723 0.001929 0.021566 0.000044 0.007422 0.000062
# 4 -0.000001 0.000079 0.000044 0.083724 0.000050 0.084136
# 5 0.002220 0.003833 0.007422 0.000050 0.028510 0.000069
# 6 -0.000005 0.000090 0.000062 0.084136 0.000069 0.133144
#
#
# Mechanical properties :
#
#
# Convention : Reuss Voigt Hill
#
# Bulk Modulus (GPa) = 29.03329 53.53400 41.28365
# Shear Modulus (GPa) = 16.37724 38.45836 27.41780
#
# Velocity S-wave (km/s) = 2.57556 3.94681 3.33248
# Velocity P-wave (km/s) = 4.53921 6.51563 5.61506
#
# Compressibility (1/GPa) = 0.03444322
#
# Stress axis : x y z
#
# Youngs Moduli (GPa) = 153.02732 74.94896 46.36965
#
# Poissons Ratio (x) = 0.05290 0.21901
# Poissons Ratio (y) = 0.10800 -0.08945
# Poissons Ratio (z) = 0.72277 -0.14458
#
# Static dielectric constant tensor:
#      x y z
#    x 2.059530 0.000010 0.037220 
#    y 0.000010 1.936100 0.000000 
#    z 0.037220 0.000000 2.058100 
# 
# From -- ./inp_files/382023.got.cif
#   From: 2010.05.17/outbox.cif.g08.bks.cpg/sg12_192_cif.got.tgz:382023.got - 2010.06.03 13:09:07.
