data_PCOD9190556
_publ_section_title
;
Structure prediction by ZEFSAII (Michael W. Deem and Ramdas Pophale) SiO2 
 PCOD9190556
Probable space group: C 2/M
;
_chemical_formula_sum "Si O2"
_cell_formula_units_Z 48
_cell_length_a 19.399045
_cell_length_b 19.002374
_cell_length_c 14.742478
_cell_angle_alpha 90.000000
_cell_angle_beta 151.500383
_cell_angle_gamma 90.000000
_cell_volume 2593.082027
_symmetry_space_group_name_H-M "C 2/M"
_symmetry_group_IT_number 12
_symmetry_cell_setting 'monoclinic'
loop_
_space_group_symop_operation_xyz
x,y,z
-x,y,-z
-x,-y,-z
x,-y,z
1/2+x,1/2+y,z
1/2-x,1/2+y,-z
1/2-x,1/2-y,-z
1/2+x,1/2-y,z
loop_
_atom_site_type_symbol
_atom_site_label
_atom_site_fract_x
_atom_site_fract_y
_atom_site_fract_z
Si Si1 0.703523 0.723356 0.044449
Si Si2 0.655574 0.082679 0.224607
Si Si3 0.320986 0.918124 0.534060
Si Si4 0.921341 0.815105 0.814060
Si Si5 0.023912 0.654010 0.626901
Si Si6 0.694433 0.717657 0.647491
O O1 0.757972 0.768988 0.193392
O O2 0.804359 0.655152 0.166912
O O3 0.750000 0.750000 0.000000
O O4 0.537581 0.709089 0.874107
O O5 0.643887 0.089830 0.319463
O O6 0.786051 0.134654 0.345998
O O7 0.681462 0.000000 0.233003
O O8 0.500000 0.102668 0.000000
O O9 0.177687 0.875902 0.340750
O O10 0.447459 0.886237 0.618853
O O11 0.302592 0.000000 0.493230
O O12 0.815660 0.752243 0.722414
O O13 0.000000 0.835777 0.000000
O O14 0.946558 0.732858 0.534276
O O15 0.000000 0.622786 0.500000
#
# Coordination Sequence:
#
# PCOD9190556 Si02
#       6
#     8   8   8   8   8   8
#     4  10  20  31  54  87 110 139 180 239 289 334
#     4  10  21  35  55  81 110 147 197 240 271 323
#     4  10  22  37  58  83 112 154 197 229 276 342
#     4   9  19  36  57  84 112 142 187 233 286 343
#     4   9  20  36  54  84 115 141 183 234 294 341
#     4   9  19  36  57  79 112 146 187 237 281 333
#
# _framework density 18.510791000000001
#
# number of rings (size 3 to 8) (size 9 to 14) (size 15 to 20)
#    0.000    2.500    0.000    2.500    7.000    2.000 
#    0.000    0.833    0.000    5.500    0.000    0.000 
#    0.000    0.000    0.000    0.000    0.000    0.000 
#
# Total GULP energy -133642.010508 kJ/mol
# GULP energy per Si atom -5568.417105 kJ/mol
# Density = 1.846866 g / cm^3
# Si number density = 18.510791 Si / 1000 Ang^3
#
#
#
# Elastic Constant Matrix: (Units=GPa)
#
#
# Indices 1 2 3 4 5 6 
#
# 1 130.1306 34.9011 11.3556 0.0000 16.2162 0.0000
# 2 34.9011 82.4210 13.7621 0.0000 -6.7428 0.0000
# 3 11.3556 13.7621 32.1297 0.0000 5.5781 0.0000
# 4 0.0000 0.0000 0.0000 269.2055 0.0000 -53.9906
# 5 16.2162 -6.7428 5.5781 0.0000 26.6230 0.0000
# 6 0.0000 0.0000 0.0000 -53.9906 0.0000 29.3573
#
#
#
# Elastic Compliance Matrix: (Units=1/GPa)
#
#
# Indices 1 2 3 4 5 6 
#
# 1 0.009863 -0.004726 -0.000219 0.000000 -0.007159 0.000000
# 2 -0.004726 0.015911 -0.006584 0.000000 0.008288 0.000000
# 3 -0.000219 -0.006584 0.035582 0.000000 -0.008989 0.000000
# 4 0.000000 0.000000 0.000000 0.005885 0.000000 0.010824
# 5 -0.007159 0.008288 -0.008989 0.000000 0.045904 0.000000
# 6 0.000000 0.000000 0.000000 0.010824 0.000000 0.053969
#
#
# Mechanical properties :
#
#
# Convention : Reuss Voigt Hill
#
# Bulk Modulus (GPa) = 26.11015 40.52433 33.31724
# Shear Modulus (GPa) = 24.63799 77.34798 50.99298
#
# Velocity S-wave (km/s) = 3.65225 6.47117 5.25428
# Velocity P-wave (km/s) = 5.64989 8.81899 7.40594
#
# Compressibility (1/GPa) = 0.03829928
#
# Stress axis : x y z
#
# Youngs Moduli (GPa) = 101.38705 62.84865 28.10414
#
# Poissons Ratio (x) = 0.29700 0.00615
# Poissons Ratio (y) = 0.47912 0.18504
# Poissons Ratio (z) = 0.02220 0.41379
#
# Static dielectric constant tensor:
#      x y z
#    x 1.603190 0.000000 0.029580 
#    y 0.000000 1.658990 0.000000 
#    z 0.029580 0.000000 1.647860 
# 
# From -- ./inp_files/75437.got.cif
#   From: 2010.05.17/outbox.cif.g08.bks.cpg/sg12_38_cif.got.tgz:75437.got - 2010.06.03 13:09:07.
