data_PCOD9190606
_publ_section_title
;
Structure prediction by ZEFSAII (Michael W. Deem and Ramdas Pophale) SiO2 
 PCOD9190606
Probable space group: C 2/M
;
_chemical_formula_sum "Si O2"
_cell_formula_units_Z 48
_cell_length_a 16.182732
_cell_length_b 18.163185
_cell_length_c 7.269247
_cell_angle_alpha 90.000000
_cell_angle_beta 105.031994
_cell_angle_gamma 90.000000
_cell_volume 2063.535760
_symmetry_space_group_name_H-M "C 2/M"
_symmetry_group_IT_number 12
_symmetry_cell_setting 'monoclinic'
loop_
_space_group_symop_operation_xyz
x,y,z
-x,y,-z
-x,-y,-z
x,-y,z
1/2+x,1/2+y,z
1/2-x,1/2+y,-z
1/2-x,1/2-y,-z
1/2+x,1/2-y,z
loop_
_atom_site_type_symbol
_atom_site_label
_atom_site_fract_x
_atom_site_fract_y
_atom_site_fract_z
Si Si1 0.108061 0.920239 0.596608
Si Si2 0.655982 0.771679 0.205991
Si Si3 0.307407 0.083606 0.570874
Si Si4 0.826244 0.795402 0.161556
Si Si5 0.752931 0.080929 0.865871
Si Si6 0.930333 0.877197 0.800781
O O1 0.207643 0.914657 0.578758
O O2 0.102134 0.845560 0.708445
O O3 0.051744 0.917173 0.380016
O O4 0.104953 0.000000 0.687803
O O5 0.644629 0.850413 0.294910
O O6 0.759866 0.758378 0.264702
O O7 0.603925 0.705058 0.266301
O O8 0.636401 0.755997 0.977103
O O9 0.305353 0.094401 0.347837
O O10 0.338311 0.000000 0.624932
O O11 0.763806 0.856174 0.024696
O O12 0.848827 0.081722 0.840853
O O13 0.731707 0.000000 0.929355
O O14 0.000000 0.876664 0.000000
#
# Coordination Sequence:
#
# PCOD9190606 Si02
#       6
#     8   8   8   8   8   8
#     4   9  17  29  46  68  94 122 154 192 231 276
#     4   9  18  30  46  67  93 120 156 197 235 278
#     4   8  15  28  47  70  91 115 150 194 242 280
#     4   9  17  28  46  70  94 120 148 191 249 282
#     4   9  17  29  47  72  98 120 149 191 235 283
#     4  10  20  32  46  64  91 131 169 189 216 266
#
# _framework density 23.261047000000001
#
# number of rings (size 3 to 8) (size 9 to 14) (size 15 to 20)
#    0.000    3.000    0.000    2.000    0.000   14.000 
#    0.000    3.333    0.000    5.500    0.000    0.000 
#    0.000    4.000    0.000    0.000    0.000    0.000 
#
# Total GULP energy -133816.578198 kJ/mol
# GULP energy per Si atom -5575.690758 kJ/mol
# Density = 2.320810 g / cm^3
# Si number density = 23.261047 Si / 1000 Ang^3
#
#
#
# Elastic Constant Matrix: (Units=GPa)
#
#
# Indices 1 2 3 4 5 6 
#
# 1 18.6423 3.0293 10.7672 0.0000 -5.7987 0.0000
# 2 3.0293 157.3043 63.9251 0.0000 7.7599 0.0000
# 3 10.7672 63.9251 119.9011 0.0000 -2.8859 0.0000
# 4 0.0000 0.0000 0.0000 42.1176 0.0000 1.1358
# 5 -5.7987 7.7599 -2.8859 0.0000 22.9895 0.0000
# 6 0.0000 0.0000 0.0000 1.1358 0.0000 32.5487
#
#
#
# Elastic Compliance Matrix: (Units=1/GPa)
#
#
# Indices 1 2 3 4 5 6 
#
# 1 0.061219 0.000238 -0.005270 0.000000 0.014700 0.000000
# 2 0.000238 0.008373 -0.004566 0.000000 -0.003339 0.000000
# 3 -0.005270 -0.004566 0.011287 0.000000 0.001629 0.000000
# 4 0.000000 0.000000 0.000000 0.023765 0.000000 -0.000829
# 5 0.014700 -0.003339 0.001629 0.000000 0.048537 0.000000
# 6 0.000000 0.000000 0.000000 -0.000829 0.000000 0.030752
#
#
# Mechanical properties :
#
#
# Convention : Reuss Voigt Hill
#
# Bulk Modulus (GPa) = 16.21220 50.14341 33.17781
# Shear Modulus (GPa) = 22.35231 34.07292 28.21262
#
# Velocity S-wave (km/s) = 3.10326 3.83143 3.48641
# Velocity P-wave (km/s) = 4.45253 6.41691 5.52276
#
# Compressibility (1/GPa) = 0.06168194
#
# Stress axis : x y z
#
# Youngs Moduli (GPa) = 16.33478 119.43728 88.59895
#
# Poissons Ratio (x) = -0.02840 0.46696
# Poissons Ratio (y) = -0.00388 0.40450
# Poissons Ratio (z) = 0.08609 0.54530
#
# Static dielectric constant tensor:
#      x y z
#    x 1.971570 0.000000 -0.044320 
#    y 0.000000 1.972450 0.000000 
#    z -0.044320 0.000000 1.963350 
# 
# From -- ./inp_files/97868.got.cif
#   From: 2010.05.17/outbox.cif.g08.bks.cpg/sg12_49_cif.got.tgz:97868.got - 2010.06.03 13:09:07.
