data_PCOD9190125
_publ_section_title
;
Structure prediction by ZEFSAII (Michael W. Deem and Ramdas Pophale) SiO2 
 PCOD9190125
Probable space group: C 2/M
;
_chemical_formula_sum "Si O2"
_cell_formula_units_Z 44
_cell_length_a 13.542928
_cell_length_b 15.025295
_cell_length_c 10.686528
_cell_angle_alpha 90.000000
_cell_angle_beta 109.036043
_cell_angle_gamma 90.000000
_cell_volume 2055.644940
_symmetry_space_group_name_H-M "C 2/M"
_symmetry_group_IT_number 12
_symmetry_cell_setting 'monoclinic'
loop_
_space_group_symop_operation_xyz
x,y,z
-x,y,-z
-x,-y,-z
x,-y,z
1/2+x,1/2+y,z
1/2-x,1/2+y,-z
1/2-x,1/2-y,-z
1/2+x,1/2-y,z
loop_
_atom_site_type_symbol
_atom_site_label
_atom_site_fract_x
_atom_site_fract_y
_atom_site_fract_z
Si Si1 0.677697 0.594520 0.739201
Si Si2 0.383474 0.403118 0.004541
Si Si3 0.675252 0.736814 0.212767
Si Si4 0.029468 0.687335 0.337360
Si Si5 0.167468 0.394085 0.607342
Si Si6 0.000000 0.851470 0.500000
O O1 0.736327 0.500000 0.763030
O O2 0.617840 0.600425 0.846773
O O3 0.746428 0.681378 0.760916
O O4 0.597439 0.595622 0.591803
O O5 0.334645 0.500000 0.949518
O O6 0.500000 0.404196 0.000000
O O7 0.332595 0.318118 0.918518
O O8 0.569017 0.784724 0.216846
O O9 0.728329 0.663883 0.327762
O O10 0.115155 0.630712 0.451657
O O11 0.918890 0.640446 0.324863
O O12 0.028568 0.783154 0.402789
O O13 0.181998 0.500000 0.622279
#
# Coordination Sequence:
#
# PCOD9190125 Si02
#       6
#     8   8   8   8   8   4
#     4  11  23  39  60  91 125 162 205 258 315 373
#     4  10  23  42  64  89 119 160 212 258 314 379
#     4  12  22  39  65  92 125 165 212 264 307 374
#     4  10  20  37  59  88 131 159 206 257 312 369
#     4  10  21  38  62  92 130 172 209 255 314 380
#     4  10  19  40  61  86 124 164 201 256 313 370
#
# _framework density 21.404472999999999
#
# number of rings (size 3 to 8) (size 9 to 14) (size 15 to 20)
#    0.000    1.636    3.636    4.091    0.000    1.455 
#    0.000    1.818    0.000    0.545    0.000    0.000 
#    0.000    0.000    0.000    0.000    0.000    0.000 
#
# Total GULP energy -122692.242667 kJ/mol
# GULP energy per Si atom -5576.920121 kJ/mol
# Density = 2.135576 g / cm^3
# Si number density = 21.404473 Si / 1000 Ang^3
#
#
#
# Elastic Constant Matrix: (Units=GPa)
#
#
# Indices 1 2 3 4 5 6 
#
# 1 33.9052 28.7383 -7.9431 0.0000 -5.3224 0.0000
# 2 28.7383 188.7966 27.5506 0.0000 2.3399 0.0000
# 3 -7.9431 27.5506 15.6426 0.0000 3.5977 0.0000
# 4 0.0000 0.0000 0.0000 25.7307 0.0000 18.9574
# 5 -5.3224 2.3399 3.5977 0.0000 24.6279 0.0000
# 6 0.0000 0.0000 0.0000 18.9574 0.0000 69.3936
#
#
#
# Elastic Compliance Matrix: (Units=1/GPa)
#
#
# Indices 1 2 3 4 5 6 
#
# 1 0.060106 -0.018144 0.061147 0.000000 0.005781 0.000000
# 2 -0.018144 0.012640 -0.031351 0.000000 -0.000542 0.000000
# 3 0.061147 -0.031351 0.151563 0.000000 -0.005948 0.000000
# 4 0.000000 0.000000 0.000000 0.048657 0.000000 -0.013293
# 5 0.005781 -0.000542 -0.005948 0.000000 0.042774 0.000000
# 6 0.000000 0.000000 0.000000 -0.013293 0.000000 0.018042
#
#
# Mechanical properties :
#
#
# Convention : Reuss Voigt Hill
#
# Bulk Modulus (GPa) = 4.03855 37.22620 20.63237
# Shear Modulus (GPa) = 12.72212 36.61702 24.66957
#
# Velocity S-wave (km/s) = 2.44061 4.14057 3.39859
# Velocity P-wave (km/s) = 3.13576 6.34733 5.00608
#
# Compressibility (1/GPa) = 0.24761373
#
# Stress axis : x y z
#
# Youngs Moduli (GPa) = 16.63739 79.11232 6.59789
#
# Poissons Ratio (x) = 1.43540 -0.40344
# Poissons Ratio (y) = 0.30187 0.20685
# Poissons Ratio (z) = -1.01733 2.48027
#
# Static dielectric constant tensor:
#      x y z
#    x 1.823290 0.000000 -0.031480 
#    y 0.000000 1.763730 0.000000 
#    z -0.031480 0.000000 1.850480 
# 
# From -- ./inp_files/142105.got.cif
#   From: 2010.05.17/outbox.cif.g08.bks.cpg/sg12_72_cif.got.tgz:142105.got - 2010.06.03 13:09:07.
