data_PCOD9190335
_publ_section_title
;
Structure prediction by ZEFSAII (Michael W. Deem and Ramdas Pophale) SiO2 
 PCOD9190335
Probable space group: C 2/M
;
_chemical_formula_sum "Si O2"
_cell_formula_units_Z 48
_cell_length_a 20.479851
_cell_length_b 7.356442
_cell_length_c 14.135601
_cell_angle_alpha 90.000000
_cell_angle_beta 89.372817
_cell_angle_gamma 90.000000
_cell_volume 2129.525603
_symmetry_space_group_name_H-M "C 2/M"
_symmetry_group_IT_number 12
_symmetry_cell_setting 'monoclinic'
loop_
_space_group_symop_operation_xyz
x,y,z
-x,y,-z
-x,-y,-z
x,-y,z
1/2+x,1/2+y,z
1/2-x,1/2+y,-z
1/2-x,1/2-y,-z
1/2+x,1/2-y,z
loop_
_atom_site_type_symbol
_atom_site_label
_atom_site_fract_x
_atom_site_fract_y
_atom_site_fract_z
Si Si1 0.392192 0.712338 0.122642
Si Si2 0.848280 0.778576 0.919905
Si Si3 0.699950 0.716734 0.416109
Si Si4 0.447978 0.277951 0.578745
Si Si5 0.238484 0.280633 0.781757
Si Si6 0.026806 0.778352 0.207063
O O1 0.404681 0.500000 0.103331
O O2 0.336146 0.726582 0.202066
O O3 0.460927 0.787063 0.157495
O O4 0.363104 0.787769 0.025256
O O5 0.781987 0.717380 0.870165
O O6 0.908930 0.727076 0.852178
O O7 0.845375 0.000000 0.921992
O O8 0.694052 0.500000 0.404884
O O9 0.750000 0.750000 0.500000
O O10 0.626579 0.782629 0.437359
O O11 0.729214 0.784805 0.316238
O O12 0.500000 0.217306 0.500000
O O13 0.448309 0.500000 0.576772
O O14 0.468047 0.222120 0.684173
O O15 0.240235 0.500000 0.780727
O O16 0.025604 0.000000 0.207691
#
# Coordination Sequence:
#
# PCOD9190335 Si02
#       6
#     8   8   8   8   8   8
#     4  10  20  30  51  83 105 128 169 219 253 284
#     4   9  16  31  51  73 103 137 172 208 252 300
#     4  10  21  36  55  77 102 134 169 208 255 304
#     4   9  17  30  50  75 100 129 167 210 255 301
#     4  10  20  35  52  71 105 145 169 195 249 317
#     4   9  16  29  49  75 104 131 166 213 258 296
#
# _framework density 22.540230000000001
#
# number of rings (size 3 to 8) (size 9 to 14) (size 15 to 20)
#    0.000    2.500    1.667    1.000    2.333    2.667 
#    0.000    0.000    0.000    4.500    0.000    0.000 
#    0.000    0.000    0.000    0.000    0.000    0.000 
#
# Total GULP energy -134143.193982 kJ/mol
# GULP energy per Si atom -5589.299749 kJ/mol
# Density = 2.248893 g / cm^3
# Si number density = 22.540230 Si / 1000 Ang^3
#
#
#
# Elastic Constant Matrix: (Units=GPa)
#
#
# Indices 1 2 3 4 5 6 
#
# 1 74.1676 -15.4789 9.7718 0.0000 10.8007 0.0000
# 2 -15.4789 80.1873 -7.4262 0.0000 4.5675 0.0000
# 3 9.7718 -7.4262 93.0673 0.0000 1.8804 0.0000
# 4 0.0000 0.0000 0.0000 2.3743 0.0000 0.0390
# 5 10.8007 4.5675 1.8804 0.0000 42.4621 0.0000
# 6 0.0000 0.0000 0.0000 0.0390 0.0000 10.7924
#
#
#
# Elastic Compliance Matrix: (Units=1/GPa)
#
#
# Indices 1 2 3 4 5 6 
#
# 1 0.014858 0.002984 -0.001240 0.000000 -0.004045 0.000000
# 2 0.002984 0.013246 0.000789 0.000000 -0.002219 0.000000
# 3 -0.001240 0.000789 0.010943 0.000000 -0.000254 0.000000
# 4 0.000000 0.000000 0.000000 0.421208 0.000000 -0.001521
# 5 -0.004045 -0.002219 -0.000254 0.000000 0.024829 0.000000
# 6 0.000000 0.000000 0.000000 -0.001521 0.000000 0.092664
#
#
# Mechanical properties :
#
#
# Convention : Reuss Voigt Hill
#
# Bulk Modulus (GPa) = 22.66983 24.57283 23.62133
# Shear Modulus (GPa) = 8.51225 28.49611 18.50418
#
# Velocity S-wave (km/s) = 1.94542 3.55946 2.86831
# Velocity P-wave (km/s) = 3.88916 5.27432 4.63379
#
# Compressibility (1/GPa) = 0.04411149
#
# Stress axis : x y z
#
# Youngs Moduli (GPa) = 67.30296 75.49353 91.38109
#
# Poissons Ratio (x) = -0.22525 0.11334
# Poissons Ratio (y) = -0.20081 -0.07205
# Poissons Ratio (z) = 0.08347 -0.05953
#
# Static dielectric constant tensor:
#      x y z
#    x 1.783400 0.000000 0.010040 
#    y 0.000000 1.921180 0.000000 
#    z 0.010040 0.000000 1.793450 
# 
# From -- ./inp_files/153568.got.cif
#   From: 2010.05.17/outbox.cif.g08.bks.cpg/sg12_77_cif.got.tgz:153568.got - 2010.06.03 13:09:07.
