data_PCOD9190316
_publ_section_title
;
Structure prediction by ZEFSAII (Michael W. Deem and Ramdas Pophale) SiO2 
 PCOD9190316
Probable space group: C 2/M
;
_chemical_formula_sum "Si O2"
_cell_formula_units_Z 44
_cell_length_a 7.109059
_cell_length_b 28.241174
_cell_length_c 12.095860
_cell_angle_alpha 90.000000
_cell_angle_beta 60.475981
_cell_angle_gamma 90.000000
_cell_volume 2113.125725
_symmetry_space_group_name_H-M "C 2/M"
_symmetry_group_IT_number 12
_symmetry_cell_setting 'monoclinic'
loop_
_space_group_symop_operation_xyz
x,y,z
-x,y,-z
-x,-y,-z
x,-y,z
1/2+x,1/2+y,z
1/2-x,1/2+y,-z
1/2-x,1/2-y,-z
1/2+x,1/2-y,z
loop_
_atom_site_type_symbol
_atom_site_label
_atom_site_fract_x
_atom_site_fract_y
_atom_site_fract_z
Si Si1 0.257918 0.194994 0.524744
Si Si2 0.530215 0.947237 0.122075
Si Si3 0.606144 0.366901 0.749861
Si Si4 0.675555 0.554156 0.549019
Si Si5 0.410591 0.879845 0.331319
Si Si6 0.000000 0.906879 0.000000
O O1 0.500000 0.185522 0.500000
O O2 0.250000 0.250000 0.500000
O O3 0.094696 0.176651 0.666856
O O4 0.251785 0.161582 0.417918
O O5 0.390784 0.906360 0.220988
O O6 0.782826 0.937904 0.076891
O O7 0.466267 0.000000 0.179875
O O8 0.500000 0.945818 0.000000
O O9 0.606899 0.413337 0.671633
O O10 0.845403 0.361765 0.733409
O O11 0.463637 0.375737 0.899527
O O12 0.500000 0.555946 0.500000
O O13 0.708515 0.500000 0.571417
O O14 0.879017 0.578987 0.431355
#
# Coordination Sequence:
#
# PCOD9190316 Si02
#       6
#     8   8   8   8   8   4
#     4   9  18  35  58  82 104 134 178 230 287 337
#     4  10  21  35  55  80 113 155 192 227 266 327
#     4   9  20  36  55  75 106 145 180 223 269 332
#     4  10  20  30  47  77 108 136 176 228 271 316
#     4   9  19  36  53  73 107 142 179 227 277 323
#     4  10  21  38  56  78 114 152 190 224 269 330
#
# _framework density 20.822236
#
# number of rings (size 3 to 8) (size 9 to 14) (size 15 to 20)
#    0.000    2.545    0.000    2.455    2.545    8.000 
#    0.000    0.000    2.000    3.273    0.000    0.000 
#    0.000    0.000    0.000    0.000    0.000    0.000 
#
# Total GULP energy -122686.773498 kJ/mol
# GULP energy per Si atom -5576.671523 kJ/mol
# Density = 2.077484 g / cm^3
# Si number density = 20.822236 Si / 1000 Ang^3
#
#
#
# Elastic Constant Matrix: (Units=GPa)
#
#
# Indices 1 2 3 4 5 6 
#
# 1 43.8251 -19.3888 -12.7762 0.0000 6.5660 0.0000
# 2 -19.3888 153.5256 61.5665 0.0000 11.6486 0.0000
# 3 -12.7762 61.5665 118.0311 0.0000 17.0171 0.0000
# 4 0.0000 0.0000 0.0000 17.2288 0.0000 9.4057
# 5 6.5660 11.6486 17.0171 0.0000 24.2358 0.0000
# 6 0.0000 0.0000 0.0000 9.4057 0.0000 16.7493
#
#
#
# Elastic Compliance Matrix: (Units=1/GPa)
#
#
# Indices 1 2 3 4 5 6 
#
# 1 0.026578 0.003029 0.002832 0.000000 -0.010645 0.000000
# 2 0.003029 0.008606 -0.003834 0.000000 -0.002264 0.000000
# 3 0.002832 -0.003834 0.011820 0.000000 -0.007224 0.000000
# 4 0.000000 0.000000 0.000000 0.083703 0.000000 -0.047004
# 5 -0.010645 -0.002264 -0.007224 0.000000 0.050306 0.000000
# 6 0.000000 0.000000 0.000000 -0.047004 0.000000 0.086099
#
#
# Mechanical properties :
#
#
# Convention : Reuss Voigt Hill
#
# Bulk Modulus (GPa) = 19.58623 41.57608 30.58116
# Shear Modulus (GPa) = 17.85210 30.70815 24.28013
#
# Velocity S-wave (km/s) = 2.93124 3.84445 3.41848
# Velocity P-wave (km/s) = 4.56980 6.30213 5.50454
#
# Compressibility (1/GPa) = 0.05105627
#
# Stress axis : x y z
#
# Youngs Moduli (GPa) = 37.62477 116.20413 84.59881
#
# Poissons Ratio (x) = -0.35194 -0.23957
# Poissons Ratio (y) = -0.11395 0.32439
# Poissons Ratio (z) = -0.10655 0.44558
#
# Static dielectric constant tensor:
#      x y z
#    x 1.832590 0.000000 0.016760 
#    y 0.000000 1.748020 0.000000 
#    z 0.016760 0.000000 1.775140 
# 
# From -- ./inp_files/122980.got.cif
#   From: 2010.05.17/outbox.cif.g08.bks.cpg/sg12_62_cif.got.tgz:122980.got - 2010.06.03 13:09:07.
