data_PCOD9190397
_publ_section_title
;
Structure prediction by ZEFSAII (Michael W. Deem and Ramdas Pophale) SiO2 
 PCOD9190397
Probable space group: C 2/M
;
_chemical_formula_sum "Si O2"
_cell_formula_units_Z 56
_cell_length_a 28.021874
_cell_length_b 8.855478
_cell_length_c 16.591439
_cell_angle_alpha 90.000000
_cell_angle_beta 114.486340
_cell_angle_gamma 90.000000
_cell_volume 3746.824222
_symmetry_space_group_name_H-M "C 2/M"
_symmetry_group_IT_number 12
_symmetry_cell_setting 'monoclinic'
loop_
_space_group_symop_operation_xyz
x,y,z
-x,y,-z
-x,-y,-z
x,-y,z
1/2+x,1/2+y,z
1/2-x,1/2+y,-z
1/2-x,1/2-y,-z
1/2+x,1/2-y,z
loop_
_atom_site_type_symbol
_atom_site_label
_atom_site_fract_x
_atom_site_fract_y
_atom_site_fract_z
Si Si1 0.434671 0.182596 0.540116
Si Si2 0.696790 0.680746 0.999520
Si Si3 0.755333 0.818980 0.804113
Si Si4 0.554016 0.183390 0.636919
Si Si5 0.646160 0.182077 0.818076
Si Si6 0.264471 0.180323 0.635195
Si Si7 0.333021 0.680504 0.546660
O O1 0.493564 0.227988 0.607275
O O2 0.429391 0.227701 0.442144
O O3 0.388797 0.253729 0.560192
O O4 0.431346 0.000000 0.541525
O O5 0.698269 0.500000 0.993485
O O6 0.701107 0.718345 0.097267
O O7 0.750000 0.750000 0.000000
O O8 0.652007 0.746965 0.910753
O O9 0.698444 0.779774 0.802787
O O10 0.763839 0.738864 0.725612
O O11 0.755567 0.000000 0.792464
O O12 0.595416 0.233658 0.732713
O O13 0.554681 0.000000 0.637727
O O14 0.645434 0.000000 0.825172
O O15 0.310381 0.252789 0.613671
O O16 0.209964 0.222352 0.552047
O O17 0.269130 0.000000 0.636422
O O18 0.335133 0.500000 0.553158
#
# Coordination Sequence:
#
# PCOD9190397 Si02
#       7
#     8   8   8   8   8   8   8
#     4   9  16  29  47  64  86 117 150 179 208 249
#     4   9  17  28  41  60  86 116 146 175 213 257
#     4   9  17  28  43  63  88 115 142 177 216 252
#     4   8  15  27  45  67  88 115 149 179 209 248
#     4   9  16  27  43  64  90 118 146 176 212 252
#     4  10  20  31  45  64  84 112 148 178 210 257
#     4  10  20  32  44  62  89 115 141 178 218 252
#
# _framework density 14.945990999999999
#
# number of rings (size 3 to 8) (size 9 to 14) (size 15 to 20)
#    0.000    2.857    0.000    3.857    0.000    5.714 
#    0.000    2.857    0.000    0.000    0.000    1.000 
#    0.000    8.000    0.000    0.000    0.000    0.000 
#
# Total GULP energy -155967.584316 kJ/mol
# GULP energy per Si atom -5570.270868 kJ/mol
# Density = 1.491197 g / cm^3
# Si number density = 14.945991 Si / 1000 Ang^3
#
#
#
# Elastic Constant Matrix: (Units=GPa)
#
#
# Indices 1 2 3 4 5 6 
#
# 1 89.9848 30.0794 57.5682 0.0000 -1.5644 0.0000
# 2 30.0794 27.6679 40.0842 0.0000 -3.7540 0.0000
# 3 57.5682 40.0842 138.6919 0.0000 3.6509 0.0000
# 4 0.0000 0.0000 0.0000 25.5909 0.0000 -3.4051
# 5 -1.5644 -3.7540 3.6509 0.0000 23.3969 0.0000
# 6 0.0000 0.0000 0.0000 -3.4051 0.0000 21.2999
#
#
#
# Elastic Compliance Matrix: (Units=1/GPa)
#
#
# Indices 1 2 3 4 5 6 
#
# 1 0.018243 -0.015481 -0.003077 0.000000 -0.000784 0.000000
# 2 -0.015481 0.079405 -0.016901 0.000000 0.014343 0.000000
# 3 -0.003077 -0.016901 0.013505 0.000000 -0.005025 0.000000
# 4 0.000000 0.000000 0.000000 0.039926 0.000000 0.006383
# 5 -0.000784 0.014343 -0.005025 0.000000 0.045774 0.000000
# 6 0.000000 0.000000 0.000000 0.006383 0.000000 0.047969
#
#
# Mechanical properties :
#
#
# Convention : Reuss Voigt Hill
#
# Bulk Modulus (GPa) = 24.85491 56.86758 40.86125
# Shear Modulus (GPa) = 15.19064 22.63172 18.91118
#
# Velocity S-wave (km/s) = 3.19151 3.89554 3.56097
# Velocity P-wave (km/s) = 5.49972 7.63969 6.65627
#
# Compressibility (1/GPa) = 0.04023350
#
# Stress axis : x y z
#
# Youngs Moduli (GPa) = 54.81545 12.59373 74.04929
#
# Poissons Ratio (x) = 0.19496 0.22788
# Poissons Ratio (y) = 0.84860 1.25150
# Poissons Ratio (z) = 0.16869 0.21285
#
# Static dielectric constant tensor:
#      x y z
#    x 1.473830 0.000000 0.020280 
#    y 0.000000 1.501000 0.000000 
#    z 0.020280 0.000000 1.512770 
# 
# From -- ./inp_files/237864.got.cif
#   From: 2010.05.17/outbox.cif.g08.bks.cpg/sg12_119_cif.got.tgz:237864.got - 2010.06.03 13:09:07.
