data_PCOD9190199
_publ_section_title
;
Structure prediction by ZEFSAII (Michael W. Deem and Ramdas Pophale) SiO2 
 PCOD9190199
Probable space group: C 2/M
;
_chemical_formula_sum "Si O2"
_cell_formula_units_Z 48
_cell_length_a 29.728581
_cell_length_b 17.219232
_cell_length_c 9.918141
_cell_angle_alpha 90.000000
_cell_angle_beta 28.224640
_cell_angle_gamma 90.000000
_cell_volume 2401.125428
_symmetry_space_group_name_H-M "C 2/M"
_symmetry_group_IT_number 12
_symmetry_cell_setting 'monoclinic'
loop_
_space_group_symop_operation_xyz
x,y,z
-x,y,-z
-x,-y,-z
x,-y,z
1/2+x,1/2+y,z
1/2-x,1/2+y,-z
1/2-x,1/2-y,-z
1/2+x,1/2-y,z
loop_
_atom_site_type_symbol
_atom_site_label
_atom_site_fract_x
_atom_site_fract_y
_atom_site_fract_z
Si Si1 0.608025 0.338334 0.755715
Si Si2 0.903247 0.142607 0.695171
Si Si3 0.149679 0.702835 0.270963
Si Si4 0.894542 0.339164 0.302995
Si Si5 0.800796 0.090961 0.221500
Si Si6 0.726883 0.589471 0.201574
O O1 0.611618 0.245042 0.752645
O O2 0.639291 0.378423 0.810837
O O3 0.681206 0.365512 0.447463
O O4 0.500000 0.359687 0.000000
O O5 0.920670 0.230551 0.597177
O O6 0.851820 0.097333 0.710117
O O7 0.000000 0.108671 0.500000
O O8 0.831708 0.139890 0.009359
O O9 0.121353 0.677002 0.495358
O O10 0.250000 0.750000 0.000000
O O11 0.176567 0.629845 0.106963
O O12 0.810938 0.392608 0.467447
O O13 0.000000 0.370530 0.000000
O O14 0.817904 0.000000 0.153145
O O15 0.741447 0.500000 0.196307
#
# Coordination Sequence:
#
# PCOD9190199 Si02
#       6
#     8   8   8   8   8   8
#     4  11  23  40  63  92 127 165 207 251 310 377
#     4  11  22  37  63  91 122 158 201 257 308 368
#     4  10  19  41  62  89 119 157 209 255 300 363
#     4  11  23  42  67  90 120 167 217 256 305 363
#     4  12  25  40  61  95 131 162 205 258 313 370
#     4  11  21  38  63  86 123 166 197 247 314 367
#
# _framework density 19.990625999999999
#
# number of rings (size 3 to 8) (size 9 to 14) (size 15 to 20)
#    0.000    1.000    6.667    2.500    2.333    4.333 
#    0.000    0.000    0.000    0.500    0.000    0.000 
#    0.000    0.000    0.000    0.000    0.000    0.000 
#
# Total GULP energy -134033.675263 kJ/mol
# GULP energy per Si atom -5584.736469 kJ/mol
# Density = 1.994513 g / cm^3
# Si number density = 19.990626 Si / 1000 Ang^3
#
#
#
# Elastic Constant Matrix: (Units=GPa)
#
#
# Indices 1 2 3 4 5 6 
#
# 1 67.8283 4.5121 4.0683 0.0000 10.4274 0.0000
# 2 4.5121 47.1624 -7.9145 0.0000 -5.4092 0.0000
# 3 4.0683 -7.9145 60.4670 0.0000 -2.1629 0.0000
# 4 0.0000 0.0000 0.0000 2.4641 0.0000 -11.1949
# 5 10.4274 -5.4092 -2.1629 0.0000 25.4425 0.0000
# 6 0.0000 0.0000 0.0000 -11.1949 0.0000 0.0646
#
#
#
# Elastic Compliance Matrix: (Units=1/GPa)
#
#
# Indices 1 2 3 4 5 6 
#
# 1 0.016150 -0.002671 -0.001698 0.000000 -0.007331 0.000000
# 2 -0.002671 0.022739 0.003378 0.000000 0.006216 0.000000
# 3 -0.001698 0.003378 0.017197 0.000000 0.002876 0.000000
# 4 0.000000 0.000000 0.000000 -0.000516 0.000000 -0.089440
# 5 -0.007331 0.006216 0.002876 0.000000 0.043875 0.000000
# 6 0.000000 0.000000 0.000000 -0.089440 0.000000 -0.019686
#
#
# Mechanical properties :
#
#
# Convention : Reuss Voigt Hill
#
# Bulk Modulus (GPa) = 18.48298 19.64326 19.06312
# Shear Modulus (GPa) = 50.11277 17.24702 33.67989
#
# Velocity S-wave (km/s) = 5.01224 2.94046 4.10907
# Velocity P-wave (km/s) = 6.53931 4.62341 5.66298
#
# Compressibility (1/GPa) = 0.05410383
#
# Stress axis : x y z
#
# Youngs Moduli (GPa) = 61.92077 43.97772 58.14864
#
# Poissons Ratio (x) = 0.11746 0.09876
# Poissons Ratio (y) = 0.16539 -0.19645
# Poissons Ratio (z) = 0.10517 -0.14857
#
# Static dielectric constant tensor:
#      x y z
#    x 1.709830 0.000000 -0.025620 
#    y 0.000000 1.734430 0.000000 
#    z -0.025620 0.000000 1.752510 
# 
# From -- ./inp_files/112723.got.cif
#   From: 2010.05.17/outbox.cif.g08.bks.cpg/sg12_57_cif.got.tgz:112723.got - 2010.06.03 13:09:07.
