data_PCOD9190224
_publ_section_title
;
Structure prediction by ZEFSAII (Michael W. Deem and Ramdas Pophale) SiO2 
 PCOD9190224
Probable space group: C 2/M
;
_chemical_formula_sum "Si O2"
_cell_formula_units_Z 44
_cell_length_a 17.278487
_cell_length_b 8.020743
_cell_length_c 13.660032
_cell_angle_alpha 90.000000
_cell_angle_beta 78.723895
_cell_angle_gamma 90.000000
_cell_volume 1856.549621
_symmetry_space_group_name_H-M "C 2/M"
_symmetry_group_IT_number 12
_symmetry_cell_setting 'monoclinic'
loop_
_space_group_symop_operation_xyz
x,y,z
-x,y,-z
-x,-y,-z
x,-y,z
1/2+x,1/2+y,z
1/2-x,1/2+y,-z
1/2-x,1/2-y,-z
1/2+x,1/2-y,z
loop_
_atom_site_type_symbol
_atom_site_label
_atom_site_fract_x
_atom_site_fract_y
_atom_site_fract_z
Si Si1 0.435081 0.500000 0.931573
Si Si2 0.566693 0.822202 0.334735
Si Si3 0.335983 0.807834 0.892724
Si Si4 0.812561 0.691312 0.188353
Si Si5 0.413964 0.500000 0.221489
Si Si6 0.791747 0.807853 0.587932
Si Si7 0.969558 0.000000 0.396550
O O1 0.381447 0.666049 0.942781
O O2 0.492544 0.500000 0.822914
O O3 0.500000 0.500000 0.000000
O O4 0.615078 0.815585 0.221552
O O5 0.631305 0.797857 0.403914
O O6 0.506290 0.674487 0.353901
O O7 0.526388 0.000000 0.353156
O O8 0.250314 0.740472 0.880461
O O9 0.332797 0.000000 0.930045
O O10 0.840146 0.500000 0.168823
O O11 0.764943 0.698478 0.303360
O O12 0.877584 0.834464 0.181966
O O13 0.393418 0.500000 0.343040
O O14 0.750000 0.750000 0.500000
O O15 0.818036 0.000000 0.571637
O O16 0.000000 0.000000 0.500000
#
# Coordination Sequence:
#
# PCOD9190224 Si02
#       7
#     4   8   8   8   4   8   4
#     4  12  26  46  74 104 135 172 217 274 336 416
#     4  10  20  37  60  86 117 171 223 263 319 386
#     4  10  19  41  73  96 127 177 220 261 330 405
#     4  10  22  39  66  96 129 176 220 273 335 382
#     4  12  26  44  66 100 138 167 227 282 335 390
#     4  10  20  32  55  88 125 163 224 275 308 377
#     4  12  26  40  58  86 138 179 213 272 339 386
#
# _framework density 23.699878999999999
#
# number of rings (size 3 to 8) (size 9 to 14) (size 15 to 20)
#    0.000    1.455    4.545    0.545    5.091    2.182 
#    0.000    0.909    0.000    0.000    0.000    0.000 
#    0.000    0.000    0.000    0.000    0.000    0.000 
#
# Total GULP energy -122991.535892 kJ/mol
# GULP energy per Si atom -5590.524359 kJ/mol
# Density = 2.364594 g / cm^3
# Si number density = 23.699879 Si / 1000 Ang^3
#
#
#
# Elastic Constant Matrix: (Units=GPa)
#
#
# Indices 1 2 3 4 5 6 
#
# 1 57.6488 60.5666 24.4454 0.0000 23.5423 0.0000
# 2 60.5666 242.8379 39.4043 0.0000 18.9816 0.0000
# 3 24.4454 39.4043 124.0020 0.0000 36.6003 0.0000
# 4 0.0000 0.0000 0.0000 9.7827 0.0000 15.6925
# 5 23.5423 18.9816 36.6003 0.0000 38.4048 0.0000
# 6 0.0000 0.0000 0.0000 15.6925 0.0000 38.1450
#
#
#
# Elastic Compliance Matrix: (Units=1/GPa)
#
#
# Indices 1 2 3 4 5 6 
#
# 1 0.030402 -0.006450 0.000857 0.000000 -0.016266 0.000000
# 2 -0.006450 0.005748 -0.001229 0.000000 0.002285 0.000000
# 3 0.000857 -0.001229 0.011495 0.000000 -0.010873 0.000000
# 4 0.000000 0.000000 0.000000 0.300576 0.000000 -0.123655
# 5 -0.016266 0.002285 -0.010873 0.000000 0.045242 0.000000
# 6 0.000000 0.000000 0.000000 -0.123655 0.000000 0.077086
#
#
# Mechanical properties :
#
#
# Convention : Reuss Voigt Hill
#
# Bulk Modulus (GPa) = 29.41125 74.81347 52.11236
# Shear Modulus (GPa) = 10.09025 37.27131 23.68078
#
# Velocity S-wave (km/s) = 2.06561 3.96995 3.16443
# Velocity P-wave (km/s) = 4.25744 7.25600 5.94876
#
# Compressibility (1/GPa) = 0.03400059
#
# Stress axis : x y z
#
# Youngs Moduli (GPa) = 32.89234 173.98454 86.99196
#
# Poissons Ratio (x) = 1.12226 -0.07458
# Poissons Ratio (y) = 0.21217 0.10693
# Poissons Ratio (z) = -0.02820 0.21386
#
# Static dielectric constant tensor:
#      x y z
#    x 1.889650 0.000000 -0.082240 
#    y 0.000000 2.041060 0.000000 
#    z -0.082240 0.000000 2.034390 
# 
# From -- ./inp_files/221091.got.cif
#   From: 2010.05.17/outbox.cif.g08.bks.cpg/sg12_111_cif.got.tgz:221091.got - 2010.06.03 13:09:07.
