data_PCOD9190559
_publ_section_title
;
Structure prediction by ZEFSAII (Michael W. Deem and Ramdas Pophale) SiO2 
 PCOD9190559
Probable space group: C 2/M
;
_chemical_formula_sum "Si O2"
_cell_formula_units_Z 32
_cell_length_a 12.087123
_cell_length_b 26.725453
_cell_length_c 5.548259
_cell_angle_alpha 90.000000
_cell_angle_beta 132.170365
_cell_angle_gamma 90.000000
_cell_volume 1328.348370
_symmetry_space_group_name_H-M "C 2/M"
_symmetry_group_IT_number 12
_symmetry_cell_setting 'monoclinic'
loop_
_space_group_symop_operation_xyz
x,y,z
-x,y,-z
-x,-y,-z
x,-y,z
1/2+x,1/2+y,z
1/2-x,1/2+y,-z
1/2-x,1/2-y,-z
1/2+x,1/2-y,z
loop_
_atom_site_type_symbol
_atom_site_label
_atom_site_fract_x
_atom_site_fract_y
_atom_site_fract_z
Si Si1 0.647246 0.211797 0.498823
Si Si2 0.681106 0.058964 0.989781
Si Si3 0.935340 0.801309 0.160221
Si Si4 0.158381 0.597481 0.453621
O O1 0.750000 0.250000 0.500000
O O2 0.496838 0.243954 0.267653
O O3 0.626782 0.156165 0.373427
O O4 0.757582 0.200221 0.885812
O O5 0.734283 0.086116 0.822920
O O6 0.503081 0.070656 0.755029
O O7 0.703009 0.000000 0.995777
O O8 0.740380 0.077638 0.335349
O O9 0.000000 0.824831 0.500000
O O10 0.000000 0.821821 0.000000
#
# Coordination Sequence:
#
# PCOD9190559 Si02
#       4
#     8   8   8   8
#     4  10  23  37  57  83 122 162 199 233 279 351
#     4  10  20  35  55  81 115 143 191 249 304 347
#     4  10  22  37  54  75 114 157 199 236 275 321
#     4  10  20  31  55  78 114 151 184 229 307 338
#
# _framework density 24.090067000000001
#
# number of rings (size 3 to 8) (size 9 to 14) (size 15 to 20)
#    0.000    2.000    0.000    4.500   14.000    4.000 
#    0.000    0.000    0.000    0.000    0.000    0.000 
#    0.000  146.000    0.000    0.000    0.000    0.000 
#
# Total GULP energy -89183.050091 kJ/mol
# GULP energy per Si atom -5573.940631 kJ/mol
# Density = 2.403524 g / cm^3
# Si number density = 24.090067 Si / 1000 Ang^3
#
#
#
# Elastic Constant Matrix: (Units=GPa)
#
#
# Indices 1 2 3 4 5 6 
#
# 1 73.9336 11.6164 47.6176 0.0000 -27.7165 0.0000
# 2 11.6164 141.9558 13.8800 0.0000 -21.4515 0.0000
# 3 47.6176 13.8800 157.2315 0.0000 -43.8401 0.0000
# 4 0.0000 0.0000 0.0000 3.2682 0.0000 -27.3391
# 5 -27.7165 -21.4515 -43.8401 0.0000 69.1913 0.0000
# 6 0.0000 0.0000 0.0000 -27.3391 0.0000 -9.8841
#
#
#
# Elastic Compliance Matrix: (Units=1/GPa)
#
#
# Indices 1 2 3 4 5 6 
#
# 1 0.017925 -0.000392 -0.004161 0.000000 0.004423 0.000000
# 2 -0.000392 0.007399 0.000074 0.000000 0.002184 0.000000
# 3 -0.004161 0.000074 0.008691 0.000000 0.003863 0.000000
# 4 0.000000 0.000000 0.000000 0.012676 0.000000 -0.035062
# 5 0.004423 0.002184 0.003863 0.000000 0.019349 0.000000
# 6 0.000000 0.000000 0.000000 -0.035062 0.000000 -0.004191
#
#
# Mechanical properties :
#
#
# Convention : Reuss Voigt Hill
#
# Bulk Modulus (GPa) = 39.90626 57.70543 48.80585
# Shear Modulus (GPa) = 63.16497 32.51556 47.84026
#
# Velocity S-wave (km/s) = 5.12613 3.67788 4.46117
# Velocity P-wave (km/s) = 7.18594 6.48396 6.84396
#
# Compressibility (1/GPa) = 0.02505872
#
# Stress axis : x y z
#
# Youngs Moduli (GPa) = 55.78801 135.14803 115.06631
#
# Poissons Ratio (x) = 0.05293 0.47878
# Poissons Ratio (y) = 0.02185 -0.00857
# Poissons Ratio (z) = 0.23213 -0.01006
#
# Static dielectric constant tensor:
#      x y z
#    x 2.214570 0.000000 -0.207180 
#    y 0.000000 1.883750 0.000000 
#    z -0.207180 0.000000 2.048810 
# 
# From -- ./inp_files/7261.got.cif
#   From: 2010.05.17/outbox.cif.g08.bks.cpg/sg12_4_cif.got.tgz:7261.got - 2010.06.03 13:09:07.
