data_PCOD9190972
_publ_section_title
;
Structure prediction by ZEFSAII (Michael W. Deem and Ramdas Pophale) SiO2 
 PCOD9190972
Probable space group: C 2/M
;
_chemical_formula_sum "Si O2"
_cell_formula_units_Z 48
_cell_length_a 15.808385
_cell_length_b 17.731276
_cell_length_c 9.223198
_cell_angle_alpha 90.000000
_cell_angle_beta 103.025208
_cell_angle_gamma 90.000000
_cell_volume 2518.771682
_symmetry_space_group_name_H-M "C 2/M"
_symmetry_group_IT_number 12
_symmetry_cell_setting 'monoclinic'
loop_
_space_group_symop_operation_xyz
x,y,z
-x,y,-z
-x,-y,-z
x,-y,z
1/2+x,1/2+y,z
1/2-x,1/2+y,-z
1/2-x,1/2-y,-z
1/2+x,1/2-y,z
loop_
_atom_site_type_symbol
_atom_site_label
_atom_site_fract_x
_atom_site_fract_y
_atom_site_fract_z
Si Si1 0.236596 0.364723 0.817765
Si Si2 0.387283 0.656667 0.091111
Si Si3 0.745218 0.809428 0.271394
Si Si4 0.096216 0.330000 0.999473
Si Si5 0.774252 0.082532 0.540108
Si Si6 0.978543 0.912844 0.652022
O O1 0.246315 0.279918 0.754945
O O2 0.155254 0.367075 0.896022
O O3 0.224746 0.415069 0.672855
O O4 0.325736 0.379168 0.942837
O O5 0.323602 0.657399 0.205666
O O6 0.407039 0.741916 0.049196
O O7 0.474838 0.621809 0.189546
O O8 0.751260 0.847131 0.429802
O O9 0.654839 0.833413 0.165019
O O10 0.000000 0.357416 0.000000
O O11 0.875281 0.090212 0.621522
O O12 0.762925 0.000000 0.463937
O O13 0.000000 0.879102 0.500000
O O14 0.007740 0.000000 0.658501
#
# Coordination Sequence:
#
# PCOD9190972 Si02
#       6
#     8   8   8   8   8   8
#     4   9  20  36  55  81 111 144 185 234 276 318
#     4   9  18  33  54  78 111 147 179 222 268 321
#     4   9  18  36  56  78 110 146 183 223 279 329
#     4   9  19  36  59  80 100 136 190 242 280 319
#     4  11  22  35  54  82 117 153 182 217 271 334
#     4  10  20  32  50  81 120 154 181 204 254 345
#
# _framework density 19.056908
#
# number of rings (size 3 to 8) (size 9 to 14) (size 15 to 20)
#    0.000    2.500    1.667    2.500    4.667    0.667 
#    0.000    5.000    0.000    3.000    0.000    0.000 
#    0.000    0.000    0.000    0.000    0.000    0.000 
#
# Total GULP energy -133679.363194 kJ/mol
# GULP energy per Si atom -5569.973466 kJ/mol
# Density = 1.901353 g / cm^3
# Si number density = 19.056908 Si / 1000 Ang^3
#
#
#
# Elastic Constant Matrix: (Units=GPa)
#
#
# Indices 1 2 3 4 5 6 
#
# 1 92.4606 8.3048 31.4376 0.0000 3.0947 0.0000
# 2 8.3048 30.2083 32.1841 0.0000 8.6699 0.0000
# 3 31.4376 32.1841 112.5299 0.0000 -0.7906 0.0000
# 4 0.0000 0.0000 0.0000 6.6256 0.0000 0.2936
# 5 3.0947 8.6699 -0.7906 0.0000 26.0693 0.0000
# 6 0.0000 0.0000 0.0000 0.2936 0.0000 16.7656
#
#
#
# Elastic Compliance Matrix: (Units=1/GPa)
#
#
# Indices 1 2 3 4 5 6 
#
# 1 0.012038 0.001218 -0.003725 0.000000 -0.001947 0.000000
# 2 0.001218 0.055781 -0.016429 0.000000 -0.019194 0.000000
# 3 -0.003725 -0.016429 0.014671 0.000000 0.006351 0.000000
# 4 0.000000 0.000000 0.000000 0.151048 0.000000 -0.002645
# 5 -0.001947 -0.019194 0.006351 0.000000 0.045166 0.000000
# 6 0.000000 0.000000 0.000000 -0.002645 0.000000 0.059692
#
#
# Mechanical properties :
#
#
# Convention : Reuss Voigt Hill
#
# Bulk Modulus (GPa) = 22.41265 42.11685 32.26475
# Shear Modulus (GPa) = 12.78316 20.77691 16.78003
#
# Velocity S-wave (km/s) = 2.59277 3.30548 2.97058
# Velocity P-wave (km/s) = 4.55518 6.05944 5.36034
#
# Compressibility (1/GPa) = 0.04461767
#
# Stress axis : x y z
#
# Youngs Moduli (GPa) = 83.07206 17.92736 68.16387
#
# Poissons Ratio (x) = -0.02184 0.25392
# Poissons Ratio (y) = -0.10120 1.11985
# Poissons Ratio (z) = 0.30945 0.29452
#
# Static dielectric constant tensor:
#      x y z
#    x 1.688770 0.000000 -0.025000 
#    y 0.000000 1.696250 0.000000 
#    z -0.025000 0.000000 1.683070 
# 
# From -- ./inp_files/63580.got.cif
#   From: 2010.05.17/outbox.cif.g08.bks.cpg/sg12_32_cif.got.tgz:63580.got - 2010.06.03 13:09:07.
