data_PCOD9190223
_publ_section_title
;
Structure prediction by ZEFSAII (Michael W. Deem and Ramdas Pophale) SiO2 
 PCOD9190223
Probable space group: C 2/M
;
_chemical_formula_sum "Si O2"
_cell_formula_units_Z 64
_cell_length_a 19.723297
_cell_length_b 16.867285
_cell_length_c 23.910195
_cell_angle_alpha 90.000000
_cell_angle_beta 21.516743
_cell_angle_gamma 90.000000
_cell_volume 2917.462547
_symmetry_space_group_name_H-M "C 2/M"
_symmetry_group_IT_number 12
_symmetry_cell_setting 'monoclinic'
loop_
_space_group_symop_operation_xyz
x,y,z
-x,y,-z
-x,-y,-z
x,-y,z
1/2+x,1/2+y,z
1/2-x,1/2+y,-z
1/2-x,1/2-y,-z
1/2+x,1/2-y,z
loop_
_atom_site_type_symbol
_atom_site_label
_atom_site_fract_x
_atom_site_fract_y
_atom_site_fract_z
Si Si1 0.045036 0.121683 0.590170
Si Si2 0.948433 0.912208 0.912253
Si Si3 0.966805 0.869640 0.273188
Si Si4 0.172341 0.173379 0.825463
Si Si5 0.342780 0.136436 0.166695
Si Si6 0.603966 0.195249 0.172655
Si Si7 0.941556 0.687305 0.413003
Si Si8 0.908143 0.586156 0.241766
O O1 0.036397 0.095679 0.661753
O O2 0.065028 0.217568 0.576163
O O3 0.213495 0.090056 0.424022
O O4 0.850994 0.106336 0.709027
O O5 0.965544 0.916231 0.832370
O O6 0.130613 0.879959 0.803527
O O7 0.898477 0.000000 0.971954
O O8 0.798371 0.843506 0.038465
O O9 0.756702 0.845687 0.419045
O O10 0.090925 0.789582 0.180888
O O11 0.167759 0.267851 0.816818
O O12 0.374463 0.157890 0.696691
O O13 0.000000 0.157503 0.000000
O O14 0.382384 0.098058 0.195903
O O15 0.500000 0.121329 0.000000
O O16 0.468251 0.169869 0.326900
O O17 0.530926 0.156408 0.172331
O O18 0.993950 0.500000 0.187600
#
# Coordination Sequence:
#
# PCOD9190223 Si02
#       8
#     8   8   8   8   8   8   8   8
#     4  10  21  40  64  93 124 160 213 275 319 384
#     4  12  27  42  61 100 140 175 214 266 336 398
#     4  11  22  41  71  97 127 166 222 280 326 374
#     4  10  21  42  68  93 125 170 219 268 322 387
#     4  10  24  40  64  94 123 163 221 269 318 383
#     4  11  21  43  68  96 124 172 227 272 311 385
#     4  10  19  41  70  97 120 161 227 276 318 369
#     4  12  24  40  62  92 130 173 211 260 334 394
#
# _framework density 21.936871
#
# number of rings (size 3 to 8) (size 9 to 14) (size 15 to 20)
#    0.000    1.250    3.750    2.625    3.500    2.500 
#    0.000    1.250    0.000    0.000    0.000    0.000 
#    0.000    0.000    0.000    0.000    0.000    0.000 
#
# Total GULP energy -178912.081451 kJ/mol
# GULP energy per Si atom -5591.002545 kJ/mol
# Density = 2.188694 g / cm^3
# Si number density = 21.936871 Si / 1000 Ang^3
#
#
#
# Elastic Constant Matrix: (Units=GPa)
#
#
# Indices 1 2 3 4 5 6 
#
# 1 116.3052 34.9647 27.7436 -0.0126 4.3079 0.0060
# 2 34.9647 67.6300 29.6682 0.0350 2.2994 -0.0149
# 3 27.7436 29.6682 74.7361 0.0531 -3.7275 -0.0405
# 4 -0.0126 0.0350 0.0531 -28.4702 -0.0114 -31.3440
# 5 4.3079 2.2994 -3.7275 -0.0114 42.2490 -0.0100
# 6 0.0060 -0.0149 -0.0405 -31.3440 -0.0100 -71.3517
#
#
#
# Elastic Compliance Matrix: (Units=1/GPa)
#
#
# Indices 1 2 3 4 5 6 
#
# 1 0.010489 -0.004429 -0.002186 -0.000033 -0.001021 0.000018
# 2 -0.004429 0.019884 -0.006308 0.000031 -0.001187 -0.000014
# 3 -0.002186 -0.006308 0.016798 0.000064 0.002048 -0.000037
# 4 -0.000033 0.000031 0.000064 -0.068021 -0.000004 0.029881
# 5 -0.001021 -0.001187 0.002048 -0.000004 0.024019 -0.000003
# 6 0.000018 -0.000014 -0.000037 0.029881 -0.000003 -0.027141
#
#
# Mechanical properties :
#
#
# Convention : Reuss Voigt Hill
#
# Bulk Modulus (GPa) = 46.89646 49.26937 48.08291
# Shear Modulus (GPa) = 556.62784 -0.42827 278.09979
#
# Velocity S-wave (km/s) = 15.94652 -0.44233 11.27156
# Velocity P-wave (km/s) = 18.98631 4.71673 13.83343
#
# Compressibility (1/GPa) = 0.02132357
#
# Stress axis : x y z
#
# Youngs Moduli (GPa) = 95.33889 50.29216 59.52918
#
# Poissons Ratio (x) = 0.22274 0.13016
# Poissons Ratio (y) = 0.42224 0.37554
# Poissons Ratio (z) = 0.20846 0.31727
#
# Static dielectric constant tensor:
#      x y z
#    x 1.793550 0.000000 0.001140 
#    y 0.000000 1.772840 0.000020 
#    z 0.001140 0.000020 1.800890 
# 
# From -- ./inp_files/347843.got.cif
#   From: 2010.05.17/outbox.cif.g08.bks.cpg/sg12_174_cif.got.tgz:347843.got - 2010.06.03 13:09:07.
