data_PCOD9190101
_publ_section_title
;
Structure prediction by ZEFSAII (Michael W. Deem and Ramdas Pophale) SiO2 
 PCOD9190101
Probable space group: C 2/M
;
_chemical_formula_sum "Si O2"
_cell_formula_units_Z 40
_cell_length_a 18.227470
_cell_length_b 19.022150
_cell_length_c 12.487649
_cell_angle_alpha 90.000000
_cell_angle_beta 23.361088
_cell_angle_gamma 90.000000
_cell_volume 1716.867255
_symmetry_space_group_name_H-M "C 2/M"
_symmetry_group_IT_number 12
_symmetry_cell_setting 'monoclinic'
loop_
_space_group_symop_operation_xyz
x,y,z
-x,y,-z
-x,-y,-z
x,-y,z
1/2+x,1/2+y,z
1/2-x,1/2+y,-z
1/2-x,1/2-y,-z
1/2+x,1/2-y,z
loop_
_atom_site_type_symbol
_atom_site_label
_atom_site_fract_x
_atom_site_fract_y
_atom_site_fract_z
Si Si1 0.769239 0.000000 0.422635
Si Si2 0.782275 0.776778 0.195224
Si Si3 0.039008 0.000000 0.600229
Si Si4 0.817096 0.844759 0.352627
Si Si5 0.907403 0.500000 0.795178
Si Si6 0.793172 0.375123 0.257150
Si Si7 0.000000 0.380151 0.500000
O O1 0.882675 0.000000 0.381985
O O2 0.824482 0.925003 0.299968
O O3 0.543576 0.000000 0.716473
O O4 0.703377 0.800677 0.417986
O O5 0.789508 0.693061 0.186060
O O6 0.667542 0.824964 0.270018
O O7 0.987684 0.806246 0.908719
O O8 0.142816 0.930839 0.418173
O O9 0.816191 0.000000 0.891424
O O10 0.752375 0.850097 0.560729
O O11 0.968857 0.567165 0.641433
O O12 0.000000 0.404496 0.000000
#
# Coordination Sequence:
#
# PCOD9190101 Si02
#       7
#     4   8   4   8   4   8   4
#     4  10  19  39  69  94 126 173 202 263 331 379
#     4  11  22  37  63  97 132 160 205 268 325 384
#     4  10  24  43  63  93 121 174 229 253 314 376
#     4  10  21  39  62  96 124 162 215 255 319 379
#     4  11  22  41  65  95 139 160 209 277 312 388
#     4  11  22  41  68  89 124 171 217 268 308 379
#     4  11  22  38  60 103 132 162 204 261 344 384
#
# _framework density 23.298247
#
# number of rings (size 3 to 8) (size 9 to 14) (size 15 to 20)
#    0.000    1.400    4.000    3.300    0.000    2.400 
#    0.000    8.000    0.000    5.400    0.000    0.000 
#    0.000    0.000    0.000    0.000    0.000    0.000 
#
# Total GULP energy -111508.498481 kJ/mol
# GULP energy per Si atom -5575.424924 kJ/mol
# Density = 2.324522 g / cm^3
# Si number density = 23.298247 Si / 1000 Ang^3
#
#
#
# Elastic Constant Matrix: (Units=GPa)
#
#
# Indices 1 2 3 4 5 6 
#
# 1 49.7674 2.3406 27.2836 -0.0139 -11.1800 0.0201
# 2 2.3406 161.5792 43.2779 0.0017 -19.9041 0.0078
# 3 27.2836 43.2779 126.2695 -0.0153 -17.9053 0.0558
# 4 -0.0139 0.0017 -0.0153 26.7765 0.0226 -3.7138
# 5 -11.1800 -19.9041 -17.9053 0.0226 30.2003 -0.0437
# 6 0.0201 0.0078 0.0558 -3.7138 -0.0437 21.5437
#
#
#
# Elastic Compliance Matrix: (Units=1/GPa)
#
#
# Indices 1 2 3 4 5 6 
#
# 1 0.024314 0.001851 -0.004846 0.000004 0.007348 0.000005
# 2 0.001851 0.007289 -0.002314 -0.000003 0.004117 0.000009
# 3 -0.004846 -0.002314 0.010142 -0.000001 0.002694 -0.000016
# 4 0.000004 -0.000003 -0.000001 0.038261 -0.000020 0.006596
# 5 0.007348 0.004117 0.002694 -0.000020 0.040143 0.000063
# 6 0.000005 0.000009 -0.000016 0.006596 0.000063 0.047554
#
#
# Mechanical properties :
#
#
# Convention : Reuss Voigt Hill
#
# Bulk Modulus (GPa) = 32.12791 53.71336 42.92064
# Shear Modulus (GPa) = 26.49746 33.35170 29.92458
#
# Velocity S-wave (km/s) = 3.37607 3.78764 3.58776
# Velocity P-wave (km/s) = 5.38673 6.49869 5.96866
#
# Compressibility (1/GPa) = 0.03112559
#
# Stress axis : x y z
#
# Youngs Moduli (GPa) = 41.12907 137.18987 98.60103
#
# Poissons Ratio (x) = -0.25392 0.47782
# Poissons Ratio (y) = -0.07613 0.22820
# Poissons Ratio (z) = 0.19931 0.31752
#
# Static dielectric constant tensor:
#      x y z
#    x 1.803890 -0.000020 0.218140 
#    y -0.000020 1.922650 0.000030 
#    z 0.218140 0.000030 1.688930 
# 
# From -- ./inp_files/235162.got.cif
#   From: 2010.05.17/outbox.cif.g08.bks.cpg/sg12_118_cif.got.tgz:235162.got - 2010.06.03 13:09:07.
