data_PCOD9190201
_publ_section_title
;
Structure prediction by ZEFSAII (Michael W. Deem and Ramdas Pophale) SiO2 
 PCOD9190201
Probable space group: C 2/M
;
_chemical_formula_sum "Si O2"
_cell_formula_units_Z 40
_cell_length_a 18.934961
_cell_length_b 13.031068
_cell_length_c 12.941134
_cell_angle_alpha 90.000000
_cell_angle_beta 147.129608
_cell_angle_gamma 90.000000
_cell_volume 1733.041605
_symmetry_space_group_name_H-M "C 2/M"
_symmetry_group_IT_number 12
_symmetry_cell_setting 'monoclinic'
loop_
_space_group_symop_operation_xyz
x,y,z
-x,y,-z
-x,-y,-z
x,-y,z
1/2+x,1/2+y,z
1/2-x,1/2+y,-z
1/2-x,1/2-y,-z
1/2+x,1/2-y,z
loop_
_atom_site_type_symbol
_atom_site_label
_atom_site_fract_x
_atom_site_fract_y
_atom_site_fract_z
Si Si1 0.894373 0.334413 0.276137
Si Si2 0.122941 0.115428 0.029545
Si Si3 0.649927 0.610454 0.722293
Si Si4 0.204017 0.289211 0.282702
Si Si5 0.548324 0.785928 0.282792
O O1 0.764317 0.389993 0.149648
O O2 0.850237 0.214872 0.214071
O O3 0.000000 0.343364 0.500000
O O4 0.960373 0.357261 0.247660
O O5 0.146149 0.187237 0.158049
O O6 0.077118 0.000000 0.991985
O O7 0.026986 0.182786 0.842174
O O8 0.500000 0.605425 0.500000
O O9 0.679824 0.500000 0.807144
O O10 0.746585 0.634231 0.745433
O O11 0.331620 0.250357 0.499500
O O12 0.104621 0.331933 0.245753
#
# Coordination Sequence:
#
# PCOD9190201 Si02
#       5
#     8   8   8   8   8
#     4  10  19  41  63  88 129 172 208 262 320 377
#     4  11  24  41  67  98 128 167 218 267 313 380
#     4   9  16  32  59  85 114 156 206 252 301 363
#     4  10  22  40  61  90 133 168 203 267 325 372
#     4  11  21  39  63  88 125 173 211 253 321 383
#
# _framework density 23.080808000000001
#
# number of rings (size 3 to 8) (size 9 to 14) (size 15 to 20)
#    0.000    1.800    6.000    1.200    0.000    3.600 
#    0.000    4.000    0.000   14.400    0.000    0.000 
#    0.000    0.000    0.000    0.000    0.000    0.000 
#
# Total GULP energy -111746.939388 kJ/mol
# GULP energy per Si atom -5587.346969 kJ/mol
# Density = 2.302827 g / cm^3
# Si number density = 23.080808 Si / 1000 Ang^3
#
#
#
# Elastic Constant Matrix: (Units=GPa)
#
#
# Indices 1 2 3 4 5 6 
#
# 1 177.3731 -6.5894 19.9335 0.0000 14.6276 0.0000
# 2 -6.5894 71.0518 32.0146 0.0000 -7.0001 0.0000
# 3 19.9335 32.0146 98.7970 0.0000 -10.8459 0.0000
# 4 0.0000 0.0000 0.0000 12.5745 0.0000 -3.5317
# 5 14.6276 -7.0001 -10.8459 0.0000 35.1746 0.0000
# 6 0.0000 0.0000 0.0000 -3.5317 0.0000 9.4637
#
#
#
# Elastic Compliance Matrix: (Units=1/GPa)
#
#
# Indices 1 2 3 4 5 6 
#
# 1 0.006139 0.001152 -0.001932 0.000000 -0.002919 0.000000
# 2 0.001152 0.016795 -0.005548 0.000000 0.001152 0.000000
# 3 -0.001932 -0.005548 0.012707 0.000000 0.003617 0.000000
# 4 0.000000 0.000000 0.000000 0.088837 0.000000 0.033152
# 5 -0.002919 0.001152 0.003617 0.000000 0.030988 0.000000
# 6 0.000000 0.000000 0.000000 0.033152 0.000000 0.118039
#
#
# Mechanical properties :
#
#
# Convention : Reuss Voigt Hill
#
# Bulk Modulus (GPa) = 43.50985 48.65993 46.08489
# Shear Modulus (GPa) = 17.01715 31.56679 24.29197
#
# Velocity S-wave (km/s) = 2.71825 3.70221 3.24771
# Velocity P-wave (km/s) = 5.36133 6.27720 5.83726
#
# Compressibility (1/GPa) = 0.02298330
#
# Stress axis : x y z
#
# Youngs Moduli (GPa) = 162.90459 59.54317 78.69900
#
# Poissons Ratio (x) = -0.06862 0.15208
# Poissons Ratio (y) = -0.18773 0.43664
# Poissons Ratio (z) = 0.31480 0.33036
#
# Static dielectric constant tensor:
#      x y z
#    x 1.955100 0.000000 -0.004610 
#    y 0.000000 1.787700 0.000000 
#    z -0.004610 0.000000 1.884880 
# 
# From -- ./inp_files/233518.got.cif
#   From: 2010.05.17/outbox.cif.g08.bks.cpg/sg12_117_cif.got.tgz:233518.got - 2010.06.03 13:09:07.
