data_PCOD9190536
_publ_section_title
;
Structure prediction by ZEFSAII (Michael W. Deem and Ramdas Pophale) SiO2 
 PCOD9190536
Probable space group: C 2/M
;
_chemical_formula_sum "Si O2"
_cell_formula_units_Z 56
_cell_length_a 11.945339
_cell_length_b 18.578407
_cell_length_c 20.468950
_cell_angle_alpha 90.000000
_cell_angle_beta 38.343181
_cell_angle_gamma 90.000000
_cell_volume 2818.081294
_symmetry_space_group_name_H-M "C 2/M"
_symmetry_group_IT_number 12
_symmetry_cell_setting 'monoclinic'
loop_
_space_group_symop_operation_xyz
x,y,z
-x,y,-z
-x,-y,-z
x,-y,z
1/2+x,1/2+y,z
1/2-x,1/2+y,-z
1/2-x,1/2-y,-z
1/2+x,1/2-y,z
loop_
_atom_site_type_symbol
_atom_site_label
_atom_site_fract_x
_atom_site_fract_y
_atom_site_fract_z
Si Si1 0.244298 0.812278 0.656274
Si Si2 0.168472 0.350188 0.988289
Si Si3 0.552570 0.419024 0.220930
Si Si4 0.083855 0.653742 0.704450
Si Si5 0.310071 0.914422 0.210475
Si Si6 0.873382 0.679887 0.456639
Si Si7 0.196585 0.188223 0.932073
O O1 0.162097 0.733610 0.682228
O O2 0.415683 0.804257 0.624992
O O3 0.304725 0.846109 0.558653
O O4 0.086110 0.865231 0.749752
O O5 0.268305 0.338275 0.010941
O O6 0.965907 0.370199 0.101525
O O7 0.264772 0.412999 0.904595
O O8 0.191763 0.275347 0.938571
O O9 0.483520 0.500000 0.254485
O O10 0.619301 0.396199 0.263121
O O11 0.167065 0.605149 0.723839
O O12 0.133651 0.634672 0.607028
O O13 0.867440 0.660701 0.812370
O O14 0.336059 0.000000 0.189908
O O15 0.750000 0.750000 0.500000
O O16 0.000000 0.163664 0.000000
#
# Coordination Sequence:
#
# PCOD9190536 Si02
#       7
#     8   8   8   8   8   8   8
#     4  10  21  38  60  91 114 143 202 243 290 353
#     4  10  20  33  54  82 118 160 199 240 281 342
#     4  11  22  37  59  86 121 161 197 240 291 347
#     4  10  21  35  62  85 116 154 187 248 292 345
#     4  10  22  38  56  85 121 160 202 236 283 349
#     4   9  21  39  61  88 113 149 189 245 300 347
#     4  10  20  31  52  90 121 146 189 242 297 344
#
# _framework density 19.871676000000001
#
# number of rings (size 3 to 8) (size 9 to 14) (size 15 to 20)
#    0.000    2.000    1.429    1.714    6.000    1.143 
#    0.000    2.857    0.000    3.857    0.000    0.000 
#    0.000    0.000    0.000    0.000    0.000    0.000 
#
# Total GULP energy -156089.566686 kJ/mol
# GULP energy per Si atom -5574.627382 kJ/mol
# Density = 1.982645 g / cm^3
# Si number density = 19.871676 Si / 1000 Ang^3
#
#
#
# Elastic Constant Matrix: (Units=GPa)
#
#
# Indices 1 2 3 4 5 6 
#
# 1 100.9287 27.2602 28.3765 0.0005 -21.4815 -0.0001
# 2 27.2602 44.4315 -4.6207 0.0014 -3.0271 -0.0012
# 3 28.3765 -4.6207 43.5722 -0.0006 7.2358 -0.0010
# 4 0.0005 0.0014 -0.0006 10.4606 -0.0009 7.6168
# 5 -21.4815 -3.0271 7.2358 -0.0009 36.0294 0.0006
# 6 -0.0001 -0.0012 -0.0010 7.6168 0.0006 23.2947
#
#
#
# Elastic Compliance Matrix: (Units=1/GPa)
#
#
# Indices 1 2 3 4 5 6 
#
# 1 0.022670 -0.014789 -0.019005 0.000004 0.016091 -0.000003
# 2 -0.014789 0.032482 0.014573 -0.000007 -0.009015 0.000005
# 3 -0.019005 0.014573 0.039881 -0.000003 -0.018116 0.000004
# 4 0.000004 -0.000007 -0.000003 0.125470 0.000006 -0.041026
# 5 0.016091 -0.009015 -0.018116 0.000006 0.040230 -0.000004
# 6 -0.000003 0.000005 0.000004 -0.041026 -0.000004 0.056343
#
#
# Mechanical properties :
#
#
# Convention : Reuss Voigt Hill
#
# Bulk Modulus (GPa) = 17.67038 32.32938 24.99988
# Shear Modulus (GPa) = 13.35538 23.15134 18.25336
#
# Velocity S-wave (km/s) = 2.59527 3.41697 3.03407
# Velocity P-wave (km/s) = 4.22990 5.64553 4.98819
#
# Compressibility (1/GPa) = 0.05659188
#
# Stress axis : x y z
#
# Youngs Moduli (GPa) = 44.11028 30.78665 25.07450
#
# Poissons Ratio (x) = 0.45531 0.47653
# Poissons Ratio (y) = 0.65236 -0.36542
# Poissons Ratio (z) = 0.83830 -0.44866
#
# Static dielectric constant tensor:
#      x y z
#    x 1.736390 0.000000 0.009170 
#    y 0.000000 1.663090 0.000000 
#    z 0.009170 0.000000 1.739330 
# 
# From -- ./inp_files/306583.got.cif
#   From: 2010.05.17/outbox.cif.g08.bks.cpg/sg12_154_cif.got.tgz:306583.got - 2010.06.03 13:09:07.
