data_PCOD9190732
_publ_section_title
;
Structure prediction by ZEFSAII (Michael W. Deem and Ramdas Pophale) SiO2 
 PCOD9190732
Probable space group: C 2/M
;
_chemical_formula_sum "Si O2"
_cell_formula_units_Z 56
_cell_length_a 14.899118
_cell_length_b 7.442617
_cell_length_c 29.582248
_cell_angle_alpha 90.000000
_cell_angle_beta 51.627430
_cell_angle_gamma 90.000000
_cell_volume 2571.747558
_symmetry_space_group_name_H-M "C 2/M"
_symmetry_group_IT_number 12
_symmetry_cell_setting 'monoclinic'
loop_
_space_group_symop_operation_xyz
x,y,z
-x,y,-z
-x,-y,-z
x,-y,z
1/2+x,1/2+y,z
1/2-x,1/2+y,-z
1/2-x,1/2-y,-z
1/2+x,1/2-y,z
loop_
_atom_site_type_symbol
_atom_site_label
_atom_site_fract_x
_atom_site_fract_y
_atom_site_fract_z
Si Si1 0.613658 0.280257 0.407680
Si Si2 0.228937 0.280178 0.723924
Si Si3 0.474517 0.210657 0.816087
Si Si4 0.355515 0.285652 0.500243
Si Si5 0.088747 0.700861 0.936945
Si Si6 0.233662 0.217181 0.186465
Si Si7 0.209630 0.714271 0.062877
O O1 0.614896 0.500000 0.406698
O O2 0.693675 0.218553 0.341868
O O3 0.480875 0.222757 0.444420
O O4 0.657280 0.222686 0.443779
O O5 0.230593 0.500000 0.721733
O O6 0.275042 0.227569 0.758907
O O7 0.097205 0.216200 0.763430
O O8 0.376913 0.229817 0.808290
O O9 0.415048 0.275678 0.881186
O O10 0.495143 0.000000 0.817034
O O11 0.364450 0.500000 0.500250
O O12 0.250000 0.250000 0.500000
O O13 0.042089 0.500000 0.940657
O O14 0.146705 0.781577 0.873994
O O15 0.201024 0.689791 0.932716
O O16 0.000000 0.788967 0.000000
O O17 0.240801 0.000000 0.182710
O O18 0.217357 0.500000 0.068400
O O19 0.250000 0.750000 0.000000
#
# Coordination Sequence:
#
# PCOD9190732 Si02
#       7
#     8   8   8   8   8   8   8
#     4   8  16  31  49  73 103 134 170 202 236 290
#     4   9  17  31  53  74  95 132 172 203 239 292
#     4   9  19  34  51  70  96 126 162 205 249 298
#     4   9  17  31  52  76 104 136 167 202 241 284
#     4   9  18  31  49  69  92 120 155 200 249 301
#     4   9  18  32  50  71  95 124 162 204 247 296
#     4  10  20  32  48  69  94 121 156 202 251 302
#
# _framework density 21.775075999999999
#
# number of rings (size 3 to 8) (size 9 to 14) (size 15 to 20)
#    0.000    3.000    0.000    1.286    2.000    2.000 
#    0.000    2.143    0.000    1.714    0.000    0.000 
#    0.000    0.000    0.000    0.000    0.000    0.000 
#
# Total GULP energy -156076.677619 kJ/mol
# GULP energy per Si atom -5574.167058 kJ/mol
# Density = 2.172552 g / cm^3
# Si number density = 21.775076 Si / 1000 Ang^3
#
#
#
# Elastic Constant Matrix: (Units=GPa)
#
#
# Indices 1 2 3 4 5 6 
#
# 1 119.6023 -9.6949 92.5936 0.0003 -5.0424 -0.0001
# 2 -9.6949 71.2432 5.9588 0.0017 -3.6524 0.0003
# 3 92.5936 5.9588 253.4549 0.0004 -10.9480 0.0000
# 4 0.0003 0.0017 0.0004 -22.8932 0.0001 0.7995
# 5 -5.0424 -3.6524 -10.9480 0.0001 24.0284 0.0001
# 6 -0.0001 0.0003 0.0000 0.7995 0.0001 19.1076
#
#
#
# Elastic Compliance Matrix: (Units=1/GPa)
#
#
# Indices 1 2 3 4 5 6 
#
# 1 0.011950 0.002034 -0.004378 0.000000 0.000822 0.000000
# 2 0.002034 0.014508 -0.000990 0.000001 0.002181 0.000000
# 3 -0.004378 -0.000990 0.005633 0.000000 0.001497 0.000000
# 4 0.000000 0.000001 0.000000 -0.043617 0.000000 0.001825
# 5 0.000822 0.002181 0.001497 0.000000 0.042804 0.000000
# 6 0.000000 0.000000 0.000000 0.001825 0.000000 0.052259
#
#
# Mechanical properties :
#
#
# Convention : Reuss Voigt Hill
#
# Bulk Modulus (GPa) = 39.33367 69.11281 54.22324
# Shear Modulus (GPa) = 50.67025 27.74477 39.20751
#
# Velocity S-wave (km/s) = 4.82912 3.57340 4.24791
# Velocity P-wave (km/s) = 7.01403 6.98813 7.00109
#
# Compressibility (1/GPa) = 0.02542351
#
# Stress axis : x y z
#
# Youngs Moduli (GPa) = 83.68254 68.92790 177.53179
#
# Poissons Ratio (x) = -0.14023 0.77722
# Poissons Ratio (y) = -0.17025 0.17578
# Poissons Ratio (z) = 0.36636 0.06825
#
# Static dielectric constant tensor:
#      x y z
#    x 1.770170 0.000000 -0.014700 
#    y 0.000000 1.849680 0.000000 
#    z -0.014700 0.000000 1.822640 
# 
# From -- ./inp_files/338213.got.cif
#   From: 2010.05.17/outbox.cif.g08.bks.cpg/sg12_170_cif.got.tgz:338213.got - 2010.06.03 13:09:07.
