data_PCOD9190619
_publ_section_title
;
Structure prediction by ZEFSAII (Michael W. Deem and Ramdas Pophale) SiO2 
 PCOD9190619
Probable space group: C 2/M
;
_chemical_formula_sum "Si O2"
_cell_formula_units_Z 48
_cell_length_a 31.084812
_cell_length_b 9.627622
_cell_length_c 6.979168
_cell_angle_alpha 90.000000
_cell_angle_beta 92.645616
_cell_angle_gamma 90.000000
_cell_volume 2086.449047
_symmetry_space_group_name_H-M "C 2/M"
_symmetry_group_IT_number 12
_symmetry_cell_setting 'monoclinic'
loop_
_space_group_symop_operation_xyz
x,y,z
-x,y,-z
-x,-y,-z
x,-y,z
1/2+x,1/2+y,z
1/2-x,1/2+y,-z
1/2-x,1/2-y,-z
1/2+x,1/2-y,z
loop_
_atom_site_type_symbol
_atom_site_label
_atom_site_fract_x
_atom_site_fract_y
_atom_site_fract_z
Si Si1 0.452677 0.342365 0.896540
Si Si2 0.141766 0.845141 0.130687
Si Si3 0.950354 0.653288 0.540145
Si Si4 0.799537 0.340417 0.319479
Si Si5 0.120647 0.841237 0.587208
Si Si6 0.219100 0.340775 0.224391
O O1 0.452131 0.500000 0.808987
O O2 0.404951 0.333133 0.981727
O O3 0.450194 0.215416 0.751028
O O4 0.500000 0.333573 0.000000
O O5 0.130984 0.842329 0.358650
O O6 0.177033 0.725368 0.116304
O O7 0.159525 0.000000 0.094313
O O8 0.930520 0.500000 0.524802
O O9 0.924275 0.760970 0.406374
O O10 0.000000 0.646420 0.500000
O O11 0.805080 0.500000 0.260700
O O12 0.841609 0.245679 0.308071
O O13 0.790254 0.343854 0.547605
O O14 0.759230 0.263416 0.214927
O O15 0.119170 0.000000 0.647502
O O16 0.228099 0.500000 0.170160
#
# Coordination Sequence:
#
# PCOD9190619 Si02
#       6
#     8   8   8   8   8   8
#     4   9  18  32  49  68  90 118 153 191 229 270
#     4   8  14  24  37  54  78 107 138 174 217 261
#     4  10  20  32  46  66  92 121 153 188 226 269
#     4   9  15  22  33  50  75 106 138 173 214 259
#     4   9  16  26  40  57  79 109 144 180 219 263
#     4   9  15  21  31  49  74 105 140 173 207 254
#
# _framework density 23.005595
#
# number of rings (size 3 to 8) (size 9 to 14) (size 15 to 20)
#    0.000    3.000    0.000    3.000    0.000    9.667 
#    0.000    0.000    0.000    0.000    0.000    0.000 
#    0.000    1.333    0.000    4.000    0.000   11.167 
#
# Total GULP energy -133992.161530 kJ/mol
# GULP energy per Si atom -5583.006730 kJ/mol
# Density = 2.295323 g / cm^3
# Si number density = 23.005595 Si / 1000 Ang^3
#
#
#
# Elastic Constant Matrix: (Units=GPa)
#
#
# Indices 1 2 3 4 5 6 
#
# 1 123.0154 95.7527 23.8603 0.0000 46.3524 0.0000
# 2 95.7527 229.3926 35.4979 0.0000 38.5978 0.0000
# 3 23.8603 35.4979 88.6253 0.0000 23.1055 0.0000
# 4 0.0000 0.0000 0.0000 6.3120 0.0000 -1.3168
# 5 46.3524 38.5978 23.1055 0.0000 41.9674 0.0000
# 6 0.0000 0.0000 0.0000 -1.3168 0.0000 0.9338
#
#
#
# Elastic Compliance Matrix: (Units=1/GPa)
#
#
# Indices 1 2 3 4 5 6 
#
# 1 0.017589 -0.004915 0.001307 0.000000 -0.015626 0.000000
# 2 -0.004915 0.006603 -0.001347 0.000000 0.000097 0.000000
# 3 0.001307 -0.001347 0.013456 0.000000 -0.007613 0.000000
# 4 0.000000 0.000000 0.000000 0.224458 0.000000 0.316516
# 5 -0.015626 0.000097 -0.007613 0.000000 0.045189 0.000000
# 6 0.000000 0.000000 0.000000 0.316516 0.000000 1.517238
#
#
# Mechanical properties :
#
#
# Convention : Reuss Voigt Hill
#
# Bulk Modulus (GPa) = 36.05090 83.47280 59.76185
# Shear Modulus (GPa) = 2.71195 28.90414 15.80804
#
# Velocity S-wave (km/s) = 1.08691 3.54841 2.62418
# Velocity P-wave (km/s) = 4.15688 7.29046 5.93424
#
# Compressibility (1/GPa) = 0.02773856
#
# Stress axis : x y z
#
# Youngs Moduli (GPa) = 56.85250 151.44534 74.31706
#
# Poissons Ratio (x) = 0.74437 -0.09714
# Poissons Ratio (y) = 0.27944 0.10010
# Poissons Ratio (z) = -0.07431 0.20398
#
# Static dielectric constant tensor:
#      x y z
#    x 1.892690 0.000000 -0.067230 
#    y 0.000000 1.792260 0.000000 
#    z -0.067230 0.000000 1.963780 
# 
# From -- ./inp_files/108740.got.cif
#   From: 2010.05.17/outbox.cif.g08.bks.cpg/sg12_55_cif.got.tgz:108740.got - 2010.06.03 13:09:07.
