data_PCOD9190174
_publ_section_title
;
Structure prediction by ZEFSAII (Michael W. Deem and Ramdas Pophale) SiO2 
 PCOD9190174
Probable space group: C 2/M
;
_chemical_formula_sum "Si O2"
_cell_formula_units_Z 52
_cell_length_a 17.158190
_cell_length_b 13.542856
_cell_length_c 17.547756
_cell_angle_alpha 90.000000
_cell_angle_beta 41.547000
_cell_angle_gamma 90.000000
_cell_volume 2704.395665
_symmetry_space_group_name_H-M "C 2/M"
_symmetry_group_IT_number 12
_symmetry_cell_setting 'monoclinic'
loop_
_space_group_symop_operation_xyz
x,y,z
-x,y,-z
-x,-y,-z
x,-y,z
1/2+x,1/2+y,z
1/2-x,1/2+y,-z
1/2-x,1/2-y,-z
1/2+x,1/2-y,z
loop_
_atom_site_type_symbol
_atom_site_label
_atom_site_fract_x
_atom_site_fract_y
_atom_site_fract_z
Si Si1 0.176065 0.702915 0.482283
Si Si2 0.565081 0.610771 0.032499
Si Si3 0.500000 0.324848 0.500000
Si Si4 0.720149 0.385862 0.238208
Si Si5 0.523997 0.888688 0.710874
Si Si6 0.373102 0.245279 0.235996
Si Si7 0.711348 0.234754 0.115382
O O1 0.250000 0.750000 0.500000
O O2 0.102908 0.618129 0.577278
O O3 0.275591 0.684520 0.346484
O O4 0.078866 0.766546 0.505939
O O5 0.573748 0.500000 0.059716
O O6 0.486657 0.688912 0.136554
O O7 0.500000 0.602757 0.000000
O O8 0.690765 0.659241 0.925561
O O9 0.600175 0.379279 0.376370
O O10 0.757071 0.500000 0.207904
O O11 0.814800 0.313185 0.208781
O O12 0.705004 0.336930 0.166344
O O13 0.596589 0.841663 0.727041
O O14 0.412438 0.818548 0.784502
O O15 0.489036 0.000000 0.752786
O O16 0.750000 0.250000 0.000000
#
# Coordination Sequence:
#
# PCOD9190174 Si02
#       7
#     8   8   4   8   8   8   8
#     4   9  20  37  62  91 129 164 203 262 322 377
#     4  11  23  41  62  84 117 166 207 246 307 374
#     4  10  19  40  67  92 132 168 209 272 329 384
#     4  11  23  40  67  97 124 165 214 264 328 383
#     4  11  22  40  64  91 125 166 208 262 324 374
#     4  10  21  42  65  91 126 158 208 271 314 376
#     4  12  24  42  60  87 131 166 209 261 309 380
#
# _framework density 19.227955000000001
#
# number of rings (size 3 to 8) (size 9 to 14) (size 15 to 20)
#    0.000    1.385    4.615    1.154    0.000    1.846 
#    0.000    1.923    0.000    0.000    0.000    0.000 
#    0.000    0.000    0.000    0.000    0.000    0.000 
#
# Total GULP energy -144826.194833 kJ/mol
# GULP energy per Si atom -5570.238263 kJ/mol
# Density = 1.918419 g / cm^3
# Si number density = 19.227955 Si / 1000 Ang^3
#
#
#
# Elastic Constant Matrix: (Units=GPa)
#
#
# Indices 1 2 3 4 5 6 
#
# 1 81.3607 21.7391 16.2286 0.0000 0.5567 0.0000
# 2 21.7391 92.0588 29.0709 0.0000 16.0727 0.0000
# 3 16.2286 29.0709 63.8062 0.0000 5.2899 0.0000
# 4 0.0000 0.0000 0.0000 10.6259 0.0000 5.2614
# 5 0.5567 16.0727 5.2899 0.0000 34.2390 0.0000
# 6 0.0000 0.0000 0.0000 5.2614 0.0000 17.5485
#
#
#
# Elastic Compliance Matrix: (Units=1/GPa)
#
#
# Indices 1 2 3 4 5 6 
#
# 1 0.013462 -0.002694 -0.002313 0.000000 0.001403 0.000000
# 2 -0.002694 0.014183 -0.005296 0.000000 -0.005796 0.000000
# 3 -0.002313 -0.005296 0.018704 0.000000 -0.000366 0.000000
# 4 0.000000 0.000000 0.000000 0.110516 0.000000 -0.033135
# 5 0.001403 -0.005796 -0.000366 0.000000 0.031961 0.000000
# 6 0.000000 0.000000 0.000000 -0.033135 0.000000 0.066919
#
#
# Mechanical properties :
#
#
# Convention : Reuss Voigt Hill
#
# Bulk Modulus (GPa) = 38.84467 41.25589 40.05028
# Shear Modulus (GPa) = 17.54793 23.82849 20.68821
#
# Velocity S-wave (km/s) = 3.02425 3.52414 3.28372
# Velocity P-wave (km/s) = 5.69568 6.16945 5.93730
#
# Compressibility (1/GPa) = 0.02574356
#
# Stress axis : x y z
#
# Youngs Moduli (GPa) = 74.28075 70.50631 53.46375
#
# Poissons Ratio (x) = 0.18991 0.12367
# Poissons Ratio (y) = 0.20008 0.28317
# Poissons Ratio (z) = 0.17182 0.37343
#
# Static dielectric constant tensor:
#      x y z
#    x 1.282510 0.000000 -0.013620 
#    y 0.000000 1.639510 0.000000 
#    z -0.013620 0.000000 1.674140 
# 
# From -- ./inp_files/315615.got.cif
#   From: 2010.05.17/outbox.cif.g08.bks.cpg/sg12_158_cif.got.tgz:315615.got - 2010.06.03 13:09:07.
