data_PCOD9190364
_publ_section_title
;
Structure prediction by ZEFSAII (Michael W. Deem and Ramdas Pophale) SiO2 
 PCOD9190364
Probable space group: C 2/M
;
_chemical_formula_sum "Si O2"
_cell_formula_units_Z 48
_cell_length_a 29.743300
_cell_length_b 7.431145
_cell_length_c 12.487835
_cell_angle_alpha 90.000000
_cell_angle_beta 109.024078
_cell_angle_gamma 90.000000
_cell_volume 2609.391353
_symmetry_space_group_name_H-M "C 2/M"
_symmetry_group_IT_number 12
_symmetry_cell_setting 'monoclinic'
loop_
_space_group_symop_operation_xyz
x,y,z
-x,y,-z
-x,-y,-z
x,-y,z
1/2+x,1/2+y,z
1/2-x,1/2+y,-z
1/2-x,1/2-y,-z
1/2+x,1/2-y,z
loop_
_atom_site_type_symbol
_atom_site_label
_atom_site_fract_x
_atom_site_fract_y
_atom_site_fract_z
Si Si1 0.232804 0.785112 0.608107
Si Si2 0.423191 0.780188 0.937744
Si Si3 0.503885 0.782818 0.831368
Si Si4 0.469200 0.290393 0.572646
Si Si5 0.670190 0.211360 0.238616
Si Si6 0.364627 0.281296 0.547172
O O1 0.250000 0.750000 0.500000
O O2 0.276149 0.712873 0.713996
O O3 0.178381 0.720715 0.564165
O O4 0.231235 0.000000 0.623097
O O5 0.458651 0.726488 0.868658
O O6 0.370180 0.714900 0.871649
O O7 0.422456 0.000000 0.936378
O O8 0.449135 0.725144 0.067364
O O9 0.497500 0.719472 0.706058
O O10 0.503634 0.000000 0.829468
O O11 0.500000 0.210926 0.500000
O O12 0.461194 0.500000 0.539568
O O13 0.416488 0.214904 0.553245
O O14 0.648361 0.225512 0.341699
O O15 0.674886 0.000000 0.217735
O O16 0.364719 0.500000 0.548733
#
# Coordination Sequence:
#
# PCOD9190364 Si02
#       6
#     8   8   8   8   8   8
#     4   8  14  22  35  55  77 100 125 153 188 234
#     4   8  14  24  41  62  83 103 123 157 201 239
#     4   9  16  28  43  59  79 104 133 162 197 236
#     4  10  20  31  41  55  79 110 140 169 197 224
#     4   9  14  23  40  60  80 102 125 150 192 244
#     4   9  16  26  37  53  79 105 130 162 194 225
#
# _framework density 18.395095000000001
#
# number of rings (size 3 to 8) (size 9 to 14) (size 15 to 20)
#    0.000    3.167    1.667    1.000    0.000    0.333 
#    0.000    2.500    0.000    0.000    0.000    1.167 
#    0.000    0.000    0.000    0.000    0.000    0.000 
#
# Total GULP energy -133625.553494 kJ/mol
# GULP energy per Si atom -5567.731396 kJ/mol
# Density = 1.835323 g / cm^3
# Si number density = 18.395095 Si / 1000 Ang^3
#
#
#
# Elastic Constant Matrix: (Units=GPa)
#
#
# Indices 1 2 3 4 5 6 
#
# 1 86.2405 -4.0138 72.3616 0.0000 32.1019 0.0000
# 2 -4.0138 57.5271 -6.8932 0.0000 1.3657 0.0000
# 3 72.3616 -6.8932 102.7817 0.0000 33.9765 0.0000
# 4 0.0000 0.0000 0.0000 11.0063 0.0000 0.2289
# 5 32.1019 1.3657 33.9765 0.0000 42.6536 0.0000
# 6 0.0000 0.0000 0.0000 0.2289 0.0000 4.4431
#
#
#
# Elastic Compliance Matrix: (Units=1/GPa)
#
#
# Indices 1 2 3 4 5 6 
#
# 1 0.030152 0.000058 -0.018627 0.000000 -0.007857 0.000000
# 2 0.000058 0.017655 0.001825 0.000000 -0.002063 0.000000
# 3 -0.018627 0.001825 0.024910 0.000000 -0.005882 0.000000
# 4 0.000000 0.000000 0.000000 0.090955 0.000000 -0.004686
# 5 -0.007857 -0.002063 -0.005882 0.000000 0.034110 0.000000
# 6 0.000000 0.000000 0.000000 -0.004686 0.000000 0.225312
#
#
# Mechanical properties :
#
#
# Convention : Reuss Voigt Hill
#
# Bulk Modulus (GPa) = 25.49071 41.05096 33.27083
# Shear Modulus (GPa) = 10.64607 23.96023 17.30315
#
# Velocity S-wave (km/s) = 2.40832 3.61298 3.07031
# Velocity P-wave (km/s) = 4.64982 6.30631 5.54032
#
# Compressibility (1/GPa) = 0.03922998
#
# Stress axis : x y z
#
# Youngs Moduli (GPa) = 33.16519 56.64179 40.14451
#
# Poissons Ratio (x) = -0.00330 0.74776
# Poissons Ratio (y) = -0.00193 -0.07326
# Poissons Ratio (z) = 0.61776 -0.10336
#
# Static dielectric constant tensor:
#      x y z
#    x 1.662370 0.000000 0.068180 
#    y 0.000000 1.689070 0.000000 
#    z 0.068180 0.000000 1.630170 
# 
# From -- ./inp_files/102030.got.cif
#   From: 2010.05.17/outbox.cif.g08.bks.cpg/sg12_52_cif.got.tgz:102030.got - 2010.06.03 13:09:07.
