data_PCOD9190763
_publ_section_title
;
Structure prediction by ZEFSAII (Michael W. Deem and Ramdas Pophale) SiO2 
 PCOD9190763
Probable space group: C 2/M
;
_chemical_formula_sum "Si O2"
_cell_formula_units_Z 64
_cell_length_a 25.151881
_cell_length_b 8.767169
_cell_length_c 16.833013
_cell_angle_alpha 90.000000
_cell_angle_beta 91.508800
_cell_angle_gamma 90.000000
_cell_volume 3710.574089
_symmetry_space_group_name_H-M "C 2/M"
_symmetry_group_IT_number 12
_symmetry_cell_setting 'monoclinic'
loop_
_space_group_symop_operation_xyz
x,y,z
-x,y,-z
-x,-y,-z
x,-y,z
1/2+x,1/2+y,z
1/2-x,1/2+y,-z
1/2-x,1/2-y,-z
1/2+x,1/2-y,z
loop_
_atom_site_type_symbol
_atom_site_label
_atom_site_fract_x
_atom_site_fract_y
_atom_site_fract_z
Si Si1 0.174031 0.315986 0.444700
Si Si2 0.188379 0.317876 0.163797
Si Si3 0.605067 0.183443 0.299740
Si Si4 0.285412 0.815869 0.388001
Si Si5 0.482012 0.681146 0.813220
Si Si6 0.091434 0.684032 0.052373
Si Si7 0.909778 0.684455 0.131403
Si Si8 0.800490 0.316148 0.208636
O O1 0.177096 0.500000 0.440376
O O2 0.124477 0.269775 0.387974
O O3 0.227745 0.249851 0.408150
O O4 0.175776 0.272168 0.537525
O O5 0.195842 0.500000 0.163905
O O6 0.153433 0.279337 0.240728
O O7 0.149971 0.277377 0.088759
O O8 0.245385 0.240275 0.168985
O O9 0.552799 0.260314 0.262352
O O10 0.598117 0.000000 0.296525
O O11 0.301849 0.765183 0.300871
O O12 0.281923 0.000000 0.387204
O O13 0.483094 0.500000 0.814389
O O14 0.451211 0.742242 0.890367
O O15 0.541023 0.748214 0.818414
O O16 0.085613 0.500000 0.058300
O O17 0.085107 0.728942 0.960911
O O18 0.912245 0.500000 0.134760
O O19 0.853003 0.733988 0.164009
O O20 0.800067 0.500000 0.207898
#
# Coordination Sequence:
#
# PCOD9190763 Si02
#       8
#     8   8   8   8   8   8   8   8
#     4   9  16  28  48  73 100 132 165 194 234 290
#     4   9  17  30  48  71  98 129 164 199 239 289
#     4   9  17  31  51  73  99 132 166 197 239 296
#     4   9  17  28  45  73 106 131 158 200 241 278
#     4  11  22  34  52  77  99 119 157 214 261 287
#     4   9  19  36  55  72  94 129 166 201 243 295
#     4  10  21  37  53  68  94 135 173 198 237 297
#     4  10  20  32  48  72 103 135 164 199 240 286
#
# _framework density 17.248004999999999
#
# number of rings (size 3 to 8) (size 9 to 14) (size 15 to 20)
#    0.000    2.500    1.250    2.250    0.000    5.500 
#    0.000    0.000    0.000    0.750    0.000    5.250 
#    0.000    0.000    0.000    0.000    0.000    0.000 
#
# Total GULP energy -178435.592673 kJ/mol
# GULP energy per Si atom -5576.112271 kJ/mol
# Density = 1.720875 g / cm^3
# Si number density = 17.248005 Si / 1000 Ang^3
#
#
#
# Elastic Constant Matrix: (Units=GPa)
#
#
# Indices 1 2 3 4 5 6 
#
# 1 101.7100 20.1817 18.5767 0.0000 22.4868 0.0000
# 2 20.1817 9.8887 9.9430 0.0000 6.3842 0.0000
# 3 18.5767 9.9430 37.0736 0.0000 24.5482 0.0000
# 4 0.0000 0.0000 0.0000 12.0629 0.0000 3.4301
# 5 22.4868 6.3842 24.5482 0.0000 24.6582 0.0000
# 6 0.0000 0.0000 0.0000 3.4301 0.0000 27.0869
#
#
#
# Elastic Compliance Matrix: (Units=1/GPa)
#
#
# Indices 1 2 3 4 5 6 
#
# 1 0.021268 -0.045502 0.019332 0.000000 -0.026860 0.000000
# 2 -0.045502 0.235906 -0.080696 0.000000 0.060753 0.000000
# 3 0.019332 -0.080696 0.107885 0.000000 -0.104139 0.000000
# 4 0.000000 0.000000 0.000000 0.085995 0.000000 -0.010890
# 5 -0.026860 0.060753 -0.104139 0.000000 0.152994 0.000000
# 6 0.000000 0.000000 0.000000 -0.010890 0.000000 0.038297
#
#
# Mechanical properties :
#
#
# Convention : Reuss Voigt Hill
#
# Bulk Modulus (GPa) = 6.60832 27.34166 16.97499
# Shear Modulus (GPa) = 5.51559 19.42633 12.47096
#
# Velocity S-wave (km/s) = 1.79018 3.35967 2.69185
# Velocity P-wave (km/s) = 2.84828 5.56204 4.41866
#
# Compressibility (1/GPa) = 0.15132433
#
# Stress axis : x y z
#
# Youngs Moduli (GPa) = 47.01859 4.23898 9.26916
#
# Poissons Ratio (x) = 0.19288 -0.17919
# Poissons Ratio (y) = 2.13946 0.74799
# Poissons Ratio (z) = -0.90894 0.34207
#
# Static dielectric constant tensor:
#      x y z
#    x 1.560800 0.000000 0.022890 
#    y 0.000000 1.578490 0.000000 
#    z 0.022890 0.000000 1.607240 
# 
# From -- ./inp_files/287694.got.cif
#   From: 2010.05.17/outbox.cif.g08.bks.cpg/sg12_144_cif.got.tgz:287694.got - 2010.06.03 13:09:07.
