data_PCOD9190916
_publ_section_title
;
Structure prediction by ZEFSAII (Michael W. Deem and Ramdas Pophale) SiO2 
 PCOD9190916
Probable space group: C 2/M
;
_chemical_formula_sum "Si O2"
_cell_formula_units_Z 56
_cell_length_a 12.541781
_cell_length_b 30.254774
_cell_length_c 14.847327
_cell_angle_alpha 90.000000
_cell_angle_beta 36.661201
_cell_angle_gamma 90.000000
_cell_volume 3363.840775
_symmetry_space_group_name_H-M "C 2/M"
_symmetry_group_IT_number 12
_symmetry_cell_setting 'monoclinic'
loop_
_space_group_symop_operation_xyz
x,y,z
-x,y,-z
-x,-y,-z
x,-y,z
1/2+x,1/2+y,z
1/2-x,1/2+y,-z
1/2-x,1/2-y,-z
1/2+x,1/2-y,z
loop_
_atom_site_type_symbol
_atom_site_label
_atom_site_fract_x
_atom_site_fract_y
_atom_site_fract_z
Si Si1 0.582116 0.092717 0.308019
Si Si2 0.292686 0.773349 0.170236
Si Si3 0.169246 0.741307 0.654749
Si Si4 0.300118 0.409207 0.348560
Si Si5 0.327285 0.184341 0.846306
Si Si6 0.443334 0.673678 0.807422
Si Si7 0.723260 0.000000 0.156293
Si Si8 0.551051 0.500000 0.809332
O O1 0.371312 0.094059 0.471006
O O2 0.703654 0.093709 0.316073
O O3 0.639731 0.137495 0.221117
O O4 0.619878 0.046496 0.231774
O O5 0.242316 0.772936 0.310511
O O6 0.256098 0.723760 0.157386
O O7 0.162105 0.808041 0.208521
O O8 0.500000 0.782980 0.000000
O O9 0.250000 0.750000 0.500000
O O10 0.014930 0.705214 0.747718
O O11 0.084628 0.788449 0.735657
O O12 0.445914 0.371588 0.269973
O O13 0.396102 0.456581 0.281525
O O14 0.201209 0.175036 0.015883
O O15 0.834938 0.000000 0.174625
O O16 0.851172 0.000000 0.983097
#
# Coordination Sequence:
#
# PCOD9190916 Si02
#       8
#     8   8   8   8   8   8   4   4
#     4  10  20  32  50  74 112 142 178 221 278 324
#     4  11  20  38  56  75 108 148 182 228 275 316
#     4  11  22  36  53  78 110 140 183 229 275 320
#     4  10  20  33  49  78 108 145 178 225 274 332
#     4  11  21  32  53  78 103 145 185 222 263 331
#     4  11  21  34  55  78 105 142 190 223 269 328
#     4   9  17  31  49  75 102 145 178 217 268 337
#     4   9  17  31  51  73 107 138 181 218 269 330
#
# _framework density 16.647637
#
# number of rings (size 3 to 8) (size 9 to 14) (size 15 to 20)
#    0.000    1.571    2.857    3.857    0.000    6.286 
#    0.000    0.000    0.000    0.000    0.000    1.500 
#    0.000    3.429    0.000    0.000    0.000    0.000 
#
# Total GULP energy -155936.694194 kJ/mol
# GULP energy per Si atom -5569.167650 kJ/mol
# Density = 1.660975 g / cm^3
# Si number density = 16.647637 Si / 1000 Ang^3
#
#
#
# Elastic Constant Matrix: (Units=GPa)
#
#
# Indices 1 2 3 4 5 6 
#
# 1 70.5851 40.5924 50.4764 0.0000 2.2450 0.0000
# 2 40.5924 132.0272 70.2376 0.0000 -8.8315 0.0000
# 3 50.4764 70.2376 137.5709 0.0000 8.2593 0.0000
# 4 0.0000 0.0000 0.0000 31.6893 0.0000 -10.5944
# 5 2.2450 -8.8315 8.2593 0.0000 18.6332 0.0000
# 6 0.0000 0.0000 0.0000 -10.5944 0.0000 28.1072
#
#
#
# Elastic Compliance Matrix: (Units=1/GPa)
#
#
# Indices 1 2 3 4 5 6 
#
# 1 0.020125 -0.003306 -0.005606 0.000000 -0.001507 0.000000
# 2 -0.003306 0.012067 -0.005460 0.000000 0.008538 0.000000
# 3 -0.005606 -0.005460 0.012563 0.000000 -0.007481 0.000000
# 4 0.000000 0.000000 0.000000 0.036106 0.000000 0.013610
# 5 -0.001507 0.008538 -0.007481 0.000000 0.061212 0.000000
# 6 0.000000 0.000000 0.000000 0.013610 0.000000 0.040708
#
#
# Mechanical properties :
#
#
# Convention : Reuss Voigt Hill
#
# Bulk Modulus (GPa) = 62.45965 73.64399 68.05182
# Shear Modulus (GPa) = 23.05619 27.61106 25.33363
#
# Velocity S-wave (km/s) = 3.72553 4.07696 3.90520
# Velocity P-wave (km/s) = 7.49041 8.15445 7.82947
#
# Compressibility (1/GPa) = 0.01601034
#
# Stress axis : x y z
#
# Youngs Moduli (GPa) = 49.68862 82.87365 79.60118
#
# Poissons Ratio (x) = 0.27400 0.44622
# Poissons Ratio (y) = 0.16428 0.43463
# Poissons Ratio (z) = 0.27854 0.45250
#
# Static dielectric constant tensor:
#      x y z
#    x 1.851290 0.000000 0.110810 
#    y 0.000000 1.550270 0.000000 
#    z 0.110810 0.000000 1.645900 
# 
# From -- ./inp_files/209152.got.cif
#   From: 2010.05.17/outbox.cif.g08.bks.cpg/sg12_105_cif.got.tgz:209152.got - 2010.06.03 13:09:07.
