data_PCOD9190015
_publ_section_title
;
Structure prediction by ZEFSAII (Michael W. Deem and Ramdas Pophale) SiO2 
 PCOD9190015
Probable space group: C 2/M
;
_chemical_formula_sum "Si O2"
_cell_formula_units_Z 50
_cell_length_a 9.158941
_cell_length_b 27.027839
_cell_length_c 9.543699
_cell_angle_alpha 90.000000
_cell_angle_beta 59.776114
_cell_angle_gamma 90.000000
_cell_volume 2041.360673
_symmetry_space_group_name_H-M "C 2/M"
_symmetry_group_IT_number 12
_symmetry_cell_setting 'monoclinic'
loop_
_space_group_symop_operation_xyz
x,y,z
-x,y,-z
-x,-y,-z
x,-y,z
1/2+x,1/2+y,z
1/2-x,1/2+y,-z
1/2-x,1/2-y,-z
1/2+x,1/2-y,z
loop_
_atom_site_type_symbol
_atom_site_label
_atom_site_fract_x
_atom_site_fract_y
_atom_site_fract_z
Si Si1 0.815723 0.574865 0.349687
Si Si2 0.500000 0.500000 0.500000
Si Si3 0.741563 0.218309 0.294250
Si Si4 0.554589 0.626414 0.814321
Si Si5 0.722964 0.445218 0.107961
Si Si6 0.399073 0.809563 0.332341
Si Si7 0.330700 0.053452 0.730074
O O1 0.645588 0.544183 0.458493
O O2 0.853992 0.560012 0.169403
O O3 0.835489 0.634356 0.346693
O O4 0.969227 0.556456 0.370542
O O5 0.906752 0.183613 0.217473
O O6 0.660755 0.208597 0.485727
O O7 0.603184 0.199895 0.246131
O O8 0.807091 0.274545 0.262826
O O9 0.409123 0.598926 0.800793
O O10 0.730353 0.597614 0.705933
O O11 0.500000 0.617513 0.000000
O O12 0.639788 0.500000 0.168412
O O13 0.786031 0.442883 0.918825
O O14 0.265963 0.000000 0.716392
#
# Coordination Sequence:
#
# PCOD9190015 Si02
#       7
#     8   2   8   8   8   8   8
#     4  12  23  40  58  93 127 160 201 257 308 364
#     4  12  28  36  58  94 136 160 196 252 316 354
#     4  10  22  44  63  92 115 163 214 252 307 367
#     4  10  21  38  63  93 128 159 206 263 310 358
#     4  10  21  36  61  92 123 169 209 249 302 366
#     4  10  24  40  69  86 119 163 208 254 303 377
#     4  10  19  39  63  86 122 168 212 248 299 374
#
# _framework density 24.493466999999999
#
# number of rings (size 3 to 8) (size 9 to 14) (size 15 to 20)
#    0.000    1.600    3.200    0.960    4.480    4.480 
#    0.000    2.400    0.000    2.880    0.000    0.000 
#    0.000    0.000    0.000    0.000    0.000    0.000 
#
# Total GULP energy -139419.189362 kJ/mol
# GULP energy per Si atom -5576.767574 kJ/mol
# Density = 2.443772 g / cm^3
# Si number density = 24.493467 Si / 1000 Ang^3
#
#
#
# Elastic Constant Matrix: (Units=GPa)
#
#
# Indices 1 2 3 4 5 6 
#
# 1 117.4647 67.6471 27.0712 0.0000 -17.5255 0.0000
# 2 67.6471 209.2280 9.8561 0.0000 -16.5257 0.0000
# 3 27.0712 9.8561 40.9500 0.0000 -1.5667 0.0000
# 4 0.0000 0.0000 0.0000 4.9721 0.0000 17.7684
# 5 -17.5255 -16.5257 -1.5667 0.0000 36.4462 0.0000
# 6 0.0000 0.0000 0.0000 17.7684 0.0000 8.2361
#
#
#
# Elastic Compliance Matrix: (Units=1/GPa)
#
#
# Indices 1 2 3 4 5 6 
#
# 1 0.012888 -0.003473 -0.007519 0.000000 0.004299 0.000000
# 2 -0.003473 0.005944 0.000906 0.000000 0.001064 0.000000
# 3 -0.007519 0.000906 0.029098 0.000000 -0.001954 0.000000
# 4 0.000000 0.000000 0.000000 -0.029975 0.000000 0.064668
# 5 0.004299 0.001064 -0.001954 0.000000 0.029903 0.000000
# 6 0.000000 0.000000 0.000000 0.064668 0.000000 -0.018096
#
#
# Mechanical properties :
#
#
# Convention : Reuss Voigt Hill
#
# Bulk Modulus (GPa) = 36.02717 64.08793 50.05755
# Shear Modulus (GPa) = 84.47865 27.46878 55.97372
#
# Velocity S-wave (km/s) = 5.87921 3.35247 4.78562
# Velocity P-wave (km/s) = 7.79921 6.41931 7.14266
#
# Compressibility (1/GPa) = 0.02775683
#
# Stress axis : x y z
#
# Youngs Moduli (GPa) = 77.59377 168.24491 34.36654
#
# Poissons Ratio (x) = 0.58432 0.25841
# Poissons Ratio (y) = 0.26948 -0.03114
# Poissons Ratio (z) = 0.58346 -0.15244
#
# Static dielectric constant tensor:
#      x y z
#    x 1.934170 0.000000 0.009960 
#    y 0.000000 1.936800 0.000000 
#    z 0.009960 0.000000 2.174390 
# 
# From -- ./inp_files/124146.got.cif
#   From: 2010.05.17/outbox.cif.g08.bks.cpg/sg12_63_cif.got.tgz:124146.got - 2010.06.03 13:09:07.
