data_PCOD9190877
_publ_section_title
;
Structure prediction by ZEFSAII (Michael W. Deem and Ramdas Pophale) SiO2 
 PCOD9190877
Probable space group: C 2/M
;
_chemical_formula_sum "Si O2"
_cell_formula_units_Z 56
_cell_length_a 21.573185
_cell_length_b 8.182939
_cell_length_c 14.097168
_cell_angle_alpha 90.000000
_cell_angle_beta 62.031971
_cell_angle_gamma 90.000000
_cell_volume 2197.956785
_symmetry_space_group_name_H-M "C 2/M"
_symmetry_group_IT_number 12
_symmetry_cell_setting 'monoclinic'
loop_
_space_group_symop_operation_xyz
x,y,z
-x,y,-z
-x,-y,-z
x,-y,z
1/2+x,1/2+y,z
1/2-x,1/2+y,-z
1/2-x,1/2-y,-z
1/2+x,1/2-y,z
loop_
_atom_site_type_symbol
_atom_site_label
_atom_site_fract_x
_atom_site_fract_y
_atom_site_fract_z
Si Si1 0.441599 0.682836 0.121141
Si Si2 0.787292 0.694335 0.768641
Si Si3 0.919181 0.803057 0.579366
Si Si4 0.915733 0.806988 0.379297
Si Si5 0.953958 0.685822 0.808829
Si Si6 0.161033 0.305182 0.963473
Si Si7 0.718395 0.303667 0.623095
O O1 0.431326 0.500000 0.172361
O O2 0.484885 0.809042 0.154417
O O3 0.375272 0.735708 0.106208
O O4 0.500000 0.657638 0.000000
O O5 0.779683 0.500000 0.777987
O O6 0.869534 0.734978 0.697888
O O7 0.742528 0.762170 0.888903
O O8 0.753421 0.761600 0.694078
O O9 0.889372 0.737926 0.498820
O O10 0.000000 0.760728 0.500000
O O11 0.915320 0.000000 0.589877
O O12 0.863515 0.754151 0.332179
O O13 0.998505 0.777779 0.303172
O O14 0.906674 0.000000 0.396491
O O15 0.941065 0.500000 0.788657
O O16 0.884910 0.754282 0.912460
O O17 0.153045 0.500000 0.971001
O O18 0.723270 0.500000 0.625192
O O19 0.750000 0.250000 0.500000
#
# Coordination Sequence:
#
# PCOD9190877 Si02
#       7
#     8   8   8   8   8   8   8
#     4   9  16  27  44  68 103 146 187 224 263 314
#     4  11  22  35  56  86 116 148 186 229 280 333
#     4  10  22  41  63  84 108 144 188 231 279 336
#     4  10  20  35  56  82 113 148 185 227 277 332
#     4  10  20  32  49  76 109 147 188 227 272 327
#     4  10  20  33  50  75 109 148 188 228 271 326
#     4  10  20  33  51  79 113 147 183 222 271 328
#
# _framework density 25.478209
#
# number of rings (size 3 to 8) (size 9 to 14) (size 15 to 20)
#    0.000    2.000    1.429    2.571    0.000    6.571 
#    0.000    0.000    0.000    0.857    0.000    0.000 
#    0.000    0.000    0.000    0.000    0.000    0.000 
#
# Total GULP energy -156192.620996 kJ/mol
# GULP energy per Si atom -5578.307893 kJ/mol
# Density = 2.542022 g / cm^3
# Si number density = 25.478209 Si / 1000 Ang^3
#
#
#
# Elastic Constant Matrix: (Units=GPa)
#
#
# Indices 1 2 3 4 5 6 
#
# 1 84.3336 9.3100 32.4099 0.0000 -28.8464 0.0000
# 2 9.3100 27.6320 -2.6392 0.0001 -4.1990 0.0000
# 3 32.4099 -2.6392 168.2007 0.0000 -33.5558 0.0000
# 4 0.0000 0.0001 0.0000 28.9766 0.0000 -5.2911
# 5 -28.8464 -4.1990 -33.5558 0.0000 42.5919 0.0000
# 6 0.0000 0.0000 0.0000 -5.2911 0.0000 15.7745
#
#
#
# Elastic Compliance Matrix: (Units=1/GPa)
#
#
# Indices 1 2 3 4 5 6 
#
# 1 0.016030 -0.004085 -0.001266 0.000000 0.009456 0.000000
# 2 -0.004085 0.038121 0.001878 0.000000 0.002472 0.000000
# 3 -0.001266 0.001878 0.007219 0.000000 0.005015 0.000000
# 4 0.000000 0.000000 0.000000 0.036762 0.000000 0.012331
# 5 0.009456 0.002472 0.005015 0.000000 0.034078 0.000000
# 6 0.000000 0.000000 0.000000 0.012331 0.000000 0.067529
#
#
# Mechanical properties :
#
#
# Convention : Reuss Voigt Hill
#
# Bulk Modulus (GPa) = 18.37407 39.81419 29.09413
# Shear Modulus (GPa) = 22.23934 33.54099 27.89016
#
# Velocity S-wave (km/s) = 2.95765 3.63224 3.31217
# Velocity P-wave (km/s) = 4.34637 5.76642 5.10600
#
# Compressibility (1/GPa) = 0.05442451
#
# Stress axis : x y z
#
# Youngs Moduli (GPa) = 62.38395 26.23217 138.51809
#
# Poissons Ratio (x) = 0.10715 0.17541
# Poissons Ratio (y) = 0.25483 -0.26018
# Poissons Ratio (z) = 0.07900 -0.04927
#
# Static dielectric constant tensor:
#      x y z
#    x 2.201920 0.000000 0.051930 
#    y 0.000000 1.904600 0.000000 
#    z 0.051930 0.000000 2.164230 
# 
# From -- ./inp_files/288215.got.cif
#   From: 2010.05.17/outbox.cif.g08.bks.cpg/sg12_145_cif.got.tgz:288215.got - 2010.06.03 13:09:07.
