data_PCOD9190089
_publ_section_title
;
Structure prediction by ZEFSAII (Michael W. Deem and Ramdas Pophale) SiO2 
 PCOD9190089
Probable space group: C 2/M
;
_chemical_formula_sum "Si O2"
_cell_formula_units_Z 64
_cell_length_a 23.711751
_cell_length_b 21.374091
_cell_length_c 18.197206
_cell_angle_alpha 90.000000
_cell_angle_beta 160.699536
_cell_angle_gamma 90.000000
_cell_volume 3048.290907
_symmetry_space_group_name_H-M "C 2/M"
_symmetry_group_IT_number 12
_symmetry_cell_setting 'monoclinic'
loop_
_space_group_symop_operation_xyz
x,y,z
-x,y,-z
-x,-y,-z
x,-y,z
1/2+x,1/2+y,z
1/2-x,1/2+y,-z
1/2-x,1/2-y,-z
1/2+x,1/2-y,z
loop_
_atom_site_type_symbol
_atom_site_label
_atom_site_fract_x
_atom_site_fract_y
_atom_site_fract_z
Si Si1 0.278486 0.926997 0.154627
Si Si2 0.728397 0.656091 0.400376
Si Si3 0.995822 0.255491 0.191157
Si Si4 0.596421 0.928050 0.044291
Si Si5 0.552470 0.646409 0.759478
Si Si6 0.324589 0.327587 0.249755
Si Si7 0.186690 0.574794 0.635055
Si Si8 0.266504 0.429248 0.464416
O O1 0.246599 0.910015 0.200798
O O2 0.480663 0.920464 0.387099
O O3 0.237271 0.000000 0.096858
O O4 0.171548 0.889595 0.963669
O O5 0.897783 0.685204 0.647695
O O6 0.598437 0.713006 0.258156
O O7 0.751574 0.625616 0.348961
O O8 0.677656 0.597519 0.388810
O O9 0.968508 0.214321 0.230445
O O10 0.820331 0.276074 0.939140
O O11 0.743833 0.882675 0.199333
O O12 0.654407 0.000000 0.125301
O O13 0.500000 0.908243 0.000000
O O14 0.437655 0.927488 0.792558
O O15 0.633138 0.647209 0.779142
O O16 0.366385 0.614371 0.530195
O O17 0.500000 0.303638 0.500000
O O18 0.224648 0.500000 0.665869
O O19 0.320019 0.500000 0.518054
#
# Coordination Sequence:
#
# PCOD9190089 Si02
#       8
#     8   8   8   8   8   8   8   8
#     4   9  19  36  61  95 137 171 208 267 333 394
#     4  10  19  39  68  89 128 170 220 269 318 387
#     4  10  23  42  62  90 128 174 220 271 319 371
#     4  10  22  41  64  92 128 162 203 266 326 380
#     4  11  23  41  64  92 130 172 216 266 319 385
#     4  12  25  44  67  95 126 170 221 268 318 385
#     4   9  18  35  62  99 133 168 212 267 333 398
#     4  10  20  36  63  95 125 164 208 258 327 383
#
# _framework density 20.995370999999999
#
# number of rings (size 3 to 8) (size 9 to 14) (size 15 to 20)
#    0.000    1.875    1.250    3.375    0.000    1.250 
#    4.500    2.500    0.000    6.750    0.000    0.000 
#    0.000    0.000    0.000    0.000    0.000    0.000 
#
# Total GULP energy -178674.984036 kJ/mol
# GULP energy per Si atom -5583.593251 kJ/mol
# Density = 2.094758 g / cm^3
# Si number density = 20.995371 Si / 1000 Ang^3
#
#
#
# Elastic Constant Matrix: (Units=GPa)
#
#
# Indices 1 2 3 4 5 6 
#
# 1 126.0482 46.1776 16.8471 0.0000 -6.5770 0.0000
# 2 46.1776 64.8970 24.3763 0.0000 -5.0560 0.0000
# 3 16.8471 24.3763 101.8319 0.0000 -3.2179 0.0000
# 4 0.0000 0.0000 0.0000 19.2062 0.0000 1.0245
# 5 -6.5770 -5.0560 -3.2179 0.0000 23.4423 0.0000
# 6 0.0000 0.0000 0.0000 1.0245 0.0000 19.2176
#
#
#
# Elastic Compliance Matrix: (Units=1/GPa)
#
#
# Indices 1 2 3 4 5 6 
#
# 1 0.010776 -0.007588 0.000078 0.000000 0.001397 0.000000
# 2 -0.007588 0.022503 -0.004063 0.000000 0.002167 0.000000
# 3 0.000078 -0.004063 0.010800 0.000000 0.000628 0.000000
# 4 0.000000 0.000000 0.000000 0.052215 0.000000 -0.002784
# 5 0.001397 0.002167 0.000628 0.000000 0.043604 0.000000
# 6 0.000000 0.000000 0.000000 -0.002784 0.000000 0.052184
#
#
# Mechanical properties :
#
#
# Convention : Reuss Voigt Hill
#
# Bulk Modulus (GPa) = 47.77263 51.95324 49.86293
# Shear Modulus (GPa) = 22.50177 26.06497 24.28337
#
# Velocity S-wave (km/s) = 3.27731 3.52726 3.40458
# Velocity P-wave (km/s) = 6.09297 6.43332 6.26546
#
# Compressibility (1/GPa) = 0.02093249
#
# Stress axis : x y z
#
# Youngs Moduli (GPa) = 92.80047 44.43828 92.59548
#
# Poissons Ratio (x) = 0.33719 -0.00720
# Poissons Ratio (y) = 0.70416 0.37621
# Poissons Ratio (z) = -0.00722 0.18055
#
# Static dielectric constant tensor:
#      x y z
#    x 1.855600 0.000000 0.013740 
#    y 0.000000 1.763920 0.000000 
#    z 0.013740 0.000000 1.790360 
# 
# From -- ./inp_files/290969.got.cif
#   From: 2010.05.17/outbox.cif.g08.bks.cpg/sg12_146_cif.got.tgz:290969.got - 2010.06.03 13:09:07.
