data_PCOD9190671
_publ_section_title
;
Structure prediction by ZEFSAII (Michael W. Deem and Ramdas Pophale) SiO2 
 PCOD9190671
Probable space group: C 2/M
;
_chemical_formula_sum "Si O2"
_cell_formula_units_Z 48
_cell_length_a 13.885956
_cell_length_b 9.353879
_cell_length_c 17.140036
_cell_angle_alpha 90.000000
_cell_angle_beta 71.454855
_cell_angle_gamma 90.000000
_cell_volume 2110.674192
_symmetry_space_group_name_H-M "C 2/M"
_symmetry_group_IT_number 12
_symmetry_cell_setting 'monoclinic'
loop_
_space_group_symop_operation_xyz
x,y,z
-x,y,-z
-x,-y,-z
x,-y,z
1/2+x,1/2+y,z
1/2-x,1/2+y,-z
1/2-x,1/2-y,-z
1/2+x,1/2-y,z
loop_
_atom_site_type_symbol
_atom_site_label
_atom_site_fract_x
_atom_site_fract_y
_atom_site_fract_z
Si Si1 0.478384 0.836413 0.229941
Si Si2 0.905160 0.668192 0.942408
Si Si3 0.684849 0.837466 0.277252
Si Si4 0.306034 0.667619 0.101833
Si Si5 0.379609 0.837638 0.407205
Si Si6 0.641187 0.660209 0.442520
O O1 0.509425 0.770805 0.138905
O O2 0.585932 0.845072 0.247685
O O3 0.407508 0.772438 0.315480
O O4 0.442018 0.000000 0.225302
O O5 0.925231 0.500000 0.949017
O O6 0.798789 0.675412 0.921708
O O7 0.884987 0.745476 0.029047
O O8 0.774245 0.780279 0.196932
O O9 0.651303 0.747489 0.360120
O O10 0.711088 0.000000 0.294028
O O11 0.333228 0.500000 0.100388
O O12 0.411652 0.741930 0.471923
O O13 0.258797 0.852189 0.439179
O O14 0.422808 0.000000 0.401606
O O15 0.603573 0.500000 0.438494
#
# Coordination Sequence:
#
# PCOD9190671 Si02
#       6
#     8   8   8   8   8   8
#     4   8  15  29  49  70  88 114 154 188 215 256
#     4   8  13  23  41  64  88 112 142 181 217 251
#     4   9  17  30  48  68  91 119 150 183 218 261
#     4   8  14  24  39  62  90 117 143 172 213 263
#     4   9  18  34  52  65  84 118 154 184 218 266
#     4  10  20  32  47  68  91 115 147 186 226 267
#
# _framework density 22.74155
#
# number of rings (size 3 to 8) (size 9 to 14) (size 15 to 20)
#    0.000    3.333    0.000    2.500    0.000    2.000 
#    0.000    7.500    0.000    1.000    0.000    7.000 
#    0.000    0.000    0.000    0.000    0.000    0.000 
#
# Total GULP energy -133851.208173 kJ/mol
# GULP energy per Si atom -5577.133674 kJ/mol
# Density = 2.268979 g / cm^3
# Si number density = 22.741550 Si / 1000 Ang^3
#
#
#
# Elastic Constant Matrix: (Units=GPa)
#
#
# Indices 1 2 3 4 5 6 
#
# 1 37.5056 -0.7104 22.4897 0.0000 -1.5694 0.0000
# 2 -0.7104 73.1396 95.5111 0.0000 3.7351 0.0000
# 3 22.4897 95.5111 260.4211 0.0000 -7.3789 0.0000
# 4 0.0000 0.0000 0.0000 35.9592 0.0000 -2.0960
# 5 -1.5694 3.7351 -7.3789 0.0000 45.1670 0.0000
# 6 0.0000 0.0000 0.0000 -2.0960 0.0000 3.0246
#
#
#
# Elastic Compliance Matrix: (Units=1/GPa)
#
#
# Indices 1 2 3 4 5 6 
#
# 1 0.029896 0.007095 -0.005195 0.000000 -0.000397 0.000000
# 2 0.007095 0.028574 -0.011204 0.000000 -0.003947 0.000000
# 3 -0.005195 -0.011204 0.008458 0.000000 0.002128 0.000000
# 4 0.000000 0.000000 0.000000 0.028980 0.000000 0.020083
# 5 -0.000397 -0.003947 0.002128 0.000000 0.022800 0.000000
# 6 0.000000 0.000000 0.000000 0.020083 0.000000 0.344543
#
#
# Mechanical properties :
#
#
# Convention : Reuss Voigt Hill
#
# Bulk Modulus (GPa) = 20.69591 67.29411 43.99501
# Shear Modulus (GPa) = 10.04083 33.74856 21.89469
#
# Velocity S-wave (km/s) = 2.10352 3.85646 3.10621
# Velocity P-wave (km/s) = 3.87556 7.03454 5.67911
#
# Compressibility (1/GPa) = 0.04831873
#
# Stress axis : x y z
#
# Youngs Moduli (GPa) = 33.44978 34.99625 118.22926
#
# Poissons Ratio (x) = -0.24829 0.61420
# Poissons Ratio (y) = -0.23731 1.32469
# Poissons Ratio (z) = 0.17377 0.39211
#
# Static dielectric constant tensor:
#      x y z
#    x 1.932500 0.000000 -0.025480 
#    y 0.000000 1.816950 0.000000 
#    z -0.025480 0.000000 1.884690 
# 
# From -- ./inp_files/280057.got.cif
#   From: 2010.05.17/outbox.cif.g08.bks.cpg/sg12_141_cif.got.tgz:280057.got - 2010.06.03 13:09:07.
