data_PCOD9190724
_publ_section_title
;
Structure prediction by ZEFSAII (Michael W. Deem and Ramdas Pophale) SiO2 
 PCOD9190724
Probable space group: C 2/M
;
_chemical_formula_sum "Si O2"
_cell_formula_units_Z 44
_cell_length_a 13.466335
_cell_length_b 29.344926
_cell_length_c 15.253817
_cell_angle_alpha 90.000000
_cell_angle_beta 151.982246
_cell_angle_gamma 90.000000
_cell_volume 2831.543618
_symmetry_space_group_name_H-M "C 2/M"
_symmetry_group_IT_number 12
_symmetry_cell_setting 'monoclinic'
loop_
_space_group_symop_operation_xyz
x,y,z
-x,y,-z
-x,-y,-z
x,-y,z
1/2+x,1/2+y,z
1/2-x,1/2+y,-z
1/2-x,1/2-y,-z
1/2+x,1/2-y,z
loop_
_atom_site_type_symbol
_atom_site_label
_atom_site_fract_x
_atom_site_fract_y
_atom_site_fract_z
Si Si1 0.000000 0.819720 0.500000
Si Si2 0.106430 0.447200 0.222296
Si Si3 0.776262 0.237538 0.776275
Si Si4 0.661827 0.552800 0.777661
Si Si5 0.168220 0.708919 0.499997
Si Si6 0.697875 0.378695 0.500021
O O1 0.183703 0.787856 0.683730
O O2 0.097776 0.849268 0.500053
O O3 0.136281 0.500000 0.271552
O O4 0.272834 0.437854 0.272853
O O5 0.135761 0.412440 0.324212
O O6 0.876978 0.443027 0.999978
O O7 0.777891 0.215108 0.680664
O O8 0.583448 0.215100 0.680697
O O9 0.000000 0.236987 0.000000
O O10 0.593164 0.500000 0.728394
O O11 0.487319 0.587559 0.675732
O O12 0.250000 0.750000 0.500000
O O13 0.217067 0.659127 0.500017
#
# Coordination Sequence:
#
# PCOD9190724 Si02
#       6
#     4   8   8   8   8   8
#     4  10  20  32  47  80 106 128 175 218 238 304
#     4   9  18  30  45  71 106 140 170 200 244 303
#     4  10  22  40  54  67 102 142 168 213 266 295
#     4   9  18  30  45  71 106 140 170 200 244 303
#     4  10  21  38  51  78 104 127 175 219 247 306
#     4  12  18  31  51  74 105 137 169 206 249 290
#
# _framework density 15.539227
#
# number of rings (size 3 to 8) (size 9 to 14) (size 15 to 20)
#    0.000    2.182    5.455    1.636    0.000    5.091 
#    0.000    0.000    0.000    0.000    0.000   10.182 
#    0.000   17.455    0.000    0.000    0.000    0.000 
#
# Total GULP energy -122570.318104 kJ/mol
# GULP energy per Si atom -5571.378096 kJ/mol
# Density = 1.550386 g / cm^3
# Si number density = 15.539227 Si / 1000 Ang^3
#
#
#
# Elastic Constant Matrix: (Units=GPa)
#
#
# Indices 1 2 3 4 5 6 
#
# 1 75.9579 48.9059 44.0799 0.0001 1.6391 0.0001
# 2 48.9059 115.1958 55.2572 0.0000 -0.4300 0.0000
# 3 44.0799 55.2572 138.7149 0.0007 -5.9289 0.0004
# 4 0.0001 0.0000 0.0007 21.9605 0.0004 0.0398
# 5 1.6391 -0.4300 -5.9289 0.0004 5.5575 0.0001
# 6 0.0001 0.0000 0.0004 0.0398 0.0001 22.3955
#
#
#
# Elastic Compliance Matrix: (Units=1/GPa)
#
#
# Indices 1 2 3 4 5 6 
#
# 1 0.020065 -0.006523 -0.004246 0.000000 -0.010952 0.000000
# 2 -0.006523 0.012934 -0.003095 0.000000 -0.000378 0.000000
# 3 -0.004246 -0.003095 0.010305 -0.000001 0.012006 0.000000
# 4 0.000000 0.000000 -0.000001 0.045536 -0.000004 -0.000081
# 5 -0.010952 -0.000378 0.012006 -0.000004 0.195945 -0.000001
# 6 0.000000 0.000000 0.000000 -0.000081 -0.000001 0.044652
#
#
# Mechanical properties :
#
#
# Convention : Reuss Voigt Hill
#
# Bulk Modulus (GPa) = 64.20601 69.59495 66.90048
# Shear Modulus (GPa) = 13.79855 22.09108 17.94482
#
# Velocity S-wave (km/s) = 2.98314 3.77455 3.40193
# Velocity P-wave (km/s) = 7.29889 7.99250 7.65356
#
# Compressibility (1/GPa) = 0.01557487
#
# Stress axis : x y z
#
# Youngs Moduli (GPa) = 49.83737 77.31840 97.04478
#
# Poissons Ratio (x) = 0.50433 0.41205
# Poissons Ratio (y) = 0.32508 0.30040
# Poissons Ratio (z) = 0.21161 0.23934
#
# Static dielectric constant tensor:
#      x y z
#    x 1.509610 0.000000 -0.001530 
#    y 0.000000 1.530210 0.000000 
#    z -0.001530 0.000000 1.531070 
# 
# From -- ./inp_files/209236.got.cif
#   From: 2010.05.17/outbox.cif.g08.bks.cpg/sg12_105_cif.got.tgz:209236.got - 2010.06.03 13:09:07.
