data_PCOD9190159
_publ_section_title
;
Structure prediction by ZEFSAII (Michael W. Deem and Ramdas Pophale) SiO2 
 PCOD9190159
Probable space group: C 2/M
;
_chemical_formula_sum "Si O2"
_cell_formula_units_Z 48
_cell_length_a 14.013198
_cell_length_b 12.765791
_cell_length_c 25.349055
_cell_angle_alpha 90.000000
_cell_angle_beta 147.929623
_cell_angle_gamma 90.000000
_cell_volume 2407.736745
_symmetry_space_group_name_H-M "C 2/M"
_symmetry_group_IT_number 12
_symmetry_cell_setting 'monoclinic'
loop_
_space_group_symop_operation_xyz
x,y,z
-x,y,-z
-x,-y,-z
x,-y,z
1/2+x,1/2+y,z
1/2-x,1/2+y,-z
1/2-x,1/2-y,-z
1/2+x,1/2-y,z
loop_
_atom_site_type_symbol
_atom_site_label
_atom_site_fract_x
_atom_site_fract_y
_atom_site_fract_z
Si Si1 0.553910 0.500000 0.963076
Si Si2 0.686421 0.500000 0.755607
Si Si3 0.016706 0.185352 0.606318
Si Si4 0.794884 0.500000 0.922212
Si Si5 0.386242 0.875143 0.610143
Si Si6 0.480877 0.000000 0.155384
Si Si7 0.375388 0.202260 0.719670
Si Si8 0.388500 0.332372 0.091281
O O1 0.508260 0.396921 0.906824
O O2 0.500000 0.500000 0.000000
O O3 0.768849 0.500000 0.057026
O O4 0.601011 0.603581 0.688492
O O5 0.674309 0.500000 0.812655
O O6 0.899186 0.500000 0.840859
O O7 0.162217 0.196064 0.628256
O O8 0.826966 0.136321 0.500483
O O9 0.982877 0.302791 0.611987
O O10 0.740640 0.403128 0.933251
O O11 0.000000 0.500000 0.000000
O O12 0.423221 0.810774 0.681236
O O13 0.431935 0.000000 0.633928
O O14 0.544172 0.900664 0.216660
O O15 0.465426 0.289765 0.798632
O O16 0.250000 0.250000 0.000000
#
# Coordination Sequence:
#
# PCOD9190159 Si02
#       8
#     4   4   8   4   8   4   8   8
#     4  11  24  43  61  87 124 167 211 257 319 368
#     4  10  19  40  65  94 123 167 218 256 319 369
#     4  10  23  38  67  95 129 163 210 269 311 381
#     4  11  25  40  66  89 121 170 211 257 311 368
#     4  11  22  41  65  99 126 163 213 261 323 377
#     4  10  20  37  62  92 122 157 208 268 288 371
#     4  11  22  40  65  91 127 165 210 257 314 371
#     4  11  24  43  61  90 126 163 211 261 306 373
#
# _framework density 19.935735000000001
#
# number of rings (size 3 to 8) (size 9 to 14) (size 15 to 20)
#    0.000    1.333    3.333    2.500    2.333    2.667 
#    3.000    0.000    0.000    2.000    0.000    0.000 
#    0.000    0.000    0.000    0.000    0.000    0.000 
#
# Total GULP energy -133783.867016 kJ/mol
# GULP energy per Si atom -5574.327792 kJ/mol
# Density = 1.989036 g / cm^3
# Si number density = 19.935735 Si / 1000 Ang^3
#
#
#
# Elastic Constant Matrix: (Units=GPa)
#
#
# Indices 1 2 3 4 5 6 
#
# 1 63.0694 25.1460 11.7220 0.0000 -17.2192 0.0000
# 2 25.1460 92.1564 20.3842 0.0000 -5.8564 0.0000
# 3 11.7220 20.3842 62.9194 -0.0001 -5.0825 0.0000
# 4 0.0000 0.0000 -0.0001 24.3427 0.0000 -1.8535
# 5 -17.2192 -5.8564 -5.0825 0.0000 34.1218 0.0000
# 6 0.0000 0.0000 0.0000 -1.8535 0.0000 19.3410
#
#
#
# Elastic Compliance Matrix: (Units=1/GPa)
#
#
# Indices 1 2 3 4 5 6 
#
# 1 0.020558 -0.004670 -0.001562 0.000000 0.009340 0.000000
# 2 -0.004670 0.012822 -0.003337 0.000000 -0.000653 0.000000
# 3 -0.001562 -0.003337 0.017364 0.000000 0.001225 0.000000
# 4 0.000000 0.000000 0.000000 0.041382 0.000000 0.003966
# 5 0.009340 -0.000653 0.001225 0.000000 0.034091 0.000000
# 6 0.000000 0.000000 0.000000 0.003966 0.000000 0.052084
#
#
# Mechanical properties :
#
#
# Convention : Reuss Voigt Hill
#
# Bulk Modulus (GPa) = 31.64003 36.96106 34.30054
# Shear Modulus (GPa) = 24.04136 26.28731 25.16434
#
# Velocity S-wave (km/s) = 3.47644 3.63520 3.55670
# Velocity P-wave (km/s) = 5.65859 6.01663 5.84036
#
# Compressibility (1/GPa) = 0.03160554
#
# Stress axis : x y z
#
# Youngs Moduli (GPa) = 48.64270 77.99086 57.58908
#
# Poissons Ratio (x) = 0.36425 0.08998
# Poissons Ratio (y) = 0.22718 0.19216
# Poissons Ratio (z) = 0.07600 0.26023
#
# Static dielectric constant tensor:
#      x y z
#    x 1.717960 0.000000 -0.047450 
#    y 0.000000 1.913430 0.000000 
#    z -0.047450 0.000000 1.775460 
# 
# From -- ./inp_files/361003.got.cif
#   From: 2010.05.17/outbox.cif.g08.bks.cpg/sg12_181_cif.got.tgz:361003.got - 2010.06.03 13:09:07.
