data_PCOD9190057
_publ_section_title
;
Structure prediction by ZEFSAII (Michael W. Deem and Ramdas Pophale) SiO2 
 PCOD9190057
Probable space group: C 2/M
;
_chemical_formula_sum "Si O2"
_cell_formula_units_Z 36
_cell_length_a 13.481660
_cell_length_b 14.541170
_cell_length_c 22.486286
_cell_angle_alpha 90.000000
_cell_angle_beta 23.826224
_cell_angle_gamma 90.000000
_cell_volume 1780.750786
_symmetry_space_group_name_H-M "C 2/M"
_symmetry_group_IT_number 12
_symmetry_cell_setting 'monoclinic'
loop_
_space_group_symop_operation_xyz
x,y,z
-x,y,-z
-x,-y,-z
x,-y,z
1/2+x,1/2+y,z
1/2-x,1/2+y,-z
1/2-x,1/2-y,-z
1/2+x,1/2-y,z
loop_
_atom_site_type_symbol
_atom_site_label
_atom_site_fract_x
_atom_site_fract_y
_atom_site_fract_z
Si Si1 0.968184 0.891636 0.782216
Si Si2 0.157709 0.793003 0.792562
Si Si3 0.903629 0.100216 0.619959
Si Si4 0.500000 0.217686 0.000000
Si Si5 0.308846 0.146847 0.488092
O O1 0.004619 0.839646 0.824284
O O2 0.203787 0.874293 0.610885
O O3 0.739481 0.846136 0.873568
O O4 0.932886 0.000000 0.809473
O O5 0.247696 0.690497 0.722810
O O6 0.398277 0.856400 0.671818
O O7 0.019585 0.778309 0.930116
O O8 0.000000 0.111987 0.500000
O O9 0.140663 0.094800 0.532944
O O10 0.774774 0.000000 0.695321
O O11 0.250000 0.250000 0.500000
#
# Coordination Sequence:
#
# PCOD9190057 Si02
#       5
#     8   8   8   4   8
#     4  12  25  43  69 101 130 172 224 274 328 389
#     4  11  24  42  67  96 133 171 218 275 332 386
#     4  10  20  35  63  99 129 166 217 271 331 385
#     4  12  25  44  67  90 138 186 215 262 329 398
#     4  10  19  39  65  93 129 164 213 277 323 377
#
# _framework density 20.216193000000001
#
# number of rings (size 3 to 8) (size 9 to 14) (size 15 to 20)
#    0.000    1.111    4.444    5.000    0.000    3.556 
#    0.000    0.556    0.000    0.000    0.000    0.000 
#    0.000    0.000    0.000    0.000    0.000    0.000 
#
# Total GULP energy -100514.594837 kJ/mol
# GULP energy per Si atom -5584.144158 kJ/mol
# Density = 2.017018 g / cm^3
# Si number density = 20.216193 Si / 1000 Ang^3
#
#
#
# Elastic Constant Matrix: (Units=GPa)
#
#
# Indices 1 2 3 4 5 6 
#
# 1 106.8372 43.0339 8.5047 -0.0019 27.5976 -0.0105
# 2 43.0339 86.5471 17.2697 0.0112 19.9009 0.0240
# 3 8.5047 17.2697 54.0555 0.0504 17.9433 0.0834
# 4 -0.0019 0.0112 0.0504 9.8750 -0.0127 5.9913
# 5 27.5976 19.9009 17.9433 -0.0127 41.4442 -0.0119
# 6 -0.0105 0.0240 0.0834 5.9913 -0.0119 46.6655
#
#
#
# Elastic Compliance Matrix: (Units=1/GPa)
#
#
# Indices 1 2 3 4 5 6 
#
# 1 0.013171 -0.005317 0.001974 -0.000012 -0.007072 0.000002
# 2 -0.005317 0.015414 -0.003277 -0.000003 -0.002442 -0.000004
# 3 0.001974 -0.003277 0.022364 -0.000106 -0.009423 -0.000027
# 4 -0.000012 -0.000003 -0.000106 0.109821 0.000085 -0.014100
# 5 -0.007072 -0.002442 -0.009423 0.000085 0.034091 0.000014
# 6 0.000002 -0.000004 -0.000027 -0.014100 0.000014 0.023239
#
#
# Mechanical properties :
#
#
# Convention : Reuss Voigt Hill
#
# Bulk Modulus (GPa) = 26.51897 42.78403 34.65150
# Shear Modulus (GPa) = 20.49937 31.50570 26.00254
#
# Velocity S-wave (km/s) = 3.18780 3.95199 3.59029
# Velocity P-wave (km/s) = 5.16678 6.48332 5.86213
#
# Compressibility (1/GPa) = 0.03770886
#
# Stress axis : x y z
#
# Youngs Moduli (GPa) = 75.92201 64.87788 44.71453
#
# Poissons Ratio (x) = 0.34495 -0.08826
# Poissons Ratio (y) = 0.40367 0.14654
# Poissons Ratio (z) = -0.14987 0.21262
#
# Static dielectric constant tensor:
#      x y z
#    x 1.699240 -0.000020 -0.008720 
#    y -0.000020 1.733900 0.000020 
#    z -0.008720 0.000020 1.718190 
# 
# From -- ./inp_files/166993.got.cif
#   From: 2010.05.17/outbox.cif.g08.bks.cpg/sg12_84_cif.got.tgz:166993.got - 2010.06.03 13:09:07.
