data_PCOD9190889
_publ_section_title
;
Structure prediction by ZEFSAII (Michael W. Deem and Ramdas Pophale) SiO2 
 PCOD9190889
Probable space group: C 2/M
;
_chemical_formula_sum "Si O2"
_cell_formula_units_Z 56
_cell_length_a 25.984875
_cell_length_b 8.939415
_cell_length_c 15.869025
_cell_angle_alpha 90.000000
_cell_angle_beta 55.859102
_cell_angle_gamma 90.000000
_cell_volume 3050.927652
_symmetry_space_group_name_H-M "C 2/M"
_symmetry_group_IT_number 12
_symmetry_cell_setting 'monoclinic'
loop_
_space_group_symop_operation_xyz
x,y,z
-x,y,-z
-x,-y,-z
x,-y,z
1/2+x,1/2+y,z
1/2-x,1/2+y,-z
1/2-x,1/2-y,-z
1/2+x,1/2-y,z
loop_
_atom_site_type_symbol
_atom_site_label
_atom_site_fract_x
_atom_site_fract_y
_atom_site_fract_z
Si Si1 0.599870 0.318670 0.409471
Si Si2 0.503725 0.680900 0.358269
Si Si3 0.259446 0.321383 0.728672
Si Si4 0.413717 0.676455 0.986714
Si Si5 0.525466 0.177716 0.793247
Si Si6 0.790606 0.322140 0.036304
Si Si7 0.862243 0.824238 0.223541
O O1 0.601682 0.500000 0.405685
O O2 0.555133 0.279461 0.528306
O O3 0.564691 0.274177 0.355807
O O4 0.670525 0.266656 0.351567
O O5 0.504570 0.500000 0.347217
O O6 0.497491 0.758901 0.274888
O O7 0.256171 0.500000 0.716401
O O8 0.242612 0.298015 0.842633
O O9 0.206866 0.240637 0.722282
O O10 0.420141 0.500000 0.963958
O O11 0.477405 0.758139 0.906201
O O12 0.358011 0.745705 0.982464
O O13 0.393388 0.695541 0.102372
O O14 0.593816 0.239189 0.751718
O O15 0.524913 0.000000 0.794735
O O16 0.797130 0.500000 0.017717
O O17 0.750000 0.250000 0.000000
O O18 0.861060 0.000000 0.243702
#
# Coordination Sequence:
#
# PCOD9190889 Si02
#       7
#     8   8   8   8   8   8   8
#     4   8  16  34  60  85 108 141 183 224 273 326
#     4   9  18  35  59  84 110 142 183 226 268 327
#     4   9  18  34  56  80 108 144 181 223 275 324
#     4  10  21  37  56  77 106 145 187 228 273 322
#     4  12  24  36  54  82 113 144 181 227 277 328
#     4  10  20  32  49  78 115 148 183 223 267 323
#     4  10  21  38  57  80 107 143 187 227 270 326
#
# _framework density 18.355073999999998
#
# number of rings (size 3 to 8) (size 9 to 14) (size 15 to 20)
#    0.000    2.286    0.000    3.857    2.000    4.000 
#    0.000    3.571    0.000    0.000    0.000    0.000 
#    0.000    0.000    0.000    0.000    0.000    0.000 
#
# Total GULP energy -156330.349235 kJ/mol
# GULP energy per Si atom -5583.226758 kJ/mol
# Density = 1.831330 g / cm^3
# Si number density = 18.355074 Si / 1000 Ang^3
#
#
#
# Elastic Constant Matrix: (Units=GPa)
#
#
# Indices 1 2 3 4 5 6 
#
# 1 92.7926 30.5605 28.6199 0.0000 -29.0545 0.0000
# 2 30.5605 57.0967 25.5161 0.0000 -4.5549 0.0001
# 3 28.6199 25.5161 31.2972 0.0000 -18.0305 0.0000
# 4 0.0000 0.0000 0.0000 15.7177 0.0000 -3.0407
# 5 -29.0545 -4.5549 -18.0305 0.0000 28.4061 0.0000
# 6 0.0000 0.0001 0.0000 -3.0407 0.0000 27.2285
#
#
#
# Elastic Compliance Matrix: (Units=1/GPa)
#
#
# Indices 1 2 3 4 5 6 
#
# 1 0.019543 -0.009140 0.000397 0.000000 0.018776 0.000000
# 2 -0.009140 0.036974 -0.037451 0.000000 -0.027192 0.000000
# 3 0.000397 -0.037451 0.092849 0.000000 0.053336 0.000000
# 4 0.000000 0.000000 0.000000 0.065027 0.000000 0.007262
# 5 0.018776 -0.027192 0.053336 0.000000 0.083903 0.000000
# 6 0.000000 0.000000 0.000000 0.007262 0.000000 0.037537
#
#
# Mechanical properties :
#
#
# Convention : Reuss Voigt Hill
#
# Bulk Modulus (GPa) = 17.55063 38.95330 28.25196
# Shear Modulus (GPa) = 11.18031 20.70314 15.94172
#
# Velocity S-wave (km/s) = 2.47070 3.36210 2.95026
# Velocity P-wave (km/s) = 4.20971 6.02825 5.19911
#
# Compressibility (1/GPa) = 0.05697802
#
# Stress axis : x y z
#
# Youngs Moduli (GPa) = 51.16810 27.04625 10.77012
#
# Poissons Ratio (x) = 0.24720 -0.00428
# Poissons Ratio (y) = 0.46768 0.40336
# Poissons Ratio (z) = -0.02032 1.01292
#
# Static dielectric constant tensor:
#      x y z
#    x 1.624340 0.000000 -0.011910 
#    y 0.000000 1.608320 0.000000 
#    z -0.011910 0.000000 1.627160 
# 
# From -- ./inp_files/238373.got.cif
#   From: 2010.05.17/outbox.cif.g08.bks.cpg/sg12_120_cif.got.tgz:238373.got - 2010.06.03 13:09:07.
