data_PCOD9190776
_publ_section_title
;
Structure prediction by ZEFSAII (Michael W. Deem and Ramdas Pophale) SiO2 
 PCOD9190776
Probable space group: C 2/M
;
_chemical_formula_sum "Si O2"
_cell_formula_units_Z 40
_cell_length_a 18.453318
_cell_length_b 7.512466
_cell_length_c 16.287574
_cell_angle_alpha 90.000000
_cell_angle_beta 126.548247
_cell_angle_gamma 90.000000
_cell_volume 1813.933090
_symmetry_space_group_name_H-M "C 2/M"
_symmetry_group_IT_number 12
_symmetry_cell_setting 'monoclinic'
loop_
_space_group_symop_operation_xyz
x,y,z
-x,y,-z
-x,-y,-z
x,-y,z
1/2+x,1/2+y,z
1/2-x,1/2+y,-z
1/2-x,1/2-y,-z
1/2+x,1/2-y,z
loop_
_atom_site_type_symbol
_atom_site_label
_atom_site_fract_x
_atom_site_fract_y
_atom_site_fract_z
Si Si1 0.947382 0.712540 0.584368
Si Si2 0.168643 0.218294 0.167151
Si Si3 0.348221 0.713141 0.029956
Si Si4 0.863272 0.717330 0.361324
Si Si5 0.464460 0.287290 0.779874
O O1 0.949976 0.500000 0.578352
O O2 0.880462 0.774499 0.467181
O O3 0.926148 0.752606 0.663759
O O4 0.048415 0.776335 0.629631
O O5 0.269193 0.275940 0.259937
O O6 0.098170 0.278599 0.188502
O O7 0.167758 0.000000 0.166235
O O8 0.145419 0.277212 0.059612
O O9 0.355781 0.500000 0.032225
O O10 0.433019 0.780752 0.140102
O O11 0.250000 0.750000 0.000000
O O12 0.861886 0.500000 0.358788
O O13 0.467141 0.500000 0.789993
#
# Coordination Sequence:
#
# PCOD9190776 Si02
#       5
#     8   8   8   8   8
#     4   9  17  31  51  73  96 125 163 201 234 274
#     4   9  17  31  50  70  96 130 162 193 234 284
#     4  10  20  34  53  74  95 123 160 199 238 283
#     4   8  15  29  50  72  93 125 168 201 227 274
#     4  10  20  32  48  73 101 126 156 195 239 287
#
# _framework density 22.051531000000001
#
# number of rings (size 3 to 8) (size 9 to 14) (size 15 to 20)
#    0.000    2.800    0.000    3.000    0.000    5.600 
#    0.000    3.000    0.000    4.800    0.000    0.000 
#    0.000    0.000    0.000    0.000    0.000    0.000 
#
# Total GULP energy -111677.707350 kJ/mol
# GULP energy per Si atom -5583.885367 kJ/mol
# Density = 2.200134 g / cm^3
# Si number density = 22.051531 Si / 1000 Ang^3
#
#
#
# Elastic Constant Matrix: (Units=GPa)
#
#
# Indices 1 2 3 4 5 6 
#
# 1 21.0320 -3.2500 -11.6901 0.0000 -27.7668 0.0000
# 2 -3.2500 54.4566 -0.0469 0.0000 2.8350 0.0000
# 3 -11.6901 -0.0469 67.7554 0.0000 -23.9285 0.0000
# 4 0.0000 0.0000 0.0000 15.0520 0.0000 -5.1768
# 5 -27.7668 2.8350 -23.9285 0.0000 43.2198 0.0000
# 6 0.0000 0.0000 0.0000 -5.1768 0.0000 12.5867
#
#
#
# Elastic Compliance Matrix: (Units=1/GPa)
#
#
# Indices 1 2 3 4 5 6 
#
# 1 -0.097539 -0.001210 -0.048395 0.000000 -0.089379 0.000000
# 2 -0.001210 0.018426 -0.001115 0.000000 -0.002603 0.000000
# 3 -0.048395 -0.001115 -0.005651 0.000000 -0.034147 0.000000
# 4 0.000000 0.000000 0.000000 0.077383 0.000000 0.031827
# 5 -0.089379 -0.002603 -0.034147 0.000000 -0.053019 0.000000
# 6 0.000000 0.000000 0.000000 0.031827 0.000000 0.092539
#
#
# Mechanical properties :
#
#
# Convention : Reuss Voigt Hill
#
# Bulk Modulus (GPa) = -5.37046 12.58554 3.60754
# Shear Modulus (GPa) = 69.91926 24.72041 47.31984
#
# Velocity S-wave (km/s) = 5.63702 3.35181 4.63738
# Velocity P-wave (km/s) = 6.31881 4.54964 5.50575
#
# Compressibility (1/GPa) = -0.18620366
#
# Stress axis : x y z
#
# Youngs Moduli (GPa) = -10.25233 54.27223 -176.96527
#
# Poissons Ratio (x) = 0.06566 -8.56416
# Poissons Ratio (y) = -0.01240 -0.19739
# Poissons Ratio (z) = -0.49616 0.06054
#
# Static dielectric constant tensor:
#      x y z
#    x 1.777440 0.000000 0.003120 
#    y 0.000000 1.855400 0.000000 
#    z 0.003120 0.000000 1.811650 
# 
# From -- ./inp_files/140494.got.cif
#   From: 2010.05.17/outbox.cif.g08.bks.cpg/sg12_71_cif.got.tgz:140494.got - 2010.06.03 13:09:07.
