data_PCOD9190517
_publ_section_title
;
Structure prediction by ZEFSAII (Michael W. Deem and Ramdas Pophale) SiO2 
 PCOD9190517
Probable space group: C 2/M
;
_chemical_formula_sum "Si O2"
_cell_formula_units_Z 40
_cell_length_a 9.267437
_cell_length_b 33.839430
_cell_length_c 13.411018
_cell_angle_alpha 90.000000
_cell_angle_beta 30.154872
_cell_angle_gamma 90.000000
_cell_volume 2112.717236
_symmetry_space_group_name_H-M "C 2/M"
_symmetry_group_IT_number 12
_symmetry_cell_setting 'monoclinic'
loop_
_space_group_symop_operation_xyz
x,y,z
-x,y,-z
-x,-y,-z
x,-y,z
1/2+x,1/2+y,z
1/2-x,1/2+y,-z
1/2-x,1/2-y,-z
1/2+x,1/2-y,z
loop_
_atom_site_type_symbol
_atom_site_label
_atom_site_fract_x
_atom_site_fract_y
_atom_site_fract_z
Si Si1 0.047056 0.543527 0.638979
Si Si2 0.738370 0.110121 0.076563
Si Si3 0.689967 0.259829 0.651958
Si Si4 0.117451 0.690868 0.040020
Si Si5 0.521807 0.543215 0.793556
O O1 0.052174 0.500000 0.685624
O O2 0.322532 0.546361 0.404639
O O3 0.004077 0.582712 0.728268
O O4 0.771435 0.542607 0.729213
O O5 0.646856 0.152045 0.089391
O O6 0.000000 0.115030 0.000000
O O7 0.842512 0.081606 0.925415
O O8 0.750000 0.250000 0.500000
O O9 0.430414 0.289717 0.831603
O O10 0.589154 0.221545 0.776957
O O11 0.000000 0.275457 0.500000
O O12 0.000000 0.682303 0.000000
O O13 0.378295 0.500000 0.884833
#
# Coordination Sequence:
#
# PCOD9190517 Si02
#       5
#     8   8   8   8   8
#     4   8  14  27  47  74 109 151 196 241 285 332
#     4  10  20  31  51  84 117 149 190 246 290 337
#     4  11  24  45  70  88 114 158 198 241 296 356
#     4  11  25  42  61  93 125 153 196 240 298 368
#     4   8  14  27  47  74 110 149 194 242 287 331
#
# _framework density 18.932963999999998
#
# number of rings (size 3 to 8) (size 9 to 14) (size 15 to 20)
#    0.000    2.400    2.000    1.800    2.800    4.000 
#    3.600    0.000    0.000    2.400    0.000    2.800 
#    0.000    0.000    0.000    0.000    0.000    0.000 
#
# Total GULP energy -111400.212931 kJ/mol
# GULP energy per Si atom -5570.010647 kJ/mol
# Density = 1.888987 g / cm^3
# Si number density = 18.932964 Si / 1000 Ang^3
#
#
#
# Elastic Constant Matrix: (Units=GPa)
#
#
# Indices 1 2 3 4 5 6 
#
# 1 64.3563 38.4783 25.5934 0.0000 15.3300 0.0000
# 2 38.4783 139.5131 35.2095 0.0000 13.1894 0.0000
# 3 25.5934 35.2095 85.4946 0.0000 19.5744 0.0000
# 4 0.0000 0.0000 0.0000 23.7582 0.0000 11.6983
# 5 15.3300 13.1894 19.5744 0.0000 29.6304 0.0000
# 6 0.0000 0.0000 0.0000 11.6983 0.0000 27.5240
#
#
#
# Elastic Compliance Matrix: (Units=1/GPa)
#
#
# Indices 1 2 3 4 5 6 
#
# 1 0.020976 -0.004401 -0.002864 0.000000 -0.007002 0.000000
# 2 -0.004401 0.008990 -0.002345 0.000000 -0.000176 0.000000
# 3 -0.002864 -0.002345 0.015248 0.000000 -0.007547 0.000000
# 4 0.000000 0.000000 0.000000 0.053231 0.000000 -0.022624
# 5 -0.007002 -0.000176 -0.007547 0.000000 0.042436 0.000000
# 6 0.000000 0.000000 0.000000 -0.022624 0.000000 0.045948
#
#
# Mechanical properties :
#
#
# Convention : Reuss Voigt Hill
#
# Bulk Modulus (GPa) = 38.46853 54.21405 46.34129
# Shear Modulus (GPa) = 23.28699 28.85471 26.07085
#
# Velocity S-wave (km/s) = 3.51090 3.90814 3.71483
# Velocity P-wave (km/s) = 6.06610 7.00440 6.55207
#
# Compressibility (1/GPa) = 0.02599528
#
# Stress axis : x y z
#
# Youngs Moduli (GPa) = 47.67246 111.23621 65.58399
#
# Poissons Ratio (x) = 0.48951 0.18783
# Poissons Ratio (y) = 0.20979 0.15377
# Poissons Ratio (z) = 0.13653 0.26081
#
# Static dielectric constant tensor:
#      x y z
#    x 1.686330 0.000000 0.003350 
#    y 0.000000 1.648960 0.000000 
#    z 0.003350 0.000000 1.659750 
# 
# From -- ./inp_files/201107.got.cif
#   From: 2010.05.17/outbox.cif.g08.bks.cpg/sg12_101_cif.got.tgz:201107.got - 2010.06.03 13:09:07.
