data_PCOD9190408
_publ_section_title
;
Structure prediction by ZEFSAII (Michael W. Deem and Ramdas Pophale) SiO2 
 PCOD9190408
Probable space group: C 2/M
;
_chemical_formula_sum "Si O2"
_cell_formula_units_Z 48
_cell_length_a 27.399038
_cell_length_b 10.585305
_cell_length_c 18.843948
_cell_angle_alpha 90.000000
_cell_angle_beta 150.125299
_cell_angle_gamma 90.000000
_cell_volume 2722.271350
_symmetry_space_group_name_H-M "C 2/M"
_symmetry_group_IT_number 12
_symmetry_cell_setting 'monoclinic'
loop_
_space_group_symop_operation_xyz
x,y,z
-x,y,-z
-x,-y,-z
x,-y,z
1/2+x,1/2+y,z
1/2-x,1/2+y,-z
1/2-x,1/2-y,-z
1/2+x,1/2-y,z
loop_
_atom_site_type_symbol
_atom_site_label
_atom_site_fract_x
_atom_site_fract_y
_atom_site_fract_z
Si Si1 0.573717 0.770985 0.152644
Si Si2 0.677167 0.134419 0.414382
Si Si3 0.543769 0.846429 0.480552
Si Si4 0.481722 0.147450 0.250752
Si Si5 0.078653 0.145313 0.938057
Si Si6 0.233878 0.850672 0.254663
O O1 0.613300 0.864342 0.262003
O O2 0.509745 0.669667 0.116938
O O3 0.666570 0.713538 0.229144
O O4 0.500000 0.823484 0.000000
O O5 0.750000 0.250000 0.500000
O O6 0.597259 0.149434 0.375375
O O7 0.728839 0.000000 0.488104
O O8 0.500000 0.802489 0.500000
O O9 0.478456 0.816588 0.329307
O O10 0.655492 0.802064 0.611010
O O11 0.547890 0.000000 0.488096
O O12 0.431670 0.249401 0.136086
O O13 0.450263 0.000000 0.200972
O O14 0.074341 0.000000 0.907454
O O15 0.176903 0.163863 0.108113
O O16 0.236656 0.000000 0.273766
#
# Coordination Sequence:
#
# PCOD9190408 Si02
#       6
#     8   8   8   8   8   8
#     4   9  17  29  46  69  97 126 156 189 228 273
#     4  10  20  31  45  68  97 128 158 190 230 276
#     4   9  17  30  49  69  88 118 161 201 234 272
#     4   9  18  32  48  67  94 124 153 192 237 276
#     4   9  17  29  48  73  98 125 154 185 228 282
#     4   9  16  28  46  69  96 123 156 196 231 268
#
# _framework density 17.632335000000001
#
# number of rings (size 3 to 8) (size 9 to 14) (size 15 to 20)
#    0.000    2.833    0.000    1.500    0.000    7.000 
#    0.000    3.333    0.000    1.500    0.000    0.000 
#    0.000    0.000    0.000    0.000    0.000    0.000 
#
# Total GULP energy -133697.204696 kJ/mol
# GULP energy per Si atom -5570.716862 kJ/mol
# Density = 1.759220 g / cm^3
# Si number density = 17.632335 Si / 1000 Ang^3
#
#
#
# Elastic Constant Matrix: (Units=GPa)
#
#
# Indices 1 2 3 4 5 6 
#
# 1 86.6762 13.5914 36.0071 0.0000 -27.2556 0.0000
# 2 13.5914 70.6632 26.6037 0.0000 -17.0057 0.0000
# 3 36.0071 26.6037 59.6296 0.0000 -12.7031 0.0000
# 4 0.0000 0.0000 0.0000 5.7086 0.0000 7.6506
# 5 -27.2556 -17.0057 -12.7031 0.0000 23.9871 0.0000
# 6 0.0000 0.0000 0.0000 7.6506 0.0000 4.3636
#
#
#
# Elastic Compliance Matrix: (Units=1/GPa)
#
#
# Indices 1 2 3 4 5 6 
#
# 1 0.022857 0.005593 -0.011181 0.000000 0.024015 0.000000
# 2 0.005593 0.020325 -0.009042 0.000000 0.015976 0.000000
# 3 -0.011181 -0.009042 0.026470 0.000000 -0.005097 0.000000
# 4 0.000000 0.000000 0.000000 -0.129784 0.000000 0.227550
# 5 0.024015 0.015976 -0.005097 0.000000 0.077603 0.000000
# 6 0.000000 0.000000 0.000000 0.227550 0.000000 -0.169790
#
#
# Mechanical properties :
#
#
# Convention : Reuss Voigt Hill
#
# Bulk Modulus (GPa) = 24.75787 41.04149 32.89968
# Shear Modulus (GPa) = -45.62232 16.19629 -14.71301
#
# Velocity S-wave (km/s) = -5.09219 3.03406 -2.89179
# Velocity P-wave (km/s) = 4.52794 5.96664 2.74760
#
# Compressibility (1/GPa) = 0.04039119
#
# Stress axis : x y z
#
# Youngs Moduli (GPa) = 43.75095 49.20125 37.77863
#
# Poissons Ratio (x) = -0.27517 0.42241
# Poissons Ratio (y) = -0.24468 0.34158
# Poissons Ratio (z) = 0.48918 0.44486
#
# Static dielectric constant tensor:
#      x y z
#    x 1.608270 0.000000 -0.020850 
#    y 0.000000 1.592090 0.000000 
#    z -0.020850 0.000000 1.632630 
# 
# From -- ./inp_files/292944.got.cif
#   From: 2010.05.17/outbox.cif.g08.bks.cpg/sg12_147_cif.got.tgz:292944.got - 2010.06.03 13:09:07.
