data_PCOD9190613
_publ_section_title
;
Structure prediction by ZEFSAII (Michael W. Deem and Ramdas Pophale) SiO2 
 PCOD9190613
Probable space group: C 2/M
;
_chemical_formula_sum "Si O2"
_cell_formula_units_Z 64
_cell_length_a 22.238944
_cell_length_b 23.285995
_cell_length_c 12.606766
_cell_angle_alpha 90.000000
_cell_angle_beta 32.215703
_cell_angle_gamma 90.000000
_cell_volume 3480.390642
_symmetry_space_group_name_H-M "C 2/M"
_symmetry_group_IT_number 12
_symmetry_cell_setting 'monoclinic'
loop_
_space_group_symop_operation_xyz
x,y,z
-x,y,-z
-x,-y,-z
x,-y,z
1/2+x,1/2+y,z
1/2-x,1/2+y,-z
1/2-x,1/2-y,-z
1/2+x,1/2-y,z
loop_
_atom_site_type_symbol
_atom_site_label
_atom_site_fract_x
_atom_site_fract_y
_atom_site_fract_z
Si Si1 0.892386 0.112125 0.734542
Si Si2 0.896100 0.163328 0.270406
Si Si3 0.644110 0.271442 0.094409
Si Si4 0.053821 0.287902 0.708745
Si Si5 0.341901 0.160100 0.252047
Si Si6 0.247007 0.067118 0.245877
Si Si7 0.483352 0.437215 0.268708
Si Si8 0.709166 0.713837 0.763056
O O1 0.904005 0.176500 0.763338
O O2 0.786985 0.096696 0.816021
O O3 0.000000 0.101768 0.500000
O O4 0.912195 0.072820 0.807892
O O5 0.937024 0.224244 0.254394
O O6 0.772684 0.155301 0.507645
O O7 0.970749 0.112010 0.201287
O O8 0.871646 0.172732 0.184074
O O9 0.557313 0.219954 0.196254
O O10 0.750000 0.250000 0.000000
O O11 0.691452 0.294859 0.912537
O O12 0.063560 0.330209 0.796608
O O13 0.163866 0.294820 0.470023
O O14 0.334226 0.106628 0.182580
O O15 0.326497 0.220457 0.212610
O O16 0.130741 0.066456 0.488762
O O17 0.279978 0.000000 0.183310
O O18 0.488141 0.500000 0.213321
#
# Coordination Sequence:
#
# PCOD9190613 Si02
#       8
#     8   8   8   8   8   8   8   8
#     4  10  20  32  46  66 107 143 168 210 258 304
#     4   8  14  29  49  70  97 135 166 203 251 301
#     4  12  24  31  49  76  95 136 176 206 257 312
#     4   9  18  34  50  70 103 135 163 213 258 300
#     4   8  15  29  50  72  99 131 165 207 258 304
#     4   9  16  27  48  76 102 132 174 216 254 305
#     4   9  15  26  47  74 100 135 175 205 249 310
#     4   9  19  33  50  72 100 132 174 205 252 310
#
# _framework density 18.388739999999999
#
# number of rings (size 3 to 8) (size 9 to 14) (size 15 to 20)
#    0.000    2.750    1.250    2.625    3.500    3.500 
#    0.000    0.000    0.000    2.250    0.000    7.875 
#    0.000    0.000    0.000   19.875    0.000    0.375 
#
# Total GULP energy -178302.793214 kJ/mol
# GULP energy per Si atom -5571.962288 kJ/mol
# Density = 1.834689 g / cm^3
# Si number density = 18.388740 Si / 1000 Ang^3
#
#
#
# Elastic Constant Matrix: (Units=GPa)
#
#
# Indices 1 2 3 4 5 6 
#
# 1 153.1389 61.5102 33.1837 0.0001 -2.5707 0.0000
# 2 61.5102 86.2780 9.9059 0.0000 4.2038 0.0000
# 3 33.1837 9.9059 40.0832 0.0000 1.6750 0.0000
# 4 0.0001 0.0000 0.0000 11.3866 0.0000 0.1207
# 5 -2.5707 4.2038 1.6750 0.0000 27.2022 0.0000
# 6 0.0000 0.0000 0.0000 0.1207 0.0000 25.4634
#
#
#
# Elastic Compliance Matrix: (Units=1/GPa)
#
#
# Indices 1 2 3 4 5 6 
#
# 1 0.011079 -0.007164 -0.007511 0.000000 0.002616 0.000000
# 2 -0.007164 0.016637 0.001960 0.000000 -0.003369 0.000000
# 3 -0.007511 0.001960 0.030803 0.000000 -0.002909 0.000000
# 4 0.000000 0.000000 0.000000 0.087827 0.000000 -0.000416
# 5 0.002616 -0.003369 -0.002909 0.000000 0.037709 0.000000
# 6 0.000000 0.000000 0.000000 -0.000416 0.000000 0.039274
#
#
# Mechanical properties :
#
#
# Convention : Reuss Voigt Hill
#
# Bulk Modulus (GPa) = 30.22089 54.29995 42.26042
# Shear Modulus (GPa) = 19.24652 24.47045 21.85848
#
# Velocity S-wave (km/s) = 3.23870 3.65188 3.45148
# Velocity P-wave (km/s) = 5.51867 6.88292 6.23820
#
# Compressibility (1/GPa) = 0.03308969
#
# Stress axis : x y z
#
# Youngs Moduli (GPa) = 90.26260 60.10812 32.46402
#
# Poissons Ratio (x) = 0.43059 0.24383
# Poissons Ratio (y) = 0.64660 -0.06362
# Poissons Ratio (z) = 0.67794 -0.11780
#
# Static dielectric constant tensor:
#      x y z
#    x 1.679150 0.000000 -0.023910 
#    y 0.000000 1.683910 0.000000 
#    z -0.023910 0.000000 1.682400 
# 
# From -- ./inp_files/170149.got.cif
#   From: 2010.05.17/outbox.cif.g08.bks.cpg/sg12_86_cif.got.tgz:170149.got - 2010.06.03 13:09:07.
