data_PCOD9190067
_publ_section_title
;
Structure prediction by ZEFSAII (Michael W. Deem and Ramdas Pophale) SiO2 
 PCOD9190067
Probable space group: C 2/M
;
_chemical_formula_sum "Si O2"
_cell_formula_units_Z 58
_cell_length_a 18.020244
_cell_length_b 7.438472
_cell_length_c 20.498484
_cell_angle_alpha 90.000000
_cell_angle_beta 61.318018
_cell_angle_gamma 90.000000
_cell_volume 2410.531747
_symmetry_space_group_name_H-M "C 2/M"
_symmetry_group_IT_number 12
_symmetry_cell_setting 'monoclinic'
loop_
_space_group_symop_operation_xyz
x,y,z
-x,y,-z
-x,-y,-z
x,-y,z
1/2+x,1/2+y,z
1/2-x,1/2+y,-z
1/2-x,1/2-y,-z
1/2+x,1/2-y,z
loop_
_atom_site_type_symbol
_atom_site_label
_atom_site_fract_x
_atom_site_fract_y
_atom_site_fract_z
Si Si1 0.764320 0.219636 0.115670
Si Si2 0.574483 0.207891 0.171346
Si Si3 0.396803 0.290066 0.595288
Si Si4 0.568130 0.717540 0.025234
Si Si5 0.404945 0.708207 0.311798
Si Si6 0.273364 0.716604 0.259485
Si Si7 0.652509 0.286358 0.527286
Si Si8 0.000000 0.500000 0.500000
O O1 0.669488 0.282044 0.139325
O O2 0.787936 0.275699 0.179217
O O3 0.763846 0.000000 0.113840
O O4 0.838001 0.277745 0.035537
O O5 0.548849 0.223486 0.106530
O O6 0.500506 0.288235 0.246308
O O7 0.578655 0.000000 0.188412
O O8 0.420161 0.500000 0.584840
O O9 0.321251 0.265311 0.678039
O O10 0.361172 0.218232 0.540404
O O11 0.475549 0.158519 0.565069
O O12 0.566687 0.500000 0.026090
O O13 0.500000 0.776319 0.000000
O O14 0.378968 0.500000 0.329157
O O15 0.341531 0.785325 0.283505
O O16 0.392957 0.785978 0.388788
O O17 0.279187 0.500000 0.255944
O O18 0.635735 0.500000 0.528907
O O19 0.750000 0.250000 0.500000
#
# Coordination Sequence:
#
# PCOD9190067 Si02
#       8
#     8   8   8   8   8   8   8   2
#     4   9  20  37  60  90 124 165 209 251 312 388
#     4  11  23  38  56  89 130 161 197 255 320 379
#     4  11  24  42  64  96 129 169 223 279 331 399
#     4  10  20  39  67  92 116 157 210 256 303 377
#     4  10  21  38  63  90 122 166 217 265 313 382
#     4  10  19  39  66  90 120 167 217 264 320 381
#     4  10  21  37  63  94 125 159 215 275 329 386
#     4  12  26  44  64  86 128 176 216 262 342 406
#
# _framework density 24.061081000000001
#
# number of rings (size 3 to 8) (size 9 to 14) (size 15 to 20)
#    0.000    1.793    2.069    1.862    0.966    4.690 
#    2.483    4.138    0.000    0.000    0.000    0.000 
#    0.000    0.000    0.000    0.000    0.000    0.000 
#
# Total GULP energy -161900.760107 kJ/mol
# GULP energy per Si atom -5582.784831 kJ/mol
# Density = 2.400632 g / cm^3
# Si number density = 24.061081 Si / 1000 Ang^3
#
#
#
# Elastic Constant Matrix: (Units=GPa)
#
#
# Indices 1 2 3 4 5 6 
#
# 1 63.1188 -12.9176 5.0681 0.0001 2.4132 0.0017
# 2 -12.9176 92.0523 -12.6937 0.0002 2.9924 0.0028
# 3 5.0681 -12.6937 138.2542 -0.0001 -7.4677 0.0001
# 4 0.0001 0.0002 -0.0001 8.3316 0.0000 -17.1428
# 5 2.4132 2.9924 -7.4677 0.0000 41.3537 0.0000
# 6 0.0017 0.0028 0.0001 -17.1428 0.0000 -3.4738
#
#
#
# Elastic Compliance Matrix: (Units=1/GPa)
#
#
# Indices 1 2 3 4 5 6 
#
# 1 0.016392 0.002276 -0.000457 0.000002 -0.001204 0.000001
# 2 0.002276 0.011335 0.000915 0.000002 -0.000788 0.000001
# 3 -0.000457 0.000915 0.007404 0.000000 0.001297 0.000000
# 4 0.000002 0.000002 0.000000 0.010761 0.000000 -0.053104
# 5 -0.001204 -0.000788 0.001297 0.000000 0.024543 0.000000
# 6 0.000001 0.000001 0.000000 -0.053104 0.000000 -0.025809
#
#
# Mechanical properties :
#
#
# Convention : Reuss Voigt Hill
#
# Bulk Modulus (GPa) = 24.63149 28.03763 26.33456
# Shear Modulus (GPa) = 94.89543 30.17355 62.53449
#
# Velocity S-wave (km/s) = 6.28689 3.54508 5.10356
# Velocity P-wave (km/s) = 7.93469 5.33243 6.75996
#
# Compressibility (1/GPa) = 0.04059844
#
# Stress axis : x y z
#
# Youngs Moduli (GPa) = 61.00641 88.22567 135.06457
#
# Poissons Ratio (x) = -0.20083 0.06171
# Poissons Ratio (y) = -0.13887 -0.12354
# Poissons Ratio (z) = 0.02787 -0.08070
#
# Static dielectric constant tensor:
#      x y z
#    x 2.051090 0.000000 -0.012420 
#    y 0.000000 2.031590 0.000000 
#    z -0.012420 0.000000 1.853880 
# 
# From -- ./inp_files/314755.got.cif
#   From: 2010.05.17/outbox.cif.g08.bks.cpg/sg12_158_cif.got.tgz:314755.got - 2010.06.03 13:09:07.
