data_PCOD9190794
_publ_section_title
;
Structure prediction by ZEFSAII (Michael W. Deem and Ramdas Pophale) SiO2 
 PCOD9190794
Probable space group: C 2/M
;
_chemical_formula_sum "Si O2"
_cell_formula_units_Z 56
_cell_length_a 16.708512
_cell_length_b 9.092073
_cell_length_c 18.368821
_cell_angle_alpha 90.000000
_cell_angle_beta 112.310581
_cell_angle_gamma 90.000000
_cell_volume 2581.601798
_symmetry_space_group_name_H-M "C 2/M"
_symmetry_group_IT_number 12
_symmetry_cell_setting 'monoclinic'
loop_
_space_group_symop_operation_xyz
x,y,z
-x,y,-z
-x,-y,-z
x,-y,z
1/2+x,1/2+y,z
1/2-x,1/2+y,-z
1/2-x,1/2-y,-z
1/2+x,1/2-y,z
loop_
_atom_site_type_symbol
_atom_site_label
_atom_site_fract_x
_atom_site_fract_y
_atom_site_fract_z
Si Si1 0.629434 0.678629 0.401102
Si Si2 0.759582 0.322942 0.317340
Si Si3 0.892030 0.172180 0.838775
Si Si4 0.899383 0.176140 0.450239
Si Si5 0.144720 0.674457 0.036184
Si Si6 0.831033 0.325307 0.117858
Si Si7 0.975085 0.827217 0.250601
O O1 0.628524 0.500000 0.400955
O O2 0.699464 0.722514 0.365514
O O3 0.644000 0.726710 0.488423
O O4 0.534828 0.722166 0.338347
O O5 0.766969 0.500000 0.318883
O O6 0.700962 0.281097 0.227781
O O7 0.851477 0.250945 0.366165
O O8 0.912266 0.260909 0.918464
O O9 0.960826 0.184940 0.797343
O O10 0.885872 0.000000 0.855325
O O11 0.000000 0.207453 0.500000
O O12 0.891116 0.000000 0.439323
O O13 0.149272 0.500000 0.045018
O O14 0.239156 0.745661 0.081510
O O15 0.123380 0.706974 0.944642
O O16 0.818537 0.500000 0.119737
O O17 0.891107 0.265469 0.202545
O O18 0.953442 0.000000 0.252124
#
# Coordination Sequence:
#
# PCOD9190794 Si02
#       7
#     8   8   8   8   8   8   8
#     4   8  16  33  53  72  99 134 169 205 248 300
#     4   9  18  34  54  73  97 132 170 207 249 298
#     4   9  19  35  54  77 104 133 170 217 261 303
#     4  10  20  32  48  74 105 133 165 208 253 297
#     4  10  21  36  54  75 102 138 174 209 256 311
#     4  10  21  36  53  76 106 136 170 213 255 301
#     4   9  18  34  55  76 101 138 177 210 254 310
#
# _framework density 21.691958
#
# number of rings (size 3 to 8) (size 9 to 14) (size 15 to 20)
#    0.000    2.714    0.000    3.000    0.000    4.857 
#    0.000    7.143    0.000    0.000    0.000    0.000 
#    0.000    0.000    0.000    0.000    0.000    0.000 
#
# Total GULP energy -156354.143445 kJ/mol
# GULP energy per Si atom -5584.076552 kJ/mol
# Density = 2.164259 g / cm^3
# Si number density = 21.691958 Si / 1000 Ang^3
#
#
#
# Elastic Constant Matrix: (Units=GPa)
#
#
# Indices 1 2 3 4 5 6 
#
# 1 35.7958 4.1819 9.6933 0.0000 0.9187 0.0000
# 2 4.1819 17.7670 28.0241 0.0000 1.6914 0.0000
# 3 9.6933 28.0241 109.6552 0.0000 8.5715 0.0000
# 4 0.0000 0.0000 0.0000 27.1722 0.0000 1.5568
# 5 0.9187 1.6914 8.5715 0.0000 38.4503 0.0000
# 6 0.0000 0.0000 0.0000 1.5568 0.0000 14.2111
#
#
#
# Elastic Compliance Matrix: (Units=1/GPa)
#
#
# Indices 1 2 3 4 5 6 
#
# 1 0.028849 -0.004646 -0.001348 0.000000 -0.000184 0.000000
# 2 -0.004646 0.095102 -0.023994 0.000000 0.001276 0.000000
# 3 -0.001348 -0.023994 0.015557 0.000000 -0.002380 0.000000
# 4 0.000000 0.000000 0.000000 0.037035 0.000000 -0.004057
# 5 -0.000184 0.001276 -0.002380 0.000000 0.026486 0.000000
# 6 0.000000 0.000000 0.000000 -0.004057 0.000000 0.070812
#
#
# Mechanical properties :
#
#
# Convention : Reuss Voigt Hill
#
# Bulk Modulus (GPa) = 12.57368 27.44628 20.00998
# Shear Modulus (GPa) = 13.87625 24.05462 18.96544
#
# Velocity S-wave (km/s) = 2.53196 3.33366 2.96008
# Velocity P-wave (km/s) = 3.78904 5.24384 4.57464
#
# Compressibility (1/GPa) = 0.07953123
#
# Stress axis : x y z
#
# Youngs Moduli (GPa) = 34.66333 10.51503 64.28077
#
# Poissons Ratio (x) = 0.04885 0.08668
# Poissons Ratio (y) = 0.16104 1.54234
# Poissons Ratio (z) = 0.04674 0.25230
#
# Static dielectric constant tensor:
#      x y z
#    x 1.881970 0.000000 -0.035260 
#    y 0.000000 1.712790 0.000000 
#    z -0.035260 0.000000 1.781540 
# 
# From -- ./inp_files/314358.got.cif
#   From: 2010.05.17/outbox.cif.g08.bks.cpg/sg12_158_cif.got.tgz:314358.got - 2010.06.03 13:09:07.
