data_PCOD9190226
_publ_section_title
;
Structure prediction by ZEFSAII (Michael W. Deem and Ramdas Pophale) SiO2 
 PCOD9190226
Probable space group: C 2/M
;
_chemical_formula_sum "Si O2"
_cell_formula_units_Z 50
_cell_length_a 24.345314
_cell_length_b 15.530338
_cell_length_c 8.351934
_cell_angle_alpha 90.000000
_cell_angle_beta 42.013640
_cell_angle_gamma 90.000000
_cell_volume 2113.533009
_symmetry_space_group_name_H-M "C 2/M"
_symmetry_group_IT_number 12
_symmetry_cell_setting 'monoclinic'
loop_
_space_group_symop_operation_xyz
x,y,z
-x,y,-z
-x,-y,-z
x,-y,z
1/2+x,1/2+y,z
1/2-x,1/2+y,-z
1/2-x,1/2-y,-z
1/2+x,1/2-y,z
loop_
_atom_site_type_symbol
_atom_site_label
_atom_site_fract_x
_atom_site_fract_y
_atom_site_fract_z
Si Si1 0.880741 0.599478 0.590419
Si Si2 0.984070 0.850592 0.295779
Si Si3 0.122142 0.278508 0.097177
Si Si4 0.115882 0.095328 0.744581
Si Si5 0.252168 0.176157 0.631379
Si Si6 0.000000 0.000000 0.500000
Si Si7 0.546475 0.097310 0.049872
O O1 0.854529 0.500000 0.683406
O O2 0.870007 0.666935 0.758351
O O3 0.831707 0.636271 0.542955
O O4 0.976747 0.593789 0.337407
O O5 0.035724 0.772690 0.260223
O O6 0.906140 0.836155 0.347772
O O7 0.961062 0.922902 0.472389
O O8 0.050596 0.890674 0.028584
O O9 0.119893 0.347530 0.957876
O O10 0.195179 0.212733 0.900551
O O11 0.201720 0.103679 0.646316
O O12 0.106414 0.000000 0.698442
O O13 0.250000 0.250000 0.500000
O O14 0.570509 0.000000 0.954685
O O15 0.500000 0.138103 0.000000
#
# Coordination Sequence:
#
# PCOD9190226 Si02
#       7
#     8   8   8   8   8   2   8
#     4  11  24  45  67  95 137 178 217 272 339 395
#     4  10  22  34  62  92 128 159 206 262 314 383
#     4  11  24  40  67  97 131 168 217 272 335 382
#     4  10  19  42  60  85 123 173 209 250 323 385
#     4  11  25  41  67  94 128 173 227 268 325 392
#     4  12  20  34  52 100 130 158 200 260 332 386
#     4  10  22  40  66  98 128 169 223 275 323 380
#
# _framework density 23.657067999999999
#
# number of rings (size 3 to 8) (size 9 to 14) (size 15 to 20)
#    0.000    1.440    1.600    3.360    8.960    1.280 
#    0.000    2.400    0.000    0.000    0.000    0.000 
#    0.000    0.000    0.000    0.000    0.000    0.000 
#
# Total GULP energy -139330.320921 kJ/mol
# GULP energy per Si atom -5573.212837 kJ/mol
# Density = 2.360322 g / cm^3
# Si number density = 23.657068 Si / 1000 Ang^3
#
#
#
# Elastic Constant Matrix: (Units=GPa)
#
#
# Indices 1 2 3 4 5 6 
#
# 1 119.5451 45.3044 9.2324 0.0000 12.0536 0.0000
# 2 45.3044 120.9334 13.3603 0.0000 1.5331 0.0000
# 3 9.2324 13.3603 37.6266 0.0000 7.4651 0.0000
# 4 0.0000 0.0000 0.0000 24.6422 0.0000 11.2610
# 5 12.0536 1.5331 7.4651 0.0000 28.8544 0.0000
# 6 0.0000 0.0000 0.0000 11.2610 0.0000 38.8339
#
#
#
# Elastic Compliance Matrix: (Units=1/GPa)
#
#
# Indices 1 2 3 4 5 6 
#
# 1 0.010209 -0.003731 -0.000394 0.000000 -0.003965 0.000000
# 2 -0.003731 0.009973 -0.002983 0.000000 0.001800 0.000000
# 3 -0.000394 -0.002983 0.029166 0.000000 -0.007223 0.000000
# 4 0.000000 0.000000 0.000000 0.046780 0.000000 -0.013565
# 5 -0.003965 0.001800 -0.007223 0.000000 0.038086 0.000000
# 6 0.000000 0.000000 0.000000 -0.013565 0.000000 0.029684
#
#
# Mechanical properties :
#
#
# Convention : Reuss Voigt Hill
#
# Bulk Modulus (GPa) = 28.46323 45.98882 37.22602
# Shear Modulus (GPa) = 26.34014 32.47995 29.41005
#
# Velocity S-wave (km/s) = 3.34041 3.70935 3.52970
# Velocity P-wave (km/s) = 5.18994 6.15042 5.69048
#
# Compressibility (1/GPa) = 0.03513305
#
# Stress axis : x y z
#
# Youngs Moduli (GPa) = 97.95219 100.26683 34.28682
#
# Poissons Ratio (x) = 0.37407 0.01350
# Poissons Ratio (y) = 0.36544 0.10228
# Poissons Ratio (z) = 0.03856 0.29910
#
# Static dielectric constant tensor:
#      x y z
#    x 1.919580 0.000000 -0.000150 
#    y 0.000000 1.941900 0.000000 
#    z -0.000150 0.000000 1.939110 
# 
# From -- ./inp_files/96203.got.cif
#   From: 2010.05.17/outbox.cif.g08.bks.cpg/sg12_49_cif.got.tgz:96203.got - 2010.06.03 13:09:07.
