data_PCOD9190903
_publ_section_title
;
Structure prediction by ZEFSAII (Michael W. Deem and Ramdas Pophale) SiO2 
 PCOD9190903
Probable space group: C 2/M
;
_chemical_formula_sum "Si O2"
_cell_formula_units_Z 64
_cell_length_a 35.118973
_cell_length_b 11.003342
_cell_length_c 16.543332
_cell_angle_alpha 90.000000
_cell_angle_beta 149.415756
_cell_angle_gamma 90.000000
_cell_volume 3252.673838
_symmetry_space_group_name_H-M "C 2/M"
_symmetry_group_IT_number 12
_symmetry_cell_setting 'monoclinic'
loop_
_space_group_symop_operation_xyz
x,y,z
-x,y,-z
-x,-y,-z
x,-y,z
1/2+x,1/2+y,z
1/2-x,1/2+y,-z
1/2-x,1/2-y,-z
1/2+x,1/2-y,z
loop_
_atom_site_type_symbol
_atom_site_label
_atom_site_fract_x
_atom_site_fract_y
_atom_site_fract_z
Si Si1 0.219622 0.132776 0.843202
Si Si2 0.248056 0.254889 0.634854
Si Si3 0.401889 0.142375 0.575077
Si Si4 0.145246 0.360356 0.777525
Si Si5 0.964287 0.352505 0.283657
Si Si6 0.674313 0.370663 0.361686
Si Si7 0.842019 0.361470 0.931088
Si Si8 0.429644 0.137539 0.811196
O O1 0.168887 0.251401 0.762000
O O2 0.266344 0.135021 0.846046
O O3 0.181473 0.000000 0.780368
O O4 0.285340 0.133923 0.031811
O O5 0.177515 0.293702 0.559348
O O6 0.268959 0.358898 0.609224
O O7 0.220453 0.143887 0.528779
O O8 0.321290 0.220617 0.818217
O O9 0.455200 0.188837 0.600650
O O10 0.443277 0.150990 0.738895
O O11 0.388495 0.000000 0.536360
O O12 0.135597 0.500000 0.728429
O O13 0.072169 0.323933 0.696527
O O14 0.964393 0.500000 0.282264
O O15 0.905762 0.314110 0.107265
O O16 0.634434 0.500000 0.286710
O O17 0.623065 0.251112 0.264642
O O18 0.860858 0.500000 0.941462
O O19 0.397906 0.000000 0.762858
O O20 0.500000 0.143708 0.000000
#
# Coordination Sequence:
#
# PCOD9190903 Si02
#       8
#     8   8   8   8   8   8   8   8
#     4   8  14  25  43  69  98 124 154 194 241 287
#     4  10  20  32  50  70  96 132 170 203 238 299
#     4   9  17  31  48  69  97 125 159 205 248 287
#     4   8  13  24  43  69  97 124 154 191 238 292
#     4   8  15  27  48  74  96 120 157 206 249 280
#     4  10  21  35  50  70  99 134 166 201 252 303
#     4   9  17  29  48  75  97 121 163 210 245 279
#     4   9  19  33  52  77  97 121 164 211 249 292
#
# _framework density 19.676120999999998
#
# number of rings (size 3 to 8) (size 9 to 14) (size 15 to 20)
#    0.000    3.125    0.000    2.250    1.750    3.750 
#    0.000    1.250    0.000    6.000    0.000    4.375 
#    0.000    0.000    0.000    0.000    0.000    0.000 
#
# Total GULP energy -178235.543543 kJ/mol
# GULP energy per Si atom -5569.860736 kJ/mol
# Density = 1.963134 g / cm^3
# Si number density = 19.676121 Si / 1000 Ang^3
#
#
#
# Elastic Constant Matrix: (Units=GPa)
#
#
# Indices 1 2 3 4 5 6 
#
# 1 64.9621 32.6699 -3.5565 0.0000 24.2003 0.0000
# 2 32.6699 101.6901 14.5244 0.0000 9.2952 0.0000
# 3 -3.5565 14.5244 48.9276 0.0000 -1.1779 0.0000
# 4 0.0000 0.0000 0.0000 8.7502 0.0000 -2.7955
# 5 24.2003 9.2952 -1.1779 0.0000 18.5234 0.0000
# 6 0.0000 0.0000 0.0000 -2.7955 0.0000 -11.5449
#
#
#
# Elastic Compliance Matrix: (Units=1/GPa)
#
#
# Indices 1 2 3 4 5 6 
#
# 1 0.035189 -0.008059 0.003947 0.000000 -0.041679 0.000000
# 2 -0.008059 0.012674 -0.004254 0.000000 0.003899 0.000000
# 3 0.003947 -0.004254 0.021949 0.000000 -0.001626 0.000000
# 4 0.000000 0.000000 0.000000 0.106077 0.000000 -0.025686
# 5 -0.041679 0.003899 -0.001626 0.000000 0.106378 0.000000
# 6 0.000000 0.000000 0.000000 -0.025686 0.000000 -0.080399
#
#
# Mechanical properties :
#
#
# Convention : Reuss Voigt Hill
#
# Bulk Modulus (GPa) = 18.83982 33.65061 26.24522
# Shear Modulus (GPa) = 21.15994 14.60853 17.88423
#
# Velocity S-wave (km/s) = 3.28291 2.72775 3.01812
# Velocity P-wave (km/s) = 4.89548 5.20194 5.05104
#
# Compressibility (1/GPa) = 0.05307905
#
# Stress axis : x y z
#
# Youngs Moduli (GPa) = 28.41782 78.89994 45.56009
#
# Poissons Ratio (x) = 0.63587 -0.17982
# Poissons Ratio (y) = 0.22903 0.19383
# Poissons Ratio (z) = -0.11216 0.33567
#
# Static dielectric constant tensor:
#      x y z
#    x 1.736380 0.000000 -0.005990 
#    y 0.000000 1.679010 0.000000 
#    z -0.005990 0.000000 1.709700 
# 
# From -- ./inp_files/250857.got.cif
#   From: 2010.05.17/outbox.cif.g08.bks.cpg/sg12_126_cif.got.tgz:250857.got - 2010.06.03 13:09:07.
