data_PCOD9190059
_publ_section_title
;
Structure prediction by ZEFSAII (Michael W. Deem and Ramdas Pophale) SiO2 
 PCOD9190059
Probable space group: C 2/M
;
_chemical_formula_sum "Si O2"
_cell_formula_units_Z 48
_cell_length_a 17.109425
_cell_length_b 17.803300
_cell_length_c 15.099095
_cell_angle_alpha 90.000000
_cell_angle_beta 26.337560
_cell_angle_gamma 90.000000
_cell_volume 2040.496837
_symmetry_space_group_name_H-M "C 2/M"
_symmetry_group_IT_number 12
_symmetry_cell_setting 'monoclinic'
loop_
_space_group_symop_operation_xyz
x,y,z
-x,y,-z
-x,-y,-z
x,-y,z
1/2+x,1/2+y,z
1/2-x,1/2+y,-z
1/2-x,1/2-y,-z
1/2+x,1/2-y,z
loop_
_atom_site_type_symbol
_atom_site_label
_atom_site_fract_x
_atom_site_fract_y
_atom_site_fract_z
Si Si1 0.857470 0.332666 0.429196
Si Si2 0.643658 0.088229 0.740552
Si Si3 0.410684 0.691572 0.819771
Si Si4 0.265197 0.843339 0.178074
Si Si5 0.205819 0.411421 0.146692
Si Si6 0.296430 0.325704 0.220009
O O1 0.773380 0.376233 0.431578
O O2 0.758144 0.330905 0.623154
O O3 0.926880 0.248613 0.336823
O O4 0.033798 0.382113 0.270122
O O5 0.755905 0.104031 0.715024
O O6 0.610365 0.000000 0.765414
O O7 0.457122 0.132211 0.944701
O O8 0.374966 0.657734 0.758712
O O9 0.250000 0.750000 0.000000
O O10 0.374333 0.627871 0.928930
O O11 0.269344 0.758878 0.211688
O O12 0.218859 0.500000 0.129983
O O13 0.193372 0.380467 0.258870
O O14 0.500000 0.343907 0.000000
#
# Coordination Sequence:
#
# PCOD9190059 Si02
#       6
#     8   8   8   8   8   8
#     4  11  23  41  70 101 127 176 228 276 323 404
#     4  11  22  38  65 102 136 173 219 270 335 404
#     4  10  19  39  65  95 128 168 220 272 323 389
#     4  11  20  38  62  97 132 164 215 269 329 386
#     4  11  23  41  66  98 133 174 219 273 340 403
#     4  12  25  42  67  93 132 176 224 282 331 384
#
# _framework density 23.523682000000001
#
# number of rings (size 3 to 8) (size 9 to 14) (size 15 to 20)
#    0.000    1.000    8.333    2.000    0.000    3.667 
#    0.000    0.000    0.000    1.000    0.000    5.833 
#    0.000    0.000    0.000    0.000    0.000    0.000 
#
# Total GULP energy -134401.427014 kJ/mol
# GULP energy per Si atom -5600.059459 kJ/mol
# Density = 2.347014 g / cm^3
# Si number density = 23.523682 Si / 1000 Ang^3
#
#
#
# Elastic Constant Matrix: (Units=GPa)
#
#
# Indices 1 2 3 4 5 6 
#
# 1 146.2182 42.6460 47.4250 0.0013 41.4140 -0.0016
# 2 42.6460 189.3524 55.0875 -0.0020 27.3962 -0.0014
# 3 47.4250 55.0875 112.4600 -0.0089 32.4564 0.0030
# 4 0.0013 -0.0020 -0.0089 15.7581 -0.0021 5.4402
# 5 41.4140 27.3962 32.4564 -0.0021 48.9543 0.0047
# 6 -0.0016 -0.0014 0.0030 5.4402 0.0047 32.2512
#
#
#
# Elastic Compliance Matrix: (Units=1/GPa)
#
#
# Indices 1 2 3 4 5 6 
#
# 1 0.009435 -0.000674 -0.001798 -0.000003 -0.006413 0.000002
# 2 -0.000674 0.006336 -0.002425 -0.000001 -0.001368 0.000001
# 3 -0.001798 -0.002425 0.012375 0.000007 -0.005327 -0.000002
# 4 -0.000003 -0.000001 0.000007 0.067383 0.000003 -0.011366
# 5 -0.006413 -0.001368 -0.005327 0.000003 0.030149 -0.000005
# 6 0.000002 0.000001 -0.000002 -0.011366 -0.000005 0.032924
#
#
# Mechanical properties :
#
#
# Convention : Reuss Voigt Hill
#
# Bulk Modulus (GPa) = 54.48601 82.03862 68.26231
# Shear Modulus (GPa) = 28.65090 39.58420 34.11755
#
# Velocity S-wave (km/s) = 3.49371 4.10657 3.81248
# Velocity P-wave (km/s) = 6.28388 7.57864 6.96143
#
# Compressibility (1/GPa) = 0.01835334
#
# Stress axis : x y z
#
# Youngs Moduli (GPa) = 105.98700 157.82004 80.80619
#
# Poissons Ratio (x) = 0.10639 0.14528
# Poissons Ratio (y) = 0.07145 0.19593
# Poissons Ratio (z) = 0.19056 0.38266
#
# Static dielectric constant tensor:
#      x y z
#    x 2.003840 0.000000 -0.039550 
#    y 0.000000 1.822560 0.000010 
#    z -0.039550 0.000010 1.992670 
# 
# From -- ./inp_files/226721.got.cif
#   From: 2010.05.17/outbox.cif.g08.bks.cpg/sg12_114_cif.got.tgz:226721.got - 2010.06.03 13:09:07.
