data_PCOD9190581
_publ_section_title
;
Structure prediction by ZEFSAII (Michael W. Deem and Ramdas Pophale) SiO2 
 PCOD9190581
Probable space group: C 2/M
;
_chemical_formula_sum "Si O2"
_cell_formula_units_Z 56
_cell_length_a 15.560752
_cell_length_b 7.383566
_cell_length_c 17.671976
_cell_angle_alpha 90.000000
_cell_angle_beta 107.531620
_cell_angle_gamma 90.000000
_cell_volume 1936.090772
_symmetry_space_group_name_H-M "C 2/M"
_symmetry_group_IT_number 12
_symmetry_cell_setting 'monoclinic'
loop_
_space_group_symop_operation_xyz
x,y,z
-x,y,-z
-x,-y,-z
x,-y,z
1/2+x,1/2+y,z
1/2-x,1/2+y,-z
1/2-x,1/2-y,-z
1/2+x,1/2-y,z
loop_
_atom_site_type_symbol
_atom_site_label
_atom_site_fract_x
_atom_site_fract_y
_atom_site_fract_z
Si Si1 0.272286 0.708562 0.627635
Si Si2 0.542748 0.218426 0.193969
Si Si3 0.220334 0.278643 0.769404
Si Si4 0.396788 0.219114 0.946463
Si Si5 0.979364 0.283012 0.334467
Si Si6 0.618387 0.288196 0.486200
Si Si7 0.163628 0.718737 0.912616
O O1 0.298304 0.500000 0.639570
O O2 0.278727 0.788546 0.713469
O O3 0.326149 0.791128 0.571731
O O4 0.167799 0.705743 0.571486
O O5 0.604983 0.288053 0.140999
O O6 0.542470 0.280938 0.280964
O O7 0.439555 0.257446 0.140630
O O8 0.549724 0.000000 0.195366
O O9 0.222265 0.500000 0.770584
O O10 0.223453 0.214034 0.857345
O O11 0.120030 0.224412 0.714787
O O12 0.390609 0.000000 0.943870
O O13 0.500000 0.258053 0.000000
O O14 0.335228 0.287493 0.000204
O O15 0.979697 0.500000 0.333176
O O16 0.017963 0.227939 0.426060
O O17 0.636144 0.500000 0.498974
O O18 0.169586 0.500000 0.915794
#
# Coordination Sequence:
#
# PCOD9190581 Si02
#       7
#     8   8   8   8   8   8   8
#     4   9  18  33  49  61  77 104 137 170 202 240
#     4   7  10  16  28  50  79 107 129 151 188 235
#     4   8  14  25  42  63  83 105 135 168 202 239
#     4   7   8  11  22  44  77 108 125 146 189 234
#     4   9  16  27  44  64  86 109 133 164 201 241
#     4  10  20  32  45  61  81 105 135 169 203 242
#     4   7   9  14  27  50  79 104 125 156 196 231
#
# _framework density 28.924261999999999
#
# number of rings (size 3 to 8) (size 9 to 14) (size 15 to 20)
#    0.000    3.857    0.000    3.857    0.000    1.143 
#    0.000    3.571    0.000    0.000    0.000    1.000 
#    0.000   15.429    0.000    0.000    0.000    0.000 
#
# Total GULP energy -156592.849755 kJ/mol
# GULP energy per Si atom -5592.601777 kJ/mol
# Density = 2.885843 g / cm^3
# Si number density = 28.924262 Si / 1000 Ang^3
#
#
#
# Elastic Constant Matrix: (Units=GPa)
#
#
# Indices 1 2 3 4 5 6 
#
# 1 76.5790 9.2731 8.6892 0.0000 -24.8783 0.0000
# 2 9.2731 122.9859 6.5239 0.0000 5.2472 0.0000
# 3 8.6892 6.5239 271.7219 0.0000 -12.2116 0.0000
# 4 0.0000 0.0000 0.0000 6.7868 0.0000 -4.6507
# 5 -24.8783 5.2472 -12.2116 0.0000 68.8089 0.0000
# 6 0.0000 0.0000 0.0000 -4.6507 0.0000 -11.6838
#
#
#
# Elastic Compliance Matrix: (Units=1/GPa)
#
#
# Indices 1 2 3 4 5 6 
#
# 1 0.015033 -0.001358 -0.000201 0.000000 0.005503 0.000000
# 2 -0.001358 0.008294 -0.000208 0.000000 -0.001160 0.000000
# 3 -0.000201 -0.000208 0.003719 0.000000 0.000603 0.000000
# 4 0.000000 0.000000 0.000000 0.115768 0.000000 -0.046081
# 5 0.005503 -0.001160 0.000603 0.000000 0.016718 0.000000
# 6 0.000000 0.000000 0.000000 -0.046081 0.000000 -0.067246
#
#
# Mechanical properties :
#
#
# Convention : Reuss Voigt Hill
#
# Bulk Modulus (GPa) = 42.52884 57.80658 50.16771
# Shear Modulus (GPa) = 48.23603 42.56907 45.40255
#
# Velocity S-wave (km/s) = 4.08814 3.84049 3.96625
# Velocity P-wave (km/s) = 6.08435 6.30037 6.19330
#
# Compressibility (1/GPa) = 0.02351345
#
# Stress axis : x y z
#
# Youngs Moduli (GPa) = 66.51818 120.57037 268.90716
#
# Poissons Ratio (x) = 0.16369 0.05400
# Poissons Ratio (y) = 0.09031 0.05589
# Poissons Ratio (z) = 0.01336 0.02506
#
# Static dielectric constant tensor:
#      x y z
#    x 2.490590 0.000000 0.021890 
#    y 0.000000 2.020820 0.000000 
#    z 0.021890 0.000000 2.258830 
# 
# From -- ./inp_files/280398.got.cif
#   From: 2010.05.17/outbox.cif.g08.bks.cpg/sg12_141_cif.got.tgz:280398.got - 2010.06.03 13:09:07.
