data_PCOD9190263
_publ_section_title
;
Structure prediction by ZEFSAII (Michael W. Deem and Ramdas Pophale) SiO2 
 PCOD9190263
Probable space group: C 2/M
;
_chemical_formula_sum "Si O2"
_cell_formula_units_Z 48
_cell_length_a 15.195695
_cell_length_b 8.473264
_cell_length_c 28.816788
_cell_angle_alpha 90.000000
_cell_angle_beta 141.465737
_cell_angle_gamma 90.000000
_cell_volume 2311.493855
_symmetry_space_group_name_H-M "C 2/M"
_symmetry_group_IT_number 12
_symmetry_cell_setting 'monoclinic'
loop_
_space_group_symop_operation_xyz
x,y,z
-x,y,-z
-x,-y,-z
x,-y,z
1/2+x,1/2+y,z
1/2-x,1/2+y,-z
1/2-x,1/2-y,-z
1/2+x,1/2-y,z
loop_
_atom_site_type_symbol
_atom_site_label
_atom_site_fract_x
_atom_site_fract_y
_atom_site_fract_z
Si Si1 0.389872 0.179071 0.827574
Si Si2 0.304384 0.306966 0.330031
Si Si3 0.559417 0.192033 0.299989
Si Si4 0.600194 0.311133 0.420793
Si Si5 0.919384 0.677694 0.015181
Si Si6 0.644824 0.176313 0.859689
O O1 0.259591 0.251067 0.745791
O O2 0.508585 0.167326 0.836564
O O3 0.348553 0.000000 0.825338
O O4 0.472628 0.258275 0.904237
O O5 0.297578 0.500000 0.325876
O O6 0.199179 0.259297 0.328048
O O7 0.467848 0.260820 0.398623
O O8 0.570730 0.252335 0.356574
O O9 0.419306 0.249048 0.214033
O O10 0.554776 0.000000 0.297557
O O11 0.602973 0.500000 0.421875
O O12 0.750000 0.250000 0.500000
O O13 0.895373 0.500000 0.023715
O O14 0.767851 0.745825 0.940179
O O15 0.000000 0.670478 0.000000
O O16 0.694842 0.000000 0.869247
#
# Coordination Sequence:
#
# PCOD9190263 Si02
#       6
#     8   8   8   8   8   8
#     4   8  15  31  51  72  99 136 181 220 258 309
#     4   8  17  35  59  80 105 148 190 219 265 335
#     4   9  19  38  60  82 108 143 187 229 269 323
#     4  11  23  38  60  87 113 144 178 222 274 330
#     4  10  20  29  45  75 107 138 175 223 262 302
#     4   9  18  33  53  72  99 139 177 219 266 313
#
# _framework density 20.765791
#
# number of rings (size 3 to 8) (size 9 to 14) (size 15 to 20)
#    0.000    2.833    0.000    3.000    2.333    1.667 
#    0.000    5.000    0.000    3.000    0.000    0.000 
#    0.000    0.000    0.000    0.000    0.000    0.000 
#
# Total GULP energy -133700.096598 kJ/mol
# GULP energy per Si atom -5570.837358 kJ/mol
# Density = 2.071853 g / cm^3
# Si number density = 20.765791 Si / 1000 Ang^3
#
#
#
# Elastic Constant Matrix: (Units=GPa)
#
#
# Indices 1 2 3 4 5 6 
#
# 1 37.0145 1.4408 1.9962 0.0000 8.0589 0.0000
# 2 1.4408 13.9850 7.3369 0.0000 6.5977 0.0000
# 3 1.9962 7.3369 50.8295 0.0000 12.4117 0.0000
# 4 0.0000 0.0000 0.0000 -1.5085 0.0000 1.0786
# 5 8.0589 6.5977 12.4117 0.0000 40.9431 0.0000
# 6 0.0000 0.0000 0.0000 1.0786 0.0000 13.8897
#
#
#
# Elastic Compliance Matrix: (Units=1/GPa)
#
#
# Indices 1 2 3 4 5 6 
#
# 1 0.028232 -0.000442 0.000318 0.000000 -0.005582 0.000000
# 2 -0.000442 0.081198 -0.009211 -0.000001 -0.010205 0.000000
# 3 0.000318 -0.009211 0.022294 0.000000 -0.005337 0.000000
# 4 0.000000 -0.000001 0.000000 -0.628023 0.000000 0.048769
# 5 -0.005582 -0.010205 -0.005337 0.000000 0.028785 0.000000
# 6 0.000000 0.000000 0.000000 0.048769 0.000000 0.068209
#
#
# Mechanical properties :
#
#
# Convention : Reuss Voigt Hill
#
# Bulk Modulus (GPa) = 8.84538 13.70853 11.27695
# Shear Modulus (GPa) = -14.57933 16.73519 1.07793
#
# Velocity S-wave (km/s) = -2.65256 2.84192 0.72126
# Velocity P-wave (km/s) = 2.26111 4.16947 2.47709
#
# Compressibility (1/GPa) = 0.11305332
#
# Stress axis : x y z
#
# Youngs Moduli (GPa) = 35.42097 12.31564 44.85555
#
# Poissons Ratio (x) = 0.00544 -0.01427
# Poissons Ratio (y) = 0.01565 0.41317
# Poissons Ratio (z) = -0.01127 0.11344
#
# Static dielectric constant tensor:
#      x y z
#    x 1.751800 0.000000 0.011950 
#    y 0.000000 1.767610 0.000000 
#    z 0.011950 0.000000 1.812290 
# 
# From -- ./inp_files/360218.got.cif
#   From: 2010.05.17/outbox.cif.g08.bks.cpg/sg12_181_cif.got.tgz:360218.got - 2010.06.03 13:09:07.
