data_PCOD9190910
_publ_section_title
;
Structure prediction by ZEFSAII (Michael W. Deem and Ramdas Pophale) SiO2 
 PCOD9190910
Probable space group: C 2/M
;
_chemical_formula_sum "Si O2"
_cell_formula_units_Z 56
_cell_length_a 21.976318
_cell_length_b 11.119010
_cell_length_c 15.088251
_cell_angle_alpha 90.000000
_cell_angle_beta 141.061106
_cell_angle_gamma 90.000000
_cell_volume 2317.176724
_symmetry_space_group_name_H-M "C 2/M"
_symmetry_group_IT_number 12
_symmetry_cell_setting 'monoclinic'
loop_
_space_group_symop_operation_xyz
x,y,z
-x,y,-z
-x,-y,-z
x,-y,z
1/2+x,1/2+y,z
1/2-x,1/2+y,-z
1/2-x,1/2-y,-z
1/2+x,1/2-y,z
loop_
_atom_site_type_symbol
_atom_site_label
_atom_site_fract_x
_atom_site_fract_y
_atom_site_fract_z
Si Si1 0.446493 0.126933 0.534292
Si Si2 0.627909 0.137134 0.298093
Si Si3 0.619815 0.274888 0.775929
Si Si4 0.621236 0.863358 0.087738
Si Si5 0.637169 0.627792 0.417944
Si Si6 0.154721 0.836816 0.629882
Si Si7 0.174502 0.141292 0.025591
O O1 0.500000 0.118978 0.500000
O O2 0.530138 0.186387 0.686326
O O3 0.348819 0.196531 0.401538
O O4 0.419809 0.000000 0.540531
O O5 0.588862 0.156970 0.153359
O O6 0.603081 0.253530 0.328677
O O7 0.745826 0.135858 0.437655
O O8 0.599706 0.000000 0.289870
O O9 0.604085 0.348823 0.667087
O O10 0.716135 0.194805 0.864254
O O11 0.633301 0.351489 0.878998
O O12 0.737279 0.876713 0.233650
O O13 0.619230 0.743984 0.022718
O O14 0.591568 0.000000 0.023715
O O15 0.613255 0.500000 0.346276
O O16 0.604290 0.619174 0.483273
O O17 0.174047 0.000000 0.054394
#
# Coordination Sequence:
#
# PCOD9190910 Si02
#       7
#     8   8   8   8   8   8   8
#     4   9  17  30  46  66  93 127 165 201 236 276
#     4   8  15  28  44  64  91 122 155 190 230 280
#     4   9  19  32  47  67  97 128 159 198 239 276
#     4   9  18  32  49  69  97 130 159 193 241 288
#     4   9  16  26  42  65  93 124 154 187 231 279
#     4   9  17  28  45  67  94 127 160 190 228 280
#     4  10  20  32  50  73  94 123 164 204 239 278
#
# _framework density 24.167341
#
# number of rings (size 3 to 8) (size 9 to 14) (size 15 to 20)
#    0.000    3.000    0.000    1.714    0.000   10.857 
#    0.000    7.143    0.000   10.714    0.000    1.000 
#    0.000    5.714    0.000    0.286    0.000    0.000 
#
# Total GULP energy -155904.150479 kJ/mol
# GULP energy per Si atom -5568.005374 kJ/mol
# Density = 2.411234 g / cm^3
# Si number density = 24.167341 Si / 1000 Ang^3
#
#
#
# Elastic Constant Matrix: (Units=GPa)
#
#
# Indices 1 2 3 4 5 6 
#
# 1 71.8203 63.0259 33.4241 0.0000 -25.7525 0.0000
# 2 63.0259 215.8661 70.9747 0.0000 -34.7662 0.0000
# 3 33.4241 70.9747 105.8357 0.0000 -21.1206 0.0000
# 4 0.0000 0.0000 0.0000 14.3914 0.0000 0.1330
# 5 -25.7525 -34.7662 -21.1206 0.0000 42.7456 0.0000
# 6 0.0000 0.0000 0.0000 0.1330 0.0000 10.6192
#
#
#
# Elastic Compliance Matrix: (Units=1/GPa)
#
#
# Indices 1 2 3 4 5 6 
#
# 1 0.021770 -0.004210 -0.002350 0.000000 0.008531 0.000000
# 2 -0.004210 0.007173 -0.003132 0.000000 0.001751 0.000000
# 3 -0.002350 -0.003132 0.012758 0.000000 0.002341 0.000000
# 4 0.000000 0.000000 0.000000 0.069494 0.000000 -0.000870
# 5 0.008531 0.001751 0.002341 0.000000 0.031114 0.000000
# 6 0.000000 0.000000 0.000000 -0.000870 0.000000 0.094180
#
#
# Mechanical properties :
#
#
# Convention : Reuss Voigt Hill
#
# Bulk Modulus (GPa) = 44.80433 80.93016 62.86725
# Shear Modulus (GPa) = 18.98890 28.62439 23.80665
#
# Velocity S-wave (km/s) = 2.80612 3.44528 3.14200
# Velocity P-wave (km/s) = 5.39245 7.02757 6.26360
#
# Compressibility (1/GPa) = 0.02231927
#
# Stress axis : x y z
#
# Youngs Moduli (GPa) = 45.93407 139.40791 78.38235
#
# Poissons Ratio (x) = 0.58687 0.18418
# Poissons Ratio (y) = 0.19337 0.24546
# Poissons Ratio (z) = 0.10794 0.43657
#
# Static dielectric constant tensor:
#      x y z
#    x 1.995320 0.000000 -0.017820 
#    y 0.000000 2.051590 0.000000 
#    z -0.017820 0.000000 1.952220 
# 
# From -- ./inp_files/250579.got.cif
#   From: 2010.05.17/outbox.cif.g08.bks.cpg/sg12_126_cif.got.tgz:250579.got - 2010.06.03 13:09:07.
