data_PCOD9190723
_publ_section_title
;
Structure prediction by ZEFSAII (Michael W. Deem and Ramdas Pophale) SiO2 
 PCOD9190723
Probable space group: C 2/M
;
_chemical_formula_sum "Si O2"
_cell_formula_units_Z 64
_cell_length_a 18.286344
_cell_length_b 24.912902
_cell_length_c 12.291267
_cell_angle_alpha 90.000000
_cell_angle_beta 41.980913
_cell_angle_gamma 90.000000
_cell_volume 3745.398387
_symmetry_space_group_name_H-M "C 2/M"
_symmetry_group_IT_number 12
_symmetry_cell_setting 'monoclinic'
loop_
_space_group_symop_operation_xyz
x,y,z
-x,y,-z
-x,-y,-z
x,-y,z
1/2+x,1/2+y,z
1/2-x,1/2+y,-z
1/2-x,1/2-y,-z
1/2+x,1/2-y,z
loop_
_atom_site_type_symbol
_atom_site_label
_atom_site_fract_x
_atom_site_fract_y
_atom_site_fract_z
Si Si1 0.274685 0.136170 0.574307
Si Si2 0.211088 0.702330 0.858409
Si Si3 0.956592 0.177224 0.226072
Si Si4 0.617102 0.845859 0.158031
Si Si5 0.535918 0.938549 0.586834
Si Si6 0.338533 0.216693 0.332596
Si Si7 0.555015 0.270608 0.323908
Si Si8 0.309776 0.672625 0.100971
O O1 0.151031 0.139871 0.663118
O O2 0.340162 0.082262 0.530136
O O3 0.352141 0.168171 0.402699
O O4 0.252994 0.164150 0.715486
O O5 0.202847 0.696819 0.738205
O O6 0.332787 0.699393 0.771442
O O7 0.180912 0.763449 0.923511
O O8 0.135565 0.662594 0.009780
O O9 0.926830 0.236673 0.210992
O O10 0.986978 0.192952 0.316014
O O11 0.064614 0.153935 0.048171
O O12 0.543136 0.896203 0.267558
O O13 0.573986 0.788386 0.251644
O O14 0.732861 0.851562 0.093103
O O15 0.500000 0.935554 0.500000
O O16 0.523739 0.000000 0.635932
O O17 0.250000 0.250000 0.500000
O O18 0.500000 0.261065 0.500000
#
# Coordination Sequence:
#
# PCOD9190723 Si02
#       8
#     8   8   8   8   8   8   8   8
#     4  11  22  35  56  79 112 146 185 234 281 327
#     4  11  20  34  48  78 122 159 188 213 259 348
#     4  11  20  32  47  81 118 154 174 213 278 350
#     4  11  21  35  56  80 111 152 193 236 276 325
#     4  11  24  43  64  81 102 143 202 256 288 323
#     4  10  20  32  47  77 118 160 186 208 258 331
#     4  11  20  29  51  80 118 155 184 214 260 342
#     4  11  19  33  51  82 118 152 179 216 281 346
#
# _framework density 17.087636
#
# number of rings (size 3 to 8) (size 9 to 14) (size 15 to 20)
#    0.000    1.125    6.250    3.750    3.500    0.000 
#    0.000    0.000    0.000    3.750    0.000    0.000 
#    0.000    2.000    0.000    0.000    0.000    0.000 
#
# Total GULP energy -178328.554393 kJ/mol
# GULP energy per Si atom -5572.767325 kJ/mol
# Density = 1.704874 g / cm^3
# Si number density = 17.087636 Si / 1000 Ang^3
#
#
#
# Elastic Constant Matrix: (Units=GPa)
#
#
# Indices 1 2 3 4 5 6 
#
# 1 107.4979 30.8912 47.1741 0.0000 5.2982 0.0000
# 2 30.8912 71.7101 45.8879 0.0000 1.4172 0.0000
# 3 47.1741 45.8879 91.6260 0.0000 6.8012 0.0000
# 4 0.0000 0.0000 0.0000 15.1696 0.0000 1.2597
# 5 5.2982 1.4172 6.8012 0.0000 34.8956 0.0000
# 6 0.0000 0.0000 0.0000 1.2597 0.0000 14.4905
#
#
#
# Elastic Compliance Matrix: (Units=1/GPa)
#
#
# Indices 1 2 3 4 5 6 
#
# 1 0.012195 -0.001849 -0.005298 0.000000 -0.000744 0.000000
# 2 -0.001849 0.020851 -0.009587 0.000000 0.001302 0.000000
# 3 -0.005298 -0.009587 0.018624 0.000000 -0.002436 0.000000
# 4 0.000000 0.000000 0.000000 0.066401 0.000000 -0.005772
# 5 -0.000744 0.001302 -0.002436 0.000000 0.029192 0.000000
# 6 0.000000 0.000000 0.000000 -0.005772 0.000000 0.069512
#
#
# Mechanical properties :
#
#
# Convention : Reuss Voigt Hill
#
# Bulk Modulus (GPa) = 54.93788 57.63783 56.28785
# Shear Modulus (GPa) = 19.50770 22.70320 21.10545
#
# Velocity S-wave (km/s) = 3.38246 3.64900 3.51825
# Velocity P-wave (km/s) = 6.89022 7.18036 7.03679
#
# Compressibility (1/GPa) = 0.01820238
#
# Stress axis : x y z
#
# Youngs Moduli (GPa) = 81.99909 47.96012 53.69486
#
# Poissons Ratio (x) = 0.08867 0.28446
# Poissons Ratio (y) = 0.15159 0.51479
# Poissons Ratio (z) = 0.43441 0.45981
#
# Static dielectric constant tensor:
#      x y z
#    x 1.664660 0.000000 -0.034240 
#    y 0.000000 1.539340 0.000000 
#    z -0.034240 0.000000 1.661890 
# 
# From -- ./inp_files/160280.got.cif
#   From: 2010.05.17/outbox.cif.g08.bks.cpg/sg12_81_cif.got.tgz:160280.got - 2010.06.03 13:09:07.
