data_PCOD9190009
_publ_section_title
;
Structure prediction by ZEFSAII (Michael W. Deem and Ramdas Pophale) SiO2 
 PCOD9190009
Probable space group: C 2/M
;
_chemical_formula_sum "Si O2"
_cell_formula_units_Z 36
_cell_length_a 18.959282
_cell_length_b 14.414763
_cell_length_c 7.149611
_cell_angle_alpha 90.000000
_cell_angle_beta 137.856022
_cell_angle_gamma 90.000000
_cell_volume 1311.087551
_symmetry_space_group_name_H-M "C 2/M"
_symmetry_group_IT_number 12
_symmetry_cell_setting 'monoclinic'
loop_
_space_group_symop_operation_xyz
x,y,z
-x,y,-z
-x,-y,-z
x,-y,z
1/2+x,1/2+y,z
1/2-x,1/2+y,-z
1/2-x,1/2-y,-z
1/2+x,1/2-y,z
loop_
_atom_site_type_symbol
_atom_site_label
_atom_site_fract_x
_atom_site_fract_y
_atom_site_fract_z
Si Si1 0.023160 0.346020 0.328195
Si Si2 0.261548 0.359704 0.720625
Si Si3 0.296342 0.139214 0.806027
Si Si4 0.010676 0.127246 0.801923
Si Si5 0.659654 0.500000 0.728253
O O1 0.140808 0.380982 0.526702
O O2 0.000000 0.357851 0.500000
O O3 0.015013 0.236237 0.266509
O O4 0.919544 0.383305 0.020187
O O5 0.279586 0.249827 0.793445
O O6 0.265600 0.382447 0.506838
O O7 0.368886 0.401680 0.016191
O O8 0.252396 0.081377 0.890981
O O9 0.927381 0.077843 0.511234
O O10 0.000000 0.104641 0.000000
#
# Coordination Sequence:
#
# PCOD9190009 Si02
#       5
#     8   8   8   8   4
#     4  11  23  41  64  89 125 178 217 245 296 373
#     4  10  19  39  62  95 121 161 210 259 298 371
#     4  10  21  36  67  92 130 155 206 265 316 363
#     4  11  21  37  68  96 129 151 205 267 317 367
#     4  12  21  40  65 106 122 160 188 279 328 375
#
# _framework density 27.458121999999999
#
# number of rings (size 3 to 8) (size 9 to 14) (size 15 to 20)
#    0.000    1.333    4.444    3.667    0.000    3.556 
#    0.000    4.444    0.000    0.000    0.000    0.000 
#    0.000    0.000    0.000    0.000    0.000    0.000 
#
# Total GULP energy -100338.654589 kJ/mol
# GULP energy per Si atom -5574.369699 kJ/mol
# Density = 2.739563 g / cm^3
# Si number density = 27.458122 Si / 1000 Ang^3
#
#
#
# Elastic Constant Matrix: (Units=GPa)
#
#
# Indices 1 2 3 4 5 6 
#
# 1 122.9682 -28.7184 30.4660 0.0000 34.3495 0.0000
# 2 -28.7184 79.1661 9.6650 0.0000 10.4275 0.0000
# 3 30.4660 9.6650 217.8818 0.0000 45.7492 0.0000
# 4 0.0000 0.0000 0.0000 82.5824 0.0000 104.2983
# 5 34.3495 10.4275 45.7492 0.0000 75.1688 0.0000
# 6 0.0000 0.0000 0.0000 104.2983 0.0000 187.5618
#
#
#
# Elastic Compliance Matrix: (Units=1/GPa)
#
#
# Indices 1 2 3 4 5 6 
#
# 1 0.010845 0.004699 -0.000628 0.000000 -0.005226 0.000000
# 2 0.004699 0.014912 -0.000497 0.000000 -0.003914 0.000000
# 3 -0.000628 -0.000497 0.005302 0.000000 -0.002871 0.000000
# 4 0.000000 0.000000 0.000000 0.040675 0.000000 -0.022619
# 5 -0.005226 -0.003914 -0.002871 0.000000 0.017982 0.000000
# 6 0.000000 0.000000 0.000000 -0.022619 0.000000 0.017909
#
#
# Mechanical properties :
#
#
# Convention : Reuss Voigt Hill
#
# Bulk Modulus (GPa) = 26.17204 49.20457 37.68830
# Shear Modulus (GPa) = 44.16453 96.30285 70.23369
#
# Velocity S-wave (km/s) = 4.01488 5.92864 5.06300
# Velocity P-wave (km/s) = 5.57177 8.05132 6.92345
#
# Compressibility (1/GPa) = 0.03820872
#
# Stress axis : x y z
#
# Youngs Moduli (GPa) = 92.21014 67.05816 188.59539
#
# Poissons Ratio (x) = -0.31511 0.11837
# Poissons Ratio (y) = -0.43329 0.09369
# Poissons Ratio (z) = 0.05787 0.03331
#
# Static dielectric constant tensor:
#      x y z
#    x 2.330970 0.000000 -0.048100 
#    y 0.000000 2.147570 0.000000 
#    z -0.048100 0.000000 2.089230 
# 
# From -- ./inp_files/46550.got.cif
#   From: 2010.05.17/outbox.cif.g08.bks.cpg/sg12_24_cif.got.tgz:46550.got - 2010.06.03 13:09:07.
