data_PCOD9190366
_publ_section_title
;
Structure prediction by ZEFSAII (Michael W. Deem and Ramdas Pophale) SiO2 
 PCOD9190366
Probable space group: C 2/M
;
_chemical_formula_sum "Si O2"
_cell_formula_units_Z 56
_cell_length_a 19.348511
_cell_length_b 7.402401
_cell_length_c 23.950393
_cell_angle_alpha 90.000000
_cell_angle_beta 126.905916
_cell_angle_gamma 90.000000
_cell_volume 2742.950010
_symmetry_space_group_name_H-M "C 2/M"
_symmetry_group_IT_number 12
_symmetry_cell_setting 'monoclinic'
loop_
_space_group_symop_operation_xyz
x,y,z
-x,y,-z
-x,-y,-z
x,-y,z
1/2+x,1/2+y,z
1/2-x,1/2+y,-z
1/2-x,1/2-y,-z
1/2+x,1/2-y,z
loop_
_atom_site_type_symbol
_atom_site_label
_atom_site_fract_x
_atom_site_fract_y
_atom_site_fract_z
Si Si1 0.346019 0.216038 0.567273
Si Si2 0.618155 0.210010 0.717172
Si Si3 0.081463 0.787648 0.005963
Si Si4 0.228803 0.721738 0.870285
Si Si5 0.049911 0.290095 0.282606
Si Si6 0.502558 0.778460 0.565102
Si Si7 0.431031 0.218480 0.130302
O O1 0.250000 0.250000 0.500000
O O2 0.373243 0.286999 0.641926
O O3 0.416456 0.279384 0.556308
O O4 0.357064 0.000000 0.575948
O O5 0.694247 0.284073 0.792919
O O6 0.533392 0.214366 0.716265
O O7 0.584440 0.283924 0.641935
O O8 0.639385 0.000000 0.717618
O O9 0.067702 0.770836 0.933231
O O10 0.085620 0.000000 0.021964
O O11 0.175656 0.714946 0.068295
O O12 0.000000 0.710568 0.000000
O O13 0.227400 0.500000 0.869263
O O14 0.157546 0.776516 0.881860
O O15 0.070948 0.500000 0.281476
O O16 0.012277 0.213979 0.206698
O O17 0.500000 0.720651 0.500000
O O18 0.504293 0.000000 0.566392
O O19 0.432244 0.000000 0.133760
#
# Coordination Sequence:
#
# PCOD9190366 Si02
#       7
#     8   8   8   8   8   8   8
#     4   9  16  27  43  63  88 114 139 171 212 254
#     4   7  10  19  37  58  78 103 138 176 207 236
#     4  10  20  31  41  60  94 122 132 155 213 273
#     4   8  14  26  44  62  78 104 144 179 205 241
#     4   7  12  24  42  62  81 104 138 179 214 239
#     4   8  13  22  38  61  85 107 137 178 212 235
#     4   9  16  29  50  67  76 100 150 193 207 228
#
# _framework density 20.415973999999999
#
# number of rings (size 3 to 8) (size 9 to 14) (size 15 to 20)
#    0.000    3.714    0.000    3.857    0.000    0.286 
#    0.000    2.143    0.000    3.857    0.000    1.000 
#    0.000    0.000    0.000    0.000    0.000    0.000 
#
# Total GULP energy -155922.599149 kJ/mol
# GULP energy per Si atom -5568.664255 kJ/mol
# Density = 2.036951 g / cm^3
# Si number density = 20.415974 Si / 1000 Ang^3
#
#
#
# Elastic Constant Matrix: (Units=GPa)
#
#
# Indices 1 2 3 4 5 6 
#
# 1 81.1075 0.5134 96.6637 0.0000 2.4512 0.0000
# 2 0.5134 64.1930 -3.1876 0.0000 2.9233 0.0000
# 3 96.6637 -3.1876 241.4545 0.0000 4.5337 0.0000
# 4 0.0000 0.0000 0.0000 4.2223 0.0000 13.8341
# 5 2.4512 2.9233 4.5337 0.0000 28.9902 0.0000
# 6 0.0000 0.0000 0.0000 13.8341 0.0000 -39.7204
#
#
#
# Elastic Compliance Matrix: (Units=1/GPa)
#
#
# Indices 1 2 3 4 5 6 
#
# 1 0.023614 -0.000638 -0.009453 0.000000 -0.000454 0.000000
# 2 -0.000638 0.015681 0.000492 0.000000 -0.001604 0.000000
# 3 -0.009453 0.000492 0.007942 0.000000 -0.000492 0.000000
# 4 0.000000 0.000000 0.000000 0.110613 0.000000 0.038525
# 5 -0.000454 -0.001604 -0.000492 0.000000 0.034772 0.000000
# 6 0.000000 0.000000 0.000000 0.038525 0.000000 -0.011758
#
#
# Mechanical properties :
#
#
# Convention : Reuss Voigt Hill
#
# Bulk Modulus (GPa) = 35.66468 63.85933 49.76200
# Shear Modulus (GPa) = 23.87713 18.21613 21.04663
#
# Velocity S-wave (km/s) = 3.42355 2.99029 3.21423
# Velocity P-wave (km/s) = 5.75626 6.57795 6.18078
#
# Compressibility (1/GPa) = 0.02803895
#
# Stress axis : x y z
#
# Youngs Moduli (GPa) = 42.34866 63.77297 125.91534
#
# Poissons Ratio (x) = 0.04066 1.19032
# Poissons Ratio (y) = 0.02700 -0.06200
# Poissons Ratio (z) = 0.40033 -0.03140
#
# Static dielectric constant tensor:
#      x y z
#    x 1.681360 0.000000 0.012920 
#    y 0.000000 1.805260 0.000000 
#    z 0.012920 0.000000 1.772860 
# 
# From -- ./inp_files/276053.got.cif
#   From: 2010.05.17/outbox.cif.g08.bks.cpg/sg12_139_cif.got.tgz:276053.got - 2010.06.03 13:09:07.
