data_PCOD9190243
_publ_section_title
;
Structure prediction by ZEFSAII (Michael W. Deem and Ramdas Pophale) SiO2 
 PCOD9190243
Probable space group: C 2/M
;
_chemical_formula_sum "Si O2"
_cell_formula_units_Z 28
_cell_length_a 9.852382
_cell_length_b 10.657007
_cell_length_c 11.149156
_cell_angle_alpha 90.000000
_cell_angle_beta 73.818302
_cell_angle_gamma 90.000000
_cell_volume 1124.249850
_symmetry_space_group_name_H-M "C 2/M"
_symmetry_group_IT_number 12
_symmetry_cell_setting 'monoclinic'
loop_
_space_group_symop_operation_xyz
x,y,z
-x,y,-z
-x,-y,-z
x,-y,z
1/2+x,1/2+y,z
1/2-x,1/2+y,-z
1/2-x,1/2-y,-z
1/2+x,1/2-y,z
loop_
_atom_site_type_symbol
_atom_site_label
_atom_site_fract_x
_atom_site_fract_y
_atom_site_fract_z
Si Si1 0.172713 0.500000 0.438379
Si Si2 0.007226 0.244340 0.251766
Si Si3 0.285940 0.646502 0.622926
Si Si4 0.102786 0.000000 0.085669
Si Si5 0.339221 0.000000 0.836546
O O1 0.240045 0.383904 0.496796
O O2 0.219566 0.500000 0.288410
O O3 0.000000 0.500000 0.500000
O O4 0.071159 0.212600 0.367908
O O5 0.063333 0.126102 0.165114
O O6 0.074295 0.372057 0.187404
O O7 0.842535 0.276221 0.288088
O O8 0.289417 0.500000 0.668083
O O9 0.000000 0.000000 0.000000
O O10 0.251403 0.000000 0.980737
#
# Coordination Sequence:
#
# PCOD9190243 Si02
#       5
#     4   8   8   4   4
#     4  10  19  47  71 107 149 194 246 297 372 452
#     4  12  23  48  75 107 150 194 249 306 372 436
#     4  10  23  45  75 111 146 193 243 310 368 437
#     4  12  27  46  68 115 152 184 258 311 360 452
#     4  12  24  43  75 104 145 205 235 299 377 437
#
# _framework density 24.905494000000001
#
# number of rings (size 3 to 8) (size 9 to 14) (size 15 to 20)
#    0.857    0.000    5.714    2.571    0.000    1.143 
#    0.000    2.143    0.000    6.857    0.000    0.000 
#    0.000    0.000    0.000    0.000    0.000    0.000 
#
# Total GULP energy -78242.728403 kJ/mol
# GULP energy per Si atom -5588.766315 kJ/mol
# Density = 2.484881 g / cm^3
# Si number density = 24.905494 Si / 1000 Ang^3
#
#
#
# Elastic Constant Matrix: (Units=GPa)
#
#
# Indices 1 2 3 4 5 6 
#
# 1 72.6439 20.5589 -9.6865 0.0000 -1.7434 0.0000
# 2 20.5589 210.2645 63.2305 0.0000 -12.7235 0.0000
# 3 -9.6865 63.2305 106.6356 0.0000 -3.7489 0.0000
# 4 0.0000 0.0000 0.0000 25.4569 0.0000 4.7373
# 5 -1.7434 -12.7235 -3.7489 0.0000 26.4155 0.0000
# 6 0.0000 0.0000 0.0000 4.7373 0.0000 9.3230
#
#
#
# Elastic Compliance Matrix: (Units=1/GPa)
#
#
# Indices 1 2 3 4 5 6 
#
# 1 0.014760 -0.002230 0.002673 0.000000 0.000279 0.000000
# 2 -0.002230 0.006269 -0.003838 0.000000 0.002328 0.000000
# 3 0.002673 -0.003838 0.011897 0.000000 0.000016 0.000000
# 4 0.000000 0.000000 0.000000 0.043385 0.000000 -0.022045
# 5 0.000279 0.002328 0.000016 0.000000 0.038998 0.000000
# 6 0.000000 0.000000 0.000000 -0.022045 0.000000 0.118463
#
#
# Mechanical properties :
#
#
# Convention : Reuss Voigt Hill
#
# Bulk Modulus (GPa) = 38.26196 59.74997 49.00597
# Shear Modulus (GPa) = 20.05821 33.26848 26.66334
#
# Velocity S-wave (km/s) = 2.84099 3.65881 3.27552
# Velocity P-wave (km/s) = 5.11447 6.47240 5.83309
#
# Compressibility (1/GPa) = 0.02613562
#
# Stress axis : x y z
#
# Youngs Moduli (GPa) = 67.75050 159.51576 84.05569
#
# Poissons Ratio (x) = 0.35573 -0.22468
# Poissons Ratio (y) = 0.15109 0.32260
# Poissons Ratio (z) = -0.18109 0.61222
#
# Static dielectric constant tensor:
#      x y z
#    x 1.986910 0.000000 0.074370 
#    y 0.000000 1.712570 0.000000 
#    z 0.074370 0.000000 1.863520 
# 
# From -- ./inp_files/201848.got.cif
#   From: 2010.05.17/outbox.cif.g08.bks.cpg/sg12_101_cif.got.tgz:201848.got - 2010.06.03 13:09:07.
