data_PCOD9190912
_publ_section_title
;
Structure prediction by ZEFSAII (Michael W. Deem and Ramdas Pophale) SiO2 
 PCOD9190912
Probable space group: C 2/M
;
_chemical_formula_sum "Si O2"
_cell_formula_units_Z 64
_cell_length_a 19.652871
_cell_length_b 8.560540
_cell_length_c 20.708400
_cell_angle_alpha 90.000000
_cell_angle_beta 112.061893
_cell_angle_gamma 90.000000
_cell_volume 3228.863830
_symmetry_space_group_name_H-M "C 2/M"
_symmetry_group_IT_number 12
_symmetry_cell_setting 'monoclinic'
loop_
_space_group_symop_operation_xyz
x,y,z
-x,y,-z
-x,-y,-z
x,-y,z
1/2+x,1/2+y,z
1/2-x,1/2+y,-z
1/2-x,1/2-y,-z
1/2+x,1/2-y,z
loop_
_atom_site_type_symbol
_atom_site_label
_atom_site_fract_x
_atom_site_fract_y
_atom_site_fract_z
Si Si1 0.886704 0.189476 0.761290
Si Si2 0.158179 0.686612 0.392642
Si Si3 0.952579 0.182004 0.159105
Si Si4 0.954867 0.816851 0.421809
Si Si5 0.325638 0.316894 0.467512
Si Si6 0.082888 0.681290 0.719231
Si Si7 0.704143 0.186642 0.923857
Si Si8 0.750816 0.687580 0.202552
O O1 0.879886 0.245062 0.684608
O O2 0.816868 0.246371 0.778553
O O3 0.963974 0.239455 0.821335
O O4 0.886688 0.000000 0.760168
O O5 0.155105 0.500000 0.386626
O O6 0.243718 0.741783 0.424217
O O7 0.135817 0.737156 0.457047
O O8 0.941373 0.208251 0.231599
O O9 0.881553 0.264780 0.103456
O O10 0.948935 0.000000 0.140885
O O11 0.872485 0.804556 0.419620
O O12 0.962204 0.716949 0.360663
O O13 0.000000 0.765493 0.500000
O O14 0.971946 0.000000 0.415115
O O15 0.320501 0.500000 0.482413
O O16 0.075761 0.500000 0.736672
O O17 0.169154 0.713097 0.737791
O O18 0.738790 0.244331 0.867745
O O19 0.707357 0.000000 0.924065
O O20 0.750000 0.250000 0.000000
O O21 0.740812 0.500000 0.195125
#
# Coordination Sequence:
#
# PCOD9190912 Si02
#       8
#     8   8   8   8   8   8   8   8
#     4  10  20  35  56  79 107 142 182 225 270 319
#     4  10  20  32  50  73  99 134 175 224 276 329
#     4  10  21  36  57  84 113 146 183 222 270 325
#     4  10  21  34  49  69  97 134 180 229 277 329
#     4   9  19  35  49  67  97 135 180 224 276 335
#     4  10  20  35  55  77 106 141 181 231 280 331
#     4  10  20  38  64  90 118 149 182 219 260 314
#     4   8  17  35  58  83 107 140 183 221 260 312
#
# _framework density 19.821214999999999
#
# number of rings (size 3 to 8) (size 9 to 14) (size 15 to 20)
#    0.000    2.375    0.000    3.000    1.750    2.250 
#    0.000    3.750    0.000    3.750    0.000    0.000 
#    0.000    0.000    0.000    0.000    0.000    0.000 
#
# Total GULP energy -178467.627724 kJ/mol
# GULP energy per Si atom -5577.113366 kJ/mol
# Density = 1.977610 g / cm^3
# Si number density = 19.821215 Si / 1000 Ang^3
#
#
#
# Elastic Constant Matrix: (Units=GPa)
#
#
# Indices 1 2 3 4 5 6 
#
# 1 58.3076 7.7795 12.1640 0.0000 12.7257 0.0000
# 2 7.7795 19.1887 17.3321 0.0000 1.7906 0.0000
# 3 12.1640 17.3321 109.2979 0.0000 10.5711 0.0000
# 4 0.0000 0.0000 0.0000 30.4956 0.0000 2.7237
# 5 12.7257 1.7906 10.5711 0.0000 18.9243 0.0000
# 6 0.0000 0.0000 0.0000 2.7237 0.0000 16.4178
#
#
#
# Elastic Compliance Matrix: (Units=1/GPa)
#
#
# Indices 1 2 3 4 5 6 
#
# 1 0.021065 -0.007402 0.000139 0.000000 -0.013542 0.000000
# 2 -0.007402 0.063430 -0.009658 0.000000 0.004371 0.000000
# 3 0.000139 -0.009658 0.011191 0.000000 -0.005431 0.000000
# 4 0.000000 0.000000 0.000000 0.033285 0.000000 -0.005522
# 5 -0.013542 0.004371 -0.005431 0.000000 0.064569 0.000000
# 6 0.000000 0.000000 0.000000 -0.005522 0.000000 0.061826
#
#
# Mechanical properties :
#
#
# Convention : Reuss Voigt Hill
#
# Bulk Modulus (GPa) = 16.16953 29.03836 22.60395
# Shear Modulus (GPa) = 16.13839 23.13544 19.63691
#
# Velocity S-wave (km/s) = 2.85651 3.42015 3.15096
# Velocity P-wave (km/s) = 4.36520 5.50259 4.96656
#
# Compressibility (1/GPa) = 0.06184473
#
# Stress axis : x y z
#
# Youngs Moduli (GPa) = 47.47301 15.76533 89.36124
#
# Poissons Ratio (x) = 0.11670 -0.01245
# Poissons Ratio (y) = 0.35140 0.86301
# Poissons Ratio (z) = -0.00661 0.15225
#
# Static dielectric constant tensor:
#      x y z
#    x 1.774690 0.000000 0.020740 
#    y 0.000000 1.687360 0.000000 
#    z 0.020740 0.000000 1.681470 
# 
# From -- ./inp_files/320017.got.cif
#   From: 2010.05.17/outbox.cif.g08.bks.cpg/sg12_161_cif.got.tgz:320017.got - 2010.06.03 13:09:07.
