data_PCOD9190989
_publ_section_title
;
Structure prediction by ZEFSAII (Michael W. Deem and Ramdas Pophale) SiO2 
 PCOD9190989
Probable space group: C 2/M
;
_chemical_formula_sum "Si O2"
_cell_formula_units_Z 48
_cell_length_a 16.513149
_cell_length_b 7.592906
_cell_length_c 16.832715
_cell_angle_alpha 90.000000
_cell_angle_beta 76.930116
_cell_angle_gamma 90.000000
_cell_volume 2055.859316
_symmetry_space_group_name_H-M "C 2/M"
_symmetry_group_IT_number 12
_symmetry_cell_setting 'monoclinic'
loop_
_space_group_symop_operation_xyz
x,y,z
-x,y,-z
-x,-y,-z
x,-y,z
1/2+x,1/2+y,z
1/2-x,1/2+y,-z
1/2-x,1/2-y,-z
1/2+x,1/2-y,z
loop_
_atom_site_type_symbol
_atom_site_label
_atom_site_fract_x
_atom_site_fract_y
_atom_site_fract_z
Si Si1 0.293020 0.294409 0.701611
Si Si2 0.906649 0.783576 0.541349
Si Si3 0.629582 0.000000 0.031321
Si Si4 0.350110 0.709792 0.388588
Si Si5 0.027899 0.797687 0.768466
Si Si6 0.334469 0.705535 0.857777
Si Si7 0.566174 0.000000 0.876153
O O1 0.311599 0.500000 0.711674
O O2 0.368647 0.219532 0.632365
O O3 0.216294 0.282686 0.658510
O O4 0.282062 0.226423 0.793418
O O5 0.851007 0.725083 0.478447
O O6 0.000000 0.731668 0.500000
O O7 0.905167 0.000000 0.543756
O O8 0.668412 0.170074 0.065187
O O9 0.530450 0.000000 0.074280
O O10 0.627667 0.000000 0.936787
O O11 0.337486 0.500000 0.394405
O O12 0.439600 0.741053 0.327161
O O13 0.073878 0.669653 0.819112
O O14 0.929617 0.779710 0.803482
O O15 0.049654 0.000000 0.780336
O O16 0.319588 0.500000 0.880766
#
# Coordination Sequence:
#
# PCOD9190989 Si02
#       7
#     8   8   4   8   8   8   4
#     4  10  20  32  51  77 103 142 178 218 264 314
#     4   9  17  32  53  75 104 139 180 222 261 309
#     4   9  18  32  54  83 109 135 169 219 277 321
#     4  10  20  32  51  77 103 142 178 218 264 314
#     4   9  18  33  53  78 106 139 180 220 264 318
#     4   9  18  33  53  78 106 139 180 220 264 318
#     4   9  18  32  54  83 109 135 169 219 277 321
#
# _framework density 23.347901
#
# number of rings (size 3 to 8) (size 9 to 14) (size 15 to 20)
#    0.000    2.667    0.000    1.500    2.333    4.667 
#    0.000    3.333    0.000    2.000    0.000    0.000 
#    0.000    0.000    0.000    0.000    0.000    0.000 
#
# Total GULP energy -134081.856723 kJ/mol
# GULP energy per Si atom -5586.744030 kJ/mol
# Density = 2.329476 g / cm^3
# Si number density = 23.347901 Si / 1000 Ang^3
#
#
#
# Elastic Constant Matrix: (Units=GPa)
#
#
# Indices 1 2 3 4 5 6 
#
# 1 74.3837 7.2429 12.7210 0.0000 11.3993 0.0000
# 2 7.2429 67.0351 45.5871 0.0000 12.9464 0.0000
# 3 12.7210 45.5871 107.6839 0.0000 42.5351 0.0000
# 4 0.0000 0.0000 0.0000 13.7702 0.0000 9.8309
# 5 11.3993 12.9464 42.5351 0.0000 43.5767 0.0000
# 6 0.0000 0.0000 0.0000 9.8309 0.0000 6.0082
#
#
#
# Elastic Compliance Matrix: (Units=1/GPa)
#
#
# Indices 1 2 3 4 5 6 
#
# 1 0.014052 -0.000920 0.000120 0.000000 -0.003519 0.000000
# 2 -0.000920 0.021437 -0.010653 0.000000 0.004271 0.000000
# 3 0.000120 -0.010653 0.020416 0.000000 -0.016794 0.000000
# 4 0.000000 0.000000 0.000000 -0.431852 0.000000 0.706620
# 5 -0.003519 0.004271 -0.016794 0.000000 0.038993 0.000000
# 6 0.000000 0.000000 0.000000 0.706620 0.000000 -0.989770
#
#
# Mechanical properties :
#
#
# Convention : Reuss Voigt Hill
#
# Bulk Modulus (GPa) = 30.30497 42.24496 36.27497
# Shear Modulus (GPa) = -3.86752 24.90780 10.52014
#
# Velocity S-wave (km/s) = -1.28844 3.26975 2.12499
# Velocity P-wave (km/s) = 3.28550 5.69104 4.64664
#
# Compressibility (1/GPa) = 0.03299789
#
# Stress axis : x y z
#
# Youngs Moduli (GPa) = 71.16282 46.64834 48.98103
#
# Poissons Ratio (x) = 0.04291 -0.00586
# Poissons Ratio (y) = 0.06546 0.52181
# Poissons Ratio (z) = -0.00851 0.49696
#
# Static dielectric constant tensor:
#      x y z
#    x 1.926770 0.000000 -0.003720 
#    y 0.000000 1.846860 0.000000 
#    z -0.003720 0.000000 1.866160 
# 
# From -- ./inp_files/221749.got.cif
#   From: 2010.05.17/outbox.cif.g08.bks.cpg/sg12_111_cif.got.tgz:221749.got - 2010.06.03 13:09:07.
