data_PCOD9190752
_publ_section_title
;
Structure prediction by ZEFSAII (Michael W. Deem and Ramdas Pophale) SiO2 
 PCOD9190752
Probable space group: C 2/M
;
_chemical_formula_sum "Si O2"
_cell_formula_units_Z 48
_cell_length_a 32.093128
_cell_length_b 7.796815
_cell_length_c 11.306565
_cell_angle_alpha 90.000000
_cell_angle_beta 98.793378
_cell_angle_gamma 90.000000
_cell_volume 2795.922001
_symmetry_space_group_name_H-M "C 2/M"
_symmetry_group_IT_number 12
_symmetry_cell_setting 'monoclinic'
loop_
_space_group_symop_operation_xyz
x,y,z
-x,y,-z
-x,-y,-z
x,-y,z
1/2+x,1/2+y,z
1/2-x,1/2+y,-z
1/2-x,1/2-y,-z
1/2+x,1/2-y,z
loop_
_atom_site_type_symbol
_atom_site_label
_atom_site_fract_x
_atom_site_fract_y
_atom_site_fract_z
Si Si1 0.381316 0.299842 0.028084
Si Si2 0.774542 0.701284 0.351158
Si Si3 0.400101 0.701434 0.756327
Si Si4 0.443126 0.000000 0.090198
Si Si5 0.815017 0.800301 0.603534
Si Si6 0.462414 0.000000 0.816239
Si Si7 0.291262 0.295975 0.092592
O O1 0.387868 0.500000 0.064343
O O2 0.415130 0.169640 0.097898
O O3 0.334407 0.244959 0.046046
O O4 0.386184 0.290902 0.888167
O O5 0.773474 0.500000 0.380923
O O6 0.805402 0.784960 0.460436
O O7 0.727046 0.772032 0.351663
O O8 0.787944 0.721864 0.222510
O O9 0.409385 0.500000 0.733717
O O10 0.360044 0.767771 0.663791
O O11 0.439303 0.829453 0.758706
O O12 0.487392 0.000000 0.177278
O O13 0.453961 0.000000 0.954433
O O14 0.816975 0.000000 0.639508
O O15 0.292403 0.500000 0.104453
O O16 0.250000 0.250000 0.000000
#
# Coordination Sequence:
#
# PCOD9190752 Si02
#       7
#     8   8   8   4   8   4   8
#     4   9  19  33  49  72 101 136 168 200 250 300
#     4  10  20  32  48  71  98 132 172 205 245 293
#     4   9  17  31  50  72 102 131 162 207 253 299
#     4   9  18  32  50  71 105 133 163 212 247 307
#     4   9  18  33  48  68 100 133 166 206 250 296
#     4   9  18  30  48  79  99 127 173 202 255 310
#     4  11  22  34  49  71 100 133 171 207 241 292
#
# _framework density 17.167860999999998
#
# number of rings (size 3 to 8) (size 9 to 14) (size 15 to 20)
#    0.000    2.500    0.000    2.000    3.500    4.000 
#    3.000    3.333    0.000    0.000    0.000    2.333 
#    0.000    5.333    0.000    0.000    0.000    0.000 
#
# Total GULP energy -133773.732774 kJ/mol
# GULP energy per Si atom -5573.905532 kJ/mol
# Density = 1.712879 g / cm^3
# Si number density = 17.167861 Si / 1000 Ang^3
#
#
#
# Elastic Constant Matrix: (Units=GPa)
#
#
# Indices 1 2 3 4 5 6 
#
# 1 135.7489 57.3603 40.7060 0.0000 34.9284 0.0000
# 2 57.3603 70.6179 18.9184 0.0000 18.2996 0.0000
# 3 40.7060 18.9184 43.8365 0.0000 15.9780 0.0000
# 4 0.0000 0.0000 0.0000 21.1157 0.0000 3.7180
# 5 34.9284 18.2996 15.9780 0.0000 31.2408 0.0000
# 6 0.0000 0.0000 0.0000 3.7180 0.0000 23.7008
#
#
#
# Elastic Compliance Matrix: (Units=1/GPa)
#
#
# Indices 1 2 3 4 5 6 
#
# 1 0.015256 -0.008190 -0.007576 0.000000 -0.008385 0.000000
# 2 -0.008190 0.021837 -0.000608 0.000000 -0.003324 0.000000
# 3 -0.007576 -0.000608 0.033054 0.000000 -0.008079 0.000000
# 4 0.000000 0.000000 0.000000 0.048703 0.000000 -0.007640
# 5 -0.008385 -0.003324 -0.008079 0.000000 0.047464 0.000000
# 6 0.000000 0.000000 0.000000 -0.007640 0.000000 0.043391
#
#
# Mechanical properties :
#
#
# Convention : Reuss Voigt Hill
#
# Bulk Modulus (GPa) = 26.73760 53.79697 40.26729
# Shear Modulus (GPa) = 19.61402 24.09270 21.85336
#
# Velocity S-wave (km/s) = 3.38373 3.75021 3.57167
# Velocity P-wave (km/s) = 5.55646 7.08209 6.36515
#
# Compressibility (1/GPa) = 0.03740052
#
# Stress axis : x y z
#
# Youngs Moduli (GPa) = 65.54631 45.79367 30.25335
#
# Poissons Ratio (x) = 0.37503 0.22920
# Poissons Ratio (y) = 0.53680 0.01839
# Poissons Ratio (z) = 0.49659 0.02783
#
# Static dielectric constant tensor:
#      x y z
#    x 1.585840 0.000000 0.008780 
#    y 0.000000 1.625130 0.000000 
#    z 0.008780 0.000000 1.537260 
# 
# From -- ./inp_files/179350.got.cif
#   From: 2010.05.17/outbox.cif.g08.bks.cpg/sg12_90_cif.got.tgz:179350.got - 2010.06.03 13:09:07.
