data_PCOD9190235
_publ_section_title
;
Structure prediction by ZEFSAII (Michael W. Deem and Ramdas Pophale) SiO2 
 PCOD9190235
Probable space group: C 2/M
;
_chemical_formula_sum "Si O2"
_cell_formula_units_Z 60
_cell_length_a 11.714402
_cell_length_b 22.013637
_cell_length_c 21.725643
_cell_angle_alpha 90.000000
_cell_angle_beta 148.478253
_cell_angle_gamma 90.000000
_cell_volume 2929.129305
_symmetry_space_group_name_H-M "C 2/M"
_symmetry_group_IT_number 12
_symmetry_cell_setting 'monoclinic'
loop_
_space_group_symop_operation_xyz
x,y,z
-x,y,-z
-x,-y,-z
x,-y,z
1/2+x,1/2+y,z
1/2-x,1/2+y,-z
1/2-x,1/2-y,-z
1/2+x,1/2-y,z
loop_
_atom_site_type_symbol
_atom_site_label
_atom_site_fract_x
_atom_site_fract_y
_atom_site_fract_z
Si Si1 0.106238 0.711858 0.741861
Si Si2 0.757671 0.379869 0.630141
Si Si3 0.822796 0.566096 0.533956
Si Si4 0.652813 0.928762 0.190769
Si Si5 0.850020 0.070492 0.033212
Si Si6 0.000000 0.834791 0.000000
Si Si7 0.238411 0.879534 0.292311
Si Si8 0.523784 0.348740 0.320386
O O1 0.315300 0.705440 0.882580
O O2 0.174374 0.673205 0.713180
O O3 0.902406 0.679338 0.681885
O O4 0.044260 0.780196 0.697409
O O5 0.500000 0.370713 0.500000
O O6 0.838798 0.427056 0.614984
O O7 0.804315 0.404546 0.719822
O O8 0.731475 0.500000 0.476477
O O9 0.669968 0.619961 0.439997
O O10 0.057781 0.574993 0.611160
O O11 0.807418 0.889828 0.217909
O O12 0.705466 0.000000 0.212548
O O13 0.397710 0.921890 0.058341
O O14 0.033539 0.086737 0.167303
O O15 0.874926 0.000000 0.024518
O O16 0.888279 0.119276 0.996919
O O17 0.162524 0.853090 0.321980
#
# Coordination Sequence:
#
# PCOD9190235 Si02
#       8
#     8   8   8   8   8   4   8   8
#     4  10  25  42  67  96 128 169 225 272 320 384
#     4  11  22  41  68  98 129 167 216 278 324 380
#     4  11  24  42  66  95 130 173 218 268 325 387
#     4  11  24  41  65  99 132 170 217 270 333 386
#     4  10  21  39  67  98 132 166 214 271 325 386
#     4  10  19  42  66  96 129 168 218 270 328 374
#     4  10  25  43  63  97 130 171 219 265 324 389
#     4  12  26  42  65  92 132 181 215 266 322 395
#
# _framework density 20.483903000000002
#
# number of rings (size 3 to 8) (size 9 to 14) (size 15 to 20)
#    0.000    1.333    2.667    1.800    1.867    8.000 
#    0.000    4.000    0.000    0.000    0.000    0.000 
#    0.000    0.000    0.000    0.000    0.000    0.000 
#
# Total GULP energy -167683.621089 kJ/mol
# GULP energy per Si atom -5589.454036 kJ/mol
# Density = 2.043728 g / cm^3
# Si number density = 20.483903 Si / 1000 Ang^3
#
#
#
# Elastic Constant Matrix: (Units=GPa)
#
#
# Indices 1 2 3 4 5 6 
#
# 1 66.0779 21.0801 5.2961 -0.0005 15.6641 0.0052
# 2 21.0801 129.7534 40.9826 0.0021 11.8513 -0.0048
# 3 5.2961 40.9826 81.6806 0.0009 26.1259 0.0212
# 4 -0.0005 0.0021 0.0009 28.3122 0.0019 -0.5920
# 5 15.6641 11.8513 26.1259 0.0019 33.3785 0.0045
# 6 0.0052 -0.0048 0.0212 -0.5920 0.0045 71.6168
#
#
#
# Elastic Compliance Matrix: (Units=1/GPa)
#
#
# Indices 1 2 3 4 5 6 
#
# 1 0.018321 -0.003211 0.003746 0.000001 -0.010390 -0.000002
# 2 -0.003211 0.009726 -0.005402 -0.000001 0.002281 0.000002
# 3 0.003746 -0.005402 0.019555 0.000001 -0.015146 -0.000005
# 4 0.000001 -0.000001 0.000001 0.035327 -0.000003 0.000292
# 5 -0.010390 0.002281 -0.015146 -0.000003 0.045880 0.000002
# 6 -0.000002 0.000002 -0.000005 0.000292 0.000002 0.013966
#
#
# Mechanical properties :
#
#
# Convention : Reuss Voigt Hill
#
# Bulk Modulus (GPa) = 26.40636 45.80329 36.10483
# Shear Modulus (GPa) = 30.27930 40.67169 35.47550
#
# Velocity S-wave (km/s) = 3.84891 4.46078 4.16609
# Velocity P-wave (km/s) = 5.71589 6.99575 6.38796
#
# Compressibility (1/GPa) = 0.03786966
#
# Stress axis : x y z
#
# Youngs Moduli (GPa) = 54.58321 102.81431 51.13878
#
# Poissons Ratio (x) = 0.33011 -0.19158
# Poissons Ratio (y) = 0.17525 0.27623
# Poissons Ratio (z) = -0.20449 0.55536
#
# Static dielectric constant tensor:
#      x y z
#    x 1.721990 0.000000 -0.003020 
#    y 0.000000 1.698160 0.000000 
#    z -0.003020 0.000000 1.735030 
# 
# From -- ./inp_files/336895.got.cif
#   From: 2010.05.17/outbox.cif.g08.bks.cpg/sg12_169_cif.got.tgz:336895.got - 2010.06.03 13:09:07.
