data_PCOD9190882
_publ_section_title
;
Structure prediction by ZEFSAII (Michael W. Deem and Ramdas Pophale) SiO2 
 PCOD9190882
Probable space group: C 2/M
;
_chemical_formula_sum "Si O2"
_cell_formula_units_Z 56
_cell_length_a 14.470365
_cell_length_b 14.724590
_cell_length_c 27.013135
_cell_angle_alpha 90.000000
_cell_angle_beta 31.385649
_cell_angle_gamma 90.000000
_cell_volume 2997.541328
_symmetry_space_group_name_H-M "C 2/M"
_symmetry_group_IT_number 12
_symmetry_cell_setting 'monoclinic'
loop_
_space_group_symop_operation_xyz
x,y,z
-x,y,-z
-x,-y,-z
x,-y,z
1/2+x,1/2+y,z
1/2-x,1/2+y,-z
1/2-x,1/2-y,-z
1/2+x,1/2-y,z
loop_
_atom_site_type_symbol
_atom_site_label
_atom_site_fract_x
_atom_site_fract_y
_atom_site_fract_z
Si Si1 0.297244 0.654874 0.089278
Si Si2 0.808512 0.369127 0.068430
Si Si3 0.198532 0.796487 0.805859
Si Si4 0.151972 0.896339 0.241340
Si Si5 0.754863 0.890594 0.416810
Si Si6 0.620049 0.110188 0.370197
Si Si7 0.839076 0.098796 0.970029
O O1 0.305682 0.760691 0.072068
O O2 0.226644 0.656593 0.177571
O O3 0.500000 0.619225 0.000000
O O4 0.225017 0.609176 0.072526
O O5 0.669351 0.400385 0.173538
O O6 0.769609 0.397222 0.030707
O O7 0.000000 0.399491 0.000000
O O8 0.224053 0.687611 0.798660
O O9 0.293771 0.838507 0.715005
O O10 0.991631 0.824730 0.898377
O O11 0.950710 0.866058 0.345090
O O12 0.186747 0.000000 0.243438
O O13 0.586693 0.864393 0.527030
O O14 0.716424 0.863177 0.377653
O O15 0.752542 0.000000 0.416767
O O16 0.633365 0.000000 0.358484
O O17 0.929333 0.000000 0.930227
#
# Coordination Sequence:
#
# PCOD9190882 Si02
#       7
#     8   8   8   8   8   8   8
#     4   8  18  33  47  69 104 139 170 206 244 295
#     4  10  20  36  55  76 100 129 173 221 259 302
#     4  10  20  32  49  77 106 140 178 210 249 309
#     4  10  20  34  50  71 102 135 172 220 264 299
#     4   8  16  31  51  77 105 133 169 217 267 305
#     4   9  16  29  52  80 107 132 167 215 261 310
#     4  11  21  33  53  77 106 141 169 207 263 311
#
# _framework density 18.681978000000001
#
# number of rings (size 3 to 8) (size 9 to 14) (size 15 to 20)
#    0.000    2.571    0.000    3.857    0.000    6.000 
#    0.000    0.000    0.000    0.000    0.000   16.000 
#    0.000    0.000    0.000    1.571    0.000    0.286 
#
# Total GULP energy -155953.002451 kJ/mol
# GULP energy per Si atom -5569.750088 kJ/mol
# Density = 1.863946 g / cm^3
# Si number density = 18.681978 Si / 1000 Ang^3
#
#
#
# Elastic Constant Matrix: (Units=GPa)
#
#
# Indices 1 2 3 4 5 6 
#
# 1 77.1323 33.1529 27.1060 -0.0002 15.5872 0.0001
# 2 33.1529 81.6520 21.0327 0.0000 0.3310 0.0000
# 3 27.1060 21.0327 75.6351 0.0008 17.8539 -0.0002
# 4 -0.0002 0.0000 0.0008 22.9782 0.0001 7.8047
# 5 15.5872 0.3310 17.8539 0.0001 35.3171 -0.0001
# 6 0.0001 0.0000 -0.0002 7.8047 -0.0001 27.7966
#
#
#
# Elastic Compliance Matrix: (Units=1/GPa)
#
#
# Indices 1 2 3 4 5 6 
#
# 1 0.018179 -0.006531 -0.003201 0.000000 -0.006344 0.000000
# 2 -0.006531 0.015659 -0.003020 0.000000 0.004262 0.000000
# 3 -0.003201 -0.003020 0.016883 -0.000001 -0.007094 0.000000
# 4 0.000000 0.000000 -0.000001 0.048108 0.000000 -0.013508
# 5 -0.006344 0.004262 -0.007094 0.000000 0.034661 0.000000
# 6 0.000000 0.000000 0.000000 -0.013508 0.000000 0.039768
#
#
# Mechanical properties :
#
#
# Convention : Reuss Voigt Hill
#
# Bulk Modulus (GPa) = 39.65660 44.11140 41.88400
# Shear Modulus (GPa) = 24.13499 27.42689 25.78094
#
# Velocity S-wave (km/s) = 3.59818 3.83573 3.71885
# Velocity P-wave (km/s) = 6.20772 6.57876 6.39593
#
# Compressibility (1/GPa) = 0.02521648
#
# Stress axis : x y z
#
# Youngs Moduli (GPa) = 55.00937 63.85918 59.23097
#
# Poissons Ratio (x) = 0.41704 0.18962
# Poissons Ratio (y) = 0.35925 0.17889
# Poissons Ratio (z) = 0.17611 0.19287
#
# Static dielectric constant tensor:
#      x y z
#    x 1.693430 0.000000 -0.018500 
#    y 0.000000 1.660110 0.000000 
#    z -0.018500 0.000000 1.689470 
# 
# From -- ./inp_files/361410.got.cif
#   From: 2010.05.17/outbox.cif.g08.bks.cpg/sg12_181_cif.got.tgz:361410.got - 2010.06.03 13:09:07.
