data_PCOD9190811
_publ_section_title
;
Structure prediction by ZEFSAII (Michael W. Deem and Ramdas Pophale) SiO2 
 PCOD9190811
Probable space group: C 2/M
;
_chemical_formula_sum "Si O2"
_cell_formula_units_Z 64
_cell_length_a 15.053074
_cell_length_b 23.880092
_cell_length_c 18.375888
_cell_angle_alpha 90.000000
_cell_angle_beta 149.398704
_cell_angle_gamma 90.000000
_cell_volume 3362.631335
_symmetry_space_group_name_H-M "C 2/M"
_symmetry_group_IT_number 12
_symmetry_cell_setting 'monoclinic'
loop_
_space_group_symop_operation_xyz
x,y,z
-x,y,-z
-x,-y,-z
x,-y,z
1/2+x,1/2+y,z
1/2-x,1/2+y,-z
1/2-x,1/2-y,-z
1/2+x,1/2-y,z
loop_
_atom_site_type_symbol
_atom_site_label
_atom_site_fract_x
_atom_site_fract_y
_atom_site_fract_z
Si Si1 0.824761 0.241041 0.830201
Si Si2 0.168347 0.437048 0.451801
Si Si3 0.475203 0.814182 0.641651
Si Si4 0.875068 0.566269 0.979258
Si Si5 0.399796 0.659914 0.363835
Si Si6 0.307654 0.062582 0.703822
Si Si7 0.141447 0.230736 0.318919
Si Si8 0.001415 0.122818 0.714083
O O1 0.667182 0.203167 0.750261
O O2 0.747601 0.303672 0.778529
O O3 0.853841 0.234167 0.764395
O O4 0.000000 0.234252 0.000000
O O5 0.105674 0.500000 0.427658
O O6 0.051174 0.381270 0.379441
O O7 0.206389 0.438871 0.392267
O O8 0.349193 0.422060 0.620348
O O9 0.329983 0.785992 0.485988
O O10 0.429711 0.785522 0.688041
O O11 0.840864 0.500000 0.948236
O O12 0.993754 0.575852 0.133706
O O13 0.692447 0.597196 0.852113
O O14 0.000000 0.582362 0.000000
O O15 0.500000 0.691029 0.500000
O O16 0.315665 0.606461 0.343364
O O17 0.528006 0.643681 0.389624
O O18 0.268441 0.000000 0.704946
O O19 0.020234 0.177892 0.253472
#
# Coordination Sequence:
#
# PCOD9190811 Si02
#       8
#     8   8   8   8   8   8   8   8
#     4  12  27  41  64  92 123 159 206 257 313 370
#     4  10  21  37  60  91 120 156 208 256 300 359
#     4  10  21  42  66  91 121 165 203 252 314 359
#     4  10  20  32  48  75 120 166 200 242 298 356
#     4  12  22  36  56  85 121 165 200 249 292 363
#     4  10  21  33  50  81 121 168 204 239 293 355
#     4  10  22  41  64  89 121 163 207 252 305 371
#     4  11  21  35  59  88 119 162 206 252 302 353
#
# _framework density 19.032713000000001
#
# number of rings (size 3 to 8) (size 9 to 14) (size 15 to 20)
#    0.000    1.375    3.750    2.250    3.500    2.250 
#    0.000    0.000    0.000    7.125    0.000    0.000 
#    0.000    0.000    0.000    0.000    0.000    0.000 
#
# Total GULP energy -178630.874483 kJ/mol
# GULP energy per Si atom -5582.214828 kJ/mol
# Density = 1.898939 g / cm^3
# Si number density = 19.032713 Si / 1000 Ang^3
#
#
#
# Elastic Constant Matrix: (Units=GPa)
#
#
# Indices 1 2 3 4 5 6 
#
# 1 77.7380 41.0164 48.5966 0.0004 2.1650 0.0001
# 2 41.0164 128.3308 58.1469 0.0002 15.5373 0.0001
# 3 48.5966 58.1469 93.1895 0.0072 18.4955 -0.0001
# 4 0.0004 0.0002 0.0072 25.6960 0.0010 9.1205
# 5 2.1650 15.5373 18.4955 0.0010 28.0719 -0.0001
# 6 0.0001 0.0001 -0.0001 9.1205 -0.0001 27.9867
#
#
#
# Elastic Compliance Matrix: (Units=1/GPa)
#
#
# Indices 1 2 3 4 5 6 
#
# 1 0.020598 -0.002686 -0.010406 0.000003 0.006754 -0.000001
# 2 -0.002686 0.011292 -0.005114 0.000002 -0.002673 -0.000001
# 3 -0.010406 -0.005114 0.021430 -0.000006 -0.010486 0.000002
# 4 0.000003 0.000002 -0.000006 0.044007 0.000001 -0.014341
# 5 0.006754 -0.002673 -0.010486 0.000001 0.043490 0.000000
# 6 -0.000001 -0.000001 0.000002 -0.014341 0.000000 0.040405
#
#
# Mechanical properties :
#
#
# Convention : Reuss Voigt Hill
#
# Bulk Modulus (GPa) = 59.14883 66.08647 62.61765
# Shear Modulus (GPa) = 22.39440 26.45081 24.42260
#
# Velocity S-wave (km/s) = 3.43392 3.73199 3.58605
# Velocity P-wave (km/s) = 6.84597 7.30536 7.07939
#
# Compressibility (1/GPa) = 0.01690651
#
# Stress axis : x y z
#
# Youngs Moduli (GPa) = 48.54830 88.55911 46.66423
#
# Poissons Ratio (x) = 0.23789 0.48558
# Poissons Ratio (y) = 0.13041 0.23866
# Poissons Ratio (z) = 0.50519 0.45293
#
# Static dielectric constant tensor:
#      x y z
#    x 1.677960 0.000000 -0.012890 
#    y 0.000000 1.716210 0.000000 
#    z -0.012890 0.000000 1.697000 
# 
# From -- ./inp_files/272870.got.cif
#   From: 2010.05.17/outbox.cif.g08.bks.cpg/sg12_137_cif.got.tgz:272870.got - 2010.06.03 13:09:07.
