data_PCOD9190691
_publ_section_title
;
Structure prediction by ZEFSAII (Michael W. Deem and Ramdas Pophale) SiO2 
 PCOD9190691
Probable space group: C 2/M
;
_chemical_formula_sum "Si O2"
_cell_formula_units_Z 56
_cell_length_a 19.600929
_cell_length_b 7.521255
_cell_length_c 16.634831
_cell_angle_alpha 90.000000
_cell_angle_beta 89.331851
_cell_angle_gamma 90.000000
_cell_volume 2452.199681
_symmetry_space_group_name_H-M "C 2/M"
_symmetry_group_IT_number 12
_symmetry_cell_setting 'monoclinic'
loop_
_space_group_symop_operation_xyz
x,y,z
-x,y,-z
-x,-y,-z
x,-y,z
1/2+x,1/2+y,z
1/2-x,1/2+y,-z
1/2-x,1/2-y,-z
1/2+x,1/2-y,z
loop_
_atom_site_type_symbol
_atom_site_label
_atom_site_fract_x
_atom_site_fract_y
_atom_site_fract_z
Si Si1 0.329777 0.287920 0.494598
Si Si2 0.041720 0.214979 0.420120
Si Si3 0.195360 0.294452 0.244031
Si Si4 0.831285 0.217392 0.317948
Si Si5 0.219649 0.287721 0.913584
Si Si6 0.455986 0.209152 0.759265
Si Si7 0.084971 0.704667 0.841377
O O1 0.337038 0.500000 0.494773
O O2 0.250000 0.250000 0.500000
O O3 0.380419 0.223534 0.563192
O O4 0.353831 0.227068 0.406050
O O5 0.018679 0.277261 0.333102
O O6 0.000000 0.269685 0.500000
O O7 0.038056 0.000000 0.416802
O O8 0.186246 0.500000 0.267485
O O9 0.253106 0.221994 0.303330
O O10 0.231716 0.287169 0.156683
O O11 0.120313 0.212421 0.239970
O O12 0.876000 0.289988 0.244870
O O13 0.833343 0.000000 0.313041
O O14 0.217538 0.500000 0.901374
O O15 0.142153 0.218871 0.900638
O O16 0.250000 0.250000 0.000000
O O17 0.511372 0.285498 0.820880
O O18 0.450243 0.000000 0.779178
O O19 0.073744 0.500000 0.866127
#
# Coordination Sequence:
#
# PCOD9190691 Si02
#       7
#     8   8   8   8   8   8   8
#     4  10  20  32  47  69  97 130 170 216 262 303
#     4  10  21  35  50  71 102 140 179 219 263 307
#     4   9  18  33  54  78 103 133 169 209 254 302
#     4   9  17  31  50  70  94 129 171 210 250 299
#     4  10  20  36  58  82 107 133 164 202 246 301
#     4  10  20  35  54  76 103 135 173 215 258 304
#     4   9  19  34  53  77 101 128 164 205 248 296
#
# _framework density 22.836639000000002
#
# number of rings (size 3 to 8) (size 9 to 14) (size 15 to 20)
#    0.000    2.429    0.000    2.143    0.000    5.429 
#    0.000    3.571    0.000    4.286    0.000    0.000 
#    0.000    0.000    0.000    0.000    0.000    0.000 
#
# Total GULP energy -156298.660675 kJ/mol
# GULP energy per Si atom -5582.095024 kJ/mol
# Density = 2.278466 g / cm^3
# Si number density = 22.836639 Si / 1000 Ang^3
#
#
#
# Elastic Constant Matrix: (Units=GPa)
#
#
# Indices 1 2 3 4 5 6 
#
# 1 117.6736 0.5979 20.3518 0.0000 38.1968 0.0000
# 2 0.5979 66.4248 -6.6466 0.0000 4.4820 0.0000
# 3 20.3518 -6.6466 87.2170 0.0000 39.6652 0.0000
# 4 0.0000 0.0000 0.0000 13.6542 0.0000 -7.8076
# 5 38.1968 4.4820 39.6652 0.0000 40.3447 0.0000
# 6 0.0000 0.0000 0.0000 -7.8076 0.0000 6.8187
#
#
#
# Elastic Compliance Matrix: (Units=1/GPa)
#
#
# Indices 1 2 3 4 5 6 
#
# 1 0.013429 0.001608 0.005159 0.000000 -0.017965 0.000000
# 2 0.001608 0.015967 0.004233 0.000000 -0.007458 0.000000
# 3 0.005159 0.004233 0.023549 0.000000 -0.028507 0.000000
# 4 0.000000 0.000000 0.000000 0.212118 0.000000 0.242881
# 5 -0.017965 -0.007458 -0.028507 0.000000 0.070650 0.000000
# 6 0.000000 0.000000 0.000000 0.242881 0.000000 0.424760
#
#
# Mechanical properties :
#
#
# Convention : Reuss Voigt Hill
#
# Bulk Modulus (GPa) = 13.34309 33.32464 23.33387
# Shear Modulus (GPa) = 6.54917 29.29769 17.92343
#
# Velocity S-wave (km/s) = 1.69531 3.58568 2.80456
# Velocity P-wave (km/s) = 3.11249 5.63623 4.55273
#
# Compressibility (1/GPa) = 0.07494514
#
# Stress axis : x y z
#
# Youngs Moduli (GPa) = 74.46562 62.62928 42.46438
#
# Poissons Ratio (x) = -0.10068 -0.21908
# Poissons Ratio (y) = -0.11970 -0.17977
# Poissons Ratio (z) = -0.38417 -0.26514
#
# Static dielectric constant tensor:
#      x y z
#    x 1.953380 0.000000 0.050640 
#    y 0.000000 1.872610 0.000000 
#    z 0.050640 0.000000 1.815120 
# 
# From -- ./inp_files/280383.got.cif
#   From: 2010.05.17/outbox.cif.g08.bks.cpg/sg12_141_cif.got.tgz:280383.got - 2010.06.03 13:09:07.
