data_PCOD9190472
_publ_section_title
;
Structure prediction by ZEFSAII (Michael W. Deem and Ramdas Pophale) SiO2 
 PCOD9190472
Probable space group: C 2/M
;
_chemical_formula_sum "Si O2"
_cell_formula_units_Z 40
_cell_length_a 12.578223
_cell_length_b 21.265559
_cell_length_c 14.761199
_cell_angle_alpha 90.000000
_cell_angle_beta 151.904695
_cell_angle_gamma 90.000000
_cell_volume 1859.443278
_symmetry_space_group_name_H-M "C 2/M"
_symmetry_group_IT_number 12
_symmetry_cell_setting 'monoclinic'
loop_
_space_group_symop_operation_xyz
x,y,z
-x,y,-z
-x,-y,-z
x,-y,z
1/2+x,1/2+y,z
1/2-x,1/2+y,-z
1/2-x,1/2-y,-z
1/2+x,1/2-y,z
loop_
_atom_site_type_symbol
_atom_site_label
_atom_site_fract_x
_atom_site_fract_y
_atom_site_fract_z
Si Si1 0.597308 0.315802 0.175145
Si Si2 0.233342 0.429376 0.773608
Si Si3 0.750953 0.176795 0.283537
Si Si4 0.943457 0.341116 0.682449
Si Si5 0.941194 0.195016 0.244258
O O1 0.749970 0.377889 0.293532
O O2 0.728681 0.251193 0.289641
O O3 0.414677 0.319455 0.118127
O O4 0.500000 0.310696 0.000000
O O5 0.154596 0.500000 0.696704
O O6 0.085657 0.394549 0.738975
O O7 0.500000 0.434823 0.000000
O O8 0.580529 0.147137 0.227636
O O9 0.000000 0.155590 0.500000
O O10 0.756620 0.172818 0.178760
O O11 0.036284 0.270747 0.730451
O O12 0.683955 0.335103 0.452058
#
# Coordination Sequence:
#
# PCOD9190472 Si02
#       5
#     8   8   8   8   8
#     4  10  20  31  48  79 111 141 178 214 267 321
#     4  10  21  37  53  74 111 151 184 220 260 314
#     4   9  17  32  55  81 110 139 167 224 282 322
#     4   9  17  32  56  80 103 145 181 217 272 320
#     4   9  17  31  55  79 113 136 169 227 277 323
#
# _framework density 21.511814999999999
#
# number of rings (size 3 to 8) (size 9 to 14) (size 15 to 20)
#    0.000    2.600    2.000    1.200    0.000    0.800 
#    3.600    2.000    0.000    6.600    0.000    7.000 
#    0.000    0.000    0.000    0.000    0.000    0.600 
#
# Total GULP energy -111526.520362 kJ/mol
# GULP energy per Si atom -5576.326018 kJ/mol
# Density = 2.146285 g / cm^3
# Si number density = 21.511815 Si / 1000 Ang^3
#
#
#
# Elastic Constant Matrix: (Units=GPa)
#
#
# Indices 1 2 3 4 5 6 
#
# 1 234.1473 42.7540 48.0576 0.0000 5.6782 -0.0001
# 2 42.7540 105.3224 9.0855 0.0000 14.4228 0.0000
# 3 48.0576 9.0855 81.2953 0.0000 2.0159 -0.0001
# 4 0.0000 0.0000 0.0000 0.0080 0.0000 2.9120
# 5 5.6782 14.4228 2.0159 0.0000 38.2937 -0.0001
# 6 -0.0001 0.0000 -0.0001 2.9120 -0.0001 12.1280
#
#
#
# Elastic Compliance Matrix: (Units=1/GPa)
#
#
# Indices 1 2 3 4 5 6 
#
# 1 0.005199 -0.001875 -0.002866 0.000000 0.000086 0.000000
# 2 -0.001875 0.010774 -0.000002 0.000000 -0.003780 0.000000
# 3 -0.002866 -0.000002 0.014003 0.000001 -0.000311 0.000000
# 4 0.000000 0.000000 0.000001 -1.446663 0.000002 0.347357
# 5 0.000086 -0.003780 -0.000311 0.000002 0.027541 0.000000
# 6 0.000000 0.000000 0.000000 0.347357 0.000000 -0.000950
#
#
# Mechanical properties :
#
#
# Convention : Reuss Voigt Hill
#
# Bulk Modulus (GPa) = 48.80490 68.95103 58.87797
# Shear Modulus (GPa) = -3.63959 31.47712 13.91876
#
# Velocity S-wave (km/s) = -1.30214 3.82939 2.54644
# Velocity P-wave (km/s) = 4.52504 7.18850 6.00627
#
# Compressibility (1/GPa) = 0.02048974
#
# Stress axis : x y z
#
# Youngs Moduli (GPa) = 192.33013 92.81957 71.41270
#
# Poissons Ratio (x) = 0.17405 0.20468
# Poissons Ratio (y) = 0.36065 0.00013
# Poissons Ratio (z) = 0.55125 0.00017
#
# Static dielectric constant tensor:
#      x y z
#    x 1.850790 0.000000 -0.022120 
#    y 0.000000 1.752570 0.000000 
#    z -0.022120 0.000000 1.946370 
# 
# From -- ./inp_files/207141.got.cif
#   From: 2010.05.17/outbox.cif.g08.bks.cpg/sg12_104_cif.got.tgz:207141.got - 2010.06.03 13:09:07.
