data_PCOD9190046
_publ_section_title
;
Structure prediction by ZEFSAII (Michael W. Deem and Ramdas Pophale) SiO2 
 PCOD9190046
Probable space group: C 2/M
;
_chemical_formula_sum "Si O2"
_cell_formula_units_Z 44
_cell_length_a 13.672426
_cell_length_b 19.865994
_cell_length_c 14.763017
_cell_angle_alpha 90.000000
_cell_angle_beta 149.029282
_cell_angle_gamma 90.000000
_cell_volume 2063.482217
_symmetry_space_group_name_H-M "C 2/M"
_symmetry_group_IT_number 12
_symmetry_cell_setting 'monoclinic'
loop_
_space_group_symop_operation_xyz
x,y,z
-x,y,-z
-x,-y,-z
x,-y,z
1/2+x,1/2+y,z
1/2-x,1/2+y,-z
1/2-x,1/2-y,-z
1/2+x,1/2-y,z
loop_
_atom_site_type_symbol
_atom_site_label
_atom_site_fract_x
_atom_site_fract_y
_atom_site_fract_z
Si Si1 0.847006 0.304506 0.011685
Si Si2 0.820350 0.000000 0.516893
Si Si3 0.380505 0.000000 0.317171
Si Si4 0.539809 0.500000 0.175607
Si Si5 0.000000 0.785472 0.000000
Si Si6 0.769281 0.388035 0.109738
Si Si7 0.589330 0.620560 0.659733
Si Si8 0.349053 0.000000 0.799223
O O1 0.883818 0.362232 0.113626
O O2 0.698499 0.332791 0.818919
O O3 0.020214 0.267015 0.099573
O O4 0.750000 0.250000 0.000000
O O5 0.940309 0.931626 0.588101
O O6 0.823586 0.000000 0.628327
O O7 0.644525 0.000000 0.305713
O O8 0.500000 0.000000 0.500000
O O9 0.166364 0.000000 0.186331
O O10 0.402937 0.933931 0.276190
O O11 0.401814 0.435115 0.063746
O O12 0.830791 0.832848 0.903325
O O13 0.500000 0.656361 0.500000
O O14 0.736347 0.567820 0.733313
O O15 0.500000 0.000000 0.000000
#
# Coordination Sequence:
#
# PCOD9190046 Si02
#       8
#     8   4   4   4   4   8   8   4
#     4  10  21  35  61  86 114 156 208 243 280 357
#     4   9  17  33  57  87 111 148 189 239 303 361
#     4  11  23  38  61  94 120 152 190 260 321 351
#     4  11  17  35  67  85 117 154 194 251 307 362
#     4  10  20  37  58  91 114 160 210 236 294 352
#     4  10  19  39  65  86 117 158 203 246 302 364
#     4   9  18  35  55  80 114 150 190 236 296 351
#     4   9  19  32  53  82 118 149 180 238 307 352
#
# _framework density 21.323177000000001
#
# number of rings (size 3 to 8) (size 9 to 14) (size 15 to 20)
#    0.000    2.182    3.636    1.636    1.273    0.000 
#    3.273    3.636    0.000    3.273    0.000    0.000 
#    0.000    0.000    0.000    0.000    0.000    0.000 
#
# Total GULP energy -122485.377150 kJ/mol
# GULP energy per Si atom -5567.517143 kJ/mol
# Density = 2.127464 g / cm^3
# Si number density = 21.323177 Si / 1000 Ang^3
#
#
#
# Elastic Constant Matrix: (Units=GPa)
#
#
# Indices 1 2 3 4 5 6 
#
# 1 114.5487 50.3140 33.0171 0.0000 -34.2906 0.0000
# 2 50.3140 102.6926 43.4061 0.0000 -22.9940 0.0000
# 3 33.0171 43.4061 129.7586 0.0000 -48.5765 0.0001
# 4 0.0000 0.0000 0.0000 10.2994 0.0000 -14.7968
# 5 -34.2906 -22.9940 -48.5765 0.0000 39.2479 0.0000
# 6 0.0000 0.0000 0.0001 -14.7968 0.0000 20.4371
#
#
#
# Elastic Compliance Matrix: (Units=1/GPa)
#
#
# Indices 1 2 3 4 5 6 
#
# 1 0.014040 -0.005264 0.003030 0.000000 0.012933 0.000000
# 2 -0.005264 0.013600 -0.003631 0.000000 -0.001126 0.000000
# 3 0.003030 -0.003631 0.015550 0.000002 0.019765 0.000001
# 4 0.000000 0.000000 0.000002 -2.417549 0.000003 -1.750342
# 5 0.012933 -0.001126 0.019765 0.000003 0.060582 0.000002
# 6 0.000000 0.000000 0.000001 -1.750342 0.000002 -1.218344
#
#
# Mechanical properties :
#
#
# Convention : Reuss Voigt Hill
#
# Bulk Modulus (GPa) = 31.78741 66.71937 49.25339
# Shear Modulus (GPa) = -1.42454 28.68105 13.62825
#
# Velocity S-wave (km/s) = -0.81824 3.67149 2.53084
# Velocity P-wave (km/s) = 3.74795 7.02358 5.62929
#
# Compressibility (1/GPa) = 0.03145899
#
# Stress axis : x y z
#
# Youngs Moduli (GPa) = 71.22409 73.53157 64.30948
#
# Poissons Ratio (x) = 0.38706 -0.19485
# Poissons Ratio (y) = 0.37491 0.23353
# Poissons Ratio (z) = -0.21580 0.26702
#
# Static dielectric constant tensor:
#      x y z
#    x 1.820120 0.000000 0.006520 
#    y 0.000000 1.835160 0.000000 
#    z 0.006520 0.000000 1.841890 
# 
# From -- ./inp_files/218352.got.cif
#   From: 2010.05.17/outbox.cif.g08.bks.cpg/sg12_110_cif.got.tgz:218352.got - 2010.06.03 13:09:07.
