data_PCOD9190002
_publ_section_title
;
Structure prediction by ZEFSAII (Michael W. Deem and Ramdas Pophale) SiO2 
 PCOD9190002
Probable space group: C 2/M
;
_chemical_formula_sum "Si O2"
_cell_formula_units_Z 52
_cell_length_a 14.996081
_cell_length_b 9.251501
_cell_length_c 25.032088
_cell_angle_alpha 90.000000
_cell_angle_beta 133.912463
_cell_angle_gamma 90.000000
_cell_volume 2501.847990
_symmetry_space_group_name_H-M "C 2/M"
_symmetry_group_IT_number 12
_symmetry_cell_setting 'monoclinic'
loop_
_space_group_symop_operation_xyz
x,y,z
-x,y,-z
-x,-y,-z
x,-y,z
1/2+x,1/2+y,z
1/2-x,1/2+y,-z
1/2-x,1/2-y,-z
1/2+x,1/2-y,z
loop_
_atom_site_type_symbol
_atom_site_label
_atom_site_fract_x
_atom_site_fract_y
_atom_site_fract_z
Si Si1 0.768978 0.332259 0.794007
Si Si2 0.692529 0.000000 0.888364
Si Si3 0.146305 0.000000 0.942374
Si Si4 0.368342 0.500000 0.861354
Si Si5 0.096321 0.199935 0.825258
Si Si6 0.849489 0.161624 0.664297
Si Si7 0.119150 0.172877 0.440701
Si Si8 0.367307 0.333847 0.376918
O O1 0.830209 0.500000 0.818706
O O2 0.682148 0.338400 0.810430
O O3 0.691199 0.328601 0.706982
O O4 0.829985 0.165744 0.822978
O O5 0.607588 0.133178 0.839509
O O6 0.807542 0.000000 0.894738
O O7 0.745153 0.000000 0.969839
O O8 0.145872 0.869473 0.900178
O O9 0.015838 0.000000 0.918874
O O10 0.955174 0.163212 0.753127
O O11 0.915525 0.196476 0.635900
O O12 0.733476 0.260884 0.627768
O O13 0.800202 0.000000 0.639514
O O14 0.250000 0.250000 0.500000
O O15 0.006244 0.227488 0.430162
O O16 0.131287 0.000000 0.454076
O O17 0.379135 0.500000 0.397936
#
# Coordination Sequence:
#
# PCOD9190002 Si02
#       8
#     8   4   4   4   8   8   8   8
#     4  10  19  39  62  91 125 168 213 271 321 378
#     4  10  25  40  60  91 127 165 215 261 326 394
#     4  12  21  40  64  89 126 168 205 270 330 380
#     4  10  23  38  62  92 127 166 217 269 329 386
#     4  11  21  39  65  89 123 166 215 263 319 379
#     4  11  22  40  65  93 123 165 215 259 313 376
#     4  10  23  44  64  91 130 168 203 255 317 379
#     4  10  22  38  62  91 127 161 210 262 313 370
#
# _framework density 20.784635000000002
#
# number of rings (size 3 to 8) (size 9 to 14) (size 15 to 20)
#    0.000    1.538    3.077    1.615    2.154    1.846 
#    1.385    3.077    0.000    1.846    0.000    0.000 
#    0.000    0.000    0.000    0.000    0.000    0.000 
#
# Total GULP energy -144813.329924 kJ/mol
# GULP energy per Si atom -5569.743459 kJ/mol
# Density = 2.073733 g / cm^3
# Si number density = 20.784635 Si / 1000 Ang^3
#
#
#
# Elastic Constant Matrix: (Units=GPa)
#
#
# Indices 1 2 3 4 5 6 
#
# 1 53.5853 27.0154 -4.2036 0.0000 13.3558 0.0000
# 2 27.0154 119.5606 11.2662 0.0000 10.9628 0.0000
# 3 -4.2036 11.2662 39.8131 0.0000 1.8705 0.0000
# 4 0.0000 0.0000 0.0000 19.4170 0.0000 -3.8587
# 5 13.3558 10.9628 1.8705 0.0000 30.4099 0.0000
# 6 0.0000 0.0000 0.0000 -3.8587 0.0000 25.0434
#
#
#
# Elastic Compliance Matrix: (Units=1/GPa)
#
#
# Indices 1 2 3 4 5 6 
#
# 1 0.023714 -0.004950 0.004322 0.000000 -0.008896 0.000000
# 2 -0.004950 0.009900 -0.003268 0.000000 -0.001194 0.000000
# 3 0.004322 -0.003268 0.026609 0.000000 -0.002357 0.000000
# 4 0.000000 0.000000 0.000000 0.053128 0.000000 0.008186
# 5 -0.008896 -0.001194 -0.002357 0.000000 0.037367 0.000000
# 6 0.000000 0.000000 0.000000 0.008186 0.000000 0.041192
#
#
# Mechanical properties :
#
#
# Convention : Reuss Voigt Hill
#
# Bulk Modulus (GPa) = 19.07229 31.23502 25.15366
# Shear Modulus (GPa) = 23.02263 26.89946 24.96105
#
# Velocity S-wave (km/s) = 3.33179 3.60140 3.46921
# Velocity P-wave (km/s) = 4.89869 5.68806 5.30807
#
# Compressibility (1/GPa) = 0.05243209
#
# Stress axis : x y z
#
# Youngs Moduli (GPa) = 42.16962 101.01197 37.58095
#
# Poissons Ratio (x) = 0.49999 -0.16244
# Poissons Ratio (y) = 0.20873 0.12281
# Poissons Ratio (z) = -0.18228 0.33010
#
# Static dielectric constant tensor:
#      x y z
#    x 1.770580 0.000000 -0.020850 
#    y 0.000000 1.483230 0.000000 
#    z -0.020850 0.000000 1.724330 
# 
# From -- ./inp_files/375736.got.cif
#   From: 2010.05.17/outbox.cif.g08.bks.cpg/sg12_188_cif.got.tgz:375736.got - 2010.06.03 13:09:07.
