data_PCOD9190620
_publ_section_title
;
Structure prediction by ZEFSAII (Michael W. Deem and Ramdas Pophale) SiO2 
 PCOD9190620
Probable space group: C 2/M
;
_chemical_formula_sum "Si O2"
_cell_formula_units_Z 40
_cell_length_a 27.923705
_cell_length_b 8.097741
_cell_length_c 28.230972
_cell_angle_alpha 90.000000
_cell_angle_beta 165.716410
_cell_angle_gamma 90.000000
_cell_volume 1574.960606
_symmetry_space_group_name_H-M "C 2/M"
_symmetry_group_IT_number 12
_symmetry_cell_setting 'monoclinic'
loop_
_space_group_symop_operation_xyz
x,y,z
-x,y,-z
-x,-y,-z
x,-y,z
1/2+x,1/2+y,z
1/2-x,1/2+y,-z
1/2-x,1/2-y,-z
1/2+x,1/2-y,z
loop_
_atom_site_type_symbol
_atom_site_label
_atom_site_fract_x
_atom_site_fract_y
_atom_site_fract_z
Si Si1 0.505709 0.313268 0.452133
Si Si2 0.112491 0.180656 0.059429
Si Si3 0.997599 0.800530 0.340665
Si Si4 0.477454 0.697709 0.219074
Si Si5 0.030274 0.306853 0.889707
O O1 0.500000 0.235190 0.500000
O O2 0.585607 0.500000 0.533792
O O3 0.275759 0.317671 0.220793
O O4 0.571993 0.242812 0.463818
O O5 0.205387 0.000000 0.141333
O O6 0.969169 0.215248 0.878769
O O7 0.000000 0.177843 0.000000
O O8 0.062086 0.737550 0.350294
O O9 0.024596 0.000000 0.367295
O O10 0.763569 0.770499 0.113327
O O11 0.486095 0.500000 0.228232
O O12 0.553755 0.758335 0.241531
O O13 0.250000 0.750000 0.000000
O O14 0.002623 0.500000 0.868974
#
# Coordination Sequence:
#
# PCOD9190620 Si02
#       5
#     8   8   8   8   8
#     4   9  17  30  48  69  93 121 153 187 223 267
#     4  10  20  32  46  66  92 121 153 188 227 272
#     4   7  12  22  36  57  84 112 141 174 214 261
#     4   9  14  21  35  56  84 115 145 178 220 268
#     4   9  16  26  40  59  84 113 146 184 227 271
#
# _framework density 25.397462999999998
#
# number of rings (size 3 to 8) (size 9 to 14) (size 15 to 20)
#    0.000    3.200    0.000    4.200    0.000    2.000 
#    0.000    1.000    0.000    0.000    0.000    1.400 
#    0.000    0.000    0.000    0.000    0.000    0.000 
#
# Total GULP energy -111443.114343 kJ/mol
# GULP energy per Si atom -5572.155717 kJ/mol
# Density = 2.533966 g / cm^3
# Si number density = 25.397463 Si / 1000 Ang^3
#
#
#
# Elastic Constant Matrix: (Units=GPa)
#
#
# Indices 1 2 3 4 5 6 
#
# 1 284.6129 29.9303 39.3634 -0.0094 -79.5266 -0.0011
# 2 29.9303 62.5320 -4.4204 -0.0224 -4.0041 -0.0052
# 3 39.3634 -4.4204 103.3103 -0.0453 -37.8689 -0.0136
# 4 -0.0094 -0.0224 -0.0453 3.0188 -0.0159 -9.7650
# 5 -79.5266 -4.0041 -37.8689 -0.0159 47.9304 -0.0008
# 6 -0.0011 -0.0052 -0.0136 -9.7650 -0.0008 25.5771
#
#
#
# Elastic Compliance Matrix: (Units=1/GPa)
#
#
# Indices 1 2 3 4 5 6 
#
# 1 0.007243 -0.002460 0.002061 -0.000468 0.013440 -0.000178
# 2 -0.002460 0.017118 0.000982 -0.000581 -0.001877 -0.000218
# 3 0.002061 0.000982 0.014385 -0.001424 0.014867 -0.000535
# 4 -0.000468 -0.000581 -0.001424 -1.409448 -0.002426 -0.538110
# 5 0.013440 -0.001877 0.014867 -0.002426 0.054752 -0.000916
# 6 -0.000178 -0.000218 -0.000535 -0.538110 -0.000916 -0.166346
#
#
# Mechanical properties :
#
#
# Convention : Reuss Voigt Hill
#
# Bulk Modulus (GPa) = 25.05555 64.46687 44.76121
# Shear Modulus (GPa) = -3.40100 41.01071 18.80486
#
# Velocity S-wave (km/s) = -1.15845 4.02276 2.72402
# Velocity P-wave (km/s) = 2.84560 6.85676 5.24941
#
# Compressibility (1/GPa) = 0.03991131
#
# Stress axis : x y z
#
# Youngs Moduli (GPa) = 138.07307 58.41649 69.51641
#
# Poissons Ratio (x) = 0.14373 -0.14330
# Poissons Ratio (y) = 0.33972 -0.06824
# Poissons Ratio (z) = -0.28462 -0.05735
#
# Static dielectric constant tensor:
#      x y z
#    x 2.200540 0.000000 0.031150 
#    y 0.000000 1.974280 0.000010 
#    z 0.031150 0.000010 2.082270 
# 
# From -- ./inp_files/107518.got.cif
#   From: 2010.05.17/outbox.cif.g08.bks.cpg/sg12_54_cif.got.tgz:107518.got - 2010.06.03 13:09:07.
