data_PCOD9190906
_publ_section_title
;
Structure prediction by ZEFSAII (Michael W. Deem and Ramdas Pophale) SiO2 
 PCOD9190906
Probable space group: C 2/M
;
_chemical_formula_sum "Si O2"
_cell_formula_units_Z 52
_cell_length_a 32.901943
_cell_length_b 17.674483
_cell_length_c 6.464467
_cell_angle_alpha 90.000000
_cell_angle_beta 54.209469
_cell_angle_gamma 90.000000
_cell_volume 3049.353487
_symmetry_space_group_name_H-M "C 2/M"
_symmetry_group_IT_number 12
_symmetry_cell_setting 'monoclinic'
loop_
_space_group_symop_operation_xyz
x,y,z
-x,y,-z
-x,-y,-z
x,-y,z
1/2+x,1/2+y,z
1/2-x,1/2+y,-z
1/2-x,1/2-y,-z
1/2+x,1/2-y,z
loop_
_atom_site_type_symbol
_atom_site_label
_atom_site_fract_x
_atom_site_fract_y
_atom_site_fract_z
Si Si1 0.584968 0.695140 0.956879
Si Si2 0.426146 0.586806 0.391775
Si Si3 0.768340 0.412278 0.780472
Si Si4 0.347402 0.586604 0.966996
Si Si5 0.000000 0.158200 0.500000
Si Si6 0.677315 0.217192 0.638057
Si Si7 0.256085 0.808095 0.172699
O O1 0.569298 0.646650 0.804753
O O2 0.623444 0.642941 0.972229
O O3 0.618434 0.767449 0.801726
O O4 0.537508 0.706367 0.246125
O O5 0.431998 0.500000 0.304290
O O6 0.466778 0.606337 0.446971
O O7 0.372265 0.594923 0.665730
O O8 0.781969 0.500000 0.718671
O O9 0.711806 0.401470 0.863662
O O10 0.804136 0.355439 0.547875
O O11 0.764260 0.387083 0.032795
O O12 0.357288 0.500000 0.002415
O O13 0.698039 0.208384 0.809545
O O14 0.706786 0.289628 0.453216
O O15 0.250000 0.750000 0.000000
#
# Coordination Sequence:
#
# PCOD9190906 Si02
#       7
#     8   8   8   8   4   8   8
#     4  11  20  33  49  68  95 130 168 206 249 288
#     4  10  20  34  51  70  97 133 166 200 244 288
#     4  10  20  33  50  75 104 133 167 204 243 291
#     4   9  18  30  45  70 101 130 165 201 232 282
#     4  10  23  34  46  70  97 126 170 214 243 284
#     4  10  20  32  50  72  98 131 167 204 244 295
#     4   9  17  31  49  72  99 131 163 197 244 294
#
# _framework density 17.052796000000001
#
# number of rings (size 3 to 8) (size 9 to 14) (size 15 to 20)
#    0.000    2.154    0.000    4.846    0.000    6.769 
#    0.000    3.846    0.000    0.000    0.000    0.538 
#    0.000    3.692    0.000    0.154    0.000    0.000 
#
# Total GULP energy -145023.507734 kJ/mol
# GULP energy per Si atom -5577.827221 kJ/mol
# Density = 1.701398 g / cm^3
# Si number density = 17.052796 Si / 1000 Ang^3
#
#
#
# Elastic Constant Matrix: (Units=GPa)
#
#
# Indices 1 2 3 4 5 6 
#
# 1 58.4175 30.9715 41.5965 0.0000 4.2656 0.0000
# 2 30.9715 78.8487 53.1440 0.0000 -6.6335 0.0000
# 3 41.5965 53.1440 99.7351 0.0000 -11.7592 0.0000
# 4 0.0000 0.0000 0.0000 19.6536 0.0000 2.2729
# 5 4.2656 -6.6335 -11.7592 0.0000 32.4867 0.0000
# 6 0.0000 0.0000 0.0000 2.2729 0.0000 17.8455
#
#
#
# Elastic Compliance Matrix: (Units=1/GPa)
#
#
# Indices 1 2 3 4 5 6 
#
# 1 0.027180 -0.004796 -0.009732 0.000000 -0.008071 0.000000
# 2 -0.004796 0.020638 -0.008801 0.000000 0.001658 0.000000
# 3 -0.009732 -0.008801 0.019548 0.000000 0.006557 0.000000
# 4 0.000000 0.000000 0.000000 0.051642 0.000000 -0.006577
# 5 -0.008071 0.001658 0.006557 0.000000 0.034553 0.000000
# 6 0.000000 0.000000 0.000000 -0.006577 0.000000 0.056874
#
#
# Mechanical properties :
#
#
# Convention : Reuss Voigt Hill
#
# Bulk Modulus (GPa) = 48.29078 54.26948 51.28013
# Shear Modulus (GPa) = 18.93967 21.41645 20.17806
#
# Velocity S-wave (km/s) = 3.33626 3.54770 3.44360
# Velocity P-wave (km/s) = 6.57424 6.97675 6.77848
#
# Compressibility (1/GPa) = 0.02070789
#
# Stress axis : x y z
#
# Youngs Moduli (GPa) = 36.79198 48.45486 51.15522
#
# Poissons Ratio (x) = 0.23237 0.49785
# Poissons Ratio (y) = 0.17644 0.45023
# Poissons Ratio (z) = 0.35806 0.42646
#
# Static dielectric constant tensor:
#      x y z
#    x 1.585170 0.000000 0.003850 
#    y 0.000000 1.591960 0.000000 
#    z 0.003850 0.000000 1.629530 
# 
# From -- ./inp_files/32314.got.cif
#   From: 2010.05.17/outbox.cif.g08.bks.cpg/sg12_17_cif.got.tgz:32314.got - 2010.06.03 13:09:07.
