data_PCOD9190612
_publ_section_title
;
Structure prediction by ZEFSAII (Michael W. Deem and Ramdas Pophale) SiO2 
 PCOD9190612
Probable space group: C 2/M
;
_chemical_formula_sum "Si O2"
_cell_formula_units_Z 48
_cell_length_a 22.717414
_cell_length_b 7.582929
_cell_length_c 20.460558
_cell_angle_alpha 90.000000
_cell_angle_beta 134.802943
_cell_angle_gamma 90.000000
_cell_volume 2500.845711
_symmetry_space_group_name_H-M "C 2/M"
_symmetry_group_IT_number 12
_symmetry_cell_setting 'monoclinic'
loop_
_space_group_symop_operation_xyz
x,y,z
-x,y,-z
-x,-y,-z
x,-y,z
1/2+x,1/2+y,z
1/2-x,1/2+y,-z
1/2-x,1/2-y,-z
1/2+x,1/2-y,z
loop_
_atom_site_type_symbol
_atom_site_label
_atom_site_fract_x
_atom_site_fract_y
_atom_site_fract_z
Si Si1 0.336235 0.711738 0.214327
Si Si2 0.366986 0.786347 0.638734
Si Si3 0.691413 0.211465 0.016482
Si Si4 0.686511 0.207114 0.545680
Si Si5 0.047091 0.287511 0.818511
Si Si6 0.586639 0.296164 0.592423
O O1 0.327514 0.500000 0.213499
O O2 0.245853 0.779413 0.119851
O O3 0.401338 0.746361 0.206944
O O4 0.372203 0.782644 0.310386
O O5 0.355170 0.725624 0.554321
O O6 0.284717 0.732077 0.613087
O O7 0.453321 0.723243 0.736676
O O8 0.367862 0.000000 0.637846
O O9 0.684463 0.000000 0.018249
O O10 0.750000 0.250000 0.000000
O O11 0.601509 0.278279 0.922772
O O12 0.649693 0.292409 0.581417
O O13 0.668443 0.000000 0.536391
O O14 0.043520 0.500000 0.820765
O O15 0.500000 0.215369 0.500000
O O16 0.567595 0.500000 0.594749
#
# Coordination Sequence:
#
# PCOD9190612 Si02
#       6
#     8   8   8   8   8   8
#     4   9  17  28  43  65  93 121 146 177 217 259
#     4   9  18  32  48  66  89 115 144 181 222 262
#     4   8  14  25  41  63  89 114 143 178 216 257
#     4  10  20  32  47  67  89 115 147 182 219 258
#     4   9  16  27  46  69  90 114 145 181 220 260
#     4  10  20  32  46  65  91 122 150 176 212 259
#
# _framework density 19.193508999999999
#
# number of rings (size 3 to 8) (size 9 to 14) (size 15 to 20)
#    0.000    2.833    0.000    1.500    0.000    2.333 
#    0.000    0.000    0.000    1.000    0.000    7.000 
#    0.000    0.000    0.000    0.000    0.000    0.000 
#
# Total GULP energy -133733.180370 kJ/mol
# GULP energy per Si atom -5572.215849 kJ/mol
# Density = 1.914982 g / cm^3
# Si number density = 19.193509 Si / 1000 Ang^3
#
#
#
# Elastic Constant Matrix: (Units=GPa)
#
#
# Indices 1 2 3 4 5 6 
#
# 1 53.8436 -7.3354 70.4891 0.0000 6.5549 0.0000
# 2 -7.3354 45.0595 9.1461 0.0000 0.5829 0.0000
# 3 70.4891 9.1461 221.8571 0.0000 24.8581 0.0000
# 4 0.0000 0.0000 0.0000 -18.8953 0.0000 5.4016
# 5 6.5549 0.5829 24.8581 0.0000 29.1233 0.0000
# 6 0.0000 0.0000 0.0000 5.4016 0.0000 11.7218
#
#
#
# Elastic Compliance Matrix: (Units=1/GPa)
#
#
# Indices 1 2 3 4 5 6 
#
# 1 0.034458 0.007916 -0.011486 0.000000 0.001890 0.000000
# 2 0.007916 0.024203 -0.003604 0.000000 0.000810 0.000000
# 3 -0.011486 -0.003604 0.008854 0.000000 -0.004900 0.000000
# 4 0.000000 0.000000 0.000000 -0.046763 0.000000 0.021549
# 5 0.001890 0.000810 -0.004900 0.000000 0.038078 0.000000
# 6 0.000000 0.000000 0.000000 0.021549 0.000000 0.075381
#
#
# Mechanical properties :
#
#
# Convention : Reuss Voigt Hill
#
# Bulk Modulus (GPa) = 18.80828 51.70666 35.25747
# Shear Modulus (GPa) = 30.06972 20.95399 25.51185
#
# Velocity S-wave (km/s) = 3.96240 3.30771 3.64976
# Velocity P-wave (km/s) = 5.54569 6.44872 6.01418
#
# Compressibility (1/GPa) = 0.05316806
#
# Stress axis : x y z
#
# Youngs Moduli (GPa) = 29.02097 41.31785 112.93748
#
# Poissons Ratio (x) = -0.32709 1.29722
# Poissons Ratio (y) = -0.22974 0.40700
# Poissons Ratio (z) = 0.33334 0.14890
#
# Static dielectric constant tensor:
#      x y z
#    x 1.608280 0.000000 0.026160 
#    y 0.000000 1.724810 0.000000 
#    z 0.026160 0.000000 1.743850 
# 
# From -- ./inp_files/249378.got.cif
#   From: 2010.05.17/outbox.cif.g08.bks.cpg/sg12_125_cif.got.tgz:249378.got - 2010.06.03 13:09:07.
