data_PCOD9190153
_publ_section_title
;
Structure prediction by ZEFSAII (Michael W. Deem and Ramdas Pophale) SiO2 
 PCOD9190153
Probable space group: C 2/M
;
_chemical_formula_sum "Si O2"
_cell_formula_units_Z 56
_cell_length_a 17.178570
_cell_length_b 14.905186
_cell_length_c 20.145446
_cell_angle_alpha 90.000000
_cell_angle_beta 34.313002
_cell_angle_gamma 90.000000
_cell_volume 2907.767849
_symmetry_space_group_name_H-M "C 2/M"
_symmetry_group_IT_number 12
_symmetry_cell_setting 'monoclinic'
loop_
_space_group_symop_operation_xyz
x,y,z
-x,y,-z
-x,-y,-z
x,-y,z
1/2+x,1/2+y,z
1/2-x,1/2+y,-z
1/2-x,1/2-y,-z
1/2+x,1/2-y,z
loop_
_atom_site_type_symbol
_atom_site_label
_atom_site_fract_x
_atom_site_fract_y
_atom_site_fract_z
Si Si1 0.093811 0.832035 0.144988
Si Si2 0.584313 0.261010 0.609669
Si Si3 0.441475 0.396591 0.615546
Si Si4 0.369106 0.799024 0.003907
Si Si5 0.161034 0.096429 0.737798
Si Si6 0.561434 0.102534 0.529281
Si Si7 0.830748 0.722276 0.182159
O O1 0.237237 0.860328 0.078562
O O2 0.002200 0.773687 0.261622
O O3 0.987045 0.903637 0.192624
O O4 0.129573 0.775185 0.054275
O O5 0.750000 0.250000 0.500000
O O6 0.546600 0.347251 0.591374
O O7 0.528589 0.174820 0.608050
O O8 0.500000 0.394809 0.500000
O O9 0.418430 0.500000 0.651361
O O10 0.301434 0.339108 0.713425
O O11 0.339835 0.759621 0.097257
O O12 0.528359 0.829794 0.895869
O O13 0.275153 0.104607 0.599923
O O14 0.174260 0.183651 0.774935
O O15 0.186113 0.000000 0.754128
O O16 0.500000 0.125927 0.500000
O O17 0.520716 0.000000 0.573688
#
# Coordination Sequence:
#
# PCOD9190153 Si02
#       7
#     8   8   8   8   8   8   8
#     4  10  20  37  57  86 124 160 201 247 300 361
#     4  12  22  36  64  90 119 164 193 245 312 367
#     4  11  25  42  64  92 122 156 205 256 303 364
#     4   9  20  37  61  86 116 166 206 248 296 356
#     4  10  20  35  60  91 122 156 197 248 306 370
#     4  10  21  36  56  88 123 154 196 245 299 367
#     4  10  19  40  65  86 120 161 206 252 303 356
#
# _framework density 19.258759000000001
#
# number of rings (size 3 to 8) (size 9 to 14) (size 15 to 20)
#    0.000    1.714    2.857    2.143    2.000    1.143 
#    0.000    7.857    0.000    8.571    0.000    0.000 
#    0.000    0.000    0.000    0.000    0.000    0.000 
#
# Total GULP energy -156035.442880 kJ/mol
# GULP energy per Si atom -5572.694389 kJ/mol
# Density = 1.921492 g / cm^3
# Si number density = 19.258759 Si / 1000 Ang^3
#
#
#
# Elastic Constant Matrix: (Units=GPa)
#
#
# Indices 1 2 3 4 5 6 
#
# 1 100.4484 56.6509 40.0961 0.0000 -14.1165 -0.0001
# 2 56.6509 121.1705 47.1998 0.0001 -1.2988 -0.0001
# 3 40.0961 47.1998 92.5792 0.0002 -15.2172 -0.0006
# 4 0.0000 0.0001 0.0002 12.4571 -0.0001 -16.9560
# 5 -14.1165 -1.2988 -15.2172 -0.0001 45.9899 0.0002
# 6 -0.0001 -0.0001 -0.0006 -16.9560 0.0002 56.5423
#
#
#
# Elastic Compliance Matrix: (Units=1/GPa)
#
#
# Indices 1 2 3 4 5 6 
#
# 1 0.014861 -0.005769 -0.002931 0.000000 0.003429 0.000000
# 2 -0.005769 0.012641 -0.004419 0.000000 -0.002876 0.000000
# 3 -0.002931 -0.004419 0.014970 0.000000 0.003929 0.000000
# 4 0.000000 0.000000 0.000000 0.135644 0.000000 0.040677
# 5 0.003429 -0.002876 0.003929 0.000000 0.024015 0.000000
# 6 0.000000 0.000000 0.000000 0.040677 0.000000 0.029884
#
#
# Mechanical properties :
#
#
# Convention : Reuss Voigt Hill
#
# Bulk Modulus (GPa) = 61.60418 66.89908 64.25163
# Shear Modulus (GPa) = 18.96356 34.34793 26.65574
#
# Velocity S-wave (km/s) = 3.14135 4.22773 3.72436
# Velocity P-wave (km/s) = 6.72417 7.65793 7.20619
#
# Compressibility (1/GPa) = 0.01623266
#
# Stress axis : x y z
#
# Youngs Moduli (GPa) = 67.28938 79.11045 66.80213
#
# Poissons Ratio (x) = 0.45642 0.19582
# Poissons Ratio (y) = 0.38822 0.29517
# Poissons Ratio (z) = 0.19725 0.34955
#
# Static dielectric constant tensor:
#      x y z
#    x 1.723380 0.000000 -0.059960 
#    y 0.000000 1.648300 0.000000 
#    z -0.059960 0.000000 1.710380 
# 
# From -- ./inp_files/316673.got.cif
#   From: 2010.05.17/outbox.cif.g08.bks.cpg/sg12_159_cif.got.tgz:316673.got - 2010.06.03 13:09:07.
