data_PCOD9190252
_publ_section_title
;
Structure prediction by ZEFSAII (Michael W. Deem and Ramdas Pophale) SiO2 
 PCOD9190252
Probable space group: C 2/M
;
_chemical_formula_sum "Si O2"
_cell_formula_units_Z 40
_cell_length_a 8.975004
_cell_length_b 21.355706
_cell_length_c 10.979036
_cell_angle_alpha 90.000000
_cell_angle_beta 93.959446
_cell_angle_gamma 90.000000
_cell_volume 2099.302239
_symmetry_space_group_name_H-M "C 2/M"
_symmetry_group_IT_number 12
_symmetry_cell_setting 'monoclinic'
loop_
_space_group_symop_operation_xyz
x,y,z
-x,y,-z
-x,-y,-z
x,-y,z
1/2+x,1/2+y,z
1/2-x,1/2+y,-z
1/2-x,1/2-y,-z
1/2+x,1/2-y,z
loop_
_atom_site_type_symbol
_atom_site_label
_atom_site_fract_x
_atom_site_fract_y
_atom_site_fract_z
Si Si1 0.771256 0.309159 0.658955
Si Si2 0.264327 0.196515 0.156490
Si Si3 0.500000 0.245521 0.000000
Si Si4 0.500000 0.256572 0.500000
Si Si5 0.830625 0.428693 0.832647
Si Si6 0.811140 0.430877 0.117175
O O1 0.746907 0.250865 0.747749
O O2 0.628217 0.301289 0.562982
O O3 0.919141 0.289666 0.592111
O O4 0.783244 0.373254 0.737582
O O5 0.246729 0.125155 0.193929
O O6 0.131961 0.211968 0.056345
O O7 0.424006 0.203399 0.098835
O O8 0.780613 0.500000 0.797333
O O9 0.010995 0.431648 0.850047
O O10 0.783769 0.416831 0.971455
O O11 0.752014 0.500000 0.139585
#
# Coordination Sequence:
#
# PCOD9190252 Si02
#       6
#     8   8   4   4   8   8
#     4  11  21  37  56  76 103 139 181 227 269 301
#     4  11  19  32  53  78 108 142 170 208 260 315
#     4  10  20  28  48  84 108 128 174 206 244 328
#     4  10  24  38  54  76  98 130 190 244 264 290
#     4   9  17  31  53  80 110 140 166 203 260 321
#     4   9  17  29  49  82 115 138 166 200 246 324
#
# _framework density 19.05395
#
# number of rings (size 3 to 8) (size 9 to 14) (size 15 to 20)
#    0.000    2.000    0.000    8.400    0.000    0.000 
#    0.000    1.500    0.000    9.600    0.000    0.000 
#    0.000    0.000    0.000    0.000    0.000    0.000 
#
# Total GULP energy -111493.611386 kJ/mol
# GULP energy per Si atom -5574.680569 kJ/mol
# Density = 1.901058 g / cm^3
# Si number density = 19.053950 Si / 1000 Ang^3
#
#
#
# Elastic Constant Matrix: (Units=GPa)
#
#
# Indices 1 2 3 4 5 6 
#
# 1 55.8723 26.4524 20.1273 0.0000 -4.3332 0.0000
# 2 26.4524 183.8561 53.0727 0.0000 0.1186 0.0000
# 3 20.1273 53.0727 57.3101 0.0000 -5.0575 0.0000
# 4 0.0000 0.0000 0.0000 -177.5567 0.0000 52.0915
# 5 -4.3332 0.1186 -5.0575 0.0000 27.8574 0.0000
# 6 0.0000 0.0000 0.0000 52.0915 0.0000 5.4016
#
#
#
# Elastic Compliance Matrix: (Units=1/GPa)
#
#
# Indices 1 2 3 4 5 6 
#
# 1 0.020809 -0.001284 -0.005928 0.000000 0.002166 0.000000
# 2 -0.001284 0.007549 -0.006667 0.000000 -0.001442 0.000000
# 3 -0.005928 -0.006667 0.026044 0.000000 0.003835 0.000000
# 4 0.000000 0.000000 0.000000 -0.001471 0.000000 0.014184
# 5 0.002166 -0.001442 0.003835 0.000000 0.036936 0.000000
# 6 0.000000 0.000000 0.000000 0.014184 0.000000 0.048346
#
#
# Mechanical properties :
#
#
# Convention : Reuss Voigt Hill
#
# Bulk Modulus (GPa) = 37.53278 55.14927 46.34102
# Shear Modulus (GPa) = 28.59521 -15.70048 6.44737
#
# Velocity S-wave (km/s) = 3.87815 -2.87366 1.84149
# Velocity P-wave (km/s) = 6.30828 4.24217 5.37543
#
# Compressibility (1/GPa) = 0.02664338
#
# Stress axis : x y z
#
# Youngs Moduli (GPa) = 48.05526 132.46087 38.39704
#
# Poissons Ratio (x) = 0.17011 0.22761
# Poissons Ratio (y) = 0.06171 0.25601
# Poissons Ratio (z) = 0.28486 0.88318
#
# Static dielectric constant tensor:
#      x y z
#    x 1.707260 0.000000 0.003050 
#    y 0.000000 1.715150 0.000000 
#    z 0.003050 0.000000 1.723180 
# 
# From -- ./inp_files/120266.got.cif
#   From: 2010.05.17/outbox.cif.g08.bks.cpg/sg12_61_cif.got.tgz:120266.got - 2010.06.03 13:09:07.
