data_PCOD9190330
_publ_section_title
;
Structure prediction by ZEFSAII (Michael W. Deem and Ramdas Pophale) SiO2 
 PCOD9190330
Probable space group: C 2/M
;
_chemical_formula_sum "Si O2"
_cell_formula_units_Z 40
_cell_length_a 20.542406
_cell_length_b 12.697732
_cell_length_c 7.709393
_cell_angle_alpha 90.000000
_cell_angle_beta 99.208172
_cell_angle_gamma 90.000000
_cell_volume 1985.019238
_symmetry_space_group_name_H-M "C 2/M"
_symmetry_group_IT_number 12
_symmetry_cell_setting 'monoclinic'
loop_
_space_group_symop_operation_xyz
x,y,z
-x,y,-z
-x,-y,-z
x,-y,z
1/2+x,1/2+y,z
1/2-x,1/2+y,-z
1/2-x,1/2-y,-z
1/2+x,1/2-y,z
loop_
_atom_site_type_symbol
_atom_site_label
_atom_site_fract_x
_atom_site_fract_y
_atom_site_fract_z
Si Si1 0.695705 0.619111 0.063858
Si Si2 0.076363 0.500000 0.491497
Si Si3 0.577614 0.000000 0.074779
Si Si4 0.423025 0.767215 0.923981
Si Si5 0.859189 0.698894 0.539343
Si Si6 0.262738 0.689008 0.281107
O O1 0.690967 0.500000 0.125296
O O2 0.624922 0.677736 0.023390
O O3 0.738962 0.695428 0.204109
O O4 0.726978 0.622233 0.885907
O O5 0.084624 0.500000 0.285975
O O6 0.109929 0.607673 0.564776
O O7 0.000000 0.500000 0.500000
O O8 0.600883 0.884507 0.024104
O O9 0.500000 0.000000 0.000000
O O10 0.410486 0.767279 0.710394
O O11 0.500000 0.754972 0.000000
O O12 0.795684 0.653467 0.617107
O O13 0.829599 0.793805 0.415849
#
# Coordination Sequence:
#
# PCOD9190330 Si02
#       6
#     8   4   4   8   8   8
#     4  10  21  36  56  82 109 144 190 236 273 331
#     4  10  20  30  50  84 110 140 177 223 285 330
#     4   8  16  32  52  76 110 148 174 211 265 330
#     4   9  18  35  56  83 115 148 182 221 281 336
#     4   9  19  35  55  78 110 146 182 230 275 332
#     4   9  20  38  53  80 107 146 193 229 279 320
#
# _framework density 20.150939000000001
#
# number of rings (size 3 to 8) (size 9 to 14) (size 15 to 20)
#    0.000    2.800    0.000    0.000    2.800    5.200 
#   10.800    1.000    0.000    1.200    0.000    0.000 
#    0.000    0.000    0.000    0.000    0.000    0.000 
#
# Total GULP energy -111500.147036 kJ/mol
# GULP energy per Si atom -5575.007352 kJ/mol
# Density = 2.010507 g / cm^3
# Si number density = 20.150939 Si / 1000 Ang^3
#
#
#
# Elastic Constant Matrix: (Units=GPa)
#
#
# Indices 1 2 3 4 5 6 
#
# 1 69.4421 31.8733 19.6264 0.0000 18.0794 0.0000
# 2 31.8733 105.7547 -1.1011 0.0000 -0.4483 0.0000
# 3 19.6264 -1.1011 55.3604 0.0000 19.0604 0.0000
# 4 0.0000 0.0000 0.0000 1.8656 0.0000 1.4479
# 5 18.0794 -0.4483 19.0604 0.0000 42.0109 0.0000
# 6 0.0000 0.0000 0.0000 1.4479 0.0000 30.8754
#
#
#
# Elastic Compliance Matrix: (Units=1/GPa)
#
#
# Indices 1 2 3 4 5 6 
#
# 1 0.020404 -0.006231 -0.005110 0.000000 -0.006529 0.000000
# 2 -0.006231 0.011360 0.001742 0.000000 0.002012 0.000000
# 3 -0.005110 0.001742 0.022691 0.000000 -0.008077 0.000000
# 4 0.000000 0.000000 0.000000 0.556259 0.000000 -0.026086
# 5 -0.006529 0.002012 -0.008077 0.000000 0.030299 0.000000
# 6 0.000000 0.000000 0.000000 -0.026086 0.000000 0.033612
#
#
# Mechanical properties :
#
#
# Convention : Reuss Voigt Hill
#
# Bulk Modulus (GPa) = 28.36172 36.81715 32.58943
# Shear Modulus (GPa) = 7.08643 26.96096 17.02369
#
# Velocity S-wave (km/s) = 1.87731 3.66177 2.90971
# Velocity P-wave (km/s) = 4.33639 6.01568 5.24370
#
# Compressibility (1/GPa) = 0.03525879
#
# Stress axis : x y z
#
# Youngs Moduli (GPa) = 49.00932 88.02571 44.07127
#
# Poissons Ratio (x) = 0.54844 0.22519
# Poissons Ratio (y) = 0.30535 -0.07677
# Poissons Ratio (z) = 0.25042 -0.15334
#
# Static dielectric constant tensor:
#      x y z
#    x 1.721660 0.000000 0.007010 
#    y 0.000000 1.746500 0.000000 
#    z 0.007010 0.000000 1.763110 
# 
# From -- ./inp_files/83495.got.cif
#   From: 2010.05.17/outbox.cif.g08.bks.cpg/sg12_42_cif.got.tgz:83495.got - 2010.06.03 13:09:07.
