data_PCOD9190395
_publ_section_title
;
Structure prediction by ZEFSAII (Michael W. Deem and Ramdas Pophale) SiO2 
 PCOD9190395
Probable space group: C 2/M
;
_chemical_formula_sum "Si O2"
_cell_formula_units_Z 56
_cell_length_a 19.119755
_cell_length_b 13.577083
_cell_length_c 12.153591
_cell_angle_alpha 90.000000
_cell_angle_beta 108.622142
_cell_angle_gamma 90.000000
_cell_volume 2989.779253
_symmetry_space_group_name_H-M "C 2/M"
_symmetry_group_IT_number 12
_symmetry_cell_setting 'monoclinic'
loop_
_space_group_symop_operation_xyz
x,y,z
-x,y,-z
-x,-y,-z
x,-y,z
1/2+x,1/2+y,z
1/2-x,1/2+y,-z
1/2-x,1/2-y,-z
1/2+x,1/2-y,z
loop_
_atom_site_type_symbol
_atom_site_label
_atom_site_fract_x
_atom_site_fract_y
_atom_site_fract_z
Si Si1 0.970118 0.889425 0.664692
Si Si2 0.811332 0.689307 0.418151
Si Si3 0.550417 0.885198 0.864930
Si Si4 0.617384 0.610574 0.611787
Si Si5 0.550994 0.112772 0.620682
Si Si6 0.154888 0.755571 0.323190
Si Si7 0.114680 0.385341 0.118264
O O1 0.926665 0.890907 0.526197
O O2 0.922811 0.812794 0.711836
O O3 0.055137 0.871370 0.673663
O O4 0.966076 0.000000 0.709622
O O5 0.827868 0.798062 0.375396
O O6 0.866534 0.617726 0.383471
O O7 0.835026 0.694175 0.558200
O O8 0.724735 0.670792 0.362839
O O9 0.549698 0.843169 0.741835
O O10 0.467573 0.885170 0.870148
O O11 0.572496 0.000000 0.864742
O O12 0.603511 0.846363 0.988069
O O13 0.648713 0.500000 0.643134
O O14 0.500000 0.161300 0.500000
O O15 0.524222 0.000000 0.618649
O O16 0.159586 0.685194 0.220641
O O17 0.139109 0.500000 0.129872
#
# Coordination Sequence:
#
# PCOD9190395 Si02
#       7
#     8   8   8   8   8   8   8
#     4   8  15  28  46  64  86 123 168 206 239 283
#     4  10  21  30  44  72 106 131 158 206 255 302
#     4   8  16  31  50  74  97 126 169 203 238 293
#     4   8  15  28  45  64  87 124 168 206 241 281
#     4  10  20  32  50  76 102 130 159 197 254 306
#     4  10  20  31  44  72 103 134 164 196 255 306
#     4   9  17  31  51  72  99 131 165 205 243 293
#
# _framework density 18.73048
#
# number of rings (size 3 to 8) (size 9 to 14) (size 15 to 20)
#    0.000    3.000    0.000    2.571    6.000    2.857 
#    0.000    3.571    0.000    0.000    0.000    3.000 
#    0.000    0.000    0.000    0.000    0.000    0.000 
#
# Total GULP energy -155893.709459 kJ/mol
# GULP energy per Si atom -5567.632481 kJ/mol
# Density = 1.868785 g / cm^3
# Si number density = 18.730480 Si / 1000 Ang^3
#
#
#
# Elastic Constant Matrix: (Units=GPa)
#
#
# Indices 1 2 3 4 5 6 
#
# 1 39.3165 -6.1188 22.6184 0.0000 -6.6002 0.0000
# 2 -6.1188 55.7579 22.9687 0.0000 1.3121 0.0000
# 3 22.6184 22.9687 120.2873 0.0000 -11.7714 0.0000
# 4 0.0000 0.0000 0.0000 13.1027 0.0000 -0.3922
# 5 -6.6002 1.3121 -11.7714 0.0000 16.1336 0.0000
# 6 0.0000 0.0000 0.0000 -0.3922 0.0000 17.8951
#
#
#
# Elastic Compliance Matrix: (Units=1/GPa)
#
#
# Indices 1 2 3 4 5 6 
#
# 1 0.031219 0.005805 -0.006219 0.000000 0.007762 0.000000
# 2 0.005805 0.020871 -0.005396 0.000000 -0.003259 0.000000
# 3 -0.006219 -0.005396 0.011100 0.000000 0.005993 0.000000
# 4 0.000000 0.000000 0.000000 0.076370 0.000000 0.001674
# 5 0.007762 -0.003259 0.005993 0.000000 0.069796 0.000000
# 6 0.000000 0.000000 0.000000 0.001674 0.000000 0.055918
#
#
# Mechanical properties :
#
#
# Convention : Reuss Voigt Hill
#
# Bulk Modulus (GPa) = 19.39113 32.69981 26.04547
# Shear Modulus (GPa) = 17.00198 21.15251 19.07724
#
# Velocity S-wave (km/s) = 3.01610 3.36417 3.19488
# Velocity P-wave (km/s) = 4.74388 5.70843 5.24836
#
# Compressibility (1/GPa) = 0.05156997
#
# Stress axis : x y z
#
# Youngs Moduli (GPa) = 32.03190 47.91295 90.09262
#
# Poissons Ratio (x) = -0.27814 0.56030
# Poissons Ratio (y) = -0.18595 0.48613
# Poissons Ratio (z) = 0.19921 0.25853
#
# Static dielectric constant tensor:
#      x y z
#    x 1.679780 0.000000 -0.002420 
#    y 0.000000 1.704350 0.000000 
#    z -0.002420 0.000000 1.671940 
# 
# From -- ./inp_files/166771.got.cif
#   From: 2010.05.17/outbox.cif.g08.bks.cpg/sg12_84_cif.got.tgz:166771.got - 2010.06.03 13:09:07.
