data_PCOD9190194
_publ_section_title
;
Structure prediction by ZEFSAII (Michael W. Deem and Ramdas Pophale) SiO2 
 PCOD9190194
Probable space group: C 2/M
;
_chemical_formula_sum "Si O2"
_cell_formula_units_Z 40
_cell_length_a 14.247918
_cell_length_b 23.637693
_cell_length_c 8.140769
_cell_angle_alpha 90.000000
_cell_angle_beta 136.027028
_cell_angle_gamma 90.000000
_cell_volume 1903.623036
_symmetry_space_group_name_H-M "C 2/M"
_symmetry_group_IT_number 12
_symmetry_cell_setting 'monoclinic'
loop_
_space_group_symop_operation_xyz
x,y,z
-x,y,-z
-x,-y,-z
x,-y,z
1/2+x,1/2+y,z
1/2-x,1/2+y,-z
1/2-x,1/2-y,-z
1/2+x,1/2-y,z
loop_
_atom_site_type_symbol
_atom_site_label
_atom_site_fract_x
_atom_site_fract_y
_atom_site_fract_z
Si Si1 0.897955 0.936378 0.216900
Si Si2 0.369906 0.150225 0.613692
Si Si3 0.328687 0.150507 0.950661
Si Si4 0.364727 0.267239 0.428929
Si Si5 0.913199 0.865053 0.753064
O O1 0.779880 0.892055 0.109185
O O2 0.000000 0.936164 0.500000
O O3 0.991229 0.915630 0.185108
O O4 0.846184 0.000000 0.129118
O O5 0.359340 0.139281 0.796216
O O6 0.336795 0.213514 0.508204
O O7 0.237652 0.117274 0.380942
O O8 0.528707 0.143815 0.776442
O O9 0.257450 0.212264 0.843582
O O10 0.500000 0.254694 0.500000
O O11 0.397593 0.321945 0.582009
O O12 0.000000 0.833628 0.000000
#
# Coordination Sequence:
#
# PCOD9190194 Si02
#       5
#     8   8   8   8   8
#     4  11  21  41  69  88 112 157 206 251 295 347
#     4  10  23  34  58  88 125 159 192 243 299 344
#     4  10  19  41  58  86 125 151 205 248 283 360
#     4  11  21  37  58  86 119 166 203 231 286 356
#     4  11  22  39  59  86 123 154 202 246 292 356
#
# _framework density 21.012561999999999
#
# number of rings (size 3 to 8) (size 9 to 14) (size 15 to 20)
#    0.000    1.400    6.000    2.400    5.600    2.800 
#    0.000    3.000    0.000    1.200    0.000    0.000 
#    0.000    0.000    0.000    0.000    0.000    0.000 
#
# Total GULP energy -111405.288201 kJ/mol
# GULP energy per Si atom -5570.264410 kJ/mol
# Density = 2.096474 g / cm^3
# Si number density = 21.012562 Si / 1000 Ang^3
#
#
#
# Elastic Constant Matrix: (Units=GPa)
#
#
# Indices 1 2 3 4 5 6 
#
# 1 76.8771 30.8736 51.5720 0.0000 36.5243 0.0000
# 2 30.8736 75.6948 27.1553 0.0000 13.9815 0.0000
# 3 51.5720 27.1553 121.7228 0.0000 42.6911 0.0000
# 4 0.0000 0.0000 0.0000 5.7106 0.0000 -4.4208
# 5 36.5243 13.9815 42.6911 0.0000 41.8231 0.0000
# 6 0.0000 0.0000 0.0000 -4.4208 0.0000 17.7784
#
#
#
# Elastic Compliance Matrix: (Units=1/GPa)
#
#
# Indices 1 2 3 4 5 6 
#
# 1 0.025969 -0.006147 -0.003735 0.000000 -0.016811 0.000000
# 2 -0.006147 0.015969 -0.001509 0.000000 0.001570 0.000000
# 3 -0.003735 -0.001509 0.013728 0.000000 -0.010247 0.000000
# 4 0.000000 0.000000 0.000000 0.216856 0.000000 0.053923
# 5 -0.016811 0.001570 -0.010247 0.000000 0.048526 0.000000
# 6 0.000000 0.000000 0.000000 0.053923 0.000000 0.069657
#
#
# Mechanical properties :
#
#
# Convention : Reuss Voigt Hill
#
# Bulk Modulus (GPa) = 30.40893 54.83294 42.62093
# Shear Modulus (GPa) = 11.77997 24.04201 17.91099
#
# Velocity S-wave (km/s) = 2.37030 3.38623 2.92275
# Velocity P-wave (km/s) = 4.68981 6.43745 5.63183
#
# Compressibility (1/GPa) = 0.03288507
#
# Stress axis : x y z
#
# Youngs Moduli (GPa) = 38.50732 62.61976 72.84160
#
# Poissons Ratio (x) = 0.38491 0.27209
# Poissons Ratio (y) = 0.23670 0.10991
# Poissons Ratio (z) = 0.14384 0.09448
#
# Static dielectric constant tensor:
#      x y z
#    x 1.836040 0.000000 0.004850 
#    y 0.000000 1.717520 0.000000 
#    z 0.004850 0.000000 1.862730 
# 
# From -- ./inp_files/65070.got.cif
#   From: 2010.05.17/outbox.cif.g08.bks.cpg/sg12_33_cif.got.tgz:65070.got - 2010.06.03 13:09:07.
