data_PCOD9190251
_publ_section_title
;
Structure prediction by ZEFSAII (Michael W. Deem and Ramdas Pophale) SiO2 
 PCOD9190251
Probable space group: C 2/M
;
_chemical_formula_sum "Si O2"
_cell_formula_units_Z 52
_cell_length_a 20.550792
_cell_length_b 23.580772
_cell_length_c 9.726516
_cell_angle_alpha 90.000000
_cell_angle_beta 37.482688
_cell_angle_gamma 90.000000
_cell_volume 2868.269468
_symmetry_space_group_name_H-M "C 2/M"
_symmetry_group_IT_number 12
_symmetry_cell_setting 'monoclinic'
loop_
_space_group_symop_operation_xyz
x,y,z
-x,y,-z
-x,-y,-z
x,-y,z
1/2+x,1/2+y,z
1/2-x,1/2+y,-z
1/2-x,1/2-y,-z
1/2+x,1/2-y,z
loop_
_atom_site_type_symbol
_atom_site_label
_atom_site_fract_x
_atom_site_fract_y
_atom_site_fract_z
Si Si1 0.723898 0.826856 0.589898
Si Si2 0.151939 0.780887 0.841187
Si Si3 0.887616 0.563875 0.108028
Si Si4 0.779590 0.184138 0.988026
Si Si5 0.075147 0.612959 0.243706
Si Si6 0.540385 0.220601 0.694588
Si Si7 0.500000 0.295747 0.500000
O O1 0.832566 0.817514 0.322891
O O2 0.717000 0.778486 0.716889
O O3 0.691885 0.887046 0.704482
O O4 0.634958 0.803998 0.630099
O O5 0.203254 0.815979 0.877978
O O6 0.037321 0.758515 0.080697
O O7 0.851438 0.500000 0.201068
O O8 0.905457 0.569527 0.913854
O O9 0.000000 0.573250 0.000000
O O10 0.896050 0.171505 0.728531
O O11 0.750000 0.250000 0.000000
O O12 0.687002 0.140518 0.104687
O O13 0.000000 0.595910 0.500000
O O14 0.017524 0.664652 0.262822
O O15 0.548587 0.257089 0.541379
#
# Coordination Sequence:
#
# PCOD9190251 Si02
#       7
#     8   8   8   8   8   8   4
#     4  11  19  33  50  73 113 145 177 221 274 331
#     4  10  20  28  48  77 103 144 177 216 271 333
#     4  11  23  38  55  77 109 150 194 232 273 329
#     4  11  18  31  48  75 108 146 183 219 274 335
#     4  12  21  34  55  76 109 152 183 228 275 331
#     4  11  18  29  46  76 109 149 174 215 274 327
#     4  10  20  30  48  78 116 150 186 218 270 346
#
# _framework density 18.129398999999999
#
# number of rings (size 3 to 8) (size 9 to 14) (size 15 to 20)
#    0.000    1.077    6.923    2.308    0.000    0.308 
#    0.000    0.000    0.000    0.000    0.000    0.538 
#    0.000   35.692    0.000    0.308    0.000    0.000 
#
# Total GULP energy -144971.462687 kJ/mol
# GULP energy per Si atom -5575.825488 kJ/mol
# Density = 1.808814 g / cm^3
# Si number density = 18.129399 Si / 1000 Ang^3
#
#
#
# Elastic Constant Matrix: (Units=GPa)
#
#
# Indices 1 2 3 4 5 6 
#
# 1 69.5770 7.9339 24.0518 0.0000 7.1899 0.0000
# 2 7.9339 84.3593 40.8644 0.0000 8.1334 0.0000
# 3 24.0518 40.8644 121.1643 0.0000 13.7572 0.0000
# 4 0.0000 0.0000 0.0000 14.1955 0.0000 -1.3922
# 5 7.1899 8.1334 13.7572 0.0000 26.2666 0.0000
# 6 0.0000 0.0000 0.0000 -1.3922 0.0000 10.6944
#
#
#
# Elastic Compliance Matrix: (Units=1/GPa)
#
#
# Indices 1 2 3 4 5 6 
#
# 1 0.015628 0.000180 -0.002840 0.000000 -0.002846 0.000000
# 2 0.000180 0.014271 -0.004616 0.000000 -0.002051 0.000000
# 3 -0.002840 -0.004616 0.010763 0.000000 -0.003431 0.000000
# 4 0.000000 0.000000 0.000000 0.071356 0.000000 0.009289
# 5 -0.002846 -0.002051 -0.003431 0.000000 0.041282 0.000000
# 6 0.000000 0.000000 0.000000 0.009289 0.000000 0.094716
#
#
# Mechanical properties :
#
#
# Convention : Reuss Voigt Hill
#
# Bulk Modulus (GPa) = 38.29825 46.75564 42.52694
# Shear Modulus (GPa) = 18.43176 23.71467 21.07321
#
# Velocity S-wave (km/s) = 3.19200 3.62066 3.41307
# Velocity P-wave (km/s) = 5.89542 6.58216 6.24823
#
# Compressibility (1/GPa) = 0.02611086
#
# Stress axis : x y z
#
# Youngs Moduli (GPa) = 63.98844 70.07293 92.90816
#
# Poissons Ratio (x) = -0.01263 0.26384
# Poissons Ratio (y) = -0.01154 0.42886
# Poissons Ratio (z) = 0.18172 0.32346
#
# Static dielectric constant tensor:
#      x y z
#    x 1.694360 0.000000 0.007400 
#    y 0.000000 1.575110 0.000000 
#    z 0.007400 0.000000 1.729000 
# 
# From -- ./inp_files/90601.got.cif
#   From: 2010.05.17/outbox.cif.g08.bks.cpg/sg12_46_cif.got.tgz:90601.got - 2010.06.03 13:09:07.
