data_PCOD9190893
_publ_section_title
;
Structure prediction by ZEFSAII (Michael W. Deem and Ramdas Pophale) SiO2 
 PCOD9190893
Probable space group: C 2/M
;
_chemical_formula_sum "Si O2"
_cell_formula_units_Z 56
_cell_length_a 9.008791
_cell_length_b 32.660897
_cell_length_c 14.869537
_cell_angle_alpha 90.000000
_cell_angle_beta 137.244677
_cell_angle_gamma 90.000000
_cell_volume 2970.147518
_symmetry_space_group_name_H-M "C 2/M"
_symmetry_group_IT_number 12
_symmetry_cell_setting 'monoclinic'
loop_
_space_group_symop_operation_xyz
x,y,z
-x,y,-z
-x,-y,-z
x,-y,z
1/2+x,1/2+y,z
1/2-x,1/2+y,-z
1/2-x,1/2-y,-z
1/2+x,1/2-y,z
loop_
_atom_site_type_symbol
_atom_site_label
_atom_site_fract_x
_atom_site_fract_y
_atom_site_fract_z
Si Si1 0.400367 0.604401 0.275099
Si Si2 0.333768 0.827572 0.181677
Si Si3 0.255349 0.230914 0.855710
Si Si4 0.423003 0.342475 0.113065
Si Si5 0.750751 0.952536 0.348499
Si Si6 0.315844 0.681640 0.353906
Si Si7 0.810814 0.452125 0.487690
O O1 0.360191 0.623716 0.159545
O O2 0.227439 0.575659 0.250938
O O3 0.423659 0.642938 0.351905
O O4 0.616784 0.577092 0.370427
O O5 0.301473 0.778420 0.166077
O O6 0.593704 0.833436 0.303189
O O7 0.170365 0.845133 0.184965
O O8 0.239606 0.843459 0.044386
O O9 0.106409 0.201718 0.851782
O O10 0.244910 0.213570 0.750562
O O11 0.500000 0.225486 0.000000
O O12 0.614634 0.941683 0.377263
O O13 0.000000 0.948068 0.500000
O O14 0.717423 0.000000 0.310758
O O15 0.500000 0.699581 0.500000
O O16 0.737727 0.500000 0.459018
O O17 0.000000 0.449202 0.500000
#
# Coordination Sequence:
#
# PCOD9190893 Si02
#       7
#     8   8   8   8   8   8   8
#     4  10  20  32  49  79 120 151 188 233 294 345
#     4  11  21  38  59  79 109 145 211 258 295 356
#     4  11  19  38  65  83 105 149 205 258 298 363
#     4  10  21  33  57  90 102 147 201 256 302 344
#     4   8  14  28  50  74 106 150 188 218 268 342
#     4  11  24  36  54  84 118 154 189 245 322 366
#     4   9  17  31  56  86 117 158 201 235 280 347
#
# _framework density 18.854281
#
# number of rings (size 3 to 8) (size 9 to 14) (size 15 to 20)
#    0.000    2.000    2.857    3.857    0.000    2.857 
#    0.000    2.143    0.000    0.000    0.000   16.000 
#    0.000    0.000    0.000    0.000    0.000    0.000 
#
# Total GULP energy -156164.416531 kJ/mol
# GULP energy per Si atom -5577.300590 kJ/mol
# Density = 1.881137 g / cm^3
# Si number density = 18.854281 Si / 1000 Ang^3
#
#
#
# Elastic Constant Matrix: (Units=GPa)
#
#
# Indices 1 2 3 4 5 6 
#
# 1 122.3398 30.4609 35.8098 0.0000 -11.5281 0.0000
# 2 30.4609 84.3978 26.1820 0.0000 -17.6932 0.0000
# 3 35.8098 26.1820 60.4939 0.0000 4.8851 0.0000
# 4 0.0000 0.0000 0.0000 23.3471 0.0000 -13.7932
# 5 -11.5281 -17.6932 4.8851 0.0000 28.8193 0.0000
# 6 0.0000 0.0000 0.0000 -13.7932 0.0000 40.7530
#
#
#
# Elastic Compliance Matrix: (Units=1/GPa)
#
#
# Indices 1 2 3 4 5 6 
#
# 1 0.010704 -0.000888 -0.006341 0.000000 0.004812 0.000000
# 2 -0.000888 0.016947 -0.007727 0.000000 0.011359 0.000000
# 3 -0.006341 -0.007727 0.024552 0.000000 -0.011442 0.000000
# 4 0.000000 0.000000 0.000000 0.053537 0.000000 0.018120
# 5 0.004812 0.011359 -0.011442 0.000000 0.045537 0.000000
# 6 0.000000 0.000000 0.000000 0.018120 0.000000 0.030671
#
#
# Mechanical properties :
#
#
# Convention : Reuss Voigt Hill
#
# Bulk Modulus (GPa) = 44.85620 50.23742 47.54681
# Shear Modulus (GPa) = 22.80075 30.23580 26.51828
#
# Velocity S-wave (km/s) = 3.48129 4.00891 3.75438
# Velocity P-wave (km/s) = 6.32470 6.93768 6.63827
#
# Compressibility (1/GPa) = 0.02229346
#
# Stress axis : x y z
#
# Youngs Moduli (GPa) = 93.41927 59.00622 40.72930
#
# Poissons Ratio (x) = 0.05237 0.25826
# Poissons Ratio (y) = 0.08292 0.31471
# Poissons Ratio (z) = 0.59237 0.45593
#
# Static dielectric constant tensor:
#      x y z
#    x 1.737690 0.000000 -0.007910 
#    y 0.000000 1.663550 0.000000 
#    z -0.007910 0.000000 1.642430 
# 
# From -- ./inp_files/200974.got.cif
#   From: 2010.05.17/outbox.cif.g08.bks.cpg/sg12_101_cif.got.tgz:200974.got - 2010.06.03 13:09:07.
