data_PCOD9190379
_publ_section_title
;
Structure prediction by ZEFSAII (Michael W. Deem and Ramdas Pophale) SiO2 
 PCOD9190379
Probable space group: C 2/M
;
_chemical_formula_sum "Si O2"
_cell_formula_units_Z 56
_cell_length_a 28.934197
_cell_length_b 7.467074
_cell_length_c 14.572809
_cell_angle_alpha 90.000000
_cell_angle_beta 60.097179
_cell_angle_gamma 90.000000
_cell_volume 2729.356340
_symmetry_space_group_name_H-M "C 2/M"
_symmetry_group_IT_number 12
_symmetry_cell_setting 'monoclinic'
loop_
_space_group_symop_operation_xyz
x,y,z
-x,y,-z
-x,-y,-z
x,-y,z
1/2+x,1/2+y,z
1/2-x,1/2+y,-z
1/2-x,1/2-y,-z
1/2+x,1/2-y,z
loop_
_atom_site_type_symbol
_atom_site_label
_atom_site_fract_x
_atom_site_fract_y
_atom_site_fract_z
Si Si1 0.571913 0.280198 0.735796
Si Si2 0.830929 0.787573 0.861403
Si Si3 0.065913 0.218385 0.339976
Si Si4 0.443263 0.282150 0.446870
Si Si5 0.128998 0.212969 0.861114
Si Si6 0.221361 0.287575 0.893501
Si Si7 0.467973 0.702592 0.934806
O O1 0.570740 0.500000 0.738756
O O2 0.584407 0.224382 0.619995
O O3 0.611440 0.221820 0.778062
O O4 0.511933 0.219829 0.822944
O O5 0.888431 0.717347 0.774155
O O6 0.780776 0.714556 0.852244
O O7 0.833420 0.000000 0.842164
O O8 0.814173 0.764956 0.983309
O O9 0.078915 0.272212 0.432140
O O10 0.005326 0.274298 0.380875
O O11 0.064309 0.000000 0.338475
O O12 0.442676 0.500000 0.448030
O O13 0.188906 0.238858 0.834909
O O14 0.118815 0.000000 0.870675
O O15 0.087761 0.287269 0.978981
O O16 0.225605 0.500000 0.890985
O O17 0.456847 0.500000 0.911422
O O18 0.500000 0.691193 0.000000
#
# Coordination Sequence:
#
# PCOD9190379 Si02
#       7
#     8   8   8   8   8   8   8
#     4   8  13  21  36  62  91 114 138 173 214 254
#     4   9  18  32  48  64  84 113 146 179 217 259
#     4   8  14  24  40  65  92 112 133 173 227 264
#     4   8  13  21  37  67  97 110 129 174 224 261
#     4   9  16  26  42  63  87 116 146 174 210 257
#     4  10  20  31  43  63  88 114 147 182 215 252
#     4   7  11  19  32  55  83 108 136 167 200 241
#
# _framework density 20.517659999999999
#
# number of rings (size 3 to 8) (size 9 to 14) (size 15 to 20)
#    0.000    3.571    0.000    3.000    2.000    0.571 
#    0.000    0.000    0.000    4.714    0.000    3.000 
#    0.000    0.000    0.000    0.000    0.000    0.429 
#
# Total GULP energy -155959.760959 kJ/mol
# GULP energy per Si atom -5569.991463 kJ/mol
# Density = 2.047096 g / cm^3
# Si number density = 20.517660 Si / 1000 Ang^3
#
#
#
# Elastic Constant Matrix: (Units=GPa)
#
#
# Indices 1 2 3 4 5 6 
#
# 1 71.6967 -2.0130 5.9670 0.0000 11.5954 0.0000
# 2 -2.0130 58.7214 -7.1205 0.0001 3.2021 -0.0001
# 3 5.9670 -7.1205 52.6253 0.0000 -5.2989 0.0000
# 4 0.0000 0.0001 0.0000 -6.9956 0.0000 5.9770
# 5 11.5954 3.2021 -5.2989 0.0000 40.3116 0.0000
# 6 0.0000 -0.0001 0.0000 5.9770 0.0000 -2.4809
#
#
#
# Elastic Compliance Matrix: (Units=1/GPa)
#
#
# Indices 1 2 3 4 5 6 
#
# 1 0.014878 0.000508 -0.002081 0.000000 -0.004593 0.000000
# 2 0.000508 0.017378 0.002169 0.000000 -0.001242 0.000000
# 3 -0.002081 0.002169 0.019837 0.000000 0.003034 0.000000
# 4 0.000000 0.000000 0.000000 0.135051 0.000000 0.325373
# 5 -0.004593 -0.001242 0.003034 0.000000 0.026625 0.000000
# 6 0.000000 0.000000 0.000000 0.325373 0.000000 0.380821
#
#
# Mechanical properties :
#
#
# Convention : Reuss Voigt Hill
#
# Bulk Modulus (GPa) = 18.76701 19.63450 19.20075
# Shear Modulus (GPa) = 8.18117 18.58102 13.38110
#
# Velocity S-wave (km/s) = 1.99901 3.01260 2.55654
# Velocity P-wave (km/s) = 3.80719 4.65740 4.25359
#
# Compressibility (1/GPa) = 0.05328501
#
# Stress axis : x y z
#
# Youngs Moduli (GPa) = 67.21350 57.54516 50.41059
#
# Poissons Ratio (x) = -0.02924 0.10489
# Poissons Ratio (y) = -0.03416 -0.10932
# Poissons Ratio (z) = 0.13985 -0.12480
#
# Static dielectric constant tensor:
#      x y z
#    x 1.764220 0.000000 0.005940 
#    y 0.000000 1.811770 0.000000 
#    z 0.005940 0.000000 1.732170 
# 
# From -- ./inp_files/248152.got.cif
#   From: 2010.05.17/outbox.cif.g08.bks.cpg/sg12_125_cif.got.tgz:248152.got - 2010.06.03 13:09:07.
