data_PCOD9190349
_publ_section_title
;
Structure prediction by ZEFSAII (Michael W. Deem and Ramdas Pophale) SiO2 
 PCOD9190349
Probable space group: C 2/M
;
_chemical_formula_sum "Si O2"
_cell_formula_units_Z 48
_cell_length_a 8.814485
_cell_length_b 18.179162
_cell_length_c 27.601945
_cell_angle_alpha 90.000000
_cell_angle_beta 148.495203
_cell_angle_gamma 90.000000
_cell_volume 2311.292555
_symmetry_space_group_name_H-M "C 2/M"
_symmetry_group_IT_number 12
_symmetry_cell_setting 'monoclinic'
loop_
_space_group_symop_operation_xyz
x,y,z
-x,y,-z
-x,-y,-z
x,-y,z
1/2+x,1/2+y,z
1/2-x,1/2+y,-z
1/2-x,1/2-y,-z
1/2+x,1/2-y,z
loop_
_atom_site_type_symbol
_atom_site_label
_atom_site_fract_x
_atom_site_fract_y
_atom_site_fract_z
Si Si1 0.536342 0.857466 0.958036
Si Si2 0.006251 0.312470 0.425298
Si Si3 0.188379 0.206160 0.132071
Si Si4 0.538970 0.207564 0.323074
Si Si5 0.995574 0.082422 0.557647
Si Si6 0.343610 0.919778 0.107550
O O1 0.336808 0.784920 0.900594
O O2 0.491953 0.905272 0.898059
O O3 0.500000 0.895161 0.000000
O O4 0.865495 0.827470 0.045119
O O5 0.726738 0.282820 0.377200
O O6 0.250000 0.250000 0.500000
O O7 0.933137 0.312172 0.347990
O O8 0.177637 0.386545 0.485070
O O9 0.302862 0.215168 0.217324
O O10 0.378631 0.148434 0.153177
O O11 0.757503 0.142834 0.364420
O O12 0.000000 0.080599 0.500000
O O13 0.050535 0.000000 0.590589
O O14 0.416355 0.000000 0.147879
O O15 0.000000 0.921140 0.000000
#
# Coordination Sequence:
#
# PCOD9190349 Si02
#       6
#     8   8   8   8   8   8
#     4  10  20  34  55  78 113 143 189 236 284 325
#     4   9  18  33  51  78 105 139 173 222 270 322
#     4  10  20  33  52  82 109 149 187 236 276 332
#     4  10  20  30  54  80 107 137 183 223 269 324
#     4   8  15  31  52  74 102 136 174 216 262 317
#     4   9  19  36  55  76 107 148 184 222 281 342
#
# _framework density 20.767600000000002
#
# number of rings (size 3 to 8) (size 9 to 14) (size 15 to 20)
#    0.000    2.667    0.000    4.000    4.667    1.000 
#    0.000    0.000    0.000    9.000    0.000    0.000 
#    0.000    0.000    0.000    0.000    0.000    0.000 
#
# Total GULP energy -133851.706429 kJ/mol
# GULP energy per Si atom -5577.154435 kJ/mol
# Density = 2.072033 g / cm^3
# Si number density = 20.767600 Si / 1000 Ang^3
#
#
#
# Elastic Constant Matrix: (Units=GPa)
#
#
# Indices 1 2 3 4 5 6 
#
# 1 69.8214 20.9127 -3.4543 0.0002 -10.9161 0.0003
# 2 20.9127 86.8379 6.4694 0.0006 5.8788 0.0001
# 3 -3.4543 6.4694 54.5741 -0.0009 -14.5553 0.0004
# 4 0.0002 0.0006 -0.0009 5.4081 -0.0001 -7.2843
# 5 -10.9161 5.8788 -14.5553 -0.0001 23.9590 0.0004
# 6 0.0003 0.0001 0.0004 -7.2843 0.0004 13.8926
#
#
#
# Elastic Compliance Matrix: (Units=1/GPa)
#
#
# Indices 1 2 3 4 5 6 
#
# 1 0.018309 -0.005679 0.005285 0.000000 0.012946 -0.000001
# 2 -0.005679 0.013782 -0.004279 -0.000006 -0.008569 -0.000003
# 3 0.005285 -0.004279 0.023972 0.000010 0.018021 0.000004
# 4 0.000000 -0.000006 0.000010 0.629434 0.000005 0.330031
# 5 0.012946 -0.008569 0.018021 0.000005 0.060687 0.000000
# 6 -0.000001 -0.000003 0.000004 0.330031 0.000000 0.245026
#
#
# Mechanical properties :
#
#
# Convention : Reuss Voigt Hill
#
# Bulk Modulus (GPa) = 21.40563 28.78767 25.09665
# Shear Modulus (GPa) = 4.92064 21.13899 13.02981
#
# Velocity S-wave (km/s) = 1.54095 3.19389 2.50753
# Velocity P-wave (km/s) = 3.67364 5.24339 4.52707
#
# Compressibility (1/GPa) = 0.04671668
#
# Stress axis : x y z
#
# Youngs Moduli (GPa) = 54.61847 72.55692 41.71588
#
# Poissons Ratio (x) = 0.41208 -0.22046
# Poissons Ratio (y) = 0.31020 0.17849
# Poissons Ratio (z) = -0.28865 0.31044
#
# Static dielectric constant tensor:
#      x y z
#    x 1.788550 0.000000 0.014330 
#    y 0.000000 1.754770 0.000000 
#    z 0.014330 0.000000 1.739910 
# 
# From -- ./inp_files/356960.got.cif
#   From: 2010.05.17/outbox.cif.g08.bks.cpg/sg12_179_cif.got.tgz:356960.got - 2010.06.03 13:09:07.
