data_PCOD9190003
_publ_section_title
;
Structure prediction by ZEFSAII (Michael W. Deem and Ramdas Pophale) SiO2 
 PCOD9190003
Probable space group: C 2/M
;
_chemical_formula_sum "Si O2"
_cell_formula_units_Z 64
_cell_length_a 23.822209
_cell_length_b 21.191765
_cell_length_c 17.306974
_cell_angle_alpha 90.000000
_cell_angle_beta 159.463676
_cell_angle_gamma 90.000000
_cell_volume 3065.005741
_symmetry_space_group_name_H-M "C 2/M"
_symmetry_group_IT_number 12
_symmetry_cell_setting 'monoclinic'
loop_
_space_group_symop_operation_xyz
x,y,z
-x,y,-z
-x,-y,-z
x,-y,z
1/2+x,1/2+y,z
1/2-x,1/2+y,-z
1/2-x,1/2-y,-z
1/2+x,1/2-y,z
loop_
_atom_site_type_symbol
_atom_site_label
_atom_site_fract_x
_atom_site_fract_y
_atom_site_fract_z
Si Si1 0.642739 0.669959 0.523525
Si Si2 0.448455 0.072550 0.703262
Si Si3 0.654614 0.267691 0.799377
Si Si4 0.156705 0.759865 0.299300
Si Si5 0.741891 0.071387 0.810671
Si Si6 0.005330 0.365387 0.399652
Si Si7 0.400470 0.387814 0.703474
Si Si8 0.371790 0.163290 0.952526
O O1 0.471905 0.678453 0.342222
O O2 0.715291 0.740133 0.599851
O O3 0.624341 0.636991 0.416699
O O4 0.765663 0.641589 0.743341
O O5 0.478292 0.118663 0.669002
O O6 0.260398 0.075236 0.482314
O O7 0.492845 0.000000 0.744617
O O8 0.550179 0.104477 0.902694
O O9 0.558859 0.203355 0.660037
O O10 0.765700 0.293954 0.874520
O O11 0.750000 0.250000 0.000000
O O12 0.250000 0.750000 0.500000
O O13 0.093325 0.829934 0.227127
O O14 0.015432 0.709315 0.112177
O O15 0.629672 0.087820 0.738943
O O16 0.672671 0.117740 0.656074
O O17 0.712784 0.000000 0.747344
O O18 0.927850 0.079685 0.069331
#
# Coordination Sequence:
#
# PCOD9190003 Si02
#       8
#     8   8   8   8   8   8   8   8
#     4  11  24  40  64  96 136 168 210 279 338 390
#     4  12  25  45  68  93 134 185 229 270 324 392
#     4  12  23  41  68 101 133 165 211 277 342 403
#     4  10  19  39  62  91 131 167 209 273 339 386
#     4  11  24  44  67  95 135 177 224 272 324 400
#     4  11  24  43  68 100 132 172 220 275 340 396
#     4  11  24  43  65  99 132 177 224 274 330 393
#     4  12  24  41  65 100 137 170 220 272 334 399
#
# _framework density 20.880873999999999
#
# number of rings (size 3 to 8) (size 9 to 14) (size 15 to 20)
#    0.000    0.750    3.750    6.375    5.250    0.500 
#    2.250    3.125    0.000    1.500    0.000    0.000 
#    0.000    0.000    0.000    0.000    0.000    0.000 
#
# Total GULP energy -178849.056428 kJ/mol
# GULP energy per Si atom -5589.033013 kJ/mol
# Density = 2.083335 g / cm^3
# Si number density = 20.880874 Si / 1000 Ang^3
#
#
#
# Elastic Constant Matrix: (Units=GPa)
#
#
# Indices 1 2 3 4 5 6 
#
# 1 60.8225 6.5356 29.4162 0.0000 -1.0686 0.0000
# 2 6.5356 66.7684 7.6287 0.0000 2.7544 0.0000
# 3 29.4162 7.6287 109.0797 0.0000 -6.0417 0.0000
# 4 0.0000 0.0000 0.0000 19.9481 0.0000 3.7876
# 5 -1.0686 2.7544 -6.0417 0.0000 36.9136 0.0000
# 6 0.0000 0.0000 0.0000 3.7876 0.0000 19.3730
#
#
#
# Elastic Compliance Matrix: (Units=1/GPa)
#
#
# Indices 1 2 3 4 5 6 
#
# 1 0.019017 -0.001277 -0.005049 0.000000 -0.000181 0.000000
# 2 -0.001277 0.015247 -0.000794 0.000000 -0.001305 0.000000
# 3 -0.005049 -0.000794 0.010677 0.000000 0.001661 0.000000
# 4 0.000000 0.000000 0.000000 0.052063 0.000000 -0.010179
# 5 -0.000181 -0.001305 0.001661 0.000000 0.027454 0.000000
# 6 0.000000 0.000000 0.000000 -0.010179 0.000000 0.053608
#
#
# Mechanical properties :
#
#
# Convention : Reuss Voigt Hill
#
# Bulk Modulus (GPa) = 32.57349 35.98128 34.27738
# Shear Modulus (GPa) = 24.68645 28.11962 26.40303
#
# Velocity S-wave (km/s) = 3.44212 3.67368 3.55978
# Velocity P-wave (km/s) = 5.60635 5.93832 5.77472
#
# Compressibility (1/GPa) = 0.03069982
#
# Stress axis : x y z
#
# Youngs Moduli (GPa) = 52.58360 65.58794 93.66128
#
# Poissons Ratio (x) = 0.08377 0.47291
# Poissons Ratio (y) = 0.06716 0.07438
# Poissons Ratio (z) = 0.26550 0.05209
#
# Static dielectric constant tensor:
#      x y z
#    x 1.932340 0.000000 -0.169970 
#    y 0.000000 1.737630 0.000000 
#    z -0.169970 0.000000 1.906750 
# 
# From -- ./inp_files/290949.got.cif
#   From: 2010.05.17/outbox.cif.g08.bks.cpg/sg12_146_cif.got.tgz:290949.got - 2010.06.03 13:09:07.
