data_PCOD9190879
_publ_section_title
;
Structure prediction by ZEFSAII (Michael W. Deem and Ramdas Pophale) SiO2 
 PCOD9190879
Probable space group: C 2/M
;
_chemical_formula_sum "Si O2"
_cell_formula_units_Z 60
_cell_length_a 10.458316
_cell_length_b 26.950248
_cell_length_c 14.991986
_cell_angle_alpha 90.000000
_cell_angle_beta 128.384685
_cell_angle_gamma 90.000000
_cell_volume 3312.240767
_symmetry_space_group_name_H-M "C 2/M"
_symmetry_group_IT_number 12
_symmetry_cell_setting 'monoclinic'
loop_
_space_group_symop_operation_xyz
x,y,z
-x,y,-z
-x,-y,-z
x,-y,z
1/2+x,1/2+y,z
1/2-x,1/2+y,-z
1/2-x,1/2-y,-z
1/2+x,1/2-y,z
loop_
_atom_site_type_symbol
_atom_site_label
_atom_site_fract_x
_atom_site_fract_y
_atom_site_fract_z
Si Si1 0.684318 0.699050 0.557628
Si Si2 0.388999 0.140141 0.758133
Si Si3 0.316381 0.812750 0.220081
Si Si4 0.683724 0.304182 0.349128
Si Si5 0.000000 0.864935 0.000000
Si Si6 0.883825 0.132929 0.135286
Si Si7 0.172804 0.713050 0.102858
Si Si8 0.346970 0.057552 0.866438
O O1 0.500000 0.715396 0.500000
O O2 0.725472 0.650886 0.632560
O O3 0.710743 0.686363 0.465465
O O4 0.805704 0.743555 0.642122
O O5 0.536616 0.158190 0.760870
O O6 0.372199 0.176107 0.836376
O O7 0.401339 0.084858 0.799625
O O8 0.311237 0.816982 0.325303
O O9 0.300562 0.754642 0.188033
O O10 0.150420 0.834636 0.106649
O O11 0.525894 0.335923 0.248162
O O12 0.066270 0.889862 0.938225
O O13 0.750746 0.177043 0.062437
O O14 0.801328 0.090347 0.158531
O O15 0.000000 0.735621 0.000000
O O16 0.306131 0.000000 0.838318
O O17 0.500000 0.061875 0.000000
#
# Coordination Sequence:
#
# PCOD9190879 Si02
#       8
#     8   8   8   8   4   8   8   8
#     4  11  22  35  53  76 115 155 198 230 263 317
#     4  11  22  35  54  79 108 146 190 229 277 328
#     4  11  21  31  48  76 114 152 182 219 268 329
#     4  10  23  34  50  78 114 155 188 224 268 320
#     4  10  20  32  49  76 114 146 179 216 270 346
#     4  10  20  37  51  76 112 144 184 227 275 328
#     4  11  20  29  47  73 110 149 182 218 263 324
#     4  10  21  40  64  85 106 138 182 238 292 336
#
# _framework density 18.114623999999999
#
# number of rings (size 3 to 8) (size 9 to 14) (size 15 to 20)
#    0.000    1.467    2.000    5.600    5.600    1.067 
#    0.000    0.333    0.000    6.800    0.000    0.933 
#    0.000    0.000    0.000    0.000    0.000    0.000 
#
# Total GULP energy -167152.460829 kJ/mol
# GULP energy per Si atom -5571.748694 kJ/mol
# Density = 1.807339 g / cm^3
# Si number density = 18.114624 Si / 1000 Ang^3
#
#
#
# Elastic Constant Matrix: (Units=GPa)
#
#
# Indices 1 2 3 4 5 6 
#
# 1 111.4724 49.2054 32.8224 0.0000 -16.9692 0.0000
# 2 49.2054 96.0822 30.9886 0.0000 0.8428 0.0000
# 3 32.8224 30.9886 69.3397 0.0000 -12.2797 0.0000
# 4 0.0000 0.0000 0.0000 17.7913 0.0000 2.0441
# 5 -16.9692 0.8428 -12.2797 0.0000 34.7795 0.0000
# 6 0.0000 0.0000 0.0000 2.0441 0.0000 10.8130
#
#
#
# Elastic Compliance Matrix: (Units=1/GPa)
#
#
# Indices 1 2 3 4 5 6 
#
# 1 0.013247 -0.006002 -0.002579 0.000000 0.005698 0.000000
# 2 -0.006002 0.015065 -0.004773 0.000000 -0.004979 0.000000
# 3 -0.002579 -0.004773 0.018745 0.000000 0.005476 0.000000
# 4 0.000000 0.000000 0.000000 0.057455 0.000000 -0.010861
# 5 0.005698 -0.004979 0.005476 0.000000 0.033587 0.000000
# 6 0.000000 0.000000 0.000000 -0.010861 0.000000 0.094534
#
#
# Mechanical properties :
#
#
# Convention : Reuss Voigt Hill
#
# Bulk Modulus (GPa) = 49.14359 55.88080 52.51219
# Shear Modulus (GPa) = 18.78817 23.60195 21.19506
#
# Velocity S-wave (km/s) = 3.22403 3.61352 3.42431
# Velocity P-wave (km/s) = 6.40681 6.95165 6.68478
#
# Compressibility (1/GPa) = 0.02034854
#
# Stress axis : x y z
#
# Youngs Moduli (GPa) = 75.48808 66.38015 53.34630
#
# Poissons Ratio (x) = 0.39843 0.13758
# Poissons Ratio (y) = 0.45310 0.25463
# Poissons Ratio (z) = 0.19468 0.31684
#
# Static dielectric constant tensor:
#      x y z
#    x 1.707210 0.000000 0.005400 
#    y 0.000000 1.596290 0.000000 
#    z 0.005400 0.000000 1.660700 
# 
# From -- ./inp_files/208976.got.cif
#   From: 2010.05.17/outbox.cif.g08.bks.cpg/sg12_105_cif.got.tgz:208976.got - 2010.06.03 13:09:07.
