data_PCOD9190496
_publ_section_title
;
Structure prediction by ZEFSAII (Michael W. Deem and Ramdas Pophale) SiO2 
 PCOD9190496
Probable space group: C 2/M
;
_chemical_formula_sum "Si O2"
_cell_formula_units_Z 64
_cell_length_a 22.937869
_cell_length_b 22.185471
_cell_length_c 5.518191
_cell_angle_alpha 90.000000
_cell_angle_beta 104.586357
_cell_angle_gamma 90.000000
_cell_volume 2717.629388
_symmetry_space_group_name_H-M "C 2/M"
_symmetry_group_IT_number 12
_symmetry_cell_setting 'monoclinic'
loop_
_space_group_symop_operation_xyz
x,y,z
-x,y,-z
-x,-y,-z
x,-y,z
1/2+x,1/2+y,z
1/2-x,1/2+y,-z
1/2-x,1/2-y,-z
1/2+x,1/2-y,z
loop_
_atom_site_type_symbol
_atom_site_label
_atom_site_fract_x
_atom_site_fract_y
_atom_site_fract_z
Si Si1 0.701729 0.427959 0.091925
Si Si2 0.127696 0.390898 0.910714
Si Si3 0.498064 0.843114 0.747331
Si Si4 0.902967 0.797924 0.525139
Si Si5 0.113442 0.432688 0.397688
Si Si6 0.274273 0.635331 0.378657
Si Si7 0.165967 0.276713 0.217131
Si Si8 0.897276 0.164892 0.014123
O O1 0.703305 0.500000 0.079845
O O2 0.733752 0.398900 0.887318
O O3 0.633333 0.400430 0.003173
O O4 0.725455 0.405682 0.380143
O O5 0.149385 0.416203 0.678343
O O6 0.054751 0.389013 0.810523
O O7 0.145821 0.426468 0.172558
O O8 0.141647 0.321964 0.987389
O O9 0.500000 0.807103 0.500000
O O10 0.439861 0.884870 0.681822
O O11 0.500000 0.807707 0.000000
O O12 0.840243 0.835200 0.433928
O O13 0.878594 0.732886 0.597770
O O14 0.929186 0.809813 0.287867
O O15 0.932351 0.825901 0.797896
O O16 0.090316 0.500000 0.401104
O O17 0.227204 0.690631 0.355135
O O18 0.160627 0.211155 0.089160
#
# Coordination Sequence:
#
# PCOD9190496 Si02
#       8
#     8   8   8   8   8   8   8   8
#     4  10  20  34  47  64  84 110 149 184 215 256
#     4  10  21  30  47  69  86 109 139 190 230 254
#     4   8  16  30  46  65  82 105 145 180 213 251
#     4   8  17  29  46  66  80 107 144 177 208 258
#     4  10  20  35  50  63  83 117 156 184 211 262
#     4  10  20  31  50  65  84 115 147 184 219 262
#     4  10  21  31  48  67  92 107 145 182 229 266
#     4   8  18  29  49  65  82 109 140 179 215 255
#
# _framework density 23.549938000000001
#
# number of rings (size 3 to 8) (size 9 to 14) (size 15 to 20)
#    0.750    2.000    0.000    1.125    3.500    5.500 
#    0.000    3.750    0.000    0.000    0.000    0.000 
#    0.000    0.000    0.000    0.000    0.000   11.250 
#
# Total GULP energy -178340.126524 kJ/mol
# GULP energy per Si atom -5573.128954 kJ/mol
# Density = 2.349634 g / cm^3
# Si number density = 23.549938 Si / 1000 Ang^3
#
#
#
# Elastic Constant Matrix: (Units=GPa)
#
#
# Indices 1 2 3 4 5 6 
#
# 1 43.1757 14.7477 23.7256 0.0000 -6.1844 0.0000
# 2 14.7477 124.2490 33.7740 0.0000 1.4413 0.0000
# 3 23.7256 33.7740 241.4662 0.0000 -35.6023 0.0000
# 4 0.0000 0.0000 0.0000 20.2668 0.0000 -11.2796
# 5 -6.1844 1.4413 -35.6023 0.0000 21.6762 0.0000
# 6 0.0000 0.0000 0.0000 -11.2796 0.0000 -3.2420
#
#
#
# Elastic Compliance Matrix: (Units=1/GPa)
#
#
# Indices 1 2 3 4 5 6 
#
# 1 0.025592 -0.002729 -0.001359 0.000000 0.005252 0.000000
# 2 -0.002729 0.008837 -0.001543 0.000000 -0.003901 0.000000
# 3 -0.001359 -0.001543 0.005870 0.000000 0.009357 0.000000
# 4 0.000000 0.000000 0.000000 0.016804 0.000000 -0.058463
# 5 0.005252 -0.003901 0.009357 0.000000 0.063259 0.000000
# 6 0.000000 0.000000 0.000000 -0.058463 0.000000 -0.105045
#
#
# Mechanical properties :
#
#
# Convention : Reuss Voigt Hill
#
# Bulk Modulus (GPa) = 34.43776 61.48728 47.96252
# Shear Modulus (GPa) = 137.90140 30.18312 84.04226
#
# Velocity S-wave (km/s) = 7.66056 3.58392 5.98033
# Velocity P-wave (km/s) = 9.63849 6.57966 8.25205
#
# Compressibility (1/GPa) = 0.02903789
#
# Stress axis : x y z
#
# Youngs Moduli (GPa) = 39.07432 113.16102 170.35144
#
# Poissons Ratio (x) = 0.30885 0.23142
# Poissons Ratio (y) = 0.10665 0.26284
# Poissons Ratio (z) = 0.05308 0.17460
#
# Static dielectric constant tensor:
#      x y z
#    x 1.971760 0.000000 -0.036910 
#    y 0.000000 1.843690 0.000000 
#    z -0.036910 0.000000 2.061610 
# 
# From -- ./inp_files/32497.got.cif
#   From: 2010.05.17/outbox.cif.g08.bks.cpg/sg12_17_cif.got.tgz:32497.got - 2010.06.03 13:09:07.
