data_PCOD9190176
_publ_section_title
;
Structure prediction by ZEFSAII (Michael W. Deem and Ramdas Pophale) SiO2 
 PCOD9190176
Probable space group: C 2/M
;
_chemical_formula_sum "Si O2"
_cell_formula_units_Z 44
_cell_length_a 11.548122
_cell_length_b 19.430737
_cell_length_c 9.839965
_cell_angle_alpha 90.000000
_cell_angle_beta 128.037052
_cell_angle_gamma 90.000000
_cell_volume 1739.028762
_symmetry_space_group_name_H-M "C 2/M"
_symmetry_group_IT_number 12
_symmetry_cell_setting 'monoclinic'
loop_
_space_group_symop_operation_xyz
x,y,z
-x,y,-z
-x,-y,-z
x,-y,z
1/2+x,1/2+y,z
1/2-x,1/2+y,-z
1/2-x,1/2-y,-z
1/2+x,1/2-y,z
loop_
_atom_site_type_symbol
_atom_site_label
_atom_site_fract_x
_atom_site_fract_y
_atom_site_fract_z
Si Si1 0.400951 0.846050 0.617999
Si Si2 0.038273 0.850135 0.681764
Si Si3 0.360461 0.500000 0.284241
Si Si4 0.355375 0.000000 0.614642
Si Si5 0.291794 0.000000 0.100308
Si Si6 0.190027 0.226352 0.283891
Si Si7 0.247440 0.349044 0.927229
O O1 0.346009 0.801796 0.451188
O O2 0.327417 0.806438 0.692618
O O3 0.572198 0.843181 0.780514
O O4 0.342866 0.923016 0.545429
O O5 0.041298 0.932891 0.670703
O O6 0.190648 0.837822 0.876281
O O7 0.000000 0.827982 0.500000
O O8 0.923116 0.815427 0.701414
O O9 0.260741 0.500000 0.346476
O O10 0.238013 0.500000 0.080287
O O11 0.532739 0.000000 0.762385
O O12 0.223172 0.928141 0.100010
O O13 0.175776 0.203382 0.119695
#
# Coordination Sequence:
#
# PCOD9190176 Si02
#       7
#     8   8   4   4   4   8   8
#     4  10  24  43  70 100 134 176 229 283 333 404
#     4  11  24  42  66 101 140 179 227 283 341 405
#     4  10  20  37  64  96 137 182 225 280 343 402
#     4  10  19  40  67  98 132 178 228 276 338 398
#     4   8  19  37  63  98 134 174 232 286 324 400
#     4  11  24  44  69 102 139 177 221 280 346 408
#     4  10  22  44  70  98 135 183 229 278 341 405
#
# _framework density 25.301477999999999
#
# number of rings (size 3 to 8) (size 9 to 14) (size 15 to 20)
#    0.000    1.818    0.000    2.727    0.000    7.273 
#    0.000   20.909    0.000    0.000    0.000    0.000 
#    0.000    0.000    0.000    0.000    0.000    0.000 
#
# Total GULP energy -122832.808055 kJ/mol
# GULP energy per Si atom -5583.309457 kJ/mol
# Density = 2.524389 g / cm^3
# Si number density = 25.301478 Si / 1000 Ang^3
#
#
#
# Elastic Constant Matrix: (Units=GPa)
#
#
# Indices 1 2 3 4 5 6 
#
# 1 62.9936 53.3573 18.6225 0.0000 -6.0415 0.0000
# 2 53.3573 162.7107 38.5701 0.0000 -1.4953 0.0000
# 3 18.6225 38.5701 137.6784 0.0000 -17.5890 0.0000
# 4 0.0000 0.0000 0.0000 27.8043 0.0000 -0.4302
# 5 -6.0415 -1.4953 -17.5890 0.0000 34.6220 0.0000
# 6 0.0000 0.0000 0.0000 -0.4302 0.0000 24.2254
#
#
#
# Elastic Compliance Matrix: (Units=1/GPa)
#
#
# Indices 1 2 3 4 5 6 
#
# 1 0.022462 -0.007193 -0.000601 0.000000 0.003304 0.000000
# 2 -0.007193 0.008902 -0.001746 0.000000 -0.001757 0.000000
# 3 -0.000601 -0.001746 0.008353 0.000000 0.004063 0.000000
# 4 0.000000 0.000000 0.000000 0.035976 0.000000 0.000639
# 5 0.003304 -0.001757 0.004063 0.000000 0.031448 0.000000
# 6 0.000000 0.000000 0.000000 0.000639 0.000000 0.041290
#
#
# Mechanical properties :
#
#
# Convention : Reuss Voigt Hill
#
# Bulk Modulus (GPa) = 48.45527 64.94251 56.69889
# Shear Modulus (GPa) = 28.67148 34.18585 31.42866
#
# Velocity S-wave (km/s) = 3.36995 3.67977 3.52826
# Velocity P-wave (km/s) = 5.85959 6.61646 6.24949
#
# Compressibility (1/GPa) = 0.02063759
#
# Stress axis : x y z
#
# Youngs Moduli (GPa) = 44.51993 112.33065 119.72181
#
# Poissons Ratio (x) = 0.80800 0.07196
# Poissons Ratio (y) = 0.32023 0.20898
# Poissons Ratio (z) = 0.02676 0.19608
#
# Static dielectric constant tensor:
#      x y z
#    x 2.021040 0.000000 0.034950 
#    y 0.000000 2.064270 0.000000 
#    z 0.034950 0.000000 2.012710 
# 
# From -- ./inp_files/131876.got.cif
#   From: 2010.05.17/outbox.cif.g08.bks.cpg/sg12_66_cif.got.tgz:131876.got - 2010.06.03 13:09:07.
