data_PCOD9190150
_publ_section_title
;
Structure prediction by ZEFSAII (Michael W. Deem and Ramdas Pophale) SiO2 
 PCOD9190150
Probable space group: C 2/M
;
_chemical_formula_sum "Si O2"
_cell_formula_units_Z 44
_cell_length_a 17.015938
_cell_length_b 15.086649
_cell_length_c 26.741892
_cell_angle_alpha 90.000000
_cell_angle_beta 161.509788
_cell_angle_gamma 90.000000
_cell_volume 2177.185624
_symmetry_space_group_name_H-M "C 2/M"
_symmetry_group_IT_number 12
_symmetry_cell_setting 'monoclinic'
loop_
_space_group_symop_operation_xyz
x,y,z
-x,y,-z
-x,-y,-z
x,-y,z
1/2+x,1/2+y,z
1/2-x,1/2+y,-z
1/2-x,1/2-y,-z
1/2+x,1/2-y,z
loop_
_atom_site_type_symbol
_atom_site_label
_atom_site_fract_x
_atom_site_fract_y
_atom_site_fract_z
Si Si1 0.965072 0.398202 0.920494
Si Si2 0.727427 0.097746 0.735593
Si Si3 0.977723 0.730762 0.711454
Si Si4 0.994725 0.210817 0.380950
Si Si5 0.500000 0.643355 0.000000
Si Si6 0.596275 0.674004 0.878011
O O1 0.886816 0.500000 0.874187
O O2 0.762025 0.340247 0.769054
O O3 0.000000 0.370969 0.000000
O O4 0.216226 0.385138 0.041377
O O5 0.556802 0.186054 0.635535
O O6 0.873248 0.096597 0.876468
O O7 0.927917 0.118427 0.813785
O O8 0.612099 0.000000 0.658513
O O9 0.962974 0.792387 0.653346
O O10 0.257741 0.692758 0.877687
O O11 0.938012 0.776391 0.740194
O O12 0.733571 0.671733 0.553177
O O13 0.750000 0.750000 0.000000
#
# Coordination Sequence:
#
# PCOD9190150 Si02
#       6
#     8   8   8   8   4   8
#     4  11  22  40  66  92 123 163 209 256 308 369
#     4  11  23  38  60  91 124 164 208 254 306 370
#     4  10  20  37  65  90 115 164 205 249 312 364
#     4  10  21  40  62  86 126 161 203 255 304 368
#     4  10  19  40  64  88 117 160 219 250 304 378
#     4  12  20  37  64  90 122 162 208 254 305 363
#
# _framework density 20.209576999999999
#
# number of rings (size 3 to 8) (size 9 to 14) (size 15 to 20)
#    0.000    1.273    5.455    1.909    1.273    0.727 
#    0.000   11.818    0.000    1.091    0.000    0.000 
#    0.000    0.000    0.000    0.000    0.000    0.000 
#
# Total GULP energy -122547.409278 kJ/mol
# GULP energy per Si atom -5570.336785 kJ/mol
# Density = 2.016358 g / cm^3
# Si number density = 20.209577 Si / 1000 Ang^3
#
#
#
# Elastic Constant Matrix: (Units=GPa)
#
#
# Indices 1 2 3 4 5 6 
#
# 1 108.3118 14.2035 3.5762 0.0177 2.4133 0.0197
# 2 14.2035 89.7973 23.2576 0.0771 5.3044 -0.0076
# 3 3.5762 23.2576 89.6936 0.1599 8.5945 -0.0209
# 4 0.0177 0.0771 0.1599 -0.5361 -0.0439 -0.8583
# 5 2.4133 5.3044 8.5945 -0.0439 31.9188 -0.0101
# 6 0.0197 -0.0076 -0.0209 -0.8583 -0.0101 14.7912
#
#
#
# Elastic Compliance Matrix: (Units=1/GPa)
#
#
# Indices 1 2 3 4 5 6 
#
# 1 0.009435 -0.001478 0.000053 0.000162 -0.000482 -0.000004
# 2 -0.001478 0.012212 -0.003003 0.000821 -0.001108 0.000051
# 3 0.000053 -0.003003 0.012187 0.003122 -0.002782 0.000195
# 4 0.000162 0.000821 0.003122 -1.705605 -0.003369 -0.098967
# 5 -0.000482 -0.001108 -0.002782 -0.003369 0.032294 -0.000177
# 6 -0.000004 0.000051 0.000195 -0.098967 -0.000177 0.061865
#
#
# Mechanical properties :
#
#
# Convention : Reuss Voigt Hill
#
# Bulk Modulus (GPa) = 40.03428 41.09748 40.56588
# Shear Modulus (GPa) = -3.20425 25.68581 11.24078
#
# Velocity S-wave (km/s) = -1.26054 3.56894 2.36097
# Velocity P-wave (km/s) = 4.21117 6.11252 5.24866
#
# Compressibility (1/GPa) = 0.02497859
#
# Stress axis : x y z
#
# Youngs Moduli (GPa) = 105.98433 81.88338 82.05665
#
# Poissons Ratio (x) = 0.12101 -0.00434
# Poissons Ratio (y) = 0.15662 0.24642
# Poissons Ratio (z) = -0.00560 0.24590
#
# Static dielectric constant tensor:
#      x y z
#    x 1.725790 -0.000010 0.038610 
#    y -0.000010 1.769690 -0.000030 
#    z 0.038610 -0.000030 1.777860 
# 
# From -- ./inp_files/364147.got.cif
#   From: 2010.05.17/outbox.cif.g08.bks.cpg/sg12_183_cif.got.tgz:364147.got - 2010.06.03 13:09:07.
