data_PCOD9190336
_publ_section_title
;
Structure prediction by ZEFSAII (Michael W. Deem and Ramdas Pophale) SiO2 
 PCOD9190336
Probable space group: C 2/M
;
_chemical_formula_sum "Si O2"
_cell_formula_units_Z 48
_cell_length_a 8.882330
_cell_length_b 20.604957
_cell_length_c 16.374154
_cell_angle_alpha 90.000000
_cell_angle_beta 127.348417
_cell_angle_gamma 90.000000
_cell_volume 2382.337973
_symmetry_space_group_name_H-M "C 2/M"
_symmetry_group_IT_number 12
_symmetry_cell_setting 'monoclinic'
loop_
_space_group_symop_operation_xyz
x,y,z
-x,y,-z
-x,-y,-z
x,-y,z
1/2+x,1/2+y,z
1/2-x,1/2+y,-z
1/2-x,1/2-y,-z
1/2+x,1/2-y,z
loop_
_atom_site_type_symbol
_atom_site_label
_atom_site_fract_x
_atom_site_fract_y
_atom_site_fract_z
Si Si1 0.923318 0.000000 0.260143
Si Si2 0.505534 0.142278 0.174307
Si Si3 0.377823 0.644797 0.036041
Si Si4 0.527413 0.000000 0.191459
Si Si5 0.068029 0.143272 0.756912
Si Si6 0.709736 0.500000 0.965508
Si Si7 0.916614 0.724676 0.644002
Si Si8 0.500000 0.760618 0.500000
O O1 0.754266 0.000000 0.270050
O O2 0.016745 0.071294 0.289525
O O3 0.810323 0.000000 0.137451
O O4 0.464620 0.070859 0.199764
O O5 0.709770 0.140258 0.196947
O O6 0.509373 0.190054 0.251504
O O7 0.340965 0.160326 0.056450
O O8 0.438872 0.660898 0.148626
O O9 0.385495 0.566243 0.037021
O O10 0.500000 0.670701 0.000000
O O11 0.423650 0.000000 0.068620
O O12 0.969283 0.199645 0.672969
O O13 0.690996 0.718974 0.563747
O O14 0.000682 0.701280 0.585675
#
# Coordination Sequence:
#
# PCOD9190336 Si02
#       8
#     4   8   8   4   8   4   8   4
#     4   8  15  29  53  81 112 147 188 223 261 317
#     4  10  20  36  58  85 116 152 187 225 270 328
#     4  10  20  30  51  83 123 156 184 220 267 327
#     4   8  15  29  53  81 112 147 188 223 261 317
#     4  10  20  36  58  85 116 152 187 225 270 328
#     4   8  14  28  44  74 115 160 189 210 257 324
#     4  11  22  41  64  84 108 139 190 235 288 336
#     4  10  24  42  64  82 102 144 188 240 284 350
#
# _framework density 20.148274000000001
#
# number of rings (size 3 to 8) (size 9 to 14) (size 15 to 20)
#    0.000    2.333    1.667    1.000    2.333    4.667 
#    0.000    0.000    0.000    6.000    0.000    0.000 
#    0.000    0.000    0.000    0.000    0.000    0.000 
#
# Total GULP energy -133631.990293 kJ/mol
# GULP energy per Si atom -5567.999596 kJ/mol
# Density = 2.010242 g / cm^3
# Si number density = 20.148274 Si / 1000 Ang^3
#
#
#
# Elastic Constant Matrix: (Units=GPa)
#
#
# Indices 1 2 3 4 5 6 
#
# 1 75.6952 4.2407 10.7679 0.0000 -15.7299 0.0000
# 2 4.2407 84.4802 28.1382 0.0000 -4.2908 0.0000
# 3 10.7679 28.1382 59.6021 0.0000 -9.7331 0.0000
# 4 0.0000 0.0000 0.0000 -7.6940 0.0000 -1.3252
# 5 -15.7299 -4.2908 -9.7331 0.0000 30.7291 0.0000
# 6 0.0000 0.0000 0.0000 -1.3252 0.0000 1.8955
#
#
#
# Elastic Compliance Matrix: (Units=1/GPa)
#
#
# Indices 1 2 3 4 5 6 
#
# 1 0.014916 0.000146 -0.001596 0.000000 0.007150 0.000000
# 2 0.000146 0.014048 -0.006671 0.000000 -0.000077 0.000000
# 3 -0.001596 -0.006671 0.021017 0.000000 0.004908 0.000000
# 4 0.000000 0.000000 0.000000 -0.116003 0.000000 -0.081103
# 5 0.007150 -0.000077 0.004908 0.000000 0.037746 0.000000
# 6 0.000000 0.000000 0.000000 -0.081103 0.000000 0.470866
#
#
# Mechanical properties :
#
#
# Convention : Reuss Voigt Hill
#
# Bulk Modulus (GPa) = 29.63954 34.00792 31.82373
# Shear Modulus (GPa) = 10.63653 16.76150 13.69901
#
# Velocity S-wave (km/s) = 2.30013 2.88741 2.61034
# Velocity P-wave (km/s) = 4.66870 5.29449 4.99141
#
# Compressibility (1/GPa) = 0.03373871
#
# Stress axis : x y z
#
# Youngs Moduli (GPa) = 67.04421 71.18571 47.58021
#
# Poissons Ratio (x) = -0.01039 0.07594
# Poissons Ratio (y) = -0.00979 0.31740
# Poissons Ratio (z) = 0.10700 0.47487
#
# Static dielectric constant tensor:
#      x y z
#    x 1.783970 0.000000 -0.010070 
#    y 0.000000 1.768630 0.000000 
#    z -0.010070 0.000000 1.679820 
# 
# From -- ./inp_files/259053.got.cif
#   From: 2010.05.17/outbox.cif.g08.bks.cpg/sg12_130_cif.got.tgz:259053.got - 2010.06.03 13:09:07.
