data_PCOD9190110
_publ_section_title
;
Structure prediction by ZEFSAII (Michael W. Deem and Ramdas Pophale) SiO2 
 PCOD9190110
Probable space group: C 2/M
;
_chemical_formula_sum "Si O2"
_cell_formula_units_Z 60
_cell_length_a 9.944132
_cell_length_b 35.295573
_cell_length_c 8.923496
_cell_angle_alpha 90.000000
_cell_angle_beta 110.071425
_cell_angle_gamma 90.000000
_cell_volume 2941.782324
_symmetry_space_group_name_H-M "C 2/M"
_symmetry_group_IT_number 12
_symmetry_cell_setting 'monoclinic'
loop_
_space_group_symop_operation_xyz
x,y,z
-x,y,-z
-x,-y,-z
x,-y,z
1/2+x,1/2+y,z
1/2-x,1/2+y,-z
1/2-x,1/2-y,-z
1/2+x,1/2-y,z
loop_
_atom_site_type_symbol
_atom_site_label
_atom_site_fract_x
_atom_site_fract_y
_atom_site_fract_z
Si Si1 0.010263 0.957757 0.761369
Si Si2 0.054919 0.219258 0.861181
Si Si3 0.279868 0.711962 0.599984
Si Si4 0.298068 0.133800 0.517935
Si Si5 0.086865 0.617484 0.770682
Si Si6 0.659484 0.200890 0.891125
Si Si7 0.746796 0.542864 0.112096
Si Si8 0.500000 0.398997 0.500000
O O1 0.855603 0.952770 0.781279
O O2 0.037750 0.925906 0.652458
O O3 0.013032 0.000000 0.696880
O O4 0.132705 0.956029 0.933848
O O5 0.045968 0.265076 0.862487
O O6 0.950809 0.205538 0.689820
O O7 0.221415 0.207845 0.933567
O O8 0.000000 0.203650 0.000000
O O9 0.250000 0.750000 0.500000
O O10 0.196350 0.679094 0.481888
O O11 0.223200 0.710729 0.749718
O O12 0.419010 0.116115 0.669147
O O13 0.334113 0.122199 0.360634
O O14 0.139803 0.123551 0.506333
O O15 0.115638 0.656853 0.870182
O O16 0.146399 0.578248 0.859420
O O17 0.809915 0.500000 0.140265
#
# Coordination Sequence:
#
# PCOD9190110 Si02
#       8
#     8   8   8   8   8   8   8   4
#     4   9  19  36  61  89 118 151 189 234 292 351
#     4   9  18  34  53  80 108 142 198 239 282 344
#     4  10  20  35  53  77 109 154 191 236 284 339
#     4  10  23  35  56  84 118 148 197 233 291 351
#     4  10  19  40  57  82 114 157 189 241 289 348
#     4   9  19  34  56  77 108 149 189 238 290 340
#     4   9  18  37  63  88 112 152 202 236 276 361
#     4  12  21  38  56  92 122 148 178 252 294 340
#
# _framework density 20.395797999999999
#
# number of rings (size 3 to 8) (size 9 to 14) (size 15 to 20)
#    0.000    2.400    1.333    1.800    0.000    3.733 
#    4.800    8.667    0.000    1.600    0.000    0.000 
#    0.000    0.000    0.000    0.000    0.000    0.000 
#
# Total GULP energy -167286.636008 kJ/mol
# GULP energy per Si atom -5576.221200 kJ/mol
# Density = 2.034938 g / cm^3
# Si number density = 20.395798 Si / 1000 Ang^3
#
#
#
# Elastic Constant Matrix: (Units=GPa)
#
#
# Indices 1 2 3 4 5 6 
#
# 1 65.5554 14.9075 10.1315 0.0000 11.8474 0.0000
# 2 14.9075 111.7551 22.8135 0.0000 12.3624 0.0000
# 3 10.1315 22.8135 41.2221 0.0000 13.3295 0.0000
# 4 0.0000 0.0000 0.0000 33.3529 0.0000 5.1507
# 5 11.8474 12.3624 13.3295 0.0000 23.2806 0.0000
# 6 0.0000 0.0000 0.0000 5.1507 0.0000 28.4810
#
#
#
# Elastic Compliance Matrix: (Units=1/GPa)
#
#
# Indices 1 2 3 4 5 6 
#
# 1 0.017040 -0.001228 -0.001123 0.000000 -0.007377 0.000000
# 2 -0.001228 0.010311 -0.004708 0.000000 -0.002155 0.000000
# 3 -0.001123 -0.004708 0.032088 0.000000 -0.015301 0.000000
# 4 0.000000 0.000000 0.000000 0.030844 0.000000 -0.005578
# 5 -0.007377 -0.002155 -0.015301 0.000000 0.056613 0.000000
# 6 0.000000 0.000000 0.000000 -0.005578 0.000000 0.036120
#
#
# Mechanical properties :
#
#
# Convention : Reuss Voigt Hill
#
# Bulk Modulus (GPa) = 22.06458 34.91528 28.48993
# Shear Modulus (GPa) = 23.55801 28.40155 25.97978
#
# Velocity S-wave (km/s) = 3.40228 3.73570 3.57288
# Velocity P-wave (km/s) = 5.12598 5.98024 5.56951
#
# Compressibility (1/GPa) = 0.04532151
#
# Stress axis : x y z
#
# Youngs Moduli (GPa) = 58.68472 96.98004 31.16420
#
# Poissons Ratio (x) = 0.11907 0.03501
# Poissons Ratio (y) = 0.07205 0.14672
# Poissons Ratio (z) = 0.06592 0.45658
#
# Static dielectric constant tensor:
#      x y z
#    x 1.795180 0.000000 -0.019860 
#    y 0.000000 1.712910 0.000000 
#    z -0.019860 0.000000 1.728200 
# 
# From -- ./inp_files/54772.got.cif
#   From: 2010.05.17/outbox.cif.g08.bks.cpg/sg12_28_cif.got.tgz:54772.got - 2010.06.03 13:09:07.
