data_PCOD9190433
_publ_section_title
;
Structure prediction by ZEFSAII (Michael W. Deem and Ramdas Pophale) SiO2 
 PCOD9190433
Probable space group: C 2/M
;
_chemical_formula_sum "Si O2"
_cell_formula_units_Z 56
_cell_length_a 9.368234
_cell_length_b 28.729105
_cell_length_c 13.396503
_cell_angle_alpha 90.000000
_cell_angle_beta 125.694567
_cell_angle_gamma 90.000000
_cell_volume 2928.205568
_symmetry_space_group_name_H-M "C 2/M"
_symmetry_group_IT_number 12
_symmetry_cell_setting 'monoclinic'
loop_
_space_group_symop_operation_xyz
x,y,z
-x,y,-z
-x,-y,-z
x,-y,z
1/2+x,1/2+y,z
1/2-x,1/2+y,-z
1/2-x,1/2-y,-z
1/2+x,1/2-y,z
loop_
_atom_site_type_symbol
_atom_site_label
_atom_site_fract_x
_atom_site_fract_y
_atom_site_fract_z
Si Si1 0.429605 0.119053 0.578026
Si Si2 0.248675 0.055642 0.231736
Si Si3 0.226718 0.555993 0.196520
Si Si4 0.484042 0.705706 0.654931
Si Si5 0.567170 0.397903 0.336739
Si Si6 0.802189 0.703994 0.642608
Si Si7 0.326606 0.056077 0.052252
O O1 0.500000 0.140076 0.500000
O O2 0.569087 0.079508 0.661047
O O3 0.237118 0.098540 0.476842
O O4 0.410361 0.158173 0.654940
O O5 0.108390 0.072945 0.254425
O O6 0.217357 0.070313 0.104327
O O7 0.260375 0.000000 0.240032
O O8 0.251621 0.500000 0.211708
O O9 0.388830 0.582596 0.311630
O O10 0.032159 0.566487 0.156543
O O11 0.221116 0.571991 0.077892
O O12 0.451805 0.656626 0.695282
O O13 0.680657 0.704249 0.690903
O O14 0.344240 0.706692 0.505871
O O15 0.430462 0.751657 0.692838
O O16 0.315162 0.000000 0.040955
#
# Coordination Sequence:
#
# PCOD9190433 Si02
#       7
#     8   8   8   8   8   8   8
#     4   9  20  32  48  72 106 139 170 200 247 307
#     4  10  20  33  50  71 103 142 176 204 242 300
#     4   9  17  32  52  71 101 131 163 215 258 294
#     4   9  19  30  48  72  96 130 165 208 257 299
#     4  10  20  31  46  76 105 127 169 210 248 300
#     4   9  18  31  49  67  99 132 167 208 251 292
#     4   8  17  33  51  71  93 131 175 209 253 299
#
# _framework density 19.124341000000001
#
# number of rings (size 3 to 8) (size 9 to 14) (size 15 to 20)
#    0.000    2.857    0.000    1.286   10.000    3.714 
#    0.000    2.143    0.000    2.571    0.000    1.000 
#    0.000    0.000    0.000    0.000    0.000    0.000 
#
# Total GULP energy -156033.173309 kJ/mol
# GULP energy per Si atom -5572.613332 kJ/mol
# Density = 1.908081 g / cm^3
# Si number density = 19.124341 Si / 1000 Ang^3
#
#
#
# Elastic Constant Matrix: (Units=GPa)
#
#
# Indices 1 2 3 4 5 6 
#
# 1 74.1311 38.5454 16.9799 0.0000 7.4867 0.0000
# 2 38.5454 77.8392 2.8290 0.0000 -1.0564 0.0000
# 3 16.9799 2.8290 10.5943 0.0000 8.5586 0.0000
# 4 0.0000 0.0000 0.0000 -3.5576 0.0000 -5.8574
# 5 7.4867 -1.0564 8.5586 0.0000 29.8060 0.0000
# 6 0.0000 0.0000 0.0000 -5.8574 0.0000 26.0675
#
#
#
# Elastic Compliance Matrix: (Units=1/GPa)
#
#
# Indices 1 2 3 4 5 6 
#
# 1 0.032346 -0.013979 -0.053573 0.000000 0.006763 0.000000
# 2 -0.013979 0.019097 0.018126 0.000000 -0.001017 0.000000
# 3 -0.053573 0.018126 0.213564 0.000000 -0.047225 0.000000
# 4 0.000000 0.000000 0.000000 -0.205179 0.000000 -0.046104
# 5 0.006763 -0.001017 -0.047225 0.000000 0.045376 0.000000
# 6 0.000000 0.000000 0.000000 -0.046104 0.000000 0.028002
#
#
# Mechanical properties :
#
#
# Convention : Reuss Voigt Hill
#
# Bulk Modulus (GPa) = 6.01846 31.03035 18.52441
# Shear Modulus (GPa) = 17.39485 17.41053 17.40269
#
# Velocity S-wave (km/s) = 3.01917 3.02053 3.01985
# Velocity P-wave (km/s) = 3.91251 5.33157 4.67618
#
# Compressibility (1/GPa) = 0.16615542
#
# Stress axis : x y z
#
# Youngs Moduli (GPa) = 30.91567 52.36542 4.68245
#
# Poissons Ratio (x) = 0.73200 0.25085
# Poissons Ratio (y) = 0.43216 -0.08488
# Poissons Ratio (z) = 1.65625 -0.94920
#
# Static dielectric constant tensor:
#      x y z
#    x 1.709760 0.000000 -0.014430 
#    y 0.000000 1.653380 0.000000 
#    z -0.014430 0.000000 1.676310 
# 
# From -- ./inp_files/199944.got.cif
#   From: 2010.05.17/outbox.cif.g08.bks.cpg/sg12_100_cif.got.tgz:199944.got - 2010.06.03 13:09:07.
