data_PCOD9190323
_publ_section_title
;
Structure prediction by ZEFSAII (Michael W. Deem and Ramdas Pophale) SiO2 
 PCOD9190323
Probable space group: C 2/M
;
_chemical_formula_sum "Si O2"
_cell_formula_units_Z 44
_cell_length_a 20.038178
_cell_length_b 20.370238
_cell_length_c 5.442461
_cell_angle_alpha 90.000000
_cell_angle_beta 57.864296
_cell_angle_gamma 90.000000
_cell_volume 1881.159824
_symmetry_space_group_name_H-M "C 2/M"
_symmetry_group_IT_number 12
_symmetry_cell_setting 'monoclinic'
loop_
_space_group_symop_operation_xyz
x,y,z
-x,y,-z
-x,-y,-z
x,-y,z
1/2+x,1/2+y,z
1/2-x,1/2+y,-z
1/2-x,1/2-y,-z
1/2+x,1/2-y,z
loop_
_atom_site_type_symbol
_atom_site_label
_atom_site_fract_x
_atom_site_fract_y
_atom_site_fract_z
Si Si1 0.453230 0.743292 0.847578
Si Si2 0.217808 0.577719 0.330264
Si Si3 0.186364 0.078281 0.365115
Si Si4 0.551787 0.000000 0.145614
Si Si5 0.907132 0.367900 0.747859
Si Si6 0.514734 0.396226 0.726609
O O1 0.500000 0.744314 0.500000
O O2 0.388445 0.799342 0.921214
O O3 0.452418 0.664395 0.875938
O O4 0.500000 0.765630 0.000000
O O5 0.196447 0.500000 0.382350
O O6 0.261113 0.594631 0.498753
O O7 0.141914 0.620085 0.402958
O O8 0.272833 0.586651 0.979924
O O9 0.106986 0.120937 0.532158
O O10 0.167187 0.000000 0.423994
O O11 0.500000 0.000000 0.500000
O O12 0.602438 0.933400 0.067244
O O13 0.500000 0.000000 0.000000
O O14 0.000000 0.367849 0.500000
O O15 0.500000 0.429810 0.500000
O O16 0.500000 0.434856 0.000000
#
# Coordination Sequence:
#
# PCOD9190323 Si02
#       6
#     8   8   8   4   8   8
#     4   9  19  34  55  79 108 145 189 236 281 323
#     4  10  21  37  55  84 122 157 185 230 290 348
#     4  10  22  38  58  86 120 151 187 233 294 353
#     4  10  20  30  48  80 110 140 182 236 270 318
#     4  10  20  36  57  84 117 154 198 237 276 333
#     4  10  20  37  63  86 111 147 193 243 289 339
#
# _framework density 23.389823
#
# number of rings (size 3 to 8) (size 9 to 14) (size 15 to 20)
#    0.000    2.182    0.909    1.636    0.000    6.545 
#    0.000    0.000    0.000   41.455    0.000    0.000 
#    0.000    0.000    0.000    0.000    0.000    0.000 
#
# Total GULP energy -122529.513591 kJ/mol
# GULP energy per Si atom -5569.523345 kJ/mol
# Density = 2.333659 g / cm^3
# Si number density = 23.389823 Si / 1000 Ang^3
#
#
#
# Elastic Constant Matrix: (Units=GPa)
#
#
# Indices 1 2 3 4 5 6 
#
# 1 148.0653 24.2097 51.1675 0.0000 32.4359 0.0000
# 2 24.2097 131.7956 4.0950 0.0000 7.2446 0.0000
# 3 51.1675 4.0950 118.2604 0.0000 29.0754 0.0000
# 4 0.0000 0.0000 0.0000 -13.2218 0.0000 -13.6458
# 5 32.4359 7.2446 29.0754 0.0000 52.5261 0.0000
# 6 0.0000 0.0000 0.0000 -13.6458 0.0000 -8.3089
#
#
#
# Elastic Compliance Matrix: (Units=1/GPa)
#
#
# Indices 1 2 3 4 5 6 
#
# 1 0.008751 -0.001319 -0.002844 0.000000 -0.003648 0.000000
# 2 -0.001319 0.007844 0.000422 0.000000 -0.000501 0.000000
# 3 -0.002844 0.000422 0.010712 0.000000 -0.004232 0.000000
# 4 0.000000 0.000000 0.000000 0.108829 0.000000 -0.178730
# 5 -0.003648 -0.000501 -0.004232 0.000000 0.023702 0.000000
# 6 0.000000 0.000000 0.000000 -0.178730 0.000000 0.173177
#
#
# Mechanical properties :
#
#
# Convention : Reuss Voigt Hill
#
# Bulk Modulus (GPa) = 50.43640 61.89620 56.16630
# Shear Modulus (GPa) = 14.40484 27.44234 20.92359
#
# Velocity S-wave (km/s) = 2.48434 3.42900 2.99416
# Velocity P-wave (km/s) = 5.46255 6.49598 6.00155
#
# Compressibility (1/GPa) = 0.01982695
#
# Stress axis : x y z
#
# Youngs Moduli (GPa) = 114.26879 127.48317 93.35193
#
# Poissons Ratio (x) = 0.16811 0.26548
# Poissons Ratio (y) = 0.15068 -0.03941
# Poissons Ratio (z) = 0.32496 -0.05382
#
# Static dielectric constant tensor:
#      x y z
#    x 1.920780 0.000000 -0.017210 
#    y 0.000000 2.060200 0.000000 
#    z -0.017210 0.000000 1.944830 
# 
# From -- ./inp_files/16825.got.cif
#   From: 2010.05.17/outbox.cif.g08.bks.cpg/sg12_9_cif.got.tgz:16825.got - 2010.06.03 13:09:07.
