data_PCOD9190506
_publ_section_title
;
Structure prediction by ZEFSAII (Michael W. Deem and Ramdas Pophale) SiO2 
 PCOD9190506
Probable space group: C 2/M
;
_chemical_formula_sum "Si O2"
_cell_formula_units_Z 64
_cell_length_a 22.889224
_cell_length_b 15.163081
_cell_length_c 12.081518
_cell_angle_alpha 90.000000
_cell_angle_beta 135.221400
_cell_angle_gamma 90.000000
_cell_volume 2953.522932
_symmetry_space_group_name_H-M "C 2/M"
_symmetry_group_IT_number 12
_symmetry_cell_setting 'monoclinic'
loop_
_space_group_symop_operation_xyz
x,y,z
-x,y,-z
-x,-y,-z
x,-y,z
1/2+x,1/2+y,z
1/2-x,1/2+y,-z
1/2-x,1/2-y,-z
1/2+x,1/2-y,z
loop_
_atom_site_type_symbol
_atom_site_label
_atom_site_fract_x
_atom_site_fract_y
_atom_site_fract_z
Si Si1 0.154681 0.665983 0.492870
Si Si2 0.599118 0.407613 0.140791
Si Si3 0.811846 0.396817 0.690403
Si Si4 0.515433 0.902248 0.182824
Si Si5 0.072109 0.854302 0.342535
Si Si6 0.263065 0.272296 0.216153
Si Si7 0.404984 0.728691 0.050107
Si Si8 0.905619 0.098937 0.386646
O O1 0.074509 0.602863 0.372713
O O2 0.114596 0.759379 0.406980
O O3 0.211594 0.635310 0.466173
O O4 0.198461 0.687348 0.667418
O O5 0.636416 0.500000 0.149267
O O6 0.608332 0.398061 0.282927
O O7 0.500000 0.413355 0.000000
O O8 0.616885 0.321185 0.094342
O O9 0.792121 0.500000 0.679566
O O10 0.913016 0.390348 0.815063
O O11 0.775569 0.335956 0.738183
O O12 0.597974 0.405663 0.485363
O O13 0.452800 0.821120 0.100666
O O14 0.478623 0.000000 0.124462
O O15 0.972613 0.835579 0.199277
O O16 0.336704 0.330038 0.261441
O O17 0.187534 0.248604 0.033189
O O18 0.000000 0.131342 0.500000
O O19 0.896540 0.000000 0.327203
#
# Coordination Sequence:
#
# PCOD9190506 Si02
#       8
#     8   8   8   8   8   8   8   8
#     4   8  16  30  43  65  99 139 171 198 242 298
#     4   9  17  28  45  72 109 148 178 196 229 301
#     4   9  17  28  45  71 103 140 178 204 241 299
#     4   8  17  31  47  68 103 149 180 200 235 293
#     4   9  17  32  53  71  99 140 175 204 253 308
#     4  11  20  30  49  74 102 133 167 217 268 303
#     4  10  20  31  50  80 116 143 169 203 249 311
#     4  10  22  40  58  73  92 126 179 235 277 312
#
# _framework density 21.669039000000001
#
# number of rings (size 3 to 8) (size 9 to 14) (size 15 to 20)
#    0.750    2.000    0.000    1.875    3.500    2.500 
#    0.000    5.625    0.000    0.000    0.000    0.000 
#    0.000   93.000    0.000    0.000    0.000    0.000 
#
# Total GULP energy -178167.585595 kJ/mol
# GULP energy per Si atom -5567.737050 kJ/mol
# Density = 2.161972 g / cm^3
# Si number density = 21.669039 Si / 1000 Ang^3
#
#
#
# Elastic Constant Matrix: (Units=GPa)
#
#
# Indices 1 2 3 4 5 6 
#
# 1 17.3335 8.6779 18.1688 0.0000 10.5087 0.0000
# 2 8.6779 102.4594 23.6886 0.0000 9.2673 0.0000
# 3 18.1688 23.6886 115.6696 0.0000 24.6565 0.0000
# 4 0.0000 0.0000 0.0000 8.5637 0.0000 -0.6802
# 5 10.5087 9.2673 24.6565 0.0000 25.5050 0.0000
# 6 0.0000 0.0000 0.0000 -0.6802 0.0000 24.6444
#
#
#
# Elastic Compliance Matrix: (Units=1/GPa)
#
#
# Indices 1 2 3 4 5 6 
#
# 1 0.082149 -0.003036 -0.006678 0.000000 -0.026289 0.000000
# 2 -0.003036 0.010450 -0.001411 0.000000 -0.001182 0.000000
# 3 -0.006678 -0.001411 0.011698 0.000000 -0.008045 0.000000
# 4 0.000000 0.000000 0.000000 0.117029 0.000000 0.003230
# 5 -0.026289 -0.001182 -0.008045 0.000000 0.058246 0.000000
# 6 0.000000 0.000000 0.000000 0.003230 0.000000 0.040666
#
#
# Mechanical properties :
#
#
# Convention : Reuss Voigt Hill
#
# Bulk Modulus (GPa) = 12.18816 37.39256 24.79036
# Shear Modulus (GPa) = 13.51941 24.07109 18.79525
#
# Velocity S-wave (km/s) = 2.50052 3.33656 2.94832
# Velocity P-wave (km/s) = 3.73814 5.66897 4.80161
#
# Compressibility (1/GPa) = 0.08204684
#
# Stress axis : x y z
#
# Youngs Moduli (GPa) = 12.17297 95.69101 85.48384
#
# Poissons Ratio (x) = 0.29051 0.57087
# Poissons Ratio (y) = 0.03696 0.12065
# Poissons Ratio (z) = 0.08129 0.13506
#
# Static dielectric constant tensor:
#      x y z
#    x 1.825720 0.000000 0.000070 
#    y 0.000000 1.851710 0.000000 
#    z 0.000070 0.000000 1.920480 
# 
# From -- ./inp_files/293721.got.cif
#   From: 2010.05.17/outbox.cif.g08.bks.cpg/sg12_147_cif.got.tgz:293721.got - 2010.06.03 13:09:07.
