data_PCOD9190746
_publ_section_title
;
Structure prediction by ZEFSAII (Michael W. Deem and Ramdas Pophale) SiO2 
 PCOD9190746
Probable space group: C 2/M
;
_chemical_formula_sum "Si O2"
_cell_formula_units_Z 56
_cell_length_a 25.699470
_cell_length_b 7.826267
_cell_length_c 18.169799
_cell_angle_alpha 90.000000
_cell_angle_beta 74.666223
_cell_angle_gamma 90.000000
_cell_volume 3524.413970
_symmetry_space_group_name_H-M "C 2/M"
_symmetry_group_IT_number 12
_symmetry_cell_setting 'monoclinic'
loop_
_space_group_symop_operation_xyz
x,y,z
-x,y,-z
-x,-y,-z
x,-y,z
1/2+x,1/2+y,z
1/2-x,1/2+y,-z
1/2-x,1/2-y,-z
1/2+x,1/2-y,z
loop_
_atom_site_type_symbol
_atom_site_label
_atom_site_fract_x
_atom_site_fract_y
_atom_site_fract_z
Si Si1 0.498385 0.500000 0.624027
Si Si2 0.422089 0.702609 0.071288
Si Si3 0.380984 0.292098 0.236397
Si Si4 0.090431 0.000000 0.469804
Si Si5 0.672532 0.196852 0.462821
Si Si6 0.960931 0.299955 0.907670
Si Si7 0.496953 0.798048 0.259882
Si Si8 0.794540 0.206131 0.387365
O O1 0.553934 0.500000 0.557051
O O2 0.449924 0.500000 0.583840
O O3 0.496395 0.669207 0.675182
O O4 0.423041 0.500000 0.073537
O O5 0.381072 0.761686 0.150368
O O6 0.480252 0.763408 0.079405
O O7 0.418696 0.746877 0.986458
O O8 0.384767 0.500000 0.237788
O O9 0.435443 0.221067 0.253323
O O10 0.329493 0.242231 0.303835
O O11 0.127804 0.832330 0.456404
O O12 0.731014 0.244259 0.407050
O O13 0.681673 0.212298 0.547430
O O14 0.659674 0.000000 0.449319
O O15 0.955165 0.500000 0.901847
O O16 0.965233 0.234546 0.822549
O O17 0.506545 0.000000 0.272008
O O18 0.798876 0.000000 0.394869
#
# Coordination Sequence:
#
# PCOD9190746 Si02
#       8
#     4   8   8   4   8   8   8   8
#     4  11  24  38  54  67  94 128 158 209 246 272
#     4   9  15  21  36  60  88 129 161 182 224 279
#     4   9  16  27  43  67 102 134 161 193 233 280
#     4  11  24  40  52  72  96 124 160 200 248 286
#     4  10  20  34  53  73  96 126 159 195 237 286
#     4   9  16  25  38  56  88 125 159 194 226 270
#     4  10  20  32  48  71  93 128 170 200 233 278
#     4   9  17  30  49  73 100 130 157 190 233 284
#
# _framework density 15.889167
#
# number of rings (size 3 to 8) (size 9 to 14) (size 15 to 20)
#    0.000    2.429    1.429    2.571    3.000    3.429 
#    0.000    1.429    0.000    0.000    0.000    0.000 
#    0.000    1.143    0.571    0.000    0.000    0.000 
#
# Total GULP energy -155905.229192 kJ/mol
# GULP energy per Si atom -5568.043900 kJ/mol
# Density = 1.585300 g / cm^3
# Si number density = 15.889167 Si / 1000 Ang^3
#
#
#
# Elastic Constant Matrix: (Units=GPa)
#
#
# Indices 1 2 3 4 5 6 
#
# 1 50.4536 30.0247 40.0562 0.0000 -10.4653 0.0000
# 2 30.0247 66.8259 41.4483 0.0000 0.3199 0.0000
# 3 40.0562 41.4483 146.2045 0.0000 -24.8688 0.0000
# 4 0.0000 0.0000 0.0000 18.1995 0.0000 -3.6270
# 5 -10.4653 0.3199 -24.8688 0.0000 21.3530 0.0000
# 6 0.0000 0.0000 0.0000 -3.6270 0.0000 12.9375
#
#
#
# Elastic Compliance Matrix: (Units=1/GPa)
#
#
# Indices 1 2 3 4 5 6 
#
# 1 0.032460 -0.012659 -0.003200 0.000000 0.012371 0.000000
# 2 -0.012659 0.024203 -0.005625 0.000000 -0.013117 0.000000
# 3 -0.003200 -0.005625 0.011296 0.000000 0.011672 0.000000
# 4 0.000000 0.000000 0.000000 0.058198 0.000000 0.016316
# 5 0.012371 -0.013117 0.011672 0.000000 0.066686 0.000000
# 6 0.000000 0.000000 0.000000 0.016316 0.000000 0.081868
#
#
# Mechanical properties :
#
#
# Convention : Reuss Voigt Hill
#
# Bulk Modulus (GPa) = 40.01127 54.06029 47.03578
# Shear Modulus (GPa) = 15.33698 20.62834 17.98266
#
# Velocity S-wave (km/s) = 3.11021 3.60705 3.36781
# Velocity P-wave (km/s) = 6.17528 7.17252 6.69250
#
# Compressibility (1/GPa) = 0.02499296
#
# Stress axis : x y z
#
# Youngs Moduli (GPa) = 30.80702 41.31708 88.52338
#
# Poissons Ratio (x) = 0.52301 0.28330
# Poissons Ratio (y) = 0.38997 0.49790
# Poissons Ratio (z) = 0.09859 0.23239
#
# Static dielectric constant tensor:
#      x y z
#    x 1.491610 0.000000 -0.036950 
#    y 0.000000 1.552400 0.000000 
#    z -0.036950 0.000000 1.597700 
# 
# From -- ./inp_files/287039.got.cif
#   From: 2010.05.17/outbox.cif.g08.bks.cpg/sg12_144_cif.got.tgz:287039.got - 2010.06.03 13:09:07.
