data_PCOD9190246
_publ_section_title
;
Structure prediction by ZEFSAII (Michael W. Deem and Ramdas Pophale) SiO2 
 PCOD9190246
Probable space group: C 2/M
;
_chemical_formula_sum "Si O2"
_cell_formula_units_Z 42
_cell_length_a 27.884779
_cell_length_b 14.468551
_cell_length_c 22.887949
_cell_angle_alpha 90.000000
_cell_angle_beta 168.615785
_cell_angle_gamma 90.000000
_cell_volume 1822.712867
_symmetry_space_group_name_H-M "C 2/M"
_symmetry_group_IT_number 12
_symmetry_cell_setting 'monoclinic'
loop_
_space_group_symop_operation_xyz
x,y,z
-x,y,-z
-x,-y,-z
x,-y,z
1/2+x,1/2+y,z
1/2-x,1/2+y,-z
1/2-x,1/2-y,-z
1/2+x,1/2-y,z
loop_
_atom_site_type_symbol
_atom_site_label
_atom_site_fract_x
_atom_site_fract_y
_atom_site_fract_z
Si Si1 0.096544 0.656559 0.805407
Si Si2 0.000000 0.500000 0.000000
Si Si3 0.515288 0.134913 0.203476
Si Si4 0.765708 0.351028 0.790642
Si Si5 0.970833 0.843817 0.902516
Si Si6 0.942391 0.140705 0.119040
O O1 0.097214 0.605645 0.868791
O O2 0.813938 0.674319 0.452391
O O3 0.250000 0.750000 0.000000
O O4 0.228096 0.613723 0.906464
O O5 0.201059 0.418535 0.223891
O O6 0.467151 0.246510 0.144576
O O7 0.798980 0.113082 0.545644
O O8 0.413750 0.102351 0.020836
O O9 0.500000 0.338917 0.500000
O O10 0.880412 0.251783 0.914245
O O11 0.074304 0.891175 0.967689
O O12 0.000000 0.891135 0.000000
#
# Coordination Sequence:
#
# PCOD9190246 Si02
#       6
#     8   2   8   8   8   8
#     4   9  16  27  45  65  89 114 148 191 232 282
#     4  12  26  40  44  62  88 120 176 216 248 278
#     4   8  16  29  44  65  81 109 152 195 232 282
#     4  11  23  35  48  61  86 122 167 210 248 272
#     4  10  20  28  43  70  92 121 159 192 231 284
#     4   8  15  27  44  65  90 110 144 186 230 281
#
# _framework density 23.042574999999999
#
# number of rings (size 3 to 8) (size 9 to 14) (size 15 to 20)
#    0.000    2.667    0.952    3.714    8.000    1.524 
#    0.000    0.000    0.000    0.000    0.000    0.000 
#    0.000    0.000    0.000   13.714    0.000  123.048 
#
# Total GULP energy -116904.608531 kJ/mol
# GULP energy per Si atom -5566.886121 kJ/mol
# Density = 2.299013 g / cm^3
# Si number density = 23.042575 Si / 1000 Ang^3
#
#
#
# Elastic Constant Matrix: (Units=GPa)
#
#
# Indices 1 2 3 4 5 6 
#
# 1 141.9450 -3.7025 31.8149 0.0749 22.5720 -0.0169
# 2 -3.7025 90.2033 6.1666 0.0674 7.4756 -0.0007
# 3 31.8149 6.1666 47.8745 0.1347 17.6050 -0.0056
# 4 0.0749 0.0674 0.1347 -37.6656 0.0995 9.6635
# 5 22.5720 7.4756 17.6050 0.0995 54.8302 -0.0021
# 6 -0.0169 -0.0007 -0.0056 9.6635 -0.0021 -38.6120
#
#
#
# Elastic Compliance Matrix: (Units=1/GPa)
#
#
# Indices 1 2 3 4 5 6 
#
# 1 0.008514 0.000860 -0.005031 -0.000006 -0.002007 -0.000004
# 2 0.000860 0.011342 -0.001512 0.000014 -0.001415 0.000003
# 3 -0.005031 -0.001512 0.026746 0.000070 -0.006311 0.000016
# 4 -0.000006 0.000014 0.000070 -0.028371 0.000029 -0.007100
# 5 -0.002007 -0.001415 -0.006311 0.000029 0.021283 0.000008
# 6 -0.000004 0.000003 0.000016 -0.007100 0.000008 -0.027676
#
#
# Mechanical properties :
#
#
# Convention : Reuss Voigt Hill
#
# Bulk Modulus (GPa) = 28.37975 38.73119 33.55547
# Shear Modulus (GPa) = 143.05743 12.09342 77.57543
#
# Velocity S-wave (km/s) = 7.88789 2.29340 5.80855
# Velocity P-wave (km/s) = 9.76224 4.88446 7.71878
#
# Compressibility (1/GPa) = 0.03523639
#
# Stress axis : x y z
#
# Youngs Moduli (GPa) = 117.45197 88.16809 37.38825
#
# Poissons Ratio (x) = -0.07580 0.18809
# Poissons Ratio (y) = -0.10098 0.05653
# Poissons Ratio (z) = 0.59087 0.13331
#
# Static dielectric constant tensor:
#      x y z
#    x 1.935760 0.000220 -0.045660 
#    y 0.000220 1.743980 0.000060 
#    z -0.045660 0.000060 1.801300 
# 
# From -- ./inp_files/354417.got.cif
#   From: 2010.05.17/outbox.cif.g08.bks.cpg/sg12_178_cif.got.tgz:354417.got - 2010.06.03 13:09:07.
