data_PCOD9190652
_publ_section_title
;
Structure prediction by ZEFSAII (Michael W. Deem and Ramdas Pophale) SiO2 
 PCOD9190652
Probable space group: C 2/M
;
_chemical_formula_sum "Si O2"
_cell_formula_units_Z 64
_cell_length_a 29.410083
_cell_length_b 8.473350
_cell_length_c 14.667323
_cell_angle_alpha 90.000000
_cell_angle_beta 72.390664
_cell_angle_gamma 90.000000
_cell_volume 3483.851053
_symmetry_space_group_name_H-M "C 2/M"
_symmetry_group_IT_number 12
_symmetry_cell_setting 'monoclinic'
loop_
_space_group_symop_operation_xyz
x,y,z
-x,y,-z
-x,-y,-z
x,-y,z
1/2+x,1/2+y,z
1/2-x,1/2+y,-z
1/2-x,1/2-y,-z
1/2+x,1/2-y,z
loop_
_atom_site_type_symbol
_atom_site_label
_atom_site_fract_x
_atom_site_fract_y
_atom_site_fract_z
Si Si1 0.100308 0.688986 0.802290
Si Si2 0.947715 0.812384 0.995577
Si Si3 0.052685 0.811161 0.492192
Si Si4 0.527547 0.811970 0.691257
Si Si5 0.364133 0.310974 0.691491
Si Si6 0.290307 0.189269 0.597977
Si Si7 0.575041 0.188704 0.190891
Si Si8 0.814783 0.690631 0.382802
O O1 0.105021 0.500000 0.813208
O O2 0.091167 0.771086 0.903751
O O3 0.052814 0.717349 0.771674
O O4 0.144059 0.743664 0.711820
O O5 0.951177 0.000000 0.981225
O O6 0.931975 0.737944 0.909349
O O7 0.000000 0.755514 0.000000
O O8 0.058380 0.765981 0.593523
O O9 0.093737 0.750194 0.401497
O O10 0.000000 0.748328 0.500000
O O11 0.051954 0.000000 0.483393
O O12 0.473307 0.752374 0.728795
O O13 0.527378 0.000000 0.675928
O O14 0.363475 0.500000 0.691251
O O15 0.316396 0.249753 0.672579
O O16 0.379512 0.254329 0.782342
O O17 0.236790 0.253792 0.620711
O O18 0.317466 0.241666 0.487729
O O19 0.289384 0.000000 0.599193
O O20 0.575552 0.000000 0.195914
O O21 0.816625 0.500000 0.382540
#
# Coordination Sequence:
#
# PCOD9190652 Si02
#       8
#     8   8   8   8   8   8   8   8
#     4  10  20  36  57  81 110 144 184 231 280 331
#     4  11  23  37  55  80 111 147 188 235 282 330
#     4  10  20  32  46  69 105 145 180 217 263 318
#     4  10  20  32  50  76 106 142 182 224 267 319
#     4  11  22  36  54  77 111 150 188 228 276 331
#     4  10  20  36  59  85 116 148 187 230 274 333
#     4  11  22  36  55  77 106 146 189 229 273 326
#     4   9  19  36  59  86 116 147 184 231 281 330
#
# _framework density 18.370476
#
# number of rings (size 3 to 8) (size 9 to 14) (size 15 to 20)
#    0.000    1.750    2.500    2.250    0.000    4.750 
#    0.000    0.000    0.000    0.750    0.000    0.000 
#    0.000    0.000    0.000    0.000    0.000    0.000 
#
# Total GULP energy -178592.785047 kJ/mol
# GULP energy per Si atom -5581.024533 kJ/mol
# Density = 1.832866 g / cm^3
# Si number density = 18.370476 Si / 1000 Ang^3
#
#
#
# Elastic Constant Matrix: (Units=GPa)
#
#
# Indices 1 2 3 4 5 6 
#
# 1 83.1988 9.5667 32.0185 0.0000 11.3579 0.0000
# 2 9.5667 5.3082 7.2738 0.0000 1.5950 0.0000
# 3 32.0185 7.2738 81.2168 0.0000 7.9333 0.0000
# 4 0.0000 0.0000 0.0000 24.3867 0.0000 1.8423
# 5 11.3579 1.5950 7.9333 0.0000 26.4015 0.0000
# 6 0.0000 0.0000 0.0000 1.8423 0.0000 21.7098
#
#
#
# Elastic Compliance Matrix: (Units=1/GPa)
#
#
# Indices 1 2 3 4 5 6 
#
# 1 0.016939 -0.023488 -0.004122 0.000000 -0.004629 0.000000
# 2 -0.023488 0.248728 -0.012915 0.000000 -0.001041 0.000000
# 3 -0.004122 -0.012915 0.015294 0.000000 -0.002042 0.000000
# 4 0.000000 0.000000 0.000000 0.041271 0.000000 -0.003502
# 5 -0.004629 -0.001041 -0.002042 0.000000 0.040545 0.000000
# 6 0.000000 0.000000 0.000000 -0.003502 0.000000 0.046359
#
#
# Mechanical properties :
#
#
# Convention : Reuss Voigt Hill
#
# Bulk Modulus (GPa) = 5.00222 29.71575 17.35898
# Shear Modulus (GPa) = 8.97953 22.55724 15.76839
#
# Velocity S-wave (km/s) = 2.21329 3.50795 2.93295
# Velocity P-wave (km/s) = 3.04309 5.71127 4.57597
#
# Compressibility (1/GPa) = 0.19991127
#
# Stress axis : x y z
#
# Youngs Moduli (GPa) = 59.03710 4.02045 65.38575
#
# Poissons Ratio (x) = 0.09443 0.26952
# Poissons Ratio (y) = 1.38667 0.84443
# Poissons Ratio (z) = 0.24335 0.05192
#
# Static dielectric constant tensor:
#      x y z
#    x 1.645630 0.000000 0.007810 
#    y 0.000000 1.621960 0.000000 
#    z 0.007810 0.000000 1.647760 
# 
# From -- ./inp_files/243816.got.cif
#   From: 2010.05.17/outbox.cif.g08.bks.cpg/sg12_122_cif.got.tgz:243816.got - 2010.06.03 13:09:07.
