data_PCOD9190255
_publ_section_title
;
Structure prediction by ZEFSAII (Michael W. Deem and Ramdas Pophale) SiO2 
 PCOD9190255
Probable space group: C 2/M
;
_chemical_formula_sum "Si O2"
_cell_formula_units_Z 56
_cell_length_a 5.742320
_cell_length_b 23.446605
_cell_length_c 20.282737
_cell_angle_alpha 90.000000
_cell_angle_beta 80.606170
_cell_angle_gamma 90.000000
_cell_volume 2694.204228
_symmetry_space_group_name_H-M "C 2/M"
_symmetry_group_IT_number 12
_symmetry_cell_setting 'monoclinic'
loop_
_space_group_symop_operation_xyz
x,y,z
-x,y,-z
-x,-y,-z
x,-y,z
1/2+x,1/2+y,z
1/2-x,1/2+y,-z
1/2-x,1/2-y,-z
1/2+x,1/2-y,z
loop_
_atom_site_type_symbol
_atom_site_label
_atom_site_fract_x
_atom_site_fract_y
_atom_site_fract_z
Si Si1 0.950494 0.438535 0.194141
Si Si2 0.710792 0.263122 0.902597
Si Si3 0.208510 0.822117 0.220254
Si Si4 0.128709 0.880365 0.867411
Si Si5 0.781173 0.564415 0.050394
Si Si6 0.968669 0.680354 0.578417
Si Si7 0.559405 0.309787 0.372484
O O1 0.889325 0.500000 0.227874
O O2 0.227987 0.432615 0.168466
O O3 0.873410 0.377577 0.227680
O O4 0.850718 0.438731 0.124297
O O5 0.430413 0.262564 0.933363
O O6 0.705298 0.227708 0.833157
O O7 0.780090 0.329054 0.890074
O O8 0.121435 0.798119 0.293411
O O9 0.002926 0.851047 0.187192
O O10 0.956376 0.900889 0.932392
O O11 0.745964 0.500000 0.026894
O O12 0.000000 0.589607 0.000000
O O13 0.701669 0.661587 0.611610
O O14 0.967010 0.748879 0.590184
O O15 0.000000 0.668049 0.500000
O O16 0.207146 0.660886 0.606150
#
# Coordination Sequence:
#
# PCOD9190255 Si02
#       7
#     8   8   8   8   8   8   8
#     4  10  20  36  57  80 112 146 181 240 297 340
#     4  10  20  32  53  76 114 143 183 223 271 332
#     4  10  22  33  51  83 112 146 195 229 282 345
#     4  10  20  32  53  78 114 143 185 231 291 339
#     4   9  19  36  56  81 107 140 192 245 293 346
#     4  10  20  33  48  76 116 156 188 231 279 329
#     4  10  20  28  52  71 110 152 190 224 270 337
#
# _framework density 20.785359
#
# number of rings (size 3 to 8) (size 9 to 14) (size 15 to 20)
#    0.000    2.143    1.429    2.571   10.000    1.143 
#    0.000    2.143    0.000    7.714    0.000    0.000 
#    0.000    6.286    0.000    0.000    0.000    0.000 
#
# Total GULP energy -155944.941707 kJ/mol
# GULP energy per Si atom -5569.462204 kJ/mol
# Density = 2.073805 g / cm^3
# Si number density = 20.785359 Si / 1000 Ang^3
#
#
#
# Elastic Constant Matrix: (Units=GPa)
#
#
# Indices 1 2 3 4 5 6 
#
# 1 118.2297 8.7334 30.4962 0.0000 -13.4255 0.0000
# 2 8.7334 78.4528 1.2728 0.0000 -12.5932 0.0000
# 3 30.4962 1.2728 68.7578 0.0000 0.4717 0.0000
# 4 0.0000 0.0000 0.0000 -120.4589 0.0000 57.4921
# 5 -13.4255 -12.5932 0.4717 0.0000 25.2243 0.0000
# 6 0.0000 0.0000 0.0000 57.4921 0.0000 -22.7698
#
#
#
# Elastic Compliance Matrix: (Units=1/GPa)
#
#
# Indices 1 2 3 4 5 6 
#
# 1 0.010277 -0.000193 -0.004592 0.000000 0.005459 0.000000
# 2 -0.000193 0.013867 -0.000218 0.000000 0.006824 0.000000
# 3 -0.004592 -0.000218 0.016604 0.000000 -0.002863 0.000000
# 4 0.000000 0.000000 0.000000 0.040479 0.000000 0.102205
# 5 0.005459 0.006824 -0.002863 0.000000 0.046011 0.000000
# 6 0.000000 0.000000 0.000000 0.102205 0.000000 0.214143
#
#
# Mechanical properties :
#
#
# Convention : Reuss Voigt Hill
#
# Bulk Modulus (GPa) = 32.52881 38.49387 35.51134
# Shear Modulus (GPa) = 13.82615 -8.60502 2.61057
#
# Velocity S-wave (km/s) = 2.58192 -2.03689 1.12191
# Velocity P-wave (km/s) = 4.95704 3.60943 4.33591
#
# Compressibility (1/GPa) = 0.03074198
#
# Stress axis : x y z
#
# Youngs Moduli (GPa) = 97.30722 72.11360 60.22598
#
# Poissons Ratio (x) = 0.01393 0.27655
# Poissons Ratio (y) = 0.01880 0.01312
# Poissons Ratio (z) = 0.44683 0.01571
#
# Static dielectric constant tensor:
#      x y z
#    x 1.933500 0.000000 -0.022990 
#    y 0.000000 1.752100 0.000000 
#    z -0.022990 0.000000 1.736340 
# 
# From -- ./inp_files/298008.got.cif
#   From: 2010.05.17/outbox.cif.g08.bks.cpg/sg12_150_cif.got.tgz:298008.got - 2010.06.03 13:09:07.
