data_PCOD9190058
_publ_section_title
;
Structure prediction by ZEFSAII (Michael W. Deem and Ramdas Pophale) SiO2 
 PCOD9190058
Probable space group: C 2/M
;
_chemical_formula_sum "Si O2"
_cell_formula_units_Z 58
_cell_length_a 22.736309
_cell_length_b 15.524478
_cell_length_c 9.075211
_cell_angle_alpha 90.000000
_cell_angle_beta 86.438572
_cell_angle_gamma 90.000000
_cell_volume 3197.084894
_symmetry_space_group_name_H-M "C 2/M"
_symmetry_group_IT_number 12
_symmetry_cell_setting 'monoclinic'
loop_
_space_group_symop_operation_xyz
x,y,z
-x,y,-z
-x,-y,-z
x,-y,z
1/2+x,1/2+y,z
1/2-x,1/2+y,-z
1/2-x,1/2-y,-z
1/2+x,1/2-y,z
loop_
_atom_site_type_symbol
_atom_site_label
_atom_site_fract_x
_atom_site_fract_y
_atom_site_fract_z
Si Si1 0.817432 0.752925 0.546556
Si Si2 0.676643 0.901272 0.909704
Si Si3 0.500000 0.500000 0.000000
Si Si4 0.641957 0.901117 0.249448
Si Si5 0.087380 0.843228 0.023091
Si Si6 0.098717 0.734786 0.744186
Si Si7 0.976249 0.327530 0.844820
Si Si8 0.310766 0.398935 0.785614
O O1 0.750000 0.750000 0.500000
O O2 0.832669 0.668763 0.641884
O O3 0.864404 0.753623 0.406902
O O4 0.823647 0.837901 0.645336
O O5 0.634865 0.835267 0.833074
O O6 0.742615 0.890357 0.841150
O O7 0.657885 0.000000 0.884745
O O8 0.672614 0.887680 0.085501
O O9 0.454020 0.424665 0.954021
O O10 0.572570 0.885052 0.227212
O O11 0.651537 0.000000 0.295135
O O12 0.057366 0.760850 0.105736
O O13 0.149313 0.864234 0.087646
O O14 0.093611 0.817643 0.851007
O O15 0.032923 0.696674 0.738280
O O16 0.000000 0.362620 0.000000
O O17 0.322686 0.500000 0.756277
#
# Coordination Sequence:
#
# PCOD9190058 Si02
#       8
#     8   8   2   8   8   8   8   8
#     4  12  26  42  62  88 136 177 204 258 319 386
#     4  10  21  38  65  96 124 158 217 271 309 369
#     4  12  20  40  68 106 126 148 216 288 316 352
#     4  11  24  42  66  97 127 163 215 270 318 380
#     4  11  21  39  68  92 124 163 215 270 311 368
#     4  11  22  39  63  94 127 170 208 250 321 387
#     4  10  19  39  65  94 124 161 210 259 315 374
#     4  11  23  41  64  93 123 170 217 265 318 375
#
# _framework density 18.141525999999999
#
# number of rings (size 3 to 8) (size 9 to 14) (size 15 to 20)
#    0.000    1.103    8.276    0.000    1.931    3.586 
#    1.241    0.690    0.000    1.655    0.000    0.000 
#    0.000    0.000    0.000    0.000    0.000    0.000 
#
# Total GULP energy -161671.812784 kJ/mol
# GULP energy per Si atom -5574.890096 kJ/mol
# Density = 1.810023 g / cm^3
# Si number density = 18.141526 Si / 1000 Ang^3
#
#
#
# Elastic Constant Matrix: (Units=GPa)
#
#
# Indices 1 2 3 4 5 6 
#
# 1 80.6964 33.2704 36.7781 0.0000 -6.8592 0.0000
# 2 33.2704 80.4179 37.5909 0.0000 3.7194 0.0000
# 3 36.7781 37.5909 73.4879 0.0000 -17.5680 0.0000
# 4 0.0000 0.0000 0.0000 46.4643 0.0000 -57.6696
# 5 -6.8592 3.7194 -17.5680 0.0000 35.4447 0.0000
# 6 0.0000 0.0000 0.0000 -57.6696 0.0000 143.4030
#
#
#
# Elastic Compliance Matrix: (Units=1/GPa)
#
#
# Indices 1 2 3 4 5 6 
#
# 1 0.016997 -0.004148 -0.006233 0.000000 0.000635 0.000000
# 2 -0.004148 0.018862 -0.009345 0.000000 -0.007414 0.000000
# 3 -0.006233 -0.009345 0.024337 0.000000 0.011837 0.000000
# 4 0.000000 0.000000 0.000000 0.042969 0.000000 0.017280
# 5 0.000635 -0.007414 0.011837 0.000000 0.034981 0.000000
# 6 0.000000 0.000000 0.000000 0.017280 0.000000 0.013923
#
#
# Mechanical properties :
#
#
# Convention : Reuss Voigt Hill
#
# Bulk Modulus (GPa) = 48.20481 49.98677 49.09579
# Shear Modulus (GPa) = 25.19717 53.52659 39.36188
#
# Velocity S-wave (km/s) = 3.73087 5.43774 4.66307
# Velocity P-wave (km/s) = 6.72223 8.18774 7.49091
#
# Compressibility (1/GPa) = 0.02074482
#
# Stress axis : x y z
#
# Youngs Moduli (GPa) = 58.83432 53.01593 41.08980
#
# Poissons Ratio (x) = 0.21990 0.25610
# Poissons Ratio (y) = 0.24403 0.38399
# Poissons Ratio (z) = 0.36670 0.49544
#
# Static dielectric constant tensor:
#      x y z
#    x 1.639850 0.000000 0.004130 
#    y 0.000000 1.608430 0.000000 
#    z 0.004130 0.000000 1.618480 
# 
# From -- ./inp_files/96403.got.cif
#   From: 2010.05.17/outbox.cif.g08.bks.cpg/sg12_49_cif.got.tgz:96403.got - 2010.06.03 13:09:07.
