data_PCOD9190071
_publ_section_title
;
Structure prediction by ZEFSAII (Michael W. Deem and Ramdas Pophale) SiO2 
 PCOD9190071
Probable space group: C 2/M
;
_chemical_formula_sum "Si O2"
_cell_formula_units_Z 52
_cell_length_a 24.036494
_cell_length_b 11.278887
_cell_length_c 12.433556
_cell_angle_alpha 90.000000
_cell_angle_beta 47.646392
_cell_angle_gamma 90.000000
_cell_volume 2491.023316
_symmetry_space_group_name_H-M "C 2/M"
_symmetry_group_IT_number 12
_symmetry_cell_setting 'monoclinic'
loop_
_space_group_symop_operation_xyz
x,y,z
-x,y,-z
-x,-y,-z
x,-y,z
1/2+x,1/2+y,z
1/2-x,1/2+y,-z
1/2-x,1/2-y,-z
1/2+x,1/2-y,z
loop_
_atom_site_type_symbol
_atom_site_label
_atom_site_fract_x
_atom_site_fract_y
_atom_site_fract_z
Si Si1 0.937055 0.140509 0.246442
Si Si2 0.850499 0.734195 0.546157
Si Si3 0.417528 0.000000 0.379643
Si Si4 0.817497 0.232743 0.230208
Si Si5 0.915697 0.500000 0.917902
Si Si6 0.584707 0.640373 0.346328
Si Si7 0.645138 0.000000 0.780111
Si Si8 0.600031 0.264792 0.086824
O O1 0.888489 0.171664 0.415699
O O2 0.883771 0.184642 0.219778
O O3 0.015787 0.212179 0.148315
O O4 0.952395 0.000000 0.219895
O O5 0.898500 0.616263 0.470372
O O6 0.765847 0.695833 0.628261
O O7 0.857093 0.789253 0.655130
O O8 0.503487 0.000000 0.238444
O O9 0.376828 0.000000 0.315992
O O10 0.814438 0.375922 0.247254
O O11 0.840673 0.193054 0.080119
O O12 0.881537 0.625067 0.926989
O O13 0.919168 0.500000 0.043699
O O14 0.500000 0.669582 0.500000
O O15 0.594133 0.500000 0.347203
O O16 0.596395 0.674278 0.207110
#
# Coordination Sequence:
#
# PCOD9190071 Si02
#       8
#     8   8   4   8   4   8   4   8
#     4  12  24  41  69  97 133 175 223 272 325 393
#     4  12  26  41  65  98 132 176 218 270 327 393
#     4  12  21  39  64  93 131 167 214 262 336 378
#     4  11  26  41  64  99 138 170 217 268 337 395
#     4  10  19  39  66  95 129 164 221 270 317 391
#     4  11  23  44  70  95 129 173 226 275 324 390
#     4  10  21  38  66  90 128 176 210 266 323 389
#     4  11  23  44  69  98 129 175 222 272 327 390
#
# _framework density 20.874956000000001
#
# number of rings (size 3 to 8) (size 9 to 14) (size 15 to 20)
#    0.000    0.769    4.615    2.077    3.231    5.538 
#    0.000    1.538    0.000    0.000    0.000    0.000 
#    0.000    0.000    0.000    0.000    0.000    0.000 
#
# Total GULP energy -145245.673660 kJ/mol
# GULP energy per Si atom -5586.372064 kJ/mol
# Density = 2.082744 g / cm^3
# Si number density = 20.874956 Si / 1000 Ang^3
#
#
#
# Elastic Constant Matrix: (Units=GPa)
#
#
# Indices 1 2 3 4 5 6 
#
# 1 35.8677 4.7750 4.4485 0.0000 15.5274 0.0000
# 2 4.7750 89.8921 6.7259 0.0000 12.0592 0.0000
# 3 4.4485 6.7259 36.8085 0.0000 3.7705 0.0000
# 4 0.0000 0.0000 0.0000 -6.7988 0.0000 -8.6076
# 5 15.5274 12.0592 3.7705 0.0000 32.4997 0.0000
# 6 0.0000 0.0000 0.0000 -8.6076 0.0000 13.4327
#
#
#
# Elastic Compliance Matrix: (Units=1/GPa)
#
#
# Indices 1 2 3 4 5 6 
#
# 1 0.035418 0.000575 -0.002662 0.000000 -0.016826 0.000000
# 2 0.000575 0.011824 -0.001774 0.000000 -0.004457 0.000000
# 3 -0.002662 -0.001774 0.027948 0.000000 -0.001312 0.000000
# 4 0.000000 0.000000 0.000000 -0.081206 0.000000 -0.052036
# 5 -0.016826 -0.004457 -0.001312 0.000000 0.040614 0.000000
# 6 0.000000 0.000000 0.000000 -0.052036 0.000000 0.041101
#
#
# Mechanical properties :
#
#
# Convention : Reuss Voigt Hill
#
# Bulk Modulus (GPa) = 14.82157 21.60747 18.21452
# Shear Modulus (GPa) = 47.20949 17.60133 32.40541
#
# Velocity S-wave (km/s) = 4.76072 2.90691 3.94427
# Velocity P-wave (km/s) = 6.11023 4.65190 5.43024
#
# Compressibility (1/GPa) = 0.06746924
#
# Stress axis : x y z
#
# Youngs Moduli (GPa) = 28.23426 84.57046 35.78088
#
# Poissons Ratio (x) = -0.04863 0.09525
# Poissons Ratio (y) = -0.01624 0.06346
# Poissons Ratio (z) = 0.07516 0.15000
#
# Static dielectric constant tensor:
#      x y z
#    x 1.763270 0.000000 0.005260 
#    y 0.000000 1.723230 0.000000 
#    z 0.005260 0.000000 1.739220 
# 
# From -- ./inp_files/175217.got.cif
#   From: 2010.05.17/outbox.cif.g08.bks.cpg/sg12_88_cif.got.tgz:175217.got - 2010.06.03 13:09:07.
