data_PCOD9190525
_publ_section_title
;
Structure prediction by ZEFSAII (Michael W. Deem and Ramdas Pophale) SiO2 
 PCOD9190525
Probable space group: C 2/M
;
_chemical_formula_sum "Si O2"
_cell_formula_units_Z 32
_cell_length_a 23.491662
_cell_length_b 7.476832
_cell_length_c 10.656245
_cell_angle_alpha 90.000000
_cell_angle_beta 108.142551
_cell_angle_gamma 90.000000
_cell_volume 1778.645181
_symmetry_space_group_name_H-M "C 2/M"
_symmetry_group_IT_number 12
_symmetry_cell_setting 'monoclinic'
loop_
_space_group_symop_operation_xyz
x,y,z
-x,y,-z
-x,-y,-z
x,-y,z
1/2+x,1/2+y,z
1/2-x,1/2+y,-z
1/2-x,1/2-y,-z
1/2+x,1/2-y,z
loop_
_atom_site_type_symbol
_atom_site_label
_atom_site_fract_x
_atom_site_fract_y
_atom_site_fract_z
Si Si1 0.530852 0.500000 0.823391
Si Si2 0.681372 0.282774 0.581768
Si Si3 0.942201 0.794926 0.395015
Si Si4 0.685741 0.206616 0.290768
Si Si5 0.596290 0.500000 0.132727
O O1 0.545605 0.331434 0.743051
O O2 0.461732 0.500000 0.816439
O O3 0.570886 0.500000 0.974639
O O4 0.684130 0.500000 0.581679
O O5 0.622888 0.220992 0.617317
O O6 0.676196 0.220477 0.434600
O O7 0.745778 0.227267 0.680563
O O8 0.000000 0.709527 0.500000
O O9 0.939499 0.000000 0.447577
O O10 0.637470 0.329580 0.190324
O O11 0.680743 0.000000 0.249348
#
# Coordination Sequence:
#
# PCOD9190525 Si02
#       5
#     4   8   8   8   4
#     4   9  19  32  56  80  97 145 181 209 258 320
#     4   9  16  30  52  78 105 132 172 216 261 305
#     4   8  14  27  53  80  96 131 175 214 259 304
#     4  10  20  31  52  81 107 138 170 219 263 304
#     4  11  20  36  54  78 105 140 183 208 260 317
#
# _framework density 17.991223000000002
#
# number of rings (size 3 to 8) (size 9 to 14) (size 15 to 20)
#    0.750    2.000    1.250    1.500    1.750    0.000 
#    0.000    3.750    0.000    8.250    0.000    0.000 
#    0.000    0.000    0.000    0.000    0.000    0.000 
#
# Total GULP energy -89076.319262 kJ/mol
# GULP energy per Si atom -5567.269954 kJ/mol
# Density = 1.795027 g / cm^3
# Si number density = 17.991223 Si / 1000 Ang^3
#
#
#
# Elastic Constant Matrix: (Units=GPa)
#
#
# Indices 1 2 3 4 5 6 
#
# 1 184.8791 31.0281 86.4173 0.0000 21.7066 0.0000
# 2 31.0281 71.7774 33.4321 0.0000 16.3841 0.0000
# 3 86.4173 33.4321 104.6319 0.0000 21.6268 0.0000
# 4 0.0000 0.0000 0.0000 -0.1343 0.0000 3.1838
# 5 21.7066 16.3841 21.6268 0.0000 30.1176 0.0000
# 6 0.0000 0.0000 0.0000 3.1838 0.0000 12.0545
#
#
#
# Elastic Compliance Matrix: (Units=1/GPa)
#
#
# Indices 1 2 3 4 5 6 
#
# 1 0.008861 -0.000307 -0.006969 0.000000 -0.001215 0.000000
# 2 -0.000307 0.017373 -0.003981 0.000000 -0.006371 0.000000
# 3 -0.006969 -0.003981 0.017731 0.000000 -0.005544 0.000000
# 4 0.000000 0.000000 0.000000 -1.025401 0.000000 0.270827
# 5 -0.001215 -0.006371 -0.005544 0.000000 0.041526 0.000000
# 6 0.000000 0.000000 0.000000 0.270827 0.000000 0.011426
#
#
# Mechanical properties :
#
#
# Convention : Reuss Voigt Hill
#
# Bulk Modulus (GPa) = 46.61674 73.67149 60.14411
# Shear Modulus (GPa) = -5.56284 22.43494 8.43605
#
# Velocity S-wave (km/s) = -1.76031 3.53511 2.16775
# Velocity P-wave (km/s) = 4.67285 7.59606 6.30617
#
# Compressibility (1/GPa) = 0.02145152
#
# Stress axis : x y z
#
# Youngs Moduli (GPa) = 112.86009 57.56030 56.39895
#
# Poissons Ratio (x) = 0.01767 0.39304
# Poissons Ratio (y) = 0.03465 0.22450
# Poissons Ratio (z) = 0.78651 0.22912
#
# Static dielectric constant tensor:
#      x y z
#    x 1.656130 0.000000 0.021950 
#    y 0.000000 1.655110 0.000000 
#    z 0.021950 0.000000 1.578990 
# 
# From -- ./inp_files/162099.got.cif
#   From: 2010.05.17/outbox.cif.g08.bks.cpg/sg12_82_cif.got.tgz:162099.got - 2010.06.03 13:09:07.
