data_PCOD9190269
_publ_section_title
;
Structure prediction by ZEFSAII (Michael W. Deem and Ramdas Pophale) SiO2 
 PCOD9190269
Probable space group: C 2/M
;
_chemical_formula_sum "Si O2"
_cell_formula_units_Z 64
_cell_length_a 6.862207
_cell_length_b 25.269151
_cell_length_c 16.961490
_cell_angle_alpha 90.000000
_cell_angle_beta 96.751320
_cell_angle_gamma 90.000000
_cell_volume 2920.764013
_symmetry_space_group_name_H-M "C 2/M"
_symmetry_group_IT_number 12
_symmetry_cell_setting 'monoclinic'
loop_
_space_group_symop_operation_xyz
x,y,z
-x,y,-z
-x,-y,-z
x,-y,z
1/2+x,1/2+y,z
1/2-x,1/2+y,-z
1/2-x,1/2-y,-z
1/2+x,1/2-y,z
loop_
_atom_site_type_symbol
_atom_site_label
_atom_site_fract_x
_atom_site_fract_y
_atom_site_fract_z
Si Si1 0.275065 0.311271 0.592187
Si Si2 0.722233 0.183419 0.410240
Si Si3 0.368045 0.394801 0.923523
Si Si4 0.880939 0.202664 0.124720
Si Si5 0.338787 0.560684 0.751721
Si Si6 0.438392 0.342286 0.293832
Si Si7 0.438296 0.850767 0.294691
Si Si8 0.549841 0.177195 0.889985
O O1 0.277282 0.247538 0.592242
O O2 0.250040 0.333917 0.502133
O O3 0.302178 0.329569 0.689984
O O4 0.032150 0.325698 0.609852
O O5 0.968331 0.175854 0.390186
O O6 0.694648 0.153444 0.316763
O O7 0.461684 0.337994 0.901555
O O8 0.353517 0.431477 0.846544
O O9 0.155197 0.372774 0.933433
O O10 0.500000 0.416268 0.000000
O O11 0.900593 0.199148 0.220742
O O12 0.674176 0.177373 0.096697
O O13 0.886221 0.262013 0.093528
O O14 0.351772 0.500000 0.729474
O O15 0.518028 0.596711 0.727418
O O16 0.134301 0.587676 0.712406
O O17 0.432862 0.830066 0.204085
#
# Coordination Sequence:
#
# PCOD9190269 Si02
#       8
#     8   8   8   8   8   8   8   8
#     4  10  20  29  47  80 122 156 181 215 269 336
#     4  11  18  30  49  81 119 151 180 220 278 330
#     4  10  23  39  58  88 115 145 183 224 291 356
#     4  11  20  34  55  82 118 159 193 222 267 338
#     4   9  21  42  62  78  98 136 191 246 297 341
#     4  10  20  32  53  77 106 148 192 235 271 329
#     4  10  20  32  53  77 106 148 192 235 271 329
#     4  11  20  34  55  82 118 159 193 222 267 338
#
# _framework density 21.912074
#
# number of rings (size 3 to 8) (size 9 to 14) (size 15 to 20)
#    0.000    1.750    2.500    3.750    0.000    3.250 
#    0.000    0.625    0.000   12.000    0.000    3.500 
#    0.000    0.000    0.000    0.000    0.000    0.000 
#
# Total GULP energy -178260.923446 kJ/mol
# GULP energy per Si atom -5570.653858 kJ/mol
# Density = 2.186220 g / cm^3
# Si number density = 21.912074 Si / 1000 Ang^3
#
#
#
# Elastic Constant Matrix: (Units=GPa)
#
#
# Indices 1 2 3 4 5 6 
#
# 1 131.7522 -3.4746 52.1984 0.0000 20.2098 0.0000
# 2 -3.4746 69.9106 24.8478 0.0000 3.3557 0.0000
# 3 52.1984 24.8478 117.9742 0.0000 11.8889 0.0000
# 4 0.0000 0.0000 0.0000 5.0162 0.0000 7.5375
# 5 20.2098 3.3557 11.8889 0.0000 45.6843 0.0000
# 6 0.0000 0.0000 0.0000 7.5375 0.0000 15.9250
#
#
#
# Elastic Compliance Matrix: (Units=1/GPa)
#
#
# Indices 1 2 3 4 5 6 
#
# 1 0.009973 0.002276 -0.004550 0.000000 -0.003395 0.000000
# 2 0.002276 0.015985 -0.004266 0.000000 -0.001071 0.000000
# 3 -0.004550 -0.004266 0.011454 0.000000 -0.000655 0.000000
# 4 0.000000 0.000000 0.000000 0.690326 0.000000 -0.326739
# 5 -0.003395 -0.001071 -0.000655 0.000000 0.023640 0.000000
# 6 0.000000 0.000000 0.000000 -0.326739 0.000000 0.217444
#
#
# Mechanical properties :
#
#
# Convention : Reuss Voigt Hill
#
# Bulk Modulus (GPa) = 41.09763 51.86446 46.48104
# Shear Modulus (GPa) = 5.05044 29.72944 17.38994
#
# Velocity S-wave (km/s) = 1.51983 3.68742 2.82019
# Velocity P-wave (km/s) = 4.67720 6.46917 5.64475
#
# Compressibility (1/GPa) = 0.02433230
#
# Stress axis : x y z
#
# Youngs Moduli (GPa) = 100.26603 62.56008 87.30546
#
# Poissons Ratio (x) = -0.14238 0.39724
# Poissons Ratio (y) = -0.22819 0.37242
# Poissons Ratio (z) = 0.45621 0.26686
#
# Static dielectric constant tensor:
#      x y z
#    x 2.165420 0.000000 0.021110 
#    y 0.000000 1.683230 0.000000 
#    z 0.021110 0.000000 1.837460 
# 
# From -- ./inp_files/258966.got.cif
#   From: 2010.05.17/outbox.cif.g08.bks.cpg/sg12_130_cif.got.tgz:258966.got - 2010.06.03 13:09:07.
