data_PCOD9190530
_publ_section_title
;
Structure prediction by ZEFSAII (Michael W. Deem and Ramdas Pophale) SiO2 
 PCOD9190530
Probable space group: C 2/M
;
_chemical_formula_sum "Si O2"
_cell_formula_units_Z 56
_cell_length_a 9.758512
_cell_length_b 17.651522
_cell_length_c 19.182561
_cell_angle_alpha 90.000000
_cell_angle_beta 120.481353
_cell_angle_gamma 90.000000
_cell_volume 2847.580177
_symmetry_space_group_name_H-M "C 2/M"
_symmetry_group_IT_number 12
_symmetry_cell_setting 'monoclinic'
loop_
_space_group_symop_operation_xyz
x,y,z
-x,y,-z
-x,-y,-z
x,-y,z
1/2+x,1/2+y,z
1/2-x,1/2+y,-z
1/2-x,1/2-y,-z
1/2+x,1/2-y,z
loop_
_atom_site_type_symbol
_atom_site_label
_atom_site_fract_x
_atom_site_fract_y
_atom_site_fract_z
Si Si1 0.241820 0.587819 0.845882
Si Si2 0.616297 0.410163 0.269203
Si Si3 0.827250 0.329220 0.435371
Si Si4 0.320390 0.732635 0.943901
Si Si5 0.420353 0.161580 0.716283
Si Si6 0.826565 0.152426 0.456100
Si Si7 0.655310 0.701227 0.763893
O O1 0.259359 0.500000 0.867210
O O2 0.340598 0.604802 0.800405
O O3 0.303792 0.644236 0.920635
O O4 0.057171 0.608020 0.782875
O O5 0.617696 0.500000 0.280523
O O6 0.751366 0.370018 0.350244
O O7 0.450348 0.373200 0.250067
O O8 0.842267 0.238562 0.430156
O O9 0.720509 0.341666 0.475851
O O10 0.000000 0.359212 0.500000
O O11 0.234663 0.773776 0.857212
O O12 0.500000 0.756482 0.000000
O O13 0.250000 0.750000 0.000000
O O14 0.315947 0.122337 0.628747
O O15 0.523732 0.233089 0.713210
O O16 0.294729 0.189126 0.743181
O O17 0.000000 0.115337 0.500000
#
# Coordination Sequence:
#
# PCOD9190530 Si02
#       7
#     8   8   8   8   8   8   8
#     4  10  23  41  63  91 122 161 198 238 297 360
#     4  11  22  39  61  86 123 164 205 249 295 356
#     4  10  20  32  52  80 118 153 202 252 302 344
#     4  11  22  39  64  93 120 150 189 245 299 357
#     4  11  21  36  63  84 120 160 204 256 292 353
#     4  10  20  31  52  83 114 154 198 257 303 340
#     4  11  22  38  61  90 118 155 204 245 300 358
#
# _framework density 19.665821000000001
#
# number of rings (size 3 to 8) (size 9 to 14) (size 15 to 20)
#    0.000    1.429    1.429    6.000    4.000    1.143 
#    0.000    1.429    0.000    3.429    0.000    0.000 
#    0.000    0.000    0.000    0.000    0.000    0.000 
#
# Total GULP energy -156403.282338 kJ/mol
# GULP energy per Si atom -5585.831512 kJ/mol
# Density = 1.962106 g / cm^3
# Si number density = 19.665821 Si / 1000 Ang^3
#
#
#
# Elastic Constant Matrix: (Units=GPa)
#
#
# Indices 1 2 3 4 5 6 
#
# 1 85.7280 -2.4145 -8.5771 0.0000 -1.7169 0.0000
# 2 -2.4145 51.6661 -0.1794 0.0000 -15.9507 0.0000
# 3 -8.5771 -0.1794 62.1024 0.0000 -2.6655 0.0000
# 4 0.0000 0.0000 0.0000 18.2922 0.0000 -3.6939
# 5 -1.7169 -15.9507 -2.6655 0.0000 38.9758 0.0000
# 6 0.0000 0.0000 0.0000 -3.6939 0.0000 20.1752
#
#
#
# Elastic Compliance Matrix: (Units=1/GPa)
#
#
# Indices 1 2 3 4 5 6 
#
# 1 0.011878 0.000868 0.001686 0.000000 0.000994 0.000000
# 2 0.000868 0.022230 0.000578 0.000000 0.009175 0.000000
# 3 0.001686 0.000578 0.016398 0.000000 0.001432 0.000000
# 4 0.000000 0.000000 0.000000 0.056767 0.000000 0.010394
# 5 0.000994 0.009175 0.001432 0.000000 0.029554 0.000000
# 6 0.000000 0.000000 0.000000 0.010394 0.000000 0.051469
#
#
# Mechanical properties :
#
#
# Convention : Reuss Voigt Hill
#
# Bulk Modulus (GPa) = 17.61531 19.68385 18.64958
# Shear Modulus (GPa) = 24.88101 29.53314 27.20708
#
# Velocity S-wave (km/s) = 3.56081 3.87945 3.72354
# Velocity P-wave (km/s) = 5.08749 5.48614 5.29057
#
# Compressibility (1/GPa) = 0.05676879
#
# Stress axis : x y z
#
# Youngs Moduli (GPa) = 84.19082 44.98365 60.98163
#
# Poissons Ratio (x) = -0.03903 -0.10279
# Poissons Ratio (y) = -0.07305 -0.03524
# Poissons Ratio (z) = -0.14191 -0.02600
#
# Static dielectric constant tensor:
#      x y z
#    x 1.761650 0.000000 0.017050 
#    y 0.000000 1.694860 0.000000 
#    z 0.017050 0.000000 1.681480 
# 
# From -- ./inp_files/257217.got.cif
#   From: 2010.05.17/outbox.cif.g08.bks.cpg/sg12_129_cif.got.tgz:257217.got - 2010.06.03 13:09:07.
