data_PCOD9190360
_publ_section_title
;
Structure prediction by ZEFSAII (Michael W. Deem and Ramdas Pophale) SiO2 
 PCOD9190360
Probable space group: C 2/M
;
_chemical_formula_sum "Si O2"
_cell_formula_units_Z 52
_cell_length_a 16.178946
_cell_length_b 28.188534
_cell_length_c 9.549631
_cell_angle_alpha 90.000000
_cell_angle_beta 149.589590
_cell_angle_gamma 90.000000
_cell_volume 2204.566818
_symmetry_space_group_name_H-M "C 2/M"
_symmetry_group_IT_number 12
_symmetry_cell_setting 'monoclinic'
loop_
_space_group_symop_operation_xyz
x,y,z
-x,y,-z
-x,-y,-z
x,-y,z
1/2+x,1/2+y,z
1/2-x,1/2+y,-z
1/2-x,1/2-y,-z
1/2+x,1/2-y,z
loop_
_atom_site_type_symbol
_atom_site_label
_atom_site_fract_x
_atom_site_fract_y
_atom_site_fract_z
Si Si1 0.263353 0.726860 0.672213
Si Si2 0.305473 0.946042 0.189241
Si Si3 0.500000 0.500000 0.500000
Si Si4 0.741467 0.385387 0.365272
Si Si5 0.896129 0.273489 0.133138
Si Si6 0.127802 0.379886 0.961827
Si Si7 0.811124 0.070885 0.435053
Si Si8 0.500000 0.000000 0.000000
O O1 0.250000 0.750000 0.500000
O O2 0.298499 0.670255 0.711726
O O3 0.077691 0.733284 0.455806
O O4 0.381531 0.753449 0.952995
O O5 0.500000 0.949369 0.500000
O O6 0.235917 0.914047 0.211489
O O7 0.300122 0.920546 0.032910
O O8 0.242801 0.000000 0.090568
O O9 0.436793 0.541731 0.522654
O O10 0.642592 0.413627 0.340349
O O11 0.933477 0.387859 0.693781
O O12 0.862735 0.329145 0.093116
O O13 0.750000 0.250000 0.000000
O O14 0.244931 0.381104 0.266105
O O15 0.644759 0.040083 0.197839
#
# Coordination Sequence:
#
# PCOD9190360 Si02
#       8
#     8   8   2   8   8   8   8   2
#     4  11  23  41  67  96 133 171 226 282 341 398
#     4   9  19  30  54  93 129 152 198 269 324 370
#     4  10  28  38  56  92 132 170 200 276 332 408
#     4  10  20  37  64  94 121 165 218 276 327 397
#     4  11  23  42  67  97 133 177 220 277 340 407
#     4  10  20  37  63  94 123 165 222 266 321 389
#     4  11  21  39  61  90 125 160 218 267 329 392
#     4  10  20  30  68  88 116 158 216 264 318 386
#
# _framework density 23.587399999999999
#
# number of rings (size 3 to 8) (size 9 to 14) (size 15 to 20)
#    0.000    1.692    1.538    2.769    4.308    4.923 
#    5.538    0.000    0.000    0.923    0.000    0.000 
#    0.000    0.000    0.000    0.000    0.000    0.000 
#
# Total GULP energy -144813.872330 kJ/mol
# GULP energy per Si atom -5569.764320 kJ/mol
# Density = 2.353371 g / cm^3
# Si number density = 23.587400 Si / 1000 Ang^3
#
#
#
# Elastic Constant Matrix: (Units=GPa)
#
#
# Indices 1 2 3 4 5 6 
#
# 1 112.0229 32.5263 16.7072 0.0000 3.5260 0.0000
# 2 32.5263 106.4934 10.0467 0.0000 5.9722 0.0000
# 3 16.7072 10.0467 80.3111 0.0000 14.7157 0.0000
# 4 0.0000 0.0000 0.0000 16.0763 0.0000 -8.3047
# 5 3.5260 5.9722 14.7157 0.0000 41.2990 0.0000
# 6 0.0000 0.0000 0.0000 -8.3047 0.0000 53.7068
#
#
#
# Elastic Compliance Matrix: (Units=1/GPa)
#
#
# Indices 1 2 3 4 5 6 
#
# 1 0.010027 -0.002907 -0.001757 0.000000 0.000190 0.000000
# 2 -0.002907 0.010386 -0.000497 0.000000 -0.001076 0.000000
# 3 -0.001757 -0.000497 0.013735 0.000000 -0.004672 0.000000
# 4 0.000000 0.000000 0.000000 0.067603 0.000000 0.010453
# 5 0.000190 -0.001076 -0.004672 0.000000 0.026018 0.000000
# 6 0.000000 0.000000 0.000000 0.010453 0.000000 0.020236
#
#
# Mechanical properties :
#
#
# Convention : Reuss Voigt Hill
#
# Bulk Modulus (GPa) = 41.97342 46.37643 44.17492
# Shear Modulus (GPa) = 30.07154 38.18624 34.12889
#
# Velocity S-wave (km/s) = 3.57445 4.02795 3.80796
# Velocity P-wave (km/s) = 5.90500 6.42937 6.17275
#
# Compressibility (1/GPa) = 0.02382460
#
# Stress axis : x y z
#
# Youngs Moduli (GPa) = 99.73069 96.28762 72.80447
#
# Poissons Ratio (x) = 0.27995 0.12793
# Poissons Ratio (y) = 0.28996 0.03619
# Poissons Ratio (z) = 0.17524 0.04787
#
# Static dielectric constant tensor:
#      x y z
#    x 1.992390 0.000000 0.072490 
#    y 0.000000 1.828610 0.000000 
#    z 0.072490 0.000000 1.973580 
# 
# From -- ./inp_files/68719.got.cif
#   From: 2010.05.17/outbox.cif.g08.bks.cpg/sg12_35_cif.got.tgz:68719.got - 2010.06.03 13:09:07.
