data_PCOD9190362
_publ_section_title
;
Structure prediction by ZEFSAII (Michael W. Deem and Ramdas Pophale) SiO2 
 PCOD9190362
Probable space group: C 2/M
;
_chemical_formula_sum "Si O2"
_cell_formula_units_Z 48
_cell_length_a 14.300363
_cell_length_b 22.454943
_cell_length_c 9.086941
_cell_angle_alpha 90.000000
_cell_angle_beta 137.162261
_cell_angle_gamma 90.000000
_cell_volume 1983.980416
_symmetry_space_group_name_H-M "C 2/M"
_symmetry_group_IT_number 12
_symmetry_cell_setting 'monoclinic'
loop_
_space_group_symop_operation_xyz
x,y,z
-x,y,-z
-x,-y,-z
x,-y,z
1/2+x,1/2+y,z
1/2-x,1/2+y,-z
1/2-x,1/2-y,-z
1/2+x,1/2-y,z
loop_
_atom_site_type_symbol
_atom_site_label
_atom_site_fract_x
_atom_site_fract_y
_atom_site_fract_z
Si Si1 0.361503 0.566224 0.986842
Si Si2 0.779102 0.657789 0.750274
Si Si3 0.899183 0.168538 0.209414
Si Si4 0.595997 0.065260 0.896682
Si Si5 0.669074 0.222978 0.735554
Si Si6 0.678275 0.116519 0.529553
O O1 0.421229 0.500000 0.058331
O O2 0.225799 0.565184 0.935813
O O3 0.300530 0.583943 0.758319
O O4 0.454919 0.618861 0.164319
O O5 0.639932 0.640264 0.677964
O O6 0.770337 0.728784 0.770701
O O7 0.781387 0.641020 0.584224
O O8 0.886930 0.619112 0.968166
O O9 0.942916 0.235773 0.304322
O O10 0.758694 0.188504 0.961262
O O11 0.454592 0.075188 0.646827
O O12 0.596145 0.000000 0.969311
O O13 0.633876 0.172094 0.579621
#
# Coordination Sequence:
#
# PCOD9190362 Si02
#       6
#     8   8   8   8   8   8
#     4   9  17  29  41  56  80 113 147 171 200 247
#     4   9  17  28  40  56  78 108 141 174 209 243
#     4   7  14  28  44  53  70 104 141 175 204 244
#     4  10  20  31  40  56  87 123 148 165 201 254
#     4   8  15  29  42  55  71 103 146 177 204 244
#     4  11  18  24  40  60  80 104 138 182 211 238
#
# _framework density 24.193788000000001
#
# number of rings (size 3 to 8) (size 9 to 14) (size 15 to 20)
#    1.000    2.000    0.000    2.000    0.000    3.333 
#    0.000    0.000    0.000    0.000    0.000    0.000 
#    0.000    0.000    0.000   21.000    0.000  107.167 
#
# Total GULP energy -133639.757349 kJ/mol
# GULP energy per Si atom -5568.323223 kJ/mol
# Density = 2.413872 g / cm^3
# Si number density = 24.193788 Si / 1000 Ang^3
#
#
#
# Elastic Constant Matrix: (Units=GPa)
#
#
# Indices 1 2 3 4 5 6 
#
# 1 81.2575 9.3640 25.7882 0.0000 -18.0980 0.0000
# 2 9.3640 171.7472 28.8823 0.0000 -4.0178 0.0000
# 3 25.7882 28.8823 84.2340 0.0000 -25.1868 0.0000
# 4 0.0000 0.0000 0.0000 34.4087 0.0000 8.9113
# 5 -18.0980 -4.0178 -25.1868 0.0000 31.8100 0.0000
# 6 0.0000 0.0000 0.0000 8.9113 0.0000 4.2337
#
#
#
# Elastic Compliance Matrix: (Units=1/GPa)
#
#
# Indices 1 2 3 4 5 6 
#
# 1 0.014518 -0.000225 -0.002497 0.000000 0.006254 0.000000
# 2 -0.000225 0.006216 -0.002445 0.000000 -0.001279 0.000000
# 3 -0.002497 -0.002445 0.016977 0.000000 0.011712 0.000000
# 4 0.000000 0.000000 0.000000 0.063891 0.000000 -0.134480
# 5 0.006254 -0.001279 0.011712 0.000000 0.044107 0.000000
# 6 0.000000 0.000000 0.000000 -0.134480 0.000000 0.519263
#
#
# Mechanical properties :
#
#
# Convention : Reuss Voigt Hill
#
# Bulk Modulus (GPa) = 36.52869 51.70087 44.11478
# Shear Modulus (GPa) = 7.30534 32.30409 19.80472
#
# Velocity S-wave (km/s) = 1.73956 3.65803 2.86420
# Velocity P-wave (km/s) = 4.37789 6.26558 5.40478
#
# Compressibility (1/GPa) = 0.02737574
#
# Stress axis : x y z
#
# Youngs Moduli (GPa) = 68.87987 160.87497 58.90451
#
# Poissons Ratio (x) = 0.03624 0.14711
# Poissons Ratio (y) = 0.01552 0.14401
# Poissons Ratio (z) = 0.17202 0.39330
#
# Static dielectric constant tensor:
#      x y z
#    x 1.971710 0.000000 0.068700 
#    y 0.000000 1.972400 0.000000 
#    z 0.068700 0.000000 2.065890 
# 
# From -- ./inp_files/90233.got.cif
#   From: 2010.05.17/outbox.cif.g08.bks.cpg/sg12_46_cif.got.tgz:90233.got - 2010.06.03 13:09:07.
