data_PCOD9190043
_publ_section_title
;
Structure prediction by ZEFSAII (Michael W. Deem and Ramdas Pophale) SiO2 
 PCOD9190043
Probable space group: C 2/M
;
_chemical_formula_sum "Si O2"
_cell_formula_units_Z 64
_cell_length_a 15.347730
_cell_length_b 29.487813
_cell_length_c 9.446579
_cell_angle_alpha 90.000000
_cell_angle_beta 48.538711
_cell_angle_gamma 90.000000
_cell_volume 3203.884421
_symmetry_space_group_name_H-M "C 2/M"
_symmetry_group_IT_number 12
_symmetry_cell_setting 'monoclinic'
loop_
_space_group_symop_operation_xyz
x,y,z
-x,y,-z
-x,-y,-z
x,-y,z
1/2+x,1/2+y,z
1/2-x,1/2+y,-z
1/2-x,1/2-y,-z
1/2+x,1/2-y,z
loop_
_atom_site_type_symbol
_atom_site_label
_atom_site_fract_x
_atom_site_fract_y
_atom_site_fract_z
Si Si1 0.863045 0.448091 0.676637
Si Si2 0.341306 0.718435 0.985683
Si Si3 0.864814 0.371153 0.174887
Si Si4 0.234408 0.119316 0.015248
Si Si5 0.555521 0.313004 0.582743
Si Si6 0.979316 0.089332 0.354908
Si Si7 0.752014 0.448894 0.489044
Si Si8 0.289276 0.227828 0.311204
O O1 0.844212 0.500000 0.746332
O O2 0.790710 0.441897 0.609544
O O3 0.000000 0.442858 0.500000
O O4 0.821675 0.411632 0.834175
O O5 0.348005 0.738756 0.136253
O O6 0.250000 0.750000 0.000000
O O7 0.291041 0.667644 0.030766
O O8 0.467356 0.715501 0.773748
O O9 0.788583 0.371390 0.112286
O O10 0.814254 0.410651 0.327675
O O11 0.854171 0.320324 0.251942
O O12 0.000000 0.379580 0.000000
O O13 0.110160 0.094064 0.157042
O O14 0.500000 0.331314 0.500000
O O15 0.581070 0.361656 0.623739
O O16 0.660270 0.285674 0.401758
O O17 0.000000 0.079103 0.500000
O O18 0.886233 0.055200 0.389248
O O19 0.789891 0.500000 0.408714
O O20 0.250000 0.250000 0.500000
#
# Coordination Sequence:
#
# PCOD9190043 Si02
#       8
#     8   8   8   8   8   8   8   8
#     4  10  24  47  69  95 134 176 222 276 336 399
#     4  11  22  40  63  94 130 168 226 264 329 402
#     4  12  25  44  66  96 135 173 228 282 328 402
#     4  11  23  42  70  97 129 177 220 276 336 398
#     4  10  19  39  65  84 127 176 208 265 331 386
#     4  10  19  40  67  95 133 172 213 268 332 397
#     4  11  24  43  69 100 136 172 216 279 341 401
#     4  12  26  40  61  96 130 175 220 275 329 387
#
# _framework density 19.975753000000001
#
# number of rings (size 3 to 8) (size 9 to 14) (size 15 to 20)
#    0.000    1.125    5.000    1.500    3.500    2.000 
#    2.250    3.750    0.000    0.000    0.000    0.000 
#    0.000    0.000    0.000    0.000    0.000    0.000 
#
# Total GULP energy -178413.249311 kJ/mol
# GULP energy per Si atom -5575.414041 kJ/mol
# Density = 1.993029 g / cm^3
# Si number density = 19.975753 Si / 1000 Ang^3
#
#
#
# Elastic Constant Matrix: (Units=GPa)
#
#
# Indices 1 2 3 4 5 6 
#
# 1 62.8969 7.1655 4.9264 0.0000 -3.1328 0.0000
# 2 7.1655 93.8601 44.6932 0.0000 6.3390 0.0000
# 3 4.9264 44.6932 85.5156 0.0000 -9.7557 0.0000
# 4 0.0000 0.0000 0.0000 9.8132 0.0000 12.7434
# 5 -3.1328 6.3390 -9.7557 0.0000 31.4613 0.0000
# 6 0.0000 0.0000 0.0000 12.7434 0.0000 9.4827
#
#
#
# Elastic Compliance Matrix: (Units=1/GPa)
#
#
# Indices 1 2 3 4 5 6 
#
# 1 0.016148 -0.001356 -0.000007 0.000000 0.001879 0.000000
# 2 -0.001356 0.015222 -0.008545 0.000000 -0.005852 0.000000
# 3 -0.000007 -0.008545 0.016956 0.000000 0.006979 0.000000
# 4 0.000000 0.000000 0.000000 -0.136760 0.000000 0.183786
# 5 0.001879 -0.005852 0.006979 0.000000 0.035315 0.000000
# 6 0.000000 0.000000 0.000000 0.183786 0.000000 -0.141526
#
#
# Mechanical properties :
#
#
# Convention : Reuss Voigt Hill
#
# Bulk Modulus (GPa) = 35.07634 39.53810 37.30722
# Shear Modulus (GPa) = -30.24320 22.51729 -3.86296
#
# Velocity S-wave (km/s) = -3.89523 3.36107 -1.39213
# Velocity P-wave (km/s) = 1.62261 5.90749 4.01656
#
# Compressibility (1/GPa) = 0.02850925
#
# Stress axis : x y z
#
# Youngs Moduli (GPa) = 61.92831 65.69602 58.97594
#
# Poissons Ratio (x) = 0.08910 0.00042
# Poissons Ratio (y) = 0.08399 0.50393
# Poissons Ratio (z) = 0.00044 0.56135
#
# Static dielectric constant tensor:
#      x y z
#    x 1.744130 0.000000 -0.009780 
#    y 0.000000 0.609940 0.000000 
#    z -0.009780 0.000000 1.703330 
# 
# From -- ./inp_files/68608.got.cif
#   From: 2010.05.17/outbox.cif.g08.bks.cpg/sg12_35_cif.got.tgz:68608.got - 2010.06.03 13:09:07.
