data_PCOD9190028
_publ_section_title
;
Structure prediction by ZEFSAII (Michael W. Deem and Ramdas Pophale) SiO2 
 PCOD9190028
Probable space group: C 2/M
;
_chemical_formula_sum "Si O2"
_cell_formula_units_Z 48
_cell_length_a 23.866295
_cell_length_b 14.461874
_cell_length_c 20.894029
_cell_angle_alpha 90.000000
_cell_angle_beta 18.559817
_cell_angle_gamma 90.000000
_cell_volume 2295.413625
_symmetry_space_group_name_H-M "C 2/M"
_symmetry_group_IT_number 12
_symmetry_cell_setting 'monoclinic'
loop_
_space_group_symop_operation_xyz
x,y,z
-x,y,-z
-x,-y,-z
x,-y,z
1/2+x,1/2+y,z
1/2-x,1/2+y,-z
1/2-x,1/2-y,-z
1/2+x,1/2-y,z
loop_
_atom_site_type_symbol
_atom_site_label
_atom_site_fract_x
_atom_site_fract_y
_atom_site_fract_z
Si Si1 0.078030 0.397793 0.326738
Si Si2 0.595172 0.286245 0.713016
Si Si3 0.670216 0.654448 0.775555
Si Si4 0.220834 0.142654 0.016642
Si Si5 0.381298 0.099970 0.971167
Si Si6 0.803000 0.787088 0.727836
O O1 0.135852 0.500000 0.286675
O O2 0.867105 0.390179 0.566646
O O3 0.132908 0.390075 0.192807
O O4 0.174542 0.309294 0.254754
O O5 0.750000 0.250000 0.500000
O O6 0.636177 0.332313 0.737166
O O7 0.468208 0.357386 0.812661
O O8 0.499753 0.189199 0.830612
O O9 0.702170 0.753993 0.774189
O O10 0.500000 0.615633 0.000000
O O11 0.250000 0.250000 0.000000
O O12 0.246627 0.096943 0.057137
O O13 0.284292 0.130154 0.140233
O O14 0.469393 0.000000 0.879929
O O15 0.000000 0.814234 0.500000
#
# Coordination Sequence:
#
# PCOD9190028 Si02
#       6
#     8   8   8   8   8   8
#     4  11  22  39  65  95 125 170 222 263 313 387
#     4  11  23  40  67  90 128 172 206 264 336 375
#     4  11  21  39  62  93 130 172 208 262 330 384
#     4  10  19  39  64  89 120 168 210 260 317 374
#     4  11  22  41  66  94 125 169 219 263 311 383
#     4  10  22  39  64  88 127 168 211 261 320 379
#
# _framework density 20.911265
#
# number of rings (size 3 to 8) (size 9 to 14) (size 15 to 20)
#    0.000    1.333    5.000    2.500    2.333    3.667 
#    0.000    6.667    0.000    0.000    0.000    0.000 
#    0.000    0.000    0.000    0.000    0.000    0.000 
#
# Total GULP energy -133756.939012 kJ/mol
# GULP energy per Si atom -5573.205792 kJ/mol
# Density = 2.086367 g / cm^3
# Si number density = 20.911265 Si / 1000 Ang^3
#
#
#
# Elastic Constant Matrix: (Units=GPa)
#
#
# Indices 1 2 3 4 5 6 
#
# 1 74.0230 -24.4808 -14.8775 0.0033 9.9583 -0.0014
# 2 -24.4808 61.2496 -19.2787 0.0000 1.1485 0.0018
# 3 -14.8775 -19.2787 84.7293 0.0017 16.4532 0.0009
# 4 0.0033 0.0000 0.0017 5.0872 0.0010 -4.0276
# 5 9.9583 1.1485 16.4532 0.0010 29.7490 -0.0009
# 6 -0.0014 0.0018 0.0009 -4.0276 -0.0009 2.3494
#
#
#
# Elastic Compliance Matrix: (Units=1/GPa)
#
#
# Indices 1 2 3 4 5 6 
#
# 1 0.020466 0.011056 0.008428 0.000048 -0.011939 0.000078
# 2 0.011056 0.023842 0.009258 0.000065 -0.009742 0.000093
# 3 0.008428 0.009258 0.017932 0.000055 -0.013096 0.000081
# 4 0.000048 0.000065 0.000055 -0.550225 -0.000060 -0.943267
# 5 -0.011939 -0.009742 -0.013096 -0.000060 0.045230 -0.000079
# 6 0.000078 0.000093 0.000081 -0.943267 -0.000079 -1.191424
#
#
# Mechanical properties :
#
#
# Convention : Reuss Voigt Hill
#
# Bulk Modulus (GPa) = 8.35256 11.41422 9.88339
# Shear Modulus (GPa) = -3.02708 26.01303 11.49297
#
# Velocity S-wave (km/s) = -1.20446 3.53083 2.34691
# Velocity P-wave (km/s) = 1.43828 4.70027 3.47572
#
# Compressibility (1/GPa) = 0.11972379
#
# Stress axis : x y z
#
# Youngs Moduli (GPa) = 48.86210 41.94200 55.76749
#
# Poissons Ratio (x) = -0.46373 -0.46998
# Poissons Ratio (y) = -0.54024 -0.51630
# Poissons Ratio (z) = -0.41179 -0.38830
#
# Static dielectric constant tensor:
#      x y z
#    x 2.023110 0.000020 0.175890 
#    y 0.000020 1.717670 0.000020 
#    z 0.175890 0.000020 1.973440 
# 
# From -- ./inp_files/325609.got.cif
#   From: 2010.05.17/outbox.cif.g08.bks.cpg/sg12_163_cif.got.tgz:325609.got - 2010.06.03 13:09:07.
