data_PCOD9190690
_publ_section_title
;
Structure prediction by ZEFSAII (Michael W. Deem and Ramdas Pophale) SiO2 
 PCOD9190690
Probable space group: C 2/M
;
_chemical_formula_sum "Si O2"
_cell_formula_units_Z 56
_cell_length_a 19.574043
_cell_length_b 7.874922
_cell_length_c 25.879216
_cell_angle_alpha 90.000000
_cell_angle_beta 139.403753
_cell_angle_gamma 90.000000
_cell_volume 2595.822907
_symmetry_space_group_name_H-M "C 2/M"
_symmetry_group_IT_number 12
_symmetry_cell_setting 'monoclinic'
loop_
_space_group_symop_operation_xyz
x,y,z
-x,y,-z
-x,-y,-z
x,-y,z
1/2+x,1/2+y,z
1/2-x,1/2+y,-z
1/2-x,1/2-y,-z
1/2+x,1/2-y,z
loop_
_atom_site_type_symbol
_atom_site_label
_atom_site_fract_x
_atom_site_fract_y
_atom_site_fract_z
Si Si1 0.575120 0.300615 0.500154
Si Si2 0.891424 0.300796 0.913800
Si Si3 0.899404 0.295547 0.327918
Si Si4 0.967488 0.298626 0.752483
Si Si5 0.819280 0.802768 0.759758
Si Si6 0.177734 0.296379 0.832267
Si Si7 0.714526 0.794376 0.422188
O O1 0.500000 0.220557 0.500000
O O2 0.587593 0.500000 0.519047
O O3 0.507942 0.281428 0.409348
O O4 0.690787 0.229309 0.559709
O O5 0.904094 0.500000 0.909401
O O6 0.861890 0.213423 0.842776
O O7 0.793916 0.279801 0.897067
O O8 0.000000 0.236190 0.000000
O O9 0.906427 0.500000 0.336603
O O10 0.800083 0.232545 0.305207
O O11 0.870929 0.259704 0.252419
O O12 0.978475 0.500000 0.749982
O O13 0.899790 0.275902 0.765363
O O14 0.894959 0.231012 0.663918
O O15 0.087260 0.233918 0.819462
O O16 0.811083 0.000000 0.741718
O O17 0.191932 0.500000 0.844984
O O18 0.750000 0.750000 0.500000
O O19 0.711707 0.000000 0.418103
#
# Coordination Sequence:
#
# PCOD9190690 Si02
#       7
#     8   8   8   8   8   8   8
#     4  10  20  32  47  69  96 130 175 222 266 310
#     4  10  21  38  61  87 112 139 173 212 258 318
#     4   9  18  33  51  72  99 133 175 219 264 314
#     4  10  20  36  56  78 109 146 183 225 272 320
#     4  10  21  36  56  82 110 142 180 222 269 319
#     4   9  19  35  56  81 107 138 175 215 262 315
#     4  10  21  35  51  73 104 142 181 225 273 318
#
# _framework density 21.573118999999998
#
# number of rings (size 3 to 8) (size 9 to 14) (size 15 to 20)
#    0.000    2.286    0.000    3.429    0.000    8.286 
#    0.000    0.714    0.000    0.000    0.000    0.000 
#    0.000    0.000    0.000    0.000    0.000    0.000 
#
# Total GULP energy -156282.268424 kJ/mol
# GULP energy per Si atom -5581.509587 kJ/mol
# Density = 2.152402 g / cm^3
# Si number density = 21.573119 Si / 1000 Ang^3
#
#
#
# Elastic Constant Matrix: (Units=GPa)
#
#
# Indices 1 2 3 4 5 6 
#
# 1 101.1874 0.1656 22.1363 0.0000 30.5984 0.0000
# 2 0.1656 22.7462 -1.3534 0.0000 4.9090 -0.0001
# 3 22.1363 -1.3534 81.9179 0.0000 32.0695 0.0000
# 4 0.0000 0.0000 0.0000 21.8108 0.0000 -2.0096
# 5 30.5984 4.9090 32.0695 0.0000 33.0323 0.0000
# 6 0.0000 -0.0001 0.0000 -2.0096 0.0000 21.2903
#
#
#
# Elastic Compliance Matrix: (Units=1/GPa)
#
#
# Indices 1 2 3 4 5 6 
#
# 1 0.014205 0.003534 0.002543 0.000000 -0.016153 0.000000
# 2 0.003534 0.047873 0.006295 0.000000 -0.016500 0.000000
# 3 0.002543 0.006295 0.020829 0.000000 -0.023514 0.000000
# 4 0.000000 0.000000 0.000000 0.046251 0.000000 0.004366
# 5 -0.016153 -0.016500 -0.023514 0.000000 0.070516 0.000000
# 6 0.000000 0.000000 0.000000 0.004366 0.000000 0.047382
#
#
# Mechanical properties :
#
#
# Convention : Reuss Voigt Hill
#
# Bulk Modulus (GPa) = 9.28913 27.52760 18.40837
# Shear Modulus (GPa) = 19.36518 27.55355 23.45936
#
# Velocity S-wave (km/s) = 2.99934 3.57769 3.30121
# Velocity P-wave (km/s) = 4.03855 5.46392 4.80439
#
# Compressibility (1/GPa) = 0.10765275
#
# Stress axis : x y z
#
# Youngs Moduli (GPa) = 70.39814 20.88855 48.00929
#
# Poissons Ratio (x) = -0.07382 -0.12210
# Poissons Ratio (y) = -0.24878 -0.30224
# Poissons Ratio (z) = -0.17905 -0.13150
#
# Static dielectric constant tensor:
#      x y z
#    x 1.852150 0.000000 0.021050 
#    y 0.000000 1.785740 0.000000 
#    z 0.021050 0.000000 1.784600 
# 
# From -- ./inp_files/363134.got.cif
#   From: 2010.05.17/outbox.cif.g08.bks.cpg/sg12_182_cif.got.tgz:363134.got - 2010.06.03 13:09:07.
