data_PCOD9190922
_publ_section_title
;
Structure prediction by ZEFSAII (Michael W. Deem and Ramdas Pophale) SiO2 
 PCOD9190922
Probable space group: C 2/M
;
_chemical_formula_sum "Si O2"
_cell_formula_units_Z 64
_cell_length_a 15.324127
_cell_length_b 7.686224
_cell_length_c 28.002130
_cell_angle_alpha 90.000000
_cell_angle_beta 66.095393
_cell_angle_gamma 90.000000
_cell_volume 3015.304797
_symmetry_space_group_name_H-M "C 2/M"
_symmetry_group_IT_number 12
_symmetry_cell_setting 'monoclinic'
loop_
_space_group_symop_operation_xyz
x,y,z
-x,y,-z
-x,-y,-z
x,-y,z
1/2+x,1/2+y,z
1/2-x,1/2+y,-z
1/2-x,1/2-y,-z
1/2+x,1/2-y,z
loop_
_atom_site_type_symbol
_atom_site_label
_atom_site_fract_x
_atom_site_fract_y
_atom_site_fract_z
Si Si1 0.496437 0.289072 0.556298
Si Si2 0.208659 0.204677 0.933667
Si Si3 0.820052 0.286255 0.252114
Si Si4 0.615567 0.292756 0.331675
Si Si5 0.412413 0.210531 0.329757
Si Si6 0.309449 0.809628 0.441089
Si Si7 0.104178 0.288636 0.051971
Si Si8 0.598381 0.796593 0.865840
O O1 0.500000 0.246178 0.500000
O O2 0.509850 0.500000 0.557336
O O3 0.405523 0.239568 0.608669
O O4 0.584099 0.193096 0.561455
O O5 0.308503 0.270866 0.933537
O O6 0.173686 0.283986 0.892081
O O7 0.219341 0.000000 0.923319
O O8 0.130485 0.233781 0.992499
O O9 0.818084 0.500000 0.251169
O O10 0.712499 0.224067 0.287154
O O11 0.886255 0.235919 0.282166
O O12 0.860591 0.223555 0.192577
O O13 0.626619 0.500000 0.330903
O O14 0.518870 0.257412 0.323285
O O15 0.331967 0.279214 0.385195
O O16 0.406525 0.000000 0.333367
O O17 0.250000 0.750000 0.500000
O O18 0.269377 0.000000 0.438837
O O19 0.104275 0.500000 0.051590
O O20 0.002461 0.223482 0.093158
O O21 0.579627 0.000000 0.860793
#
# Coordination Sequence:
#
# PCOD9190922 Si02
#       8
#     8   8   8   8   8   8   8   8
#     4   9  18  31  51  75  99 130 167 206 259 320
#     4  10  20  34  54  81 110 139 174 218 266 307
#     4   9  19  35  56  77  99 139 182 215 255 312
#     4   9  18  34  54  75 102 132 170 216 261 310
#     4   9  19  36  56  75 101 136 176 216 259 314
#     4  10  20  32  50  75 103 131 166 212 263 317
#     4   9  19  35  54  77 108 145 177 210 257 313
#     4  10  20  35  54  77 105 139 181 217 255 310
#
# _framework density 21.225052999999999
#
# number of rings (size 3 to 8) (size 9 to 14) (size 15 to 20)
#    0.000    2.625    0.000    1.125    1.750    4.250 
#    0.000    3.125    0.000    0.000    0.000    0.000 
#    0.000    0.000    0.000    0.000    0.000    0.000 
#
# Total GULP energy -178415.060631 kJ/mol
# GULP energy per Si atom -5575.470645 kJ/mol
# Density = 2.117674 g / cm^3
# Si number density = 21.225053 Si / 1000 Ang^3
#
#
#
# Elastic Constant Matrix: (Units=GPa)
#
#
# Indices 1 2 3 4 5 6 
#
# 1 63.0350 -11.4942 53.1369 0.0000 13.2530 0.0000
# 2 -11.4942 27.1716 -1.8349 0.0000 -3.8384 -0.0001
# 3 53.1369 -1.8349 140.8562 0.0000 27.1831 0.0000
# 4 0.0000 0.0000 0.0000 11.1277 0.0000 1.4485
# 5 13.2530 -3.8384 27.1831 0.0000 26.7458 0.0000
# 6 0.0000 -0.0001 0.0000 1.4485 0.0000 21.3826
#
#
#
# Elastic Compliance Matrix: (Units=1/GPa)
#
#
# Indices 1 2 3 4 5 6 
#
# 1 0.025928 0.010062 -0.009267 0.000000 -0.001985 0.000000
# 2 0.010062 0.041523 -0.004283 0.000000 0.005326 0.000000
# 3 -0.009267 -0.004283 0.012156 0.000000 -0.008378 0.000000
# 4 0.000000 0.000000 0.000000 0.090665 0.000000 -0.006142
# 5 -0.001985 0.005326 -0.008378 0.000000 0.047652 0.000000
# 6 0.000000 0.000000 0.000000 -0.006142 0.000000 0.047183
#
#
# Mechanical properties :
#
#
# Convention : Reuss Voigt Hill
#
# Bulk Modulus (GPa) = 13.76810 34.51983 24.14397
# Shear Modulus (GPa) = 16.87517 24.60155 20.73836
#
# Velocity S-wave (km/s) = 2.82274 3.40822 3.12920
# Velocity P-wave (km/s) = 4.13819 5.63800 4.94528
#
# Compressibility (1/GPa) = 0.07263165
#
# Stress axis : x y z
#
# Youngs Moduli (GPa) = 38.56807 24.08322 82.26169
#
# Poissons Ratio (x) = -0.24232 0.76232
# Poissons Ratio (y) = -0.38807 0.35230
# Poissons Ratio (z) = 0.35741 0.10314
#
# Static dielectric constant tensor:
#      x y z
#    x 1.740740 0.000000 -0.015000 
#    y 0.000000 1.804450 0.000000 
#    z -0.015000 0.000000 1.792830 
# 
# From -- ./inp_files/375014.got.cif
#   From: 2010.05.17/outbox.cif.g08.bks.cpg/sg12_188_cif.got.tgz:375014.got - 2010.06.03 13:09:07.
