data_PCOD9190863
_publ_section_title
;
Structure prediction by ZEFSAII (Michael W. Deem and Ramdas Pophale) SiO2 
 PCOD9190863
Probable space group: C 2/M
;
_chemical_formula_sum "Si O2"
_cell_formula_units_Z 64
_cell_length_a 30.275477
_cell_length_b 7.446580
_cell_length_c 15.457238
_cell_angle_alpha 90.000000
_cell_angle_beta 120.326321
_cell_angle_gamma 90.000000
_cell_volume 3007.965900
_symmetry_space_group_name_H-M "C 2/M"
_symmetry_group_IT_number 12
_symmetry_cell_setting 'monoclinic'
loop_
_space_group_symop_operation_xyz
x,y,z
-x,y,-z
-x,-y,-z
x,-y,z
1/2+x,1/2+y,z
1/2-x,1/2+y,-z
1/2-x,1/2-y,-z
1/2+x,1/2-y,z
loop_
_atom_site_type_symbol
_atom_site_label
_atom_site_fract_x
_atom_site_fract_y
_atom_site_fract_z
Si Si1 0.470005 0.216697 0.246123
Si Si2 0.104652 0.280713 0.977216
Si Si3 0.781497 0.713794 0.945470
Si Si4 0.647275 0.287055 0.560567
Si Si5 0.445163 0.712121 0.414105
Si Si6 0.915354 0.283855 0.669910
Si Si7 0.244311 0.719216 0.269384
Si Si8 0.870746 0.280854 0.806872
O O1 0.439596 0.279361 0.131240
O O2 0.442785 0.266799 0.308754
O O3 0.528597 0.281651 0.303238
O O4 0.471005 0.000000 0.244679
O O5 0.103342 0.500000 0.975822
O O6 0.159965 0.221577 0.995612
O O7 0.103723 0.225605 0.076867
O O8 0.785094 0.500000 0.940463
O O9 0.755151 0.776400 0.830737
O O10 0.750000 0.750000 0.000000
O O11 0.650564 0.500000 0.580612
O O12 0.603646 0.213623 0.582526
O O13 0.626227 0.261705 0.443512
O O14 0.704404 0.216604 0.633096
O O15 0.500000 0.787557 0.500000
O O16 0.446375 0.500000 0.435168
O O17 0.918143 0.500000 0.676640
O O18 0.899227 0.219719 0.748907
O O19 0.243764 0.500000 0.271994
O O20 0.188939 0.774830 0.251127
O O21 0.871178 0.500000 0.807162
#
# Coordination Sequence:
#
# PCOD9190863 Si02
#       8
#     8   8   8   8   8   8   8   8
#     4  10  20  32  49  75 102 127 159 199 244 287
#     4   8  16  31  49  71  99 129 158 191 239 293
#     4   9  17  30  48  70  95 124 159 197 236 282
#     4  10  20  34  51  71  96 130 167 198 237 291
#     4  10  20  34  50  68  95 132 168 200 236 284
#     4  10  20  32  50  76  99 124 162 205 243 280
#     4   8  16  31  50  70  94 127 163 195 235 290
#     4   8  15  31  52  72  98 127 158 200 243 286
#
# _framework density 21.276835999999999
#
# number of rings (size 3 to 8) (size 9 to 14) (size 15 to 20)
#    0.000    2.875    1.250    1.500    1.750    1.750 
#    0.000    3.125    0.000    3.750    0.000    1.750 
#    0.000    0.000    0.000    0.000    0.000    0.000 
#
# Total GULP energy -178589.555749 kJ/mol
# GULP energy per Si atom -5580.923617 kJ/mol
# Density = 2.122841 g / cm^3
# Si number density = 21.276836 Si / 1000 Ang^3
#
#
#
# Elastic Constant Matrix: (Units=GPa)
#
#
# Indices 1 2 3 4 5 6 
#
# 1 25.3981 -8.1246 15.4873 0.0000 -22.6937 0.0000
# 2 -8.1246 59.9423 -14.3439 0.0000 5.9039 0.0000
# 3 15.4873 -14.3439 105.2379 0.0000 7.7256 0.0000
# 4 0.0000 0.0000 0.0000 22.4356 0.0000 -10.5734
# 5 -22.6937 5.9039 7.7256 0.0000 37.2923 0.0000
# 6 0.0000 0.0000 0.0000 -10.5734 0.0000 8.7911
#
#
#
# Elastic Compliance Matrix: (Units=1/GPa)
#
#
# Indices 1 2 3 4 5 6 
#
# 1 0.131308 0.003474 -0.025057 0.000000 0.084546 0.000000
# 2 0.003474 0.017738 0.001988 0.000000 -0.001106 0.000000
# 3 -0.025057 0.001988 0.014829 0.000000 -0.018635 0.000000
# 4 0.000000 0.000000 0.000000 0.102897 0.000000 0.123758
# 5 0.084546 -0.001106 -0.018635 0.000000 0.082300 0.000000
# 6 0.000000 0.000000 0.000000 0.123758 0.000000 0.262601
#
#
# Mechanical properties :
#
#
# Convention : Reuss Voigt Hill
#
# Bulk Modulus (GPa) = 8.02026 19.62401 13.82214
# Shear Modulus (GPa) = 7.22101 26.87443 17.04772
#
# Velocity S-wave (km/s) = 1.84424 3.55785 2.83368
# Velocity P-wave (km/s) = 2.88316 5.11086 4.14931
#
# Compressibility (1/GPa) = 0.12468422
#
# Stress axis : x y z
#
# Youngs Moduli (GPa) = 7.61570 56.37573 67.43687
#
# Poissons Ratio (x) = -0.19586 1.68976
# Poissons Ratio (y) = -0.02646 -0.13404
# Poissons Ratio (z) = 0.19083 -0.11205
#
# Static dielectric constant tensor:
#      x y z
#    x 1.757960 0.000000 0.012560 
#    y 0.000000 1.845630 0.000000 
#    z 0.012560 0.000000 1.740640 
# 
# From -- ./inp_files/249237.got.cif
#   From: 2010.05.17/outbox.cif.g08.bks.cpg/sg12_125_cif.got.tgz:249237.got - 2010.06.03 13:09:07.
