data_PCOD9190705
_publ_section_title
;
Structure prediction by ZEFSAII (Michael W. Deem and Ramdas Pophale) SiO2 
 PCOD9190705
Probable space group: C 2/M
;
_chemical_formula_sum "Si O2"
_cell_formula_units_Z 56
_cell_length_a 26.615677
_cell_length_b 11.645182
_cell_length_c 9.551479
_cell_angle_alpha 90.000000
_cell_angle_beta 57.357684
_cell_angle_gamma 90.000000
_cell_volume 2492.840538
_symmetry_space_group_name_H-M "C 2/M"
_symmetry_group_IT_number 12
_symmetry_cell_setting 'monoclinic'
loop_
_space_group_symop_operation_xyz
x,y,z
-x,y,-z
-x,-y,-z
x,-y,z
1/2+x,1/2+y,z
1/2-x,1/2+y,-z
1/2-x,1/2-y,-z
1/2+x,1/2-y,z
loop_
_atom_site_type_symbol
_atom_site_label
_atom_site_fract_x
_atom_site_fract_y
_atom_site_fract_z
Si Si1 0.539265 0.866869 0.250229
Si Si2 0.296152 0.624788 0.947850
Si Si3 0.294967 0.710703 0.633738
Si Si4 0.811187 0.872912 0.306110
Si Si5 0.410531 0.135764 0.414319
Si Si6 0.164549 0.371023 0.104872
Si Si7 0.933042 0.250954 0.084006
O O1 0.473986 0.819098 0.382106
O O2 0.597027 0.864762 0.263409
O O3 0.525547 0.000000 0.248664
O O4 0.563866 0.816763 0.067909
O O5 0.323707 0.500000 0.933114
O O6 0.292725 0.643799 0.784092
O O7 0.326872 0.739049 0.961150
O O8 0.226451 0.622194 0.097470
O O9 0.235352 0.781538 0.685883
O O10 0.304020 0.631124 0.484644
O O11 0.352442 0.793767 0.545734
O O12 0.879052 0.838299 0.170318
O O13 0.796790 0.000000 0.276747
O O14 0.420434 0.162371 0.232523
O O15 0.400596 0.000000 0.450762
O O16 0.164800 0.500000 0.031702
O O17 0.000000 0.201311 0.000000
#
# Coordination Sequence:
#
# PCOD9190705 Si02
#       7
#     8   8   8   8   8   8   8
#     4   9  16  30  51  73 100 130 163 207 253 294
#     4  10  20  36  56  75 100 133 166 205 254 304
#     4  10  20  33  50  71  98 132 166 201 244 298
#     4  10  20  32  47  71 101 131 165 203 244 296
#     4   9  17  29  48  75 103 131 165 205 247 293
#     4   9  19  34  54  79 100 124 166 215 257 297
#     4   9  17  29  47  72 101 133 166 199 244 300
#
# _framework density 22.464333
#
# number of rings (size 3 to 8) (size 9 to 14) (size 15 to 20)
#    0.000    2.571    0.000    2.143    0.000    3.143 
#    0.000    8.571    0.000    7.714    0.000    0.000 
#    0.000    0.000    0.000    0.000    0.000    0.000 
#
# Total GULP energy -155972.776581 kJ/mol
# GULP energy per Si atom -5570.456306 kJ/mol
# Density = 2.241320 g / cm^3
# Si number density = 22.464333 Si / 1000 Ang^3
#
#
#
# Elastic Constant Matrix: (Units=GPa)
#
#
# Indices 1 2 3 4 5 6 
#
# 1 99.8501 26.7975 52.7089 0.0000 -14.5518 0.0000
# 2 26.7975 146.3368 30.5674 0.0000 -15.6672 0.0000
# 3 52.7089 30.5674 137.7721 0.0000 -8.3617 0.0000
# 4 0.0000 0.0000 0.0000 6.1751 0.0000 -3.5992
# 5 -14.5518 -15.6672 -8.3617 0.0000 53.3193 0.0000
# 6 0.0000 0.0000 0.0000 -3.5992 0.0000 22.6436
#
#
#
# Elastic Compliance Matrix: (Units=1/GPa)
#
#
# Indices 1 2 3 4 5 6 
#
# 1 0.013130 -0.001172 -0.004611 0.000000 0.002516 0.000000
# 2 -0.001172 0.007461 -0.001104 0.000000 0.001699 0.000000
# 3 -0.004611 -0.001104 0.009259 0.000000 -0.000131 0.000000
# 4 0.000000 0.000000 0.000000 0.178475 0.000000 0.028369
# 5 0.002516 0.001699 -0.000131 0.000000 0.019920 0.000000
# 6 0.000000 0.000000 0.000000 0.028369 0.000000 0.048672
#
#
# Mechanical properties :
#
#
# Convention : Reuss Voigt Hill
#
# Bulk Modulus (GPa) = 62.19946 67.12295 64.66120
# Shear Modulus (GPa) = 16.88911 34.68663 25.78787
#
# Velocity S-wave (km/s) = 2.74491 3.93374 3.39181
# Velocity P-wave (km/s) = 6.14770 7.11175 6.64723
#
# Compressibility (1/GPa) = 0.01607731
#
# Stress axis : x y z
#
# Youngs Moduli (GPa) = 76.16121 134.03648 108.00016
#
# Poissons Ratio (x) = 0.15709 0.49794
# Poissons Ratio (y) = 0.08926 0.11921
# Poissons Ratio (z) = 0.35115 0.14795
#
# Static dielectric constant tensor:
#      x y z
#    x 1.898550 0.000000 0.053240 
#    y 0.000000 1.814290 0.000000 
#    z 0.053240 0.000000 1.878020 
# 
# From -- ./inp_files/164950.got.cif
#   From: 2010.05.17/outbox.cif.g08.bks.cpg/sg12_83_cif.got.tgz:164950.got - 2010.06.03 13:09:07.
