data_PCOD9190072
_publ_section_title
;
Structure prediction by ZEFSAII (Michael W. Deem and Ramdas Pophale) SiO2 
 PCOD9190072
Probable space group: C 2/M
;
_chemical_formula_sum "Si O2"
_cell_formula_units_Z 42
_cell_length_a 7.315610
_cell_length_b 14.075404
_cell_length_c 18.399919
_cell_angle_alpha 90.000000
_cell_angle_beta 75.893529
_cell_angle_gamma 90.000000
_cell_volume 1837.508811
_symmetry_space_group_name_H-M "C 2/M"
_symmetry_group_IT_number 12
_symmetry_cell_setting 'monoclinic'
loop_
_space_group_symop_operation_xyz
x,y,z
-x,y,-z
-x,-y,-z
x,-y,z
1/2+x,1/2+y,z
1/2-x,1/2+y,-z
1/2-x,1/2-y,-z
1/2+x,1/2-y,z
loop_
_atom_site_type_symbol
_atom_site_label
_atom_site_fract_x
_atom_site_fract_y
_atom_site_fract_z
Si Si1 0.095131 0.107364 0.901593
Si Si2 0.500000 0.500000 0.500000
Si Si3 0.826079 0.645470 0.239081
Si Si4 0.113890 0.863107 0.736497
Si Si5 0.339860 0.173649 0.073500
Si Si6 0.855197 0.500000 0.359626
Si Si7 0.723683 0.000000 0.395291
O O1 0.867181 0.128627 0.921422
O O2 0.166779 0.102376 0.811711
O O3 0.173729 0.209514 0.923854
O O4 0.130781 0.000000 0.928173
O O5 0.646906 0.500000 0.413252
O O6 0.322441 0.500000 0.462265
O O7 0.848268 0.752484 0.262417
O O8 0.607756 0.619193 0.250799
O O9 0.901968 0.641007 0.148936
O O10 0.896793 0.585387 0.299729
O O11 0.211310 0.910630 0.659245
O O12 0.500000 0.147156 0.000000
O O13 0.001012 0.500000 0.411020
#
# Coordination Sequence:
#
# PCOD9190072 Si02
#       7
#     8   2   8   8   8   4   4
#     4  10  21  39  63  92 135 188 235 294 355 410
#     4  12  26  48  72 104 144 172 214 298 344 416
#     4  10  21  39  68  97 134 183 237 285 346 413
#     4  10  19  39  66  95 134 179 229 287 335 418
#     4  10  22  39  63  96 141 184 237 301 350 413
#     4  12  25  45  72 105 134 183 228 277 352 428
#     4  12  23  43  75 100 141 176 225 273 352 423
#
# _framework density 22.857033999999999
#
# number of rings (size 3 to 8) (size 9 to 14) (size 15 to 20)
#    0.000    1.524    2.857    2.000    4.000    2.286 
#    0.000    1.905    0.000    0.000    0.000    0.000 
#    0.000    0.000    0.000    0.000    0.000    0.000 
#
# Total GULP energy -117077.694211 kJ/mol
# GULP energy per Si atom -5575.128296 kJ/mol
# Density = 2.280501 g / cm^3
# Si number density = 22.857034 Si / 1000 Ang^3
#
#
#
# Elastic Constant Matrix: (Units=GPa)
#
#
# Indices 1 2 3 4 5 6 
#
# 1 94.4482 0.1878 41.1205 0.0000 -8.8649 0.0000
# 2 0.1878 123.0621 40.8826 0.0000 0.6793 0.0000
# 3 41.1205 40.8826 166.4451 0.0000 -5.4324 0.0000
# 4 0.0000 0.0000 0.0000 -33.2283 0.0000 -9.1202
# 5 -8.8649 0.6793 -5.4324 0.0000 41.9157 0.0000
# 6 0.0000 0.0000 0.0000 -9.1202 0.0000 21.8897
#
#
#
# Elastic Compliance Matrix: (Units=1/GPa)
#
#
# Indices 1 2 3 4 5 6 
#
# 1 0.012176 0.001030 -0.003191 0.000000 0.002145 0.000000
# 2 0.001030 0.008943 -0.002459 0.000000 -0.000246 0.000000
# 3 -0.003191 -0.002459 0.007411 0.000000 0.000325 0.000000
# 4 0.000000 0.000000 0.000000 -0.027006 0.000000 -0.011252
# 5 0.002145 -0.000246 0.000325 0.000000 0.024357 0.000000
# 6 0.000000 0.000000 0.000000 -0.011252 0.000000 0.040996
#
#
# Mechanical properties :
#
#
# Convention : Reuss Voigt Hill
#
# Bulk Modulus (GPa) = 51.84206 60.92633 56.38420
# Shear Modulus (GPa) = 60.57174 26.23305 43.40239
#
# Velocity S-wave (km/s) = 5.15343 3.39145 4.36232
# Velocity P-wave (km/s) = 7.62500 6.48453 7.07778
#
# Compressibility (1/GPa) = 0.01928936
#
# Stress axis : x y z
#
# Youngs Moduli (GPa) = 82.12584 111.82376 134.93559
#
# Poissons Ratio (x) = -0.11515 0.43059
# Poissons Ratio (y) = -0.08457 0.33180
# Poissons Ratio (z) = 0.26207 0.27497
#
# Static dielectric constant tensor:
#      x y z
#    x 1.914120 0.000000 0.007320 
#    y 0.000000 1.933140 0.000000 
#    z 0.007320 0.000000 1.824770 
# 
# From -- ./inp_files/255730.got.cif
#   From: 2010.05.17/outbox.cif.g08.bks.cpg/sg12_128_cif.got.tgz:255730.got - 2010.06.03 13:09:07.
