data_PCOD9190981
_publ_section_title
;
Structure prediction by ZEFSAII (Michael W. Deem and Ramdas Pophale) SiO2 
 PCOD9190981
Probable space group: C 2/M
;
_chemical_formula_sum "Si O2"
_cell_formula_units_Z 64
_cell_length_a 17.247874
_cell_length_b 14.795313
_cell_length_c 21.682963
_cell_angle_alpha 90.000000
_cell_angle_beta 41.076660
_cell_angle_gamma 90.000000
_cell_volume 3635.706521
_symmetry_space_group_name_H-M "C 2/M"
_symmetry_group_IT_number 12
_symmetry_cell_setting 'monoclinic'
loop_
_space_group_symop_operation_xyz
x,y,z
-x,y,-z
-x,-y,-z
x,-y,z
1/2+x,1/2+y,z
1/2-x,1/2+y,-z
1/2-x,1/2-y,-z
1/2+x,1/2-y,z
loop_
_atom_site_type_symbol
_atom_site_label
_atom_site_fract_x
_atom_site_fract_y
_atom_site_fract_z
Si Si1 0.537205 0.104306 0.637610
Si Si2 0.025786 0.227230 0.556164
Si Si3 0.070951 0.895604 0.021158
Si Si4 0.645221 0.103171 0.151504
Si Si5 0.361727 0.899596 0.069873
Si Si6 0.702913 0.391884 0.283323
Si Si7 0.381639 0.773407 0.940692
Si Si8 0.751874 0.105563 0.603177
O O1 0.545415 0.180846 0.581512
O O2 0.413276 0.115586 0.747191
O O3 0.636523 0.117471 0.630742
O O4 0.546866 0.000000 0.609833
O O5 0.142887 0.166256 0.486107
O O6 0.000000 0.246935 0.500000
O O7 0.915383 0.168206 0.647674
O O8 0.044709 0.815842 0.085757
O O9 0.047623 0.000000 0.054318
O O10 0.213120 0.886815 0.927737
O O11 0.000000 0.880219 0.000000
O O12 0.581020 0.166240 0.139751
O O13 0.622984 0.000000 0.144863
O O14 0.289756 0.871497 0.174056
O O15 0.317846 0.000000 0.078052
O O16 0.500000 0.906702 0.000000
O O17 0.359669 0.831318 0.015006
O O18 0.676124 0.500000 0.296509
O O19 0.761463 0.375309 0.315536
O O20 0.250000 0.750000 0.000000
O O21 0.786373 0.000000 0.578441
#
# Coordination Sequence:
#
# PCOD9190981 Si02
#       8
#     8   8   8   8   8   8   8   8
#     4  10  21  35  55  79 109 141 174 213 263 321
#     4  10  20  35  57  80 107 137 175 220 264 316
#     4   9  18  34  52  70  97 139 187 223 253 295
#     4   9  19  34  52  75 103 138 176 218 263 313
#     4  10  21  34  51  78 111 141 173 219 268 311
#     4   9  19  34  54  80 108 139 175 217 267 318
#     4  10  20  32  51  74 103 139 179 218 260 303
#     4   9  18  35  58  82 105 136 173 216 270 323
#
# _framework density 17.603180999999999
#
# number of rings (size 3 to 8) (size 9 to 14) (size 15 to 20)
#    0.000    2.500    0.000    1.500    5.250    2.250 
#    0.000    0.000    0.000    0.000    0.000    0.000 
#    0.000    0.000    0.000    0.000    0.000    0.000 
#
# Total GULP energy -178248.584799 kJ/mol
# GULP energy per Si atom -5570.268275 kJ/mol
# Density = 1.756312 g / cm^3
# Si number density = 17.603181 Si / 1000 Ang^3
#
#
#
# Elastic Constant Matrix: (Units=GPa)
#
#
# Indices 1 2 3 4 5 6 
#
# 1 60.0465 48.0256 16.8708 -0.0001 7.7305 -0.0001
# 2 48.0256 81.6097 24.3148 0.0001 13.7333 0.0002
# 3 16.8708 24.3148 56.9641 0.0000 0.2620 0.0000
# 4 -0.0001 0.0001 0.0000 392.5078 0.0001 545.7878
# 5 7.7305 13.7333 0.2620 0.0001 12.7718 0.0002
# 6 -0.0001 0.0002 0.0000 545.7878 0.0002 800.8035
#
#
#
# Elastic Compliance Matrix: (Units=1/GPa)
#
#
# Indices 1 2 3 4 5 6 
#
# 1 0.031595 -0.018200 -0.001591 0.000000 0.000478 0.000000
# 2 -0.018200 0.028119 -0.006525 0.000000 -0.019086 0.000000
# 3 -0.001591 -0.006525 0.020777 0.000000 0.007553 0.000000
# 4 0.000000 0.000000 0.000000 0.048719 0.000000 -0.033204
# 5 0.000478 -0.019086 0.007553 0.000000 0.098376 0.000000
# 6 0.000000 0.000000 0.000000 -0.033204 0.000000 0.023879
#
#
# Mechanical properties :
#
#
# Convention : Reuss Voigt Hill
#
# Bulk Modulus (GPa) = 35.89364 41.89364 38.89364
# Shear Modulus (GPa) = 15.95491 248.51058 132.23274
#
# Velocity S-wave (km/s) = 3.01386 11.89454 8.67651
# Velocity P-wave (km/s) = 5.70489 14.57706 11.06880
#
# Compressibility (1/GPa) = 0.02786009
#
# Stress axis : x y z
#
# Youngs Moduli (GPa) = 31.65011 35.56267 48.13123
#
# Poissons Ratio (x) = 0.64723 0.07659
# Poissons Ratio (y) = 0.57602 0.31404
# Poissons Ratio (z) = 0.05036 0.23204
#
# Static dielectric constant tensor:
#      x y z
#    x 1.580660 0.000000 0.001370 
#    y 0.000000 1.626210 0.000000 
#    z 0.001370 0.000000 1.622340 
# 
# From -- ./inp_files/270674.got.cif
#   From: 2010.05.17/outbox.cif.g08.bks.cpg/sg12_136_cif.got.tgz:270674.got - 2010.06.03 13:09:07.
