data_PCOD9190850
_publ_section_title
;
Structure prediction by ZEFSAII (Michael W. Deem and Ramdas Pophale) SiO2 
 PCOD9190850
Probable space group: C 2/M
;
_chemical_formula_sum "Si O2"
_cell_formula_units_Z 64
_cell_length_a 22.899977
_cell_length_b 8.907380
_cell_length_c 24.703867
_cell_angle_alpha 90.000000
_cell_angle_beta 133.446519
_cell_angle_gamma 90.000000
_cell_volume 3658.444785
_symmetry_space_group_name_H-M "C 2/M"
_symmetry_group_IT_number 12
_symmetry_cell_setting 'monoclinic'
loop_
_space_group_symop_operation_xyz
x,y,z
-x,y,-z
-x,-y,-z
x,-y,z
1/2+x,1/2+y,z
1/2-x,1/2+y,-z
1/2-x,1/2-y,-z
1/2+x,1/2-y,z
loop_
_atom_site_type_symbol
_atom_site_label
_atom_site_fract_x
_atom_site_fract_y
_atom_site_fract_z
Si Si1 0.407214 0.318887 0.453604
Si Si2 0.934744 0.671384 0.005197
Si Si3 0.725170 0.679749 0.542349
Si Si4 0.762620 0.319500 0.852312
Si Si5 0.154300 0.176436 0.296483
Si Si6 0.787081 0.674519 0.291323
Si Si7 0.517015 0.680671 0.853525
Si Si8 0.812713 0.180060 0.082092
O O1 0.500000 0.271790 0.500000
O O2 0.406647 0.500000 0.453548
O O3 0.358143 0.273464 0.478070
O O4 0.353133 0.259030 0.369648
O O5 0.918137 0.500000 0.013331
O O6 0.969907 0.762628 0.077473
O O7 0.852154 0.730969 0.926777
O O8 0.000000 0.666968 0.000000
O O9 0.721693 0.500000 0.534237
O O10 0.750000 0.750000 0.500000
O O11 0.796209 0.729623 0.628299
O O12 0.765113 0.500000 0.845918
O O13 0.728908 0.245151 0.777062
O O14 0.709506 0.283870 0.870758
O O15 0.204628 0.183806 0.273030
O O16 0.064838 0.232473 0.226938
O O17 0.152281 0.000000 0.311944
O O18 0.809417 0.500000 0.300958
O O19 0.513056 0.500000 0.851622
O O20 0.597177 0.728819 0.873591
O O21 0.808000 0.000000 0.072995
O O22 0.750000 0.250000 0.000000
#
# Coordination Sequence:
#
# PCOD9190850 Si02
#       8
#     8   8   8   8   8   8   8   8
#     4   9  19  38  62  85 110 145 184 218 262 323
#     4  10  20  32  49  74 102 133 170 214 262 310
#     4  10  20  36  60  87 114 145 179 219 268 322
#     4  10  20  34  50  71 103 139 176 217 261 315
#     4   9  19  36  55  78 109 140 174 217 263 313
#     4  10  20  34  55  81 108 139 173 217 267 310
#     4  10  20  34  53  75 100 134 176 218 262 310
#     4  10  20  35  53  72  98 138 180 220 266 312
#
# _framework density 17.493773000000001
#
# number of rings (size 3 to 8) (size 9 to 14) (size 15 to 20)
#    0.000    2.250    1.250    1.500    0.000    3.000 
#    2.250    0.000    0.000    0.000    0.000    0.000 
#    0.000    0.000    0.000    0.000    0.000    0.000 
#
# Total GULP energy -178354.812856 kJ/mol
# GULP energy per Si atom -5573.587902 kJ/mol
# Density = 1.745396 g / cm^3
# Si number density = 17.493773 Si / 1000 Ang^3
#
#
#
# Elastic Constant Matrix: (Units=GPa)
#
#
# Indices 1 2 3 4 5 6 
#
# 1 123.8706 34.3723 79.4230 0.0000 5.6409 0.0000
# 2 34.3723 19.3733 27.4602 0.0000 -3.7161 0.0000
# 3 79.4230 27.4602 108.4952 0.0000 3.2369 0.0000
# 4 0.0000 0.0000 0.0000 45.9250 0.0000 -28.7996
# 5 5.6409 -3.7161 3.2369 0.0000 39.2859 0.0000
# 6 0.0000 0.0000 0.0000 -28.7996 0.0000 64.9210
#
#
#
# Elastic Compliance Matrix: (Units=1/GPa)
#
#
# Indices 1 2 3 4 5 6 
#
# 1 0.021088 -0.025963 -0.008724 0.000000 -0.004765 0.000000
# 2 -0.025963 0.116011 -0.010822 0.000000 0.015593 0.000000
# 3 -0.008724 -0.010822 0.018380 0.000000 -0.001285 0.000000
# 4 0.000000 0.000000 0.000000 0.030167 0.000000 0.013382
# 5 -0.004765 0.015593 -0.001285 0.000000 0.027720 0.000000
# 6 0.000000 0.000000 0.000000 0.013382 0.000000 0.021340
#
#
# Mechanical properties :
#
#
# Convention : Reuss Voigt Hill
#
# Bulk Modulus (GPa) = 15.51289 59.36112 37.43700
# Shear Modulus (GPa) = 14.40055 37.39197 25.89626
#
# Velocity S-wave (km/s) = 2.87223 4.62827 3.85166
# Velocity P-wave (km/s) = 4.45943 7.90996 6.42083
#
# Compressibility (1/GPa) = 0.06446253
#
# Stress axis : x y z
#
# Youngs Moduli (GPa) = 47.42115 8.61987 54.40557
#
# Poissons Ratio (x) = 0.22380 0.47462
# Poissons Ratio (y) = 1.23118 0.58877
# Poissons Ratio (z) = 0.41369 0.09328
#
# Static dielectric constant tensor:
#      x y z
#    x 1.608050 0.000000 0.020770 
#    y 0.000000 1.602730 0.000000 
#    z 0.020770 0.000000 1.557340 
# 
# From -- ./inp_files/346150.got.cif
#   From: 2010.05.17/outbox.cif.g08.bks.cpg/sg12_174_cif.got.tgz:346150.got - 2010.06.03 13:09:07.
