data_PCOD9190280
_publ_section_title
;
Structure prediction by ZEFSAII (Michael W. Deem and Ramdas Pophale) SiO2 
 PCOD9190280
Probable space group: C 2/M
;
_chemical_formula_sum "Si O2"
_cell_formula_units_Z 64
_cell_length_a 18.760846
_cell_length_b 11.092634
_cell_length_c 18.002597
_cell_angle_alpha 90.000000
_cell_angle_beta 140.184552
_cell_angle_gamma 90.000000
_cell_volume 2398.927769
_symmetry_space_group_name_H-M "C 2/M"
_symmetry_group_IT_number 12
_symmetry_cell_setting 'monoclinic'
loop_
_space_group_symop_operation_xyz
x,y,z
-x,y,-z
-x,-y,-z
x,-y,z
1/2+x,1/2+y,z
1/2-x,1/2+y,-z
1/2-x,1/2-y,-z
1/2+x,1/2-y,z
loop_
_atom_site_type_symbol
_atom_site_label
_atom_site_fract_x
_atom_site_fract_y
_atom_site_fract_z
Si Si1 0.784880 0.131272 0.857821
Si Si2 0.965108 0.865927 0.128980
Si Si3 0.045116 0.625890 0.452057
Si Si4 0.874653 0.632932 0.867395
Si Si5 0.188863 0.624327 0.352222
Si Si6 0.805223 0.125916 0.635786
Si Si7 0.655351 0.852760 0.900144
Si Si8 0.456315 0.376538 0.549835
O O1 0.793652 0.257140 0.822765
O O2 0.686346 0.135147 0.839017
O O3 0.778282 0.000000 0.814069
O O4 0.896916 0.133507 0.998290
O O5 0.943215 0.737186 0.152691
O O6 0.097549 0.874974 0.225279
O O7 0.933131 0.000000 0.138064
O O8 0.011814 0.500000 0.390058
O O9 0.179818 0.627236 0.563879
O O10 0.008332 0.750954 0.387367
O O11 0.000000 0.625360 0.500000
O O12 0.162879 0.500000 0.134888
O O13 0.869303 0.626237 0.774287
O O14 0.000000 0.649555 0.000000
O O15 0.153460 0.500000 0.361433
O O16 0.171270 0.746355 0.383055
O O17 0.321770 0.620804 0.442159
O O18 0.821233 0.000000 0.606123
O O19 0.652555 0.000000 0.923549
O O20 0.750000 0.750000 0.000000
O O21 0.500000 0.376176 0.500000
O O22 0.498161 0.500000 0.618870
#
# Coordination Sequence:
#
# PCOD9190280 Si02
#       8
#     8   8   8   8   8   8   8   8
#     4   9  18  30  42  56  74  99 133 170 204 239
#     4   9  17  28  41  59  80 101 132 172 210 246
#     4   8  13  21  33  50  73 101 129 154 183 223
#     4  10  20  30  39  54  77 106 139 170 197 227
#     4   9  17  27  37  53  77 103 135 169 196 230
#     4   9  16  25  38  56  78 105 135 165 197 234
#     4   9  17  29  44  61  78  97 127 168 212 253
#     4   8  13  22  36  51  68  94 125 157 194 231
#
# _framework density 26.678585000000002
#
# number of rings (size 3 to 8) (size 9 to 14) (size 15 to 20)
#    0.000    3.125    0.000    1.875    0.000    3.750 
#    0.000    0.000    0.000    0.000    0.000    0.000 
#    0.000    0.000    0.000   18.000    0.000  233.000 
#
# Total GULP energy -178138.825610 kJ/mol
# GULP energy per Si atom -5566.838300 kJ/mol
# Density = 2.661786 g / cm^3
# Si number density = 26.678585 Si / 1000 Ang^3
#
#
#
# Elastic Constant Matrix: (Units=GPa)
#
#
# Indices 1 2 3 4 5 6 
#
# 1 95.5968 47.2159 12.9478 0.0000 12.4573 0.0000
# 2 47.2159 405.0792 -1.4449 0.0000 4.7293 0.0000
# 3 12.9478 -1.4449 117.5824 0.0000 4.4036 0.0000
# 4 0.0000 0.0000 0.0000 -85.4496 0.0000 193.3304
# 5 12.4573 4.7293 4.4036 0.0000 21.0073 0.0000
# 6 0.0000 0.0000 0.0000 193.3304 0.0000 -321.2694
#
#
#
# Elastic Compliance Matrix: (Units=1/GPa)
#
#
# Indices 1 2 3 4 5 6 
#
# 1 0.012141 -0.001341 -0.001104 0.000000 -0.006666 0.000000
# 2 -0.001341 0.002624 0.000174 0.000000 0.000168 0.000000
# 3 -0.001104 0.000174 0.008673 0.000000 -0.001203 0.000000
# 4 0.000000 0.000000 0.000000 0.032372 0.000000 0.019480
# 5 -0.006666 0.000168 -0.001203 0.000000 0.051770 0.000000
# 6 0.000000 0.000000 0.000000 0.019480 0.000000 0.008610
#
#
# Mechanical properties :
#
#
# Convention : Reuss Voigt Hill
#
# Bulk Modulus (GPa) = 52.92278 81.74399 67.33338
# Shear Modulus (GPa) = 39.36030 -39.83970 -0.23970
#
# Velocity S-wave (km/s) = 3.84520 -3.86854 -0.30007
# Velocity P-wave (km/s) = 6.29240 3.27912 5.01732
#
# Compressibility (1/GPa) = 0.01889546
#
# Stress axis : x y z
#
# Youngs Moduli (GPa) = 82.36372 381.14874 115.29511
#
# Poissons Ratio (x) = 0.51123 0.12726
# Poissons Ratio (y) = 0.11047 -0.02002
# Poissons Ratio (z) = 0.09091 -0.06618
#
# Static dielectric constant tensor:
#      x y z
#    x 2.051980 0.000000 0.074480 
#    y 0.000000 2.268900 0.000000 
#    z 0.074480 0.000000 2.100840 
# 
# From -- ./inp_files/365731.got.cif
#   From: 2010.05.17/outbox.cif.g08.bks.cpg/sg12_183_cif.got.tgz:365731.got - 2010.06.03 13:09:07.
