data_PCOD9190554
_publ_section_title
;
Structure prediction by ZEFSAII (Michael W. Deem and Ramdas Pophale) SiO2 
 PCOD9190554
Probable space group: C 2/M
;
_chemical_formula_sum "Si O2"
_cell_formula_units_Z 44
_cell_length_a 21.859745
_cell_length_b 12.405162
_cell_length_c 9.436492
_cell_angle_alpha 90.000000
_cell_angle_beta 118.414683
_cell_angle_gamma 90.000000
_cell_volume 2250.645604
_symmetry_space_group_name_H-M "C 2/M"
_symmetry_group_IT_number 12
_symmetry_cell_setting 'monoclinic'
loop_
_space_group_symop_operation_xyz
x,y,z
-x,y,-z
-x,-y,-z
x,-y,z
1/2+x,1/2+y,z
1/2-x,1/2+y,-z
1/2-x,1/2-y,-z
1/2+x,1/2-y,z
loop_
_atom_site_type_symbol
_atom_site_label
_atom_site_fract_x
_atom_site_fract_y
_atom_site_fract_z
Si Si1 0.062000 0.000000 0.293237
Si Si2 0.333075 0.124884 0.106223
Si Si3 0.895257 0.000000 0.074267
Si Si4 0.853092 0.000000 0.356909
Si Si5 0.773770 0.784505 0.251356
Si Si6 0.353215 0.330101 0.794092
Si Si7 0.420598 0.115214 0.951958
O O1 0.076111 0.000000 0.475465
O O2 0.105061 0.900625 0.273056
O O3 0.980073 0.000000 0.164507
O O4 0.327022 0.205949 0.229219
O O5 0.405855 0.129776 0.102743
O O6 0.317678 0.000000 0.125366
O O7 0.278693 0.167175 0.926846
O O8 0.868181 0.000000 0.205161
O O9 0.866145 0.103296 0.955163
O O10 0.810789 0.891292 0.349747
O O11 0.727609 0.705368 0.299703
O O12 0.389474 0.215278 0.838233
O O13 0.386550 0.000000 0.877867
O O14 0.500000 0.110396 0.000000
#
# Coordination Sequence:
#
# PCOD9190554 Si02
#       7
#     4   8   4   4   8   8   8
#     4  11  25  39  57  81 117 159 187 226 285 339
#     4   9  16  28  49  80 107 135 180 236 275 316
#     4  11  21  39  63  87 109 143 196 245 279 322
#     4  12  23  38  56  84 123 152 182 227 285 355
#     4  10  20  31  54  81 112 145 181 230 286 331
#     4  10  21  36  59  83 108 143 190 241 275 323
#     4   9  16  27  47  77 109 136 168 223 283 323
#
# _framework density 19.549945999999998
#
# number of rings (size 3 to 8) (size 9 to 14) (size 15 to 20)
#    0.000    2.000    0.909    5.727    3.818    0.727 
#    0.000    0.000    0.000    0.000    0.000    0.000 
#    0.000   18.909    0.000    0.000    0.000    0.000 
#
# Total GULP energy -122554.744366 kJ/mol
# GULP energy per Si atom -5570.670198 kJ/mol
# Density = 1.950545 g / cm^3
# Si number density = 19.549946 Si / 1000 Ang^3
#
#
#
# Elastic Constant Matrix: (Units=GPa)
#
#
# Indices 1 2 3 4 5 6 
#
# 1 114.6965 46.7586 8.6283 0.0000 -1.6393 0.0000
# 2 46.7586 137.6199 7.0632 0.0000 0.2073 0.0000
# 3 8.6283 7.0632 38.4016 0.0000 0.4060 0.0000
# 4 0.0000 0.0000 0.0000 -0.6893 0.0000 5.1324
# 5 -1.6393 0.2073 0.4060 0.0000 11.7474 0.0000
# 6 0.0000 0.0000 0.0000 5.1324 0.0000 30.8337
#
#
#
# Elastic Compliance Matrix: (Units=1/GPa)
#
#
# Indices 1 2 3 4 5 6 
#
# 1 0.010254 -0.003399 -0.001695 0.000000 0.001549 0.000000
# 2 -0.003399 0.008463 -0.000786 0.000000 -0.000597 0.000000
# 3 -0.001695 -0.000786 0.026578 0.000000 -0.001141 0.000000
# 4 0.000000 0.000000 0.000000 -0.647829 0.000000 0.107834
# 5 0.001549 -0.000597 -0.001141 0.000000 0.085391 0.000000
# 6 0.000000 0.000000 0.000000 0.107834 0.000000 0.014483
#
#
# Mechanical properties :
#
#
# Convention : Reuss Voigt Hill
#
# Bulk Modulus (GPa) = 29.82124 46.17980 38.00052
# Shear Modulus (GPa) = -10.42273 23.59622 6.58675
#
# Velocity S-wave (km/s) = -2.31147 3.47792 1.83753
# Velocity P-wave (km/s) = 2.85712 6.30877 4.89713
#
# Compressibility (1/GPa) = 0.03353314
#
# Stress axis : x y z
#
# Youngs Moduli (GPa) = 97.52151 118.16647 37.62492
#
# Poissons Ratio (x) = 0.40169 0.06378
# Poissons Ratio (y) = 0.33151 0.02959
# Poissons Ratio (z) = 0.16531 0.09293
#
# Static dielectric constant tensor:
#      x y z
#    x 1.756580 0.000000 -0.024300 
#    y 0.000000 1.726980 0.000000 
#    z -0.024300 0.000000 1.673810 
# 
# From -- ./inp_files/84010.got.cif
#   From: 2010.05.17/outbox.cif.g08.bks.cpg/sg12_43_cif.got.tgz:84010.got - 2010.06.03 13:09:07.
