data_PCOD9190073
_publ_section_title
;
Structure prediction by ZEFSAII (Michael W. Deem and Ramdas Pophale) SiO2 
 PCOD9190073
Probable space group: C 2/M
;
_chemical_formula_sum "Si O2"
_cell_formula_units_Z 32
_cell_length_a 9.362029
_cell_length_b 25.592517
_cell_length_c 14.505697
_cell_angle_alpha 90.000000
_cell_angle_beta 154.388417
_cell_angle_gamma 90.000000
_cell_volume 1502.362472
_symmetry_space_group_name_H-M "C 2/M"
_symmetry_group_IT_number 12
_symmetry_cell_setting 'monoclinic'
loop_
_space_group_symop_operation_xyz
x,y,z
-x,y,-z
-x,-y,-z
x,-y,z
1/2+x,1/2+y,z
1/2-x,1/2+y,-z
1/2-x,1/2-y,-z
1/2+x,1/2-y,z
loop_
_atom_site_type_symbol
_atom_site_label
_atom_site_fract_x
_atom_site_fract_y
_atom_site_fract_z
Si Si1 0.872135 0.615305 0.671390
Si Si2 0.203609 0.696510 0.527812
Si Si3 0.798661 0.886642 0.102773
Si Si4 0.635477 0.000000 0.332238
Si Si5 0.694001 0.500000 0.894643
O O1 0.500000 0.621762 0.500000
O O2 0.941265 0.656722 0.632256
O O3 0.893643 0.556959 0.640899
O O4 0.134925 0.620234 0.907139
O O5 0.250000 0.750000 0.500000
O O6 0.504569 0.663013 0.745823
O O7 0.000000 0.709290 0.500000
O O8 0.979299 0.943471 0.212848
O O9 0.500000 0.892327 0.000000
O O10 0.000000 0.000000 0.500000
O O11 0.370229 0.000000 0.096149
O O12 0.000000 0.500000 0.000000
#
# Coordination Sequence:
#
# PCOD9190073 Si02
#       5
#     8   8   8   4   4
#     4  10  19  39  66  98 131 165 211 258 313 382
#     4  12  28  46  63  90 125 169 226 272 321 375
#     4  10  20  39  70  98 131 167 207 261 316 378
#     4   8  16  28  58  97 129 162 200 251 307 378
#     4   8  16  30  58 103 129 156 204 249 309 386
#
# _framework density 21.299786000000001
#
# number of rings (size 3 to 8) (size 9 to 14) (size 15 to 20)
#    0.000    2.000    2.500    0.750    3.500    2.000 
#    0.000    2.500    0.000    4.500    0.000    0.000 
#    0.000    0.000    0.000    0.000    0.000    0.000 
#
# Total GULP energy -89173.816250 kJ/mol
# GULP energy per Si atom -5573.363516 kJ/mol
# Density = 2.125131 g / cm^3
# Si number density = 21.299786 Si / 1000 Ang^3
#
#
#
# Elastic Constant Matrix: (Units=GPa)
#
#
# Indices 1 2 3 4 5 6 
#
# 1 121.5030 85.6225 29.0635 0.0001 -30.5989 0.0000
# 2 85.6225 242.9022 62.1869 0.0000 -22.4034 0.0000
# 3 29.0635 62.1869 85.4609 0.0001 -39.2366 -0.0001
# 4 0.0001 0.0000 0.0001 26.1434 0.0000 -9.4754
# 5 -30.5989 -22.4034 -39.2366 0.0000 35.7968 0.0000
# 6 0.0000 0.0000 -0.0001 -9.4754 0.0000 35.3434
#
#
#
# Elastic Compliance Matrix: (Units=1/GPa)
#
#
# Indices 1 2 3 4 5 6 
#
# 1 0.014389 -0.005184 0.006112 0.000000 0.015754 0.000000
# 2 -0.005184 0.006982 -0.006735 0.000000 -0.007444 0.000000
# 3 0.006112 -0.006735 0.030169 0.000000 0.034077 0.000000
# 4 0.000000 0.000000 0.000000 0.042367 0.000000 0.011359
# 5 0.015754 -0.007444 0.034077 0.000000 0.074095 0.000000
# 6 0.000000 0.000000 0.000000 0.011359 0.000000 0.031339
#
#
# Mechanical properties :
#
#
# Convention : Reuss Voigt Hill
#
# Bulk Modulus (GPa) = 25.04666 89.29022 57.16844
# Shear Modulus (GPa) = 22.29516 37.65626 29.97571
#
# Velocity S-wave (km/s) = 3.23883 4.20922 3.75550
# Velocity P-wave (km/s) = 5.07655 8.10155 6.76042
#
# Compressibility (1/GPa) = 0.03992549
#
# Stress axis : x y z
#
# Youngs Moduli (GPa) = 69.49908 143.22848 33.14643
#
# Poissons Ratio (x) = 0.74244 -0.20258
# Poissons Ratio (y) = 0.36026 0.22325
# Poissons Ratio (z) = -0.42475 0.96466
#
# Static dielectric constant tensor:
#      x y z
#    x 1.766470 0.000000 -0.002070 
#    y 0.000000 1.826040 0.000000 
#    z -0.002070 0.000000 1.857520 
# 
# From -- ./inp_files/65667.got.cif
#   From: 2010.05.17/outbox.cif.g08.bks.cpg/sg12_33_cif.got.tgz:65667.got - 2010.06.03 13:09:07.
