data_PCOD9190580
_publ_section_title
;
Structure prediction by ZEFSAII (Michael W. Deem and Ramdas Pophale) SiO2 
 PCOD9190580
Probable space group: C 2/M
;
_chemical_formula_sum "Si O2"
_cell_formula_units_Z 50
_cell_length_a 13.450841
_cell_length_b 21.469052
_cell_length_c 13.246411
_cell_angle_alpha 90.000000
_cell_angle_beta 146.301683
_cell_angle_gamma 90.000000
_cell_volume 2122.328629
_symmetry_space_group_name_H-M "C 2/M"
_symmetry_group_IT_number 12
_symmetry_cell_setting 'monoclinic'
loop_
_space_group_symop_operation_xyz
x,y,z
-x,y,-z
-x,-y,-z
x,-y,z
1/2+x,1/2+y,z
1/2-x,1/2+y,-z
1/2-x,1/2-y,-z
1/2+x,1/2-y,z
loop_
_atom_site_type_symbol
_atom_site_label
_atom_site_fract_x
_atom_site_fract_y
_atom_site_fract_z
Si Si1 0.315585 0.665737 0.942977
Si Si2 0.489419 0.929920 0.342945
Si Si3 0.903258 0.930233 0.748859
Si Si4 0.384729 0.108347 0.765259
Si Si5 0.500000 0.000000 0.000000
Si Si6 0.998346 0.895963 0.607719
Si Si7 0.799930 0.304592 0.923330
O O1 0.494847 0.624169 0.105272
O O2 0.271725 0.684956 0.022344
O O3 0.313084 0.734494 0.894442
O O4 0.160301 0.622115 0.765262
O O5 0.688855 0.920133 0.556699
O O6 0.516426 0.926237 0.244621
O O7 0.430941 0.000000 0.320821
O O8 0.991968 0.930364 0.710075
O O9 0.932316 0.000000 0.814629
O O10 0.200286 0.133041 0.563780
O O11 0.378960 0.055051 0.844737
O O12 0.506109 0.164729 0.903126
O O13 0.000000 0.929490 0.500000
O O14 0.156824 0.845958 0.741709
#
# Coordination Sequence:
#
# PCOD9190580 Si02
#       7
#     8   8   8   8   2   8   8
#     4   9  17  30  49  64  88 126 165 203 252 285
#     4   9  16  29  45  67  97 122 152 200 247 293
#     4   9  18  30  45  71  99 124 159 200 245 292
#     4  10  20  32  44  64  95 127 167 205 236 278
#     4  12  20  32  50  68  96 142 174 196 240 276
#     4  10  20  33  45  66  94 130 166 201 234 283
#     4   9  19  34  45  65  89 123 171 211 240 285
#
# _framework density 23.559025999999999
#
# number of rings (size 3 to 8) (size 9 to 14) (size 15 to 20)
#    0.000    2.560    0.800    1.440    1.120    1.600 
#   10.080    6.400    0.000    0.000    0.000    0.000 
#    0.000    2.560    0.000   25.600    0.000    2.880 
#
# Total GULP energy -139205.872355 kJ/mol
# GULP energy per Si atom -5568.234894 kJ/mol
# Density = 2.350540 g / cm^3
# Si number density = 23.559026 Si / 1000 Ang^3
#
#
#
# Elastic Constant Matrix: (Units=GPa)
#
#
# Indices 1 2 3 4 5 6 
#
# 1 53.8848 7.2192 6.0647 0.0000 -17.6547 0.0000
# 2 7.2192 235.6890 126.8133 0.0000 21.5168 0.0000
# 3 6.0647 126.8133 151.6048 0.0000 27.1319 0.0000
# 4 0.0000 0.0000 0.0000 11.2537 0.0000 2.0297
# 5 -17.6547 21.5168 27.1319 0.0000 33.3204 0.0000
# 6 0.0000 0.0000 0.0000 2.0297 0.0000 8.1015
#
#
#
# Elastic Compliance Matrix: (Units=1/GPa)
#
#
# Indices 1 2 3 4 5 6 
#
# 1 0.024219 -0.000256 -0.003606 0.000000 0.015934 0.000000
# 2 -0.000256 0.007721 -0.006475 0.000000 0.000151 0.000000
# 3 -0.003606 -0.006475 0.013755 0.000000 -0.008929 0.000000
# 4 0.000000 0.000000 0.000000 0.093065 0.000000 -0.023315
# 5 0.015934 0.000151 -0.008929 0.000000 0.045628 0.000000
# 6 0.000000 0.000000 0.000000 -0.023315 0.000000 0.129275
#
#
# Mechanical properties :
#
#
# Convention : Reuss Voigt Hill
#
# Bulk Modulus (GPa) = 39.96872 80.15252 60.06062
# Shear Modulus (GPa) = 14.59102 30.60722 22.59912
#
# Velocity S-wave (km/s) = 2.49135 3.60831 3.10054
# Velocity P-wave (km/s) = 5.02772 7.17327 6.19410
#
# Compressibility (1/GPa) = 0.02501956
#
# Stress axis : x y z
#
# Youngs Moduli (GPa) = 41.28994 129.51897 72.70273
#
# Poissons Ratio (x) = 0.03318 0.26218
# Poissons Ratio (y) = 0.01058 0.47076
# Poissons Ratio (z) = 0.14890 0.83864
#
# Static dielectric constant tensor:
#      x y z
#    x 2.084650 0.000000 0.041500 
#    y 0.000000 1.812900 0.000000 
#    z 0.041500 0.000000 1.861320 
# 
# From -- ./inp_files/286286.got.cif
#   From: 2010.05.17/outbox.cif.g08.bks.cpg/sg12_144_cif.got.tgz:286286.got - 2010.06.03 13:09:07.
