data_PCOD9190265
_publ_section_title
;
Structure prediction by ZEFSAII (Michael W. Deem and Ramdas Pophale) SiO2 
 PCOD9190265
Probable space group: C 2/M
;
_chemical_formula_sum "Si O2"
_cell_formula_units_Z 48
_cell_length_a 27.559722
_cell_length_b 7.591475
_cell_length_c 17.173382
_cell_angle_alpha 90.000000
_cell_angle_beta 127.608545
_cell_angle_gamma 90.000000
_cell_volume 2846.367164
_symmetry_space_group_name_H-M "C 2/M"
_symmetry_group_IT_number 12
_symmetry_cell_setting 'monoclinic'
loop_
_space_group_symop_operation_xyz
x,y,z
-x,y,-z
-x,-y,-z
x,-y,z
1/2+x,1/2+y,z
1/2-x,1/2+y,-z
1/2-x,1/2-y,-z
1/2+x,1/2-y,z
loop_
_atom_site_type_symbol
_atom_site_label
_atom_site_fract_x
_atom_site_fract_y
_atom_site_fract_z
Si Si1 0.197267 0.785240 0.124269
Si Si2 0.660306 0.704288 0.916195
Si Si3 0.014693 0.500000 0.144456
Si Si4 0.530071 0.704275 0.606505
Si Si5 0.514354 0.293874 0.765272
Si Si6 0.831589 0.301496 0.248664
Si Si7 0.897283 0.500000 0.915950
O O1 0.266508 0.735491 0.216459
O O2 0.145755 0.671901 0.116867
O O3 0.190189 0.000000 0.123440
O O4 0.189550 0.737058 0.025372
O O5 0.676681 0.500000 0.918949
O O6 0.587048 0.712914 0.854244
O O7 0.675749 0.803507 0.852340
O O8 0.066751 0.500000 0.130095
O O9 0.017424 0.669673 0.203260
O O10 0.949591 0.500000 0.034443
O O11 0.500000 0.784717 0.500000
O O12 0.511210 0.500000 0.590861
O O13 0.510302 0.774422 0.671929
O O14 0.603920 0.708467 0.673222
O O15 0.496059 0.500000 0.751770
O O16 0.839554 0.500000 0.284801
#
# Coordination Sequence:
#
# PCOD9190265 Si02
#       7
#     8   8   4   8   8   8   4
#     4  10  21  34  46  71 103 135 176 210 249 299
#     4   9  17  29  45  69  99 140 169 197 243 300
#     4  11  22  36  51  80  94 136 187 214 255 302
#     4   9  19  34  51  77 109 135 164 200 256 318
#     4   9  18  33  52  73 106 136 164 213 254 298
#     4  10  20  29  46  73 103 136 168 199 249 301
#     4  11  24  34  54  70 103 140 176 222 259 282
#
# _framework density 16.863600999999999
#
# number of rings (size 3 to 8) (size 9 to 14) (size 15 to 20)
#    0.000    2.333    1.667    2.000    8.167    1.000 
#    0.000    1.667    0.000    0.000    0.000    1.167 
#    0.000    0.000    0.000    0.000    0.000    0.000 
#
# Total GULP energy -133723.519066 kJ/mol
# GULP energy per Si atom -5571.813294 kJ/mol
# Density = 1.682522 g / cm^3
# Si number density = 16.863601 Si / 1000 Ang^3
#
#
#
# Elastic Constant Matrix: (Units=GPa)
#
#
# Indices 1 2 3 4 5 6 
#
# 1 96.9264 37.6066 50.4155 0.0000 -0.7406 0.0000
# 2 37.6066 61.6541 25.4771 0.0000 -5.0324 0.0000
# 3 50.4155 25.4771 86.5965 0.0000 -13.5288 0.0000
# 4 0.0000 0.0000 0.0000 6.6506 0.0000 -0.9322
# 5 -0.7406 -5.0324 -13.5288 0.0000 12.6748 0.0000
# 6 0.0000 0.0000 0.0000 -0.9322 0.0000 17.1993
#
#
#
# Elastic Compliance Matrix: (Units=1/GPa)
#
#
# Indices 1 2 3 4 5 6 
#
# 1 0.019029 -0.008268 -0.010784 0.000000 -0.013681 0.000000
# 2 -0.008268 0.022092 -0.000470 0.000000 0.007787 0.000000
# 3 -0.010784 -0.000470 0.021406 0.000000 0.022032 0.000000
# 4 0.000000 0.000000 0.000000 0.151513 0.000000 0.008212
# 5 -0.013681 0.007787 0.022032 0.000000 0.104705 0.000000
# 6 0.000000 0.000000 0.000000 0.008212 0.000000 0.058587
#
#
# Mechanical properties :
#
#
# Convention : Reuss Voigt Hill
#
# Bulk Modulus (GPa) = 42.57941 52.46395 47.52168
# Shear Modulus (GPa) = 11.78679 16.08346 13.93512
#
# Velocity S-wave (km/s) = 2.64663 3.09162 2.87774
# Velocity P-wave (km/s) = 5.88589 6.62740 6.26762
#
# Compressibility (1/GPa) = 0.02348553
#
# Stress axis : x y z
#
# Youngs Moduli (GPa) = 52.55021 45.26471 46.71584
#
# Poissons Ratio (x) = 0.37424 0.50376
# Poissons Ratio (y) = 0.43448 0.02194
# Poissons Ratio (z) = 0.56668 0.02126
#
# Static dielectric constant tensor:
#      x y z
#    x 1.554440 0.000000 0.007660 
#    y 0.000000 1.610490 0.000000 
#    z 0.007660 0.000000 1.588060 
# 
# From -- ./inp_files/287146.got.cif
#   From: 2010.05.17/outbox.cif.g08.bks.cpg/sg12_144_cif.got.tgz:287146.got - 2010.06.03 13:09:07.
