data_PCOD9190347
_publ_section_title
;
Structure prediction by ZEFSAII (Michael W. Deem and Ramdas Pophale) SiO2 
 PCOD9190347
Probable space group: C 2/M
;
_chemical_formula_sum "Si O2"
_cell_formula_units_Z 44
_cell_length_a 10.862776
_cell_length_b 26.807552
_cell_length_c 11.539964
_cell_angle_alpha 90.000000
_cell_angle_beta 36.345907
_cell_angle_gamma 90.000000
_cell_volume 1991.622916
_symmetry_space_group_name_H-M "C 2/M"
_symmetry_group_IT_number 12
_symmetry_cell_setting 'monoclinic'
loop_
_space_group_symop_operation_xyz
x,y,z
-x,y,-z
-x,-y,-z
x,-y,z
1/2+x,1/2+y,z
1/2-x,1/2+y,-z
1/2-x,1/2-y,-z
1/2+x,1/2-y,z
loop_
_atom_site_type_symbol
_atom_site_label
_atom_site_fract_x
_atom_site_fract_y
_atom_site_fract_z
Si Si1 0.000000 0.704254 0.000000
Si Si2 0.174319 0.206092 0.437927
Si Si3 0.448256 0.556713 0.731995
Si Si4 0.287970 0.864767 0.980549
Si Si5 0.510155 0.812691 0.623150
Si Si6 0.155549 0.556475 0.731077
O O1 0.164558 0.671556 0.947975
O O2 0.856355 0.726431 0.212599
O O3 0.288647 0.175416 0.450551
O O4 0.046754 0.252894 0.585814
O O5 0.000000 0.175891 0.500000
O O6 0.429745 0.500000 0.792096
O O7 0.270576 0.563412 0.767260
O O8 0.664960 0.559518 0.500873
O O9 0.411830 0.601050 0.850036
O O10 0.314987 0.831486 0.845191
O O11 0.477405 0.904283 0.840974
O O12 0.500000 0.831586 0.500000
O O13 0.072269 0.500000 0.793405
#
# Coordination Sequence:
#
# PCOD9190347 Si02
#       6
#     4   8   8   8   8   8
#     4  10  20  30  53  86 106 134 187 234 276 322
#     4   9  19  39  60  77 105 144 185 234 282 325
#     4   9  17  29  48  77 111 141 172 221 279 322
#     4  11  18  30  51  78 107 140 179 223 268 323
#     4   9  20  38  55  78 113 147 183 227 274 329
#     4   9  17  29  47  76 111 139 169 219 280 328
#
# _framework density 22.092535000000002
#
# number of rings (size 3 to 8) (size 9 to 14) (size 15 to 20)
#    0.000    2.545    1.818    1.636    0.000    4.364 
#    0.000   26.364    0.000    2.182    0.000    2.545 
#    0.000    0.000    0.000    0.000    0.000    0.000 
#
# Total GULP energy -122723.068022 kJ/mol
# GULP energy per Si atom -5578.321274 kJ/mol
# Density = 2.204225 g / cm^3
# Si number density = 22.092535 Si / 1000 Ang^3
#
#
#
# Elastic Constant Matrix: (Units=GPa)
#
#
# Indices 1 2 3 4 5 6 
#
# 1 73.6926 -9.3016 22.3831 0.0000 15.4893 0.0000
# 2 -9.3016 82.2073 52.8293 0.0000 13.1501 0.0000
# 3 22.3831 52.8293 135.5935 0.0000 22.8720 0.0000
# 4 0.0000 0.0000 0.0000 50.2664 0.0000 3.6402
# 5 15.4893 13.1501 22.8720 0.0000 35.9881 0.0000
# 6 0.0000 0.0000 0.0000 3.6402 0.0000 -5.7336
#
#
#
# Elastic Compliance Matrix: (Units=1/GPa)
#
#
# Indices 1 2 3 4 5 6 
#
# 1 0.016819 0.005389 -0.003722 0.000000 -0.006843 0.000000
# 2 0.005389 0.018103 -0.007209 0.000000 -0.004353 0.000000
# 3 -0.003722 -0.007209 0.011294 0.000000 -0.002942 0.000000
# 4 0.000000 0.000000 0.000000 0.019020 0.000000 0.012075
# 5 -0.006843 -0.004353 -0.002942 0.000000 0.034192 0.000000
# 6 0.000000 0.000000 0.000000 0.012075 0.000000 -0.166744
#
#
# Mechanical properties :
#
#
# Convention : Reuss Voigt Hill
#
# Bulk Modulus (GPa) = 28.46246 47.03501 37.74873
# Shear Modulus (GPa) = -112.30364 31.14303 -40.58030
#
# Velocity S-wave (km/s) = -7.13748 3.75862 -4.29048
# Velocity P-wave (km/s) = 7.41712 6.33818 2.72407
#
# Compressibility (1/GPa) = 0.03513400
#
# Stress axis : x y z
#
# Youngs Moduli (GPa) = 59.45687 55.23943 88.54087
#
# Poissons Ratio (x) = -0.29771 0.32955
# Poissons Ratio (y) = -0.32044 0.63825
# Poissons Ratio (z) = 0.22130 0.39820
#
# Static dielectric constant tensor:
#      x y z
#    x 1.874510 0.000000 0.014440 
#    y 0.000000 1.850930 0.000000 
#    z 0.014440 0.000000 1.884830 
# 
# From -- ./inp_files/136853.got.cif
#   From: 2010.05.17/outbox.cif.g08.bks.cpg/sg12_69_cif.got.tgz:136853.got - 2010.06.03 13:09:07.
