data_PCOD9190772
_publ_section_title
;
Structure prediction by ZEFSAII (Michael W. Deem and Ramdas Pophale) SiO2 
 PCOD9190772
Probable space group: C 2/M
;
_chemical_formula_sum "Si O2"
_cell_formula_units_Z 48
_cell_length_a 22.467650
_cell_length_b 9.464583
_cell_length_c 29.052581
_cell_angle_alpha 90.000000
_cell_angle_beta 28.639851
_cell_angle_gamma 90.000000
_cell_volume 2961.102659
_symmetry_space_group_name_H-M "C 2/M"
_symmetry_group_IT_number 12
_symmetry_cell_setting 'monoclinic'
loop_
_space_group_symop_operation_xyz
x,y,z
-x,y,-z
-x,-y,-z
x,-y,z
1/2+x,1/2+y,z
1/2-x,1/2+y,-z
1/2-x,1/2-y,-z
1/2+x,1/2-y,z
loop_
_atom_site_type_symbol
_atom_site_label
_atom_site_fract_x
_atom_site_fract_y
_atom_site_fract_z
Si Si1 0.721963 0.667120 0.165259
Si Si2 0.297780 0.832951 0.538223
Si Si3 0.951965 0.837494 0.979488
Si Si4 0.560537 0.333140 0.635583
Si Si5 0.684293 0.166838 0.794677
Si Si6 0.145649 0.168100 0.408484
O O1 0.740794 0.500000 0.143890
O O2 0.578365 0.702939 0.254495
O O3 0.750220 0.691441 0.200370
O O4 0.821266 0.756583 0.069267
O O5 0.395864 0.758931 0.437340
O O6 0.163540 0.813555 0.605170
O O7 0.305339 0.757444 0.581999
O O8 0.321642 0.000000 0.525620
O O9 0.058431 0.756803 0.879110
O O10 0.939390 0.000000 0.974005
O O11 0.000000 0.834661 0.000000
O O12 0.560320 0.500000 0.622730
O O13 0.777154 0.199663 0.690087
O O14 0.653944 0.000000 0.813429
O O15 0.000000 0.197634 0.500000
O O16 0.157805 0.000000 0.409711
#
# Coordination Sequence:
#
# PCOD9190772 Si02
#       6
#     8   8   8   8   8   8
#     4   9  16  29  50  71  91 119 158 196 228 273
#     4  10  20  32  48  72  99 126 157 195 239 281
#     4   9  17  28  43  67  98 124 147 186 239 283
#     4   9  18  33  51  70  95 127 160 195 234 279
#     4   9  17  29  47  69  92 123 159 191 227 275
#     4  10  20  34  51  70  95 128 163 195 230 279
#
# _framework density 16.210177000000002
#
# number of rings (size 3 to 8) (size 9 to 14) (size 15 to 20)
#    0.000    2.667    0.000    2.000    0.000    7.000 
#    0.000    3.333    0.000    1.000    0.000    0.000 
#    0.000    0.000    0.000    0.000    0.000    0.000 
#
# Total GULP energy -133814.833372 kJ/mol
# GULP energy per Si atom -5575.618057 kJ/mol
# Density = 1.617328 g / cm^3
# Si number density = 16.210177 Si / 1000 Ang^3
#
#
#
# Elastic Constant Matrix: (Units=GPa)
#
#
# Indices 1 2 3 4 5 6 
#
# 1 36.5001 39.5589 41.6205 -0.0004 2.4173 0.0000
# 2 39.5589 70.4294 79.5307 -0.0010 -3.0353 0.0002
# 3 41.6205 79.5307 157.7656 -0.0009 -13.0198 0.0001
# 4 -0.0004 -0.0010 -0.0009 22.7786 0.0000 2.0967
# 5 2.4173 -3.0353 -13.0198 0.0000 24.1402 0.0000
# 6 0.0000 0.0002 0.0001 2.0967 0.0000 24.0790
#
#
#
# Elastic Compliance Matrix: (Units=1/GPa)
#
#
# Indices 1 2 3 4 5 6 
#
# 1 0.073844 -0.043820 0.001616 0.000000 -0.012033 0.000000
# 2 -0.043820 0.059563 -0.018300 0.000001 0.002007 -0.000001
# 3 0.001616 -0.018300 0.015630 0.000000 0.005967 0.000000
# 4 0.000000 0.000001 0.000000 0.044256 0.000000 -0.003854
# 5 -0.012033 0.002007 0.005967 0.000000 0.046100 0.000000
# 6 0.000000 -0.000001 0.000000 -0.003854 0.000000 0.041865
#
#
# Mechanical properties :
#
#
# Convention : Reuss Voigt Hill
#
# Bulk Modulus (GPa) = 35.67839 65.12392 50.40115
# Shear Modulus (GPa) = 12.14744 21.13189 16.63967
#
# Velocity S-wave (km/s) = 2.74043 3.61448 3.20737
# Velocity P-wave (km/s) = 5.66312 7.59482 6.69896
#
# Compressibility (1/GPa) = 0.02802817
#
# Stress axis : x y z
#
# Youngs Moduli (GPa) = 13.54212 16.78888 63.98006
#
# Poissons Ratio (x) = 0.73569 -0.10340
# Poissons Ratio (y) = 0.59342 1.17085
# Poissons Ratio (z) = -0.02189 0.30724
#
# Static dielectric constant tensor:
#      x y z
#    x 1.525200 0.000000 -0.009420 
#    y 0.000000 1.540720 0.000000 
#    z -0.009420 0.000000 1.527680 
# 
# From -- ./inp_files/172237.got.cif
#   From: 2010.05.17/outbox.cif.g08.bks.cpg/sg12_87_cif.got.tgz:172237.got - 2010.06.03 13:09:07.
