data_PCOD9190936
_publ_section_title
;
Structure prediction by ZEFSAII (Michael W. Deem and Ramdas Pophale) SiO2 
 PCOD9190936
Probable space group: C 2/M
;
_chemical_formula_sum "Si O2"
_cell_formula_units_Z 56
_cell_length_a 9.664653
_cell_length_b 21.109444
_cell_length_c 19.799207
_cell_angle_alpha 90.000000
_cell_angle_beta 43.725324
_cell_angle_gamma 90.000000
_cell_volume 2792.002295
_symmetry_space_group_name_H-M "C 2/M"
_symmetry_group_IT_number 12
_symmetry_cell_setting 'monoclinic'
loop_
_space_group_symop_operation_xyz
x,y,z
-x,y,-z
-x,-y,-z
x,-y,z
1/2+x,1/2+y,z
1/2-x,1/2+y,-z
1/2-x,1/2-y,-z
1/2+x,1/2-y,z
loop_
_atom_site_type_symbol
_atom_site_label
_atom_site_fract_x
_atom_site_fract_y
_atom_site_fract_z
Si Si1 0.444769 0.928259 0.599065
Si Si2 0.629340 0.386042 0.518174
Si Si3 0.240845 0.569361 0.914803
Si Si4 0.017858 0.896007 0.704167
Si Si5 0.977075 0.746243 0.725313
Si Si6 0.267946 0.213757 0.063348
Si Si7 0.570565 0.251048 0.406282
O O1 0.500000 0.929273 0.500000
O O2 0.634457 0.897585 0.569220
O O3 0.219953 0.901703 0.677234
O O4 0.430946 0.000000 0.628738
O O5 0.500000 0.408374 0.500000
O O6 0.558647 0.417617 0.613370
O O7 0.580313 0.310778 0.541598
O O8 0.301515 0.500000 0.923580
O O9 0.336656 0.570936 0.806208
O O10 0.305994 0.639970 0.917638
O O11 0.000000 0.569659 0.000000
O O12 0.973684 0.821850 0.714847
O O13 0.839810 0.744186 0.840156
O O14 0.923079 0.720049 0.670112
O O15 0.202852 0.726199 0.662209
O O16 0.500000 0.209054 0.000000
O O17 0.250000 0.250000 0.000000
O O18 0.500000 0.214373 0.500000
#
# Coordination Sequence:
#
# PCOD9190936 Si02
#       7
#     8   8   8   8   8   8   8
#     4   9  17  30  48  69  97 135 177 218 261 314
#     4   9  19  33  48  73 106 141 178 221 272 325
#     4   9  18  34  59  87 111 142 189 238 282 335
#     4   9  18  32  52  77 105 139 181 228 272 324
#     4  10  20  32  50  76 105 142 185 224 276 338
#     4  10  20  36  58  85 115 146 186 238 291 342
#     4  10  20  33  49  73 107 145 181 223 271 327
#
# _framework density 20.057290999999999
#
# number of rings (size 3 to 8) (size 9 to 14) (size 15 to 20)
#    0.000    2.571    0.000    1.714    0.000    7.143 
#    0.000    0.000    0.000    0.429    0.000    4.000 
#    0.000    0.000    0.000    0.000    0.000    0.143 
#
# Total GULP energy -155881.355964 kJ/mol
# GULP energy per Si atom -5567.191284 kJ/mol
# Density = 2.001164 g / cm^3
# Si number density = 20.057291 Si / 1000 Ang^3
#
#
#
# Elastic Constant Matrix: (Units=GPa)
#
#
# Indices 1 2 3 4 5 6 
#
# 1 122.0920 13.8041 56.7557 -0.0001 18.7857 0.0001
# 2 13.8041 83.0461 24.8625 0.0000 17.9138 0.0000
# 3 56.7557 24.8625 149.6578 0.0000 4.6201 0.0000
# 4 -0.0001 0.0000 0.0000 38.6439 0.0000 -14.2142
# 5 18.7857 17.9138 4.6201 0.0000 27.2446 0.0000
# 6 0.0001 0.0000 0.0000 -14.2142 0.0000 24.8220
#
#
#
# Elastic Compliance Matrix: (Units=1/GPa)
#
#
# Indices 1 2 3 4 5 6 
#
# 1 0.011203 0.001054 -0.004186 0.000000 -0.007708 0.000000
# 2 0.001054 0.014790 -0.002547 0.000000 -0.010019 0.000000
# 3 -0.004186 -0.002547 0.008597 0.000000 0.003103 0.000000
# 4 0.000000 0.000000 0.000000 0.032782 0.000000 0.018773
# 5 -0.007708 -0.010019 0.003103 0.000000 0.048081 0.000000
# 6 0.000000 0.000000 0.000000 0.018773 0.000000 0.051037
#
#
# Mechanical properties :
#
#
# Convention : Reuss Voigt Hill
#
# Bulk Modulus (GPa) = 43.04585 60.62673 51.83629
# Shear Modulus (GPa) = 26.94072 35.43369 31.18720
#
# Velocity S-wave (km/s) = 3.66893 4.20768 3.94751
# Velocity P-wave (km/s) = 6.28141 7.34156 6.83208
#
# Compressibility (1/GPa) = 0.02323105
#
# Stress axis : x y z
#
# Youngs Moduli (GPa) = 89.26077 67.61213 116.32422
#
# Poissons Ratio (x) = -0.07123 0.48690
# Poissons Ratio (y) = -0.09404 0.29631
# Poissons Ratio (z) = 0.37362 0.17223
#
# Static dielectric constant tensor:
#      x y z
#    x 1.721520 0.000000 0.022720 
#    y 0.000000 1.821710 0.000000 
#    z 0.022720 0.000000 1.759830 
# 
# From -- ./inp_files/259158.got.cif
#   From: 2010.05.17/outbox.cif.g08.bks.cpg/sg12_130_cif.got.tgz:259158.got - 2010.06.03 13:09:07.
