data_PCOD9190047
_publ_section_title
;
Structure prediction by ZEFSAII (Michael W. Deem and Ramdas Pophale) SiO2 
 PCOD9190047
Probable space group: C 2/M
;
_chemical_formula_sum "Si O2"
_cell_formula_units_Z 64
_cell_length_a 19.539334
_cell_length_b 9.144707
_cell_length_c 31.046142
_cell_angle_alpha 90.000000
_cell_angle_beta 38.529051
_cell_angle_gamma 90.000000
_cell_volume 3455.520288
_symmetry_space_group_name_H-M "C 2/M"
_symmetry_group_IT_number 12
_symmetry_cell_setting 'monoclinic'
loop_
_space_group_symop_operation_xyz
x,y,z
-x,y,-z
-x,-y,-z
x,-y,z
1/2+x,1/2+y,z
1/2-x,1/2+y,-z
1/2-x,1/2-y,-z
1/2+x,1/2-y,z
loop_
_atom_site_type_symbol
_atom_site_label
_atom_site_fract_x
_atom_site_fract_y
_atom_site_fract_z
Si Si1 0.542901 0.174179 0.782211
Si Si2 0.868968 0.824246 0.439581
Si Si3 0.492635 0.329254 0.289229
Si Si4 0.226131 0.828678 0.213326
Si Si5 0.031109 0.322507 0.937063
Si Si6 0.538579 0.328511 0.431921
Si Si7 0.868479 0.676171 0.939829
Si Si8 0.738057 0.827257 0.294703
O O1 0.538226 0.230672 0.735872
O O2 0.434484 0.211035 0.863442
O O3 0.646084 0.250996 0.753589
O O4 0.556932 0.000000 0.777038
O O5 0.750000 0.750000 0.500000
O O6 0.931541 0.789161 0.363943
O O7 0.945530 0.784478 0.442870
O O8 0.855719 0.000000 0.447394
O O9 0.466181 0.500000 0.293228
O O10 0.623476 0.318761 0.232060
O O11 0.343548 0.784924 0.136189
O O12 0.200886 0.727945 0.266260
O O13 0.233439 0.000000 0.223480
O O14 0.026950 0.500000 0.939797
O O15 0.946161 0.276654 0.941657
O O16 0.000000 0.269557 0.000000
O O17 0.500000 0.316513 0.500000
O O18 0.564204 0.500000 0.410546
O O19 0.646713 0.233211 0.372025
O O20 0.856587 0.500000 0.947997
O O21 0.750000 0.750000 0.000000
O O22 0.747905 0.000000 0.292160
#
# Coordination Sequence:
#
# PCOD9190047 Si02
#       8
#     8   8   8   8   8   8   8   8
#     4  11  24  42  62  86 122 165 205 247 300 363
#     4  10  22  40  60  87 123 158 197 245 296 354
#     4  10  22  39  62  91 120 156 201 251 299 352
#     4  10  19  39  65  86 119 158 199 248 300 359
#     4   9  18  34  60  89 113 150 199 242 291 356
#     4  10  22  42  66  90 118 160 204 242 299 366
#     4  10  22  39  60  86 120 157 198 247 299 359
#     4  12  24  39  63  92 122 156 202 256 304 352
#
# _framework density 18.521090999999998
#
# number of rings (size 3 to 8) (size 9 to 14) (size 15 to 20)
#    0.000    1.750    2.500    1.500    3.500    2.750 
#    0.000    0.000    0.000    0.750    0.000    0.000 
#    0.000    0.000    0.000    0.000    0.000    0.000 
#
# Total GULP energy -178685.281266 kJ/mol
# GULP energy per Si atom -5583.915040 kJ/mol
# Density = 1.847894 g / cm^3
# Si number density = 18.521091 Si / 1000 Ang^3
#
#
#
# Elastic Constant Matrix: (Units=GPa)
#
#
# Indices 1 2 3 4 5 6 
#
# 1 48.5831 21.1909 19.2304 0.0000 4.5699 -0.0011
# 2 21.1909 51.1496 29.8419 0.0001 -0.7457 -0.0013
# 3 19.2304 29.8419 86.4315 0.0000 -5.3122 0.0000
# 4 0.0000 0.0001 0.0000 26.2426 0.0001 -7.2839
# 5 4.5699 -0.7457 -5.3122 0.0001 35.6350 0.0001
# 6 -0.0011 -0.0013 0.0000 -7.2839 0.0001 26.1865
#
#
#
# Elastic Compliance Matrix: (Units=1/GPa)
#
#
# Indices 1 2 3 4 5 6 
#
# 1 0.026106 -0.009195 -0.002878 0.000000 -0.003969 0.000001
# 2 -0.009195 0.027740 -0.007493 0.000000 0.000643 0.000001
# 3 -0.002878 -0.007493 0.014947 0.000000 0.002440 -0.000001
# 4 0.000000 0.000000 0.000000 0.041294 0.000000 0.011486
# 5 -0.003969 0.000643 0.002440 0.000000 0.028949 0.000000
# 6 0.000001 0.000001 -0.000001 0.011486 0.000000 0.041382
#
#
# Mechanical properties :
#
#
# Convention : Reuss Voigt Hill
#
# Bulk Modulus (GPa) = 33.71108 36.29894 35.00501
# Shear Modulus (GPa) = 21.79249 25.33956 23.56602
#
# Velocity S-wave (km/s) = 3.43393 3.70286 3.57093
# Velocity P-wave (km/s) = 5.82782 6.15815 5.99526
#
# Compressibility (1/GPa) = 0.02966383
#
# Stress axis : x y z
#
# Youngs Moduli (GPa) = 38.30502 36.04842 66.90262
#
# Poissons Ratio (x) = 0.33145 0.19254
# Poissons Ratio (y) = 0.35220 0.50128
# Poissons Ratio (z) = 0.11024 0.27010
#
# Static dielectric constant tensor:
#      x y z
#    x 1.630610 0.000000 0.009000 
#    y 0.000000 1.621720 0.000000 
#    z 0.009000 0.000000 1.635710 
# 
# From -- ./inp_files/377995.got.cif
#   From: 2010.05.17/outbox.cif.g08.bks.cpg/sg12_189_cif.got.tgz:377995.got - 2010.06.03 13:09:07.
