data_PCOD9190803
_publ_section_title
;
Structure prediction by ZEFSAII (Michael W. Deem and Ramdas Pophale) SiO2 
 PCOD9190803
Probable space group: C 2/M
;
_chemical_formula_sum "Si O2"
_cell_formula_units_Z 64
_cell_length_a 12.572484
_cell_length_b 22.887634
_cell_length_c 16.846319
_cell_angle_alpha 90.000000
_cell_angle_beta 127.155694
_cell_angle_gamma 90.000000
_cell_volume 3863.525754
_symmetry_space_group_name_H-M "C 2/M"
_symmetry_group_IT_number 12
_symmetry_cell_setting 'monoclinic'
loop_
_space_group_symop_operation_xyz
x,y,z
-x,y,-z
-x,-y,-z
x,-y,z
1/2+x,1/2+y,z
1/2-x,1/2+y,-z
1/2-x,1/2-y,-z
1/2+x,1/2-y,z
loop_
_atom_site_type_symbol
_atom_site_label
_atom_site_fract_x
_atom_site_fract_y
_atom_site_fract_z
Si Si1 0.631148 0.789852 0.113090
Si Si2 0.569082 0.239944 0.266081
Si Si3 0.222594 0.669693 0.592224
Si Si4 0.596995 0.566632 0.272284
Si Si5 0.367634 0.345995 0.141600
Si Si6 0.156791 0.163177 0.053683
Si Si7 0.014658 0.347214 0.637361
Si Si8 0.200110 0.565190 0.784433
O O1 0.603544 0.784965 0.194402
O O2 0.742361 0.837477 0.142387
O O3 0.681190 0.725871 0.105552
O O4 0.500000 0.800556 0.000000
O O5 0.693660 0.270526 0.367368
O O6 0.469543 0.293541 0.205852
O O7 0.504254 0.192483 0.294168
O O8 0.322604 0.614204 0.639272
O O9 0.118111 0.659411 0.474799
O O10 0.136298 0.671642 0.634708
O O11 0.589523 0.500000 0.299185
O O12 0.452800 0.594810 0.189277
O O13 0.686113 0.564722 0.232455
O O14 0.323085 0.335719 0.031128
O O15 0.248641 0.113335 0.131405
O O16 0.000000 0.150013 0.000000
O O17 0.061462 0.411720 0.684778
O O18 0.188256 0.500000 0.811416
#
# Coordination Sequence:
#
# PCOD9190803 Si02
#       8
#     8   8   8   8   8   8   8   8
#     4  11  22  32  49  78 104 137 168 203 248 305
#     4  11  19  33  52  76 104 135 168 204 247 301
#     4   9  19  34  51  80 104 131 167 204 255 303
#     4   9  18  33  53  74  98 129 168 211 250 297
#     4  11  20  32  51  72 104 133 169 205 251 294
#     4  11  18  32  49  74 103 136 167 203 250 297
#     4  10  20  33  53  74 108 137 160 207 257 302
#     4  10  20  32  48  75 104 132 169 207 251 302
#
# _framework density 16.565180000000002
#
# number of rings (size 3 to 8) (size 9 to 14) (size 15 to 20)
#    0.000    1.750    3.750    3.750    1.750    1.250 
#    0.000    2.500    0.000    1.125    0.000    0.875 
#    0.000    0.000    0.000    0.000    0.000    0.000 
#
# Total GULP energy -178398.883590 kJ/mol
# GULP energy per Si atom -5574.965112 kJ/mol
# Density = 1.652748 g / cm^3
# Si number density = 16.565180 Si / 1000 Ang^3
#
#
#
# Elastic Constant Matrix: (Units=GPa)
#
#
# Indices 1 2 3 4 5 6 
#
# 1 56.8012 39.2158 31.9855 0.0000 1.7502 0.0000
# 2 39.2158 83.4545 30.5081 0.0000 4.3669 0.0000
# 3 31.9855 30.5081 69.2973 0.0000 5.8130 0.0000
# 4 0.0000 0.0000 0.0000 10.7672 0.0000 -1.9616
# 5 1.7502 4.3669 5.8130 0.0000 18.3471 0.0000
# 6 0.0000 0.0000 0.0000 -1.9616 0.0000 12.8012
#
#
#
# Elastic Compliance Matrix: (Units=1/GPa)
#
#
# Indices 1 2 3 4 5 6 
#
# 1 0.030418 -0.010988 -0.009429 0.000000 0.002701 0.000000
# 2 -0.010988 0.018288 -0.002776 0.000000 -0.002425 0.000000
# 3 -0.009429 -0.002776 0.020417 0.000000 -0.004908 0.000000
# 4 0.000000 0.000000 0.000000 0.095542 0.000000 0.014640
# 5 0.002701 -0.002425 -0.004908 0.000000 0.056379 0.000000
# 6 0.000000 0.000000 0.000000 0.014640 0.000000 0.080361
#
#
# Mechanical properties :
#
#
# Convention : Reuss Voigt Hill
#
# Bulk Modulus (GPa) = 43.98306 45.88577 44.93441
# Shear Modulus (GPa) = 14.06990 15.57267 14.82129
#
# Velocity S-wave (km/s) = 2.91755 3.06941 2.99444
# Velocity P-wave (km/s) = 6.16106 6.34996 6.25622
#
# Compressibility (1/GPa) = 0.02273603
#
# Stress axis : x y z
#
# Youngs Moduli (GPa) = 32.87553 54.68192 48.97973
#
# Poissons Ratio (x) = 0.60084 0.46183
# Poissons Ratio (y) = 0.36123 0.13597
# Poissons Ratio (z) = 0.30998 0.15180
#
# Static dielectric constant tensor:
#      x y z
#    x 1.554900 0.000000 0.023460 
#    y 0.000000 1.545820 0.000000 
#    z 0.023460 0.000000 1.588350 
# 
# From -- ./inp_files/265537.got.cif
#   From: 2010.05.17/outbox.cif.g08.bks.cpg/sg12_133_cif.got.tgz:265537.got - 2010.06.03 13:09:07.
