data_PCOD9190398
_publ_section_title
;
Structure prediction by ZEFSAII (Michael W. Deem and Ramdas Pophale) SiO2 
 PCOD9190398
Probable space group: C 2/M
;
_chemical_formula_sum "Si O2"
_cell_formula_units_Z 64
_cell_length_a 26.439228
_cell_length_b 8.569373
_cell_length_c 21.933701
_cell_angle_alpha 90.000000
_cell_angle_beta 126.395099
_cell_angle_gamma 90.000000
_cell_volume 4000.144708
_symmetry_space_group_name_H-M "C 2/M"
_symmetry_group_IT_number 12
_symmetry_cell_setting 'monoclinic'
loop_
_space_group_symop_operation_xyz
x,y,z
-x,y,-z
-x,-y,-z
x,-y,z
1/2+x,1/2+y,z
1/2-x,1/2+y,-z
1/2-x,1/2-y,-z
1/2+x,1/2-y,z
loop_
_atom_site_type_symbol
_atom_site_label
_atom_site_fract_x
_atom_site_fract_y
_atom_site_fract_z
Si Si1 0.061580 0.813312 0.317852
Si Si2 0.472546 0.815871 0.834994
Si Si3 0.099547 0.310114 0.586432
Si Si4 0.861390 0.188956 0.840539
Si Si5 0.558433 0.681038 0.994084
Si Si6 0.985339 0.311275 0.588204
Si Si7 0.741903 0.809444 0.681645
Si Si8 0.707175 0.688498 0.414729
O O1 0.028270 0.746682 0.234072
O O2 0.029475 0.758519 0.357037
O O3 0.134739 0.760711 0.369569
O O4 0.061289 0.000000 0.314065
O O5 0.413379 0.740616 0.828427
O O6 0.534403 0.770823 0.917830
O O7 0.464588 0.000000 0.829618
O O8 0.100197 0.500000 0.587332
O O9 0.067816 0.265280 0.499382
O O10 0.170985 0.255527 0.642658
O O11 0.051772 0.262846 0.605800
O O12 0.793507 0.240196 0.768184
O O13 0.862910 0.000000 0.843122
O O14 0.884000 0.242463 0.923666
O O15 0.569128 0.500000 0.985598
O O16 0.500000 0.684797 0.000000
O O17 0.984747 0.500000 0.591872
O O18 0.765550 0.761870 0.631400
O O19 0.741408 0.000000 0.681696
O O20 0.708208 0.500000 0.416785
O O21 0.750000 0.750000 0.500000
#
# Coordination Sequence:
#
# PCOD9190398 Si02
#       8
#     8   8   8   8   8   8   8   8
#     4  11  21  33  47  66  93 126 157 190 231 277
#     4  11  20  29  44  66  93 123 154 192 229 271
#     4   8  15  28  49  71  92 119 154 197 237 271
#     4   9  16  29  46  65  93 125 156 187 225 277
#     4   8  15  27  44  63  88 123 154 184 224 275
#     4   9  17  31  49  70  92 119 158 199 235 270
#     4   9  15  27  46  67  91 122 155 187 224 272
#     4  10  20  31  45  64  91 122 155 187 223 272
#
# _framework density 15.999421
#
# number of rings (size 3 to 8) (size 9 to 14) (size 15 to 20)
#    0.000    2.625    1.250    3.750    0.000    4.250 
#    0.000    1.250    0.000    1.500    0.000    0.875 
#    0.000    0.000    0.000    0.000    0.000    0.000 
#
# Total GULP energy -178346.948639 kJ/mol
# GULP energy per Si atom -5573.342145 kJ/mol
# Density = 1.596301 g / cm^3
# Si number density = 15.999421 Si / 1000 Ang^3
#
#
#
# Elastic Constant Matrix: (Units=GPa)
#
#
# Indices 1 2 3 4 5 6 
#
# 1 92.0464 12.9499 80.5369 0.0000 2.5699 0.0000
# 2 12.9499 13.5918 25.4995 0.0000 -1.9797 0.0000
# 3 80.5369 25.4995 165.2919 0.0000 4.6149 0.0000
# 4 0.0000 0.0000 0.0000 21.1967 0.0000 -6.0682
# 5 2.5699 -1.9797 4.6149 0.0000 18.8188 0.0000
# 6 0.0000 0.0000 0.0000 -6.0682 0.0000 15.1182
#
#
#
# Elastic Compliance Matrix: (Units=1/GPa)
#
#
# Indices 1 2 3 4 5 6 
#
# 1 0.018952 -0.001169 -0.009040 0.000000 -0.000494 0.000000
# 2 -0.001169 0.107942 -0.016517 0.000000 0.015566 0.000000
# 3 -0.009040 -0.016517 0.013106 0.000000 -0.003717 0.000000
# 4 0.000000 0.000000 0.000000 0.053302 0.000000 0.021395
# 5 -0.000494 0.015566 -0.003717 0.000000 0.055755 0.000000
# 6 0.000000 0.000000 0.000000 0.021395 0.000000 0.074733
#
#
# Mechanical properties :
#
#
# Convention : Reuss Voigt Hill
#
# Bulk Modulus (GPa) = 11.55423 56.54475 34.04949
# Shear Modulus (GPa) = 12.31246 21.15634 16.73440
#
# Velocity S-wave (km/s) = 2.77710 3.64032 3.23760
# Velocity P-wave (km/s) = 4.18573 7.28613 5.94172
#
# Compressibility (1/GPa) = 0.08654840
#
# Stress axis : x y z
#
# Youngs Moduli (GPa) = 52.76475 9.26420 76.29809
#
# Poissons Ratio (x) = 0.01083 0.68974
# Poissons Ratio (y) = 0.06168 1.26023
# Poissons Ratio (z) = 0.47700 0.15302
#
# Static dielectric constant tensor:
#      x y z
#    x 1.516770 0.000000 0.019810 
#    y 0.000000 1.544070 0.000000 
#    z 0.019810 0.000000 1.551170 
# 
# From -- ./inp_files/323726.got.cif
#   From: 2010.05.17/outbox.cif.g08.bks.cpg/sg12_162_cif.got.tgz:323726.got - 2010.06.03 13:09:07.
