data_PCOD9190346
_publ_section_title
;
Structure prediction by ZEFSAII (Michael W. Deem and Ramdas Pophale) SiO2 
 PCOD9190346
Probable space group: C 2/M
;
_chemical_formula_sum "Si O2"
_cell_formula_units_Z 56
_cell_length_a 9.850969
_cell_length_b 17.763804
_cell_length_c 17.642174
_cell_angle_alpha 90.000000
_cell_angle_beta 73.346705
_cell_angle_gamma 90.000000
_cell_volume 2957.727176
_symmetry_space_group_name_H-M "C 2/M"
_symmetry_group_IT_number 12
_symmetry_cell_setting 'monoclinic'
loop_
_space_group_symop_operation_xyz
x,y,z
-x,y,-z
-x,-y,-z
x,-y,z
1/2+x,1/2+y,z
1/2-x,1/2+y,-z
1/2-x,1/2-y,-z
1/2+x,1/2-y,z
loop_
_atom_site_type_symbol
_atom_site_label
_atom_site_fract_x
_atom_site_fract_y
_atom_site_fract_z
Si Si1 0.843268 0.334722 0.056450
Si Si2 0.468624 0.088054 0.338276
Si Si3 0.715822 0.589397 0.774686
Si Si4 0.320261 0.836475 0.226785
Si Si5 0.337480 0.341165 0.052591
Si Si6 0.597962 0.228795 0.555049
Si Si7 0.488823 0.298079 0.272212
O O1 0.841832 0.369418 0.139807
O O2 0.797461 0.246822 0.072464
O O3 0.747791 0.370205 0.006643
O O4 0.000000 0.333759 0.000000
O O5 0.627534 0.109005 0.283209
O O6 0.359263 0.106287 0.287510
O O7 0.425532 0.142847 0.413682
O O8 0.467370 0.000000 0.357265
O O9 0.703058 0.500000 0.773607
O O10 0.697324 0.616600 0.864272
O O11 0.592827 0.628955 0.745567
O O12 0.430471 0.767716 0.225322
O O13 0.157849 0.807660 0.251877
O O14 0.500000 0.344195 0.000000
O O15 0.500000 0.245961 0.500000
O O16 0.750000 0.250000 0.500000
O O17 0.564480 0.275749 0.635995
#
# Coordination Sequence:
#
# PCOD9190346 Si02
#       7
#     8   8   8   8   8   8   8
#     4  10  20  30  53  82 114 151 198 257 301 339
#     4  10  23  41  62  89 120 159 197 239 295 358
#     4  11  22  39  61  84 122 165 206 248 292 354
#     4  11  21  36  62  84 119 159 200 255 290 351
#     4  10  20  33  51  81 117 155 202 251 302 340
#     4  11  22  39  64  92 117 147 186 242 295 356
#     4  11  22  38  60  89 117 152 200 241 298 354
#
# _framework density 18.933457000000001
#
# number of rings (size 3 to 8) (size 9 to 14) (size 15 to 20)
#    0.000    1.429    1.429    6.000    4.000    1.143 
#    0.000    1.429    0.000    4.286    0.000    0.000 
#    0.000    0.000    0.000    0.000    0.000    0.000 
#
# Total GULP energy -156323.620591 kJ/mol
# GULP energy per Si atom -5582.986450 kJ/mol
# Density = 1.889036 g / cm^3
# Si number density = 18.933457 Si / 1000 Ang^3
#
#
#
# Elastic Constant Matrix: (Units=GPa)
#
#
# Indices 1 2 3 4 5 6 
#
# 1 111.4449 12.2373 16.8921 0.0000 7.2276 0.0000
# 2 12.2373 53.9532 5.2967 0.0000 -7.3099 0.0000
# 3 16.8921 5.2967 83.7611 0.0000 5.8939 0.0000
# 4 0.0000 0.0000 0.0000 26.4603 0.0000 -1.5744
# 5 7.2276 -7.3099 5.8939 0.0000 41.8968 0.0000
# 6 0.0000 0.0000 0.0000 -1.5744 0.0000 17.1740
#
#
#
# Elastic Compliance Matrix: (Units=1/GPa)
#
#
# Indices 1 2 3 4 5 6 
#
# 1 0.009591 -0.002258 -0.001664 0.000000 -0.001814 0.000000
# 2 -0.002258 0.019690 -0.001070 0.000000 0.003975 0.000000
# 3 -0.001664 -0.001070 0.012458 0.000000 -0.001652 0.000000
# 4 0.000000 0.000000 0.000000 0.038000 0.000000 0.003484
# 5 -0.001814 0.003975 -0.001652 0.000000 0.025107 0.000000
# 6 0.000000 0.000000 0.000000 0.003484 0.000000 0.058547
#
#
# Mechanical properties :
#
#
# Convention : Reuss Voigt Hill
#
# Bulk Modulus (GPa) = 31.48905 35.33460 33.41182
# Shear Modulus (GPa) = 27.17972 31.42178 29.30075
#
# Velocity S-wave (km/s) = 3.79296 4.07823 3.93818
# Velocity P-wave (km/s) = 5.98745 6.39366 6.19389
#
# Compressibility (1/GPa) = 0.03175707
#
# Stress axis : x y z
#
# Youngs Moduli (GPa) = 104.26647 50.78649 80.26892
#
# Poissons Ratio (x) = 0.11467 0.13355
# Poissons Ratio (y) = 0.23541 0.08585
# Poissons Ratio (z) = 0.17347 0.05432
#
# Static dielectric constant tensor:
#      x y z
#    x 1.671580 0.000000 -0.029540 
#    y 0.000000 1.669320 0.000000 
#    z -0.029540 0.000000 1.674310 
# 
# From -- ./inp_files/257026.got.cif
#   From: 2010.05.17/outbox.cif.g08.bks.cpg/sg12_129_cif.got.tgz:257026.got - 2010.06.03 13:09:07.
