data_PCOD9190167
_publ_section_title
;
Structure prediction by ZEFSAII (Michael W. Deem and Ramdas Pophale) SiO2 
 PCOD9190167
Probable space group: C 2/M
;
_chemical_formula_sum "Si O2"
_cell_formula_units_Z 38
_cell_length_a 17.433848
_cell_length_b 14.506726
_cell_length_c 19.631078
_cell_angle_alpha 90.000000
_cell_angle_beta 158.574555
_cell_angle_gamma 90.000000
_cell_volume 1813.614035
_symmetry_space_group_name_H-M "C 2/M"
_symmetry_group_IT_number 12
_symmetry_cell_setting 'monoclinic'
loop_
_space_group_symop_operation_xyz
x,y,z
-x,y,-z
-x,-y,-z
x,-y,z
1/2+x,1/2+y,z
1/2-x,1/2+y,-z
1/2-x,1/2-y,-z
1/2+x,1/2-y,z
loop_
_atom_site_type_symbol
_atom_site_label
_atom_site_fract_x
_atom_site_fract_y
_atom_site_fract_z
Si Si1 0.709916 0.155852 0.795994
Si Si2 0.000000 0.675425 0.000000
Si Si3 0.000000 0.000000 0.000000
Si Si4 0.743637 0.714600 0.417036
Si Si5 0.695969 0.643762 0.970050
Si Si6 0.600386 0.900823 0.225214
O O1 0.820047 0.255157 0.878473
O O2 0.464300 0.168598 0.582350
O O3 0.822618 0.081726 0.842050
O O4 0.756259 0.121883 0.911784
O O5 0.082749 0.615356 0.130440
O O6 0.750000 0.750000 0.500000
O O7 0.551963 0.642720 0.248852
O O8 0.704710 0.808021 0.341491
O O9 0.750000 0.750000 0.000000
O O10 0.864743 0.595608 0.061636
O O11 0.702580 0.000000 0.325692
#
# Coordination Sequence:
#
# PCOD9190167 Si02
#       6
#     8   4   2   8   8   8
#     4  11  22  44  68  93 134 174 226 272 346 408
#     4  11  21  43  65  90 140 186 211 271 353 405
#     4  10  28  44  68 100 138 180 216 296 338 406
#     4  11  20  40  71  96 128 179 224 269 343 404
#     4  10  19  40  66  93 124 177 219 272 331 399
#     4  11  23  40  67 100 136 174 230 283 332 400
#
# _framework density 20.952639999999999
#
# number of rings (size 3 to 8) (size 9 to 14) (size 15 to 20)
#    0.000    1.263    8.421    0.316    1.474    0.842 
#    1.895    6.316    0.000    0.000    0.000    0.000 
#    0.000    0.000    0.000    0.000    0.000    0.000 
#
# Total GULP energy -105788.893947 kJ/mol
# GULP energy per Si atom -5567.836524 kJ/mol
# Density = 2.090495 g / cm^3
# Si number density = 20.952640 Si / 1000 Ang^3
#
#
#
# Elastic Constant Matrix: (Units=GPa)
#
#
# Indices 1 2 3 4 5 6 
#
# 1 70.6731 0.8745 16.4571 0.0015 -14.6760 0.0002
# 2 0.8745 84.1254 20.1480 -0.0165 2.5386 0.0013
# 3 16.4571 20.1480 151.3885 -0.0038 21.0877 0.0084
# 4 0.0015 -0.0165 -0.0038 12.3047 -0.0038 -0.4601
# 5 -14.6760 2.5386 21.0877 -0.0038 40.0173 0.0017
# 6 0.0002 0.0013 0.0084 -0.4601 0.0017 -17.3809
#
#
#
# Elastic Compliance Matrix: (Units=1/GPa)
#
#
# Indices 1 2 3 4 5 6 
#
# 1 0.016368 0.000289 -0.002862 0.000000 0.007493 0.000000
# 2 0.000289 0.012284 -0.001697 0.000016 0.000221 0.000000
# 3 -0.002862 -0.001697 0.007850 -0.000001 -0.005078 0.000003
# 4 0.000000 0.000016 -0.000001 0.081190 0.000007 -0.002149
# 5 0.007493 0.000221 -0.005078 0.000007 0.030399 0.000000
# 6 0.000000 0.000000 0.000003 -0.002149 0.000000 -0.057478
#
#
# Mechanical properties :
#
#
# Convention : Reuss Voigt Hill
#
# Bulk Modulus (GPa) = 35.76156 42.34958 39.05557
# Shear Modulus (GPa) = 46.09433 24.90203 35.49818
#
# Velocity S-wave (km/s) = 4.69543 3.45119 4.12054
# Velocity P-wave (km/s) = 6.81916 6.01140 6.42798
#
# Compressibility (1/GPa) = 0.02796299
#
# Stress axis : x y z
#
# Youngs Moduli (GPa) = 61.09368 81.40818 127.39111
#
# Poissons Ratio (x) = -0.02353 0.36453
# Poissons Ratio (y) = -0.01766 0.21619
# Poissons Ratio (z) = 0.17482 0.13815
#
# Static dielectric constant tensor:
#      x y z
#    x 1.816810 -0.000020 0.000280 
#    y -0.000020 1.764490 0.000010 
#    z 0.000280 0.000010 1.792360 
# 
# From -- ./inp_files/316858.got.cif
#   From: 2010.05.17/outbox.cif.g08.bks.cpg/sg12_159_cif.got.tgz:316858.got - 2010.06.03 13:09:07.
