data_PCOD9190697
_publ_section_title
;
Structure prediction by ZEFSAII (Michael W. Deem and Ramdas Pophale) SiO2 
 PCOD9190697
Probable space group: C 2/M
;
_chemical_formula_sum "Si O2"
_cell_formula_units_Z 64
_cell_length_a 19.388942
_cell_length_b 7.381536
_cell_length_c 19.341291
_cell_angle_alpha 90.000000
_cell_angle_beta 82.587882
_cell_angle_gamma 90.000000
_cell_volume 2744.998159
_symmetry_space_group_name_H-M "C 2/M"
_symmetry_group_IT_number 12
_symmetry_cell_setting 'monoclinic'
loop_
_space_group_symop_operation_xyz
x,y,z
-x,y,-z
-x,-y,-z
x,-y,z
1/2+x,1/2+y,z
1/2-x,1/2+y,-z
1/2-x,1/2-y,-z
1/2+x,1/2-y,z
loop_
_atom_site_type_symbol
_atom_site_label
_atom_site_fract_x
_atom_site_fract_y
_atom_site_fract_z
Si Si1 0.038490 0.778272 0.780040
Si Si2 0.998717 0.208281 0.074300
Si Si3 0.142555 0.704038 0.646581
Si Si4 0.590839 0.286442 0.288331
Si Si5 0.250738 0.276652 0.737265
Si Si6 0.848245 0.718386 0.955395
Si Si7 0.206925 0.290491 0.892878
Si Si8 0.984624 0.718625 0.424645
O O1 0.094075 0.700313 0.720890
O O2 0.046109 0.717000 0.857588
O O3 0.963488 0.717706 0.761401
O O4 0.041957 0.000000 0.776704
O O5 0.079674 0.212158 0.084104
O O6 0.976980 0.000000 0.069001
O O7 0.000000 0.300185 0.000000
O O8 0.159408 0.500000 0.620848
O O9 0.211817 0.784396 0.672012
O O10 0.089133 0.786363 0.597479
O O11 0.597366 0.500000 0.275348
O O12 0.669043 0.216092 0.274781
O O13 0.548553 0.262907 0.365430
O O14 0.248639 0.500000 0.737593
O O15 0.214185 0.215349 0.813997
O O16 0.847747 0.500000 0.956059
O O17 0.784078 0.780367 0.916941
O O18 0.838662 0.783396 0.036677
O O19 0.187867 0.500000 0.888052
O O20 0.979238 0.500000 0.425712
O O21 0.000000 0.781034 0.500000
#
# Coordination Sequence:
#
# PCOD9190697 Si02
#       8
#     8   8   8   8   8   8   8   8
#     4   9  18  33  50  69  95 130 168 206 252 300
#     4  10  21  34  48  66  94 133 170 207 258 310
#     4   9  18  32  53  77 100 130 168 205 245 297
#     4   9  17  31  53  76  97 126 166 206 239 286
#     4   9  17  31  52  75  98 128 166 206 250 293
#     4  10  20  32  47  70  94 122 166 214 256 299
#     4   9  18  33  51  67  92 129 162 200 254 310
#     4   9  18  34  54  76 105 137 163 193 239 295
#
# _framework density 23.315132999999999
#
# number of rings (size 3 to 8) (size 9 to 14) (size 15 to 20)
#    0.000    2.750    0.000    1.125    1.750    3.500 
#    0.000    5.000    0.000    0.000    0.000    0.000 
#    0.000    0.000    0.000    0.000    0.000    0.000 
#
# Total GULP energy -178607.598417 kJ/mol
# GULP energy per Si atom -5581.487451 kJ/mol
# Density = 2.326207 g / cm^3
# Si number density = 23.315133 Si / 1000 Ang^3
#
#
#
# Elastic Constant Matrix: (Units=GPa)
#
#
# Indices 1 2 3 4 5 6 
#
# 1 82.0493 6.6111 -0.3071 0.0000 10.8061 0.0000
# 2 6.6111 97.1239 -4.8115 0.0000 6.5641 0.0000
# 3 -0.3071 -4.8115 98.5855 0.0000 14.1632 0.0000
# 4 0.0000 0.0000 0.0000 88.2781 0.0000 -11.2546
# 5 10.8061 6.5641 14.1632 0.0000 24.2901 0.0000
# 6 0.0000 0.0000 0.0000 -11.2546 0.0000 8.1983
#
#
#
# Elastic Compliance Matrix: (Units=1/GPa)
#
#
# Indices 1 2 3 4 5 6 
#
# 1 0.013045 -0.000422 0.000914 0.000000 -0.006222 0.000000
# 2 -0.000422 0.010593 0.000982 0.000000 -0.003248 0.000000
# 3 0.000914 0.000982 0.011232 0.000000 -0.007221 0.000000
# 4 0.000000 0.000000 0.000000 0.013731 0.000000 0.018850
# 5 -0.006222 -0.003248 -0.007221 0.000000 0.049025 0.000000
# 6 0.000000 0.000000 0.000000 0.018850 0.000000 0.147853
#
#
# Mechanical properties :
#
#
# Convention : Reuss Voigt Hill
#
# Bulk Modulus (GPa) = 26.44286 31.19374 28.81830
# Shear Modulus (GPa) = 19.59741 42.57106 31.08424
#
# Velocity S-wave (km/s) = 2.90236 4.27769 3.65529
# Velocity P-wave (km/s) = 4.75371 6.14869 5.49564
#
# Compressibility (1/GPa) = 0.03781739
#
# Stress axis : x y z
#
# Youngs Moduli (GPa) = 76.65959 94.40189 89.03395
#
# Poissons Ratio (x) = 0.03985 -0.08137
# Poissons Ratio (y) = 0.03236 -0.08745
# Poissons Ratio (z) = -0.07006 -0.09273
#
# Static dielectric constant tensor:
#      x y z
#    x 1.909610 0.000000 0.051000 
#    y 0.000000 1.906490 0.000000 
#    z 0.051000 0.000000 1.871840 
# 
# From -- ./inp_files/281327.got.cif
#   From: 2010.05.17/outbox.cif.g08.bks.cpg/sg12_141_cif.got.tgz:281327.got - 2010.06.03 13:09:07.
