data_PCOD9190934
_publ_section_title
;
Structure prediction by ZEFSAII (Michael W. Deem and Ramdas Pophale) SiO2 
 PCOD9190934
Probable space group: C 2/M
;
_chemical_formula_sum "Si O2"
_cell_formula_units_Z 64
_cell_length_a 19.638327
_cell_length_b 7.417444
_cell_length_c 20.752884
_cell_angle_alpha 90.000000
_cell_angle_beta 107.918204
_cell_angle_gamma 90.000000
_cell_volume 2876.368404
_symmetry_space_group_name_H-M "C 2/M"
_symmetry_group_IT_number 12
_symmetry_cell_setting 'monoclinic'
loop_
_space_group_symop_operation_xyz
x,y,z
-x,y,-z
-x,-y,-z
x,-y,z
1/2+x,1/2+y,z
1/2-x,1/2+y,-z
1/2-x,1/2-y,-z
1/2+x,1/2-y,z
loop_
_atom_site_type_symbol
_atom_site_label
_atom_site_fract_x
_atom_site_fract_y
_atom_site_fract_z
Si Si1 0.154051 0.216729 0.208412
Si Si2 0.819799 0.285144 0.479231
Si Si3 0.574310 0.779639 0.706778
Si Si4 0.276287 0.291721 0.902612
Si Si5 0.214008 0.719937 0.674186
Si Si6 0.986254 0.714328 0.174591
Si Si7 0.642182 0.219204 0.945484
Si Si8 0.471134 0.219306 0.561825
O O1 0.188472 0.285489 0.151486
O O2 0.207074 0.277990 0.280899
O O3 0.070650 0.258024 0.191958
O O4 0.157645 0.000000 0.208145
O O5 0.829784 0.500000 0.475650
O O6 0.750000 0.250000 0.500000
O O7 0.809906 0.216660 0.403469
O O8 0.889351 0.218472 0.537490
O O9 0.654363 0.727080 0.709400
O O10 0.545544 0.716261 0.767138
O O11 0.520630 0.719675 0.634545
O O12 0.573910 0.000000 0.707602
O O13 0.259425 0.500000 0.882566
O O14 0.202671 0.218264 0.911640
O O15 0.333096 0.283699 0.977415
O O16 0.214010 0.500000 0.672244
O O17 0.975641 0.500000 0.173194
O O18 0.935504 0.778419 0.101669
O O19 0.645305 0.000000 0.949177
O O20 0.500000 0.270400 0.500000
O O21 0.473417 0.000000 0.565458
#
# Coordination Sequence:
#
# PCOD9190934 Si02
#       8
#     8   8   8   8   8   8   8   8
#     4  10  21  35  51  73 104 137 168 202 245 302
#     4  10  20  32  50  76 104 133 165 205 254 303
#     4   9  16  29  51  74  97 127 168 214 249 285
#     4   9  18  34  56  78  99 131 171 206 243 294
#     4   9  17  32  52  73  98 133 172 208 248 294
#     4  10  21  34  51  77 104 132 165 207 255 296
#     4   9  18  34  55  78 102 128 166 210 250 291
#     4   9  15  27  48  76 100 122 165 216 250 283
#
# _framework density 22.250281000000001
#
# number of rings (size 3 to 8) (size 9 to 14) (size 15 to 20)
#    0.000    2.625    1.250    0.750    1.750    4.500 
#    0.000    2.500    0.000    3.375    0.000    0.000 
#    0.000    0.000    0.000    0.000    0.000    0.000 
#
# Total GULP energy -178688.292762 kJ/mol
# GULP energy per Si atom -5584.009149 kJ/mol
# Density = 2.219964 g / cm^3
# Si number density = 22.250281 Si / 1000 Ang^3
#
#
#
# Elastic Constant Matrix: (Units=GPa)
#
#
# Indices 1 2 3 4 5 6 
#
# 1 123.2080 -10.8968 21.6588 0.0000 26.3818 0.0000
# 2 -10.8968 68.3649 -5.5701 0.0000 -0.2137 0.0000
# 3 21.6588 -5.5701 52.1852 0.0000 11.5725 0.0000
# 4 0.0000 0.0000 0.0000 -4.7743 0.0000 -6.7902
# 5 26.3818 -0.2137 11.5725 0.0000 40.1022 0.0000
# 6 0.0000 0.0000 0.0000 -6.7902 0.0000 14.2855
#
#
#
# Elastic Compliance Matrix: (Units=1/GPa)
#
#
# Indices 1 2 3 4 5 6 
#
# 1 0.009943 0.001346 -0.002707 0.000000 -0.005753 0.000000
# 2 0.001346 0.014944 0.001298 0.000000 -0.001181 0.000000
# 3 -0.002707 0.001298 0.021398 0.000000 -0.004387 0.000000
# 4 0.000000 0.000000 0.000000 -0.124971 0.000000 -0.059401
# 5 -0.005753 -0.001181 -0.004387 0.000000 0.029980 0.000000
# 6 0.000000 0.000000 0.000000 -0.059401 0.000000 0.041766
#
#
# Mechanical properties :
#
#
# Convention : Reuss Voigt Hill
#
# Bulk Modulus (GPa) = 21.66427 28.23798 24.95113
# Shear Modulus (GPa) = 583.25925 25.82711 304.54318
#
# Velocity S-wave (km/s) = 16.20817 3.41068 11.71191
# Velocity P-wave (km/s) = 18.97448 5.31309 13.93305
#
# Compressibility (1/GPa) = 0.04615894
#
# Stress axis : x y z
#
# Youngs Moduli (GPa) = 100.57159 66.91628 46.73431
#
# Poissons Ratio (x) = -0.09009 0.12653
# Poissons Ratio (y) = -0.13540 -0.06067
# Poissons Ratio (z) = 0.27228 -0.08687
#
# Static dielectric constant tensor:
#      x y z
#    x 1.720260 0.000000 -0.013980 
#    y 0.000000 1.904250 0.000000 
#    z -0.013980 0.000000 1.777110 
# 
# From -- ./inp_files/269283.got.cif
#   From: 2010.05.17/outbox.cif.g08.bks.cpg/sg12_135_cif.got.tgz:269283.got - 2010.06.03 13:09:07.
