data_PCOD9190616
_publ_section_title
;
Structure prediction by ZEFSAII (Michael W. Deem and Ramdas Pophale) SiO2 
 PCOD9190616
Probable space group: C 2/M
;
_chemical_formula_sum "Si O2"
_cell_formula_units_Z 56
_cell_length_a 15.997792
_cell_length_b 9.239173
_cell_length_c 18.278040
_cell_angle_alpha 90.000000
_cell_angle_beta 114.372506
_cell_angle_gamma 90.000000
_cell_volume 2460.847991
_symmetry_space_group_name_H-M "C 2/M"
_symmetry_group_IT_number 12
_symmetry_cell_setting 'monoclinic'
loop_
_space_group_symop_operation_xyz
x,y,z
-x,y,-z
-x,-y,-z
x,-y,z
1/2+x,1/2+y,z
1/2-x,1/2+y,-z
1/2-x,1/2-y,-z
1/2+x,1/2-y,z
loop_
_atom_site_type_symbol
_atom_site_label
_atom_site_fract_x
_atom_site_fract_y
_atom_site_fract_z
Si Si1 0.792888 0.829115 0.905240
Si Si2 0.125261 0.833689 0.515704
Si Si3 0.177404 0.833258 0.246478
Si Si4 0.063359 0.325051 0.954965
Si Si5 0.652883 0.165918 0.381028
Si Si6 0.899693 0.668239 0.348732
Si Si7 0.574696 0.171549 0.802468
O O1 0.833181 0.782152 0.840627
O O2 0.683801 0.815065 0.857791
O O3 0.812739 0.000000 0.922526
O O4 0.838571 0.736351 0.985049
O O5 0.236330 0.830933 0.567941
O O6 0.111094 0.744810 0.436286
O O7 0.083712 0.762960 0.573596
O O8 0.098444 0.000000 0.497001
O O9 0.135386 0.739882 0.296637
O O10 0.288436 0.833460 0.298565
O O11 0.147262 0.000000 0.241708
O O12 0.066041 0.500000 0.952841
O O13 0.033678 0.270500 0.863794
O O14 0.000000 0.281031 0.000000
O O15 0.624671 0.000000 0.369397
O O16 0.926043 0.500000 0.370081
O O17 0.938675 0.725666 0.285224
O O18 0.554583 0.000000 0.790946
#
# Coordination Sequence:
#
# PCOD9190616 Si02
#       7
#     8   8   8   8   8   8   8
#     4   9  17  30  48  66  85 114 151 187 222 262
#     4   9  15  21  30  48  77 109 139 172 209 248
#     4   8  14  24  37  54  76 103 137 177 217 251
#     4  10  20  32  46  66  92 118 144 179 224 270
#     4   9  15  21  31  49  75 109 143 170 203 250
#     4   8  13  23  38  53  73 104 141 177 211 251
#     4   8  15  29  47  65  86 115 150 185 222 263
#
# _framework density 22.756383
#
# number of rings (size 3 to 8) (size 9 to 14) (size 15 to 20)
#    0.000    3.286    0.000    3.000    0.000    4.286 
#    0.000    2.857    0.000    0.000    0.000    0.000 
#    0.000    1.143    0.000   13.143    0.000   16.143 
#
# Total GULP energy -156415.300145 kJ/mol
# GULP energy per Si atom -5586.260719 kJ/mol
# Density = 2.270459 g / cm^3
# Si number density = 22.756383 Si / 1000 Ang^3
#
#
#
# Elastic Constant Matrix: (Units=GPa)
#
#
# Indices 1 2 3 4 5 6 
#
# 1 85.7668 17.2705 48.3451 0.0000 -23.0661 0.0000
# 2 17.2705 61.3219 73.9836 0.0000 -26.8193 0.0000
# 3 48.3451 73.9836 215.8843 0.0000 -39.5827 0.0000
# 4 0.0000 0.0000 0.0000 29.5495 0.0000 -6.6330
# 5 -23.0661 -26.8193 -39.5827 0.0000 55.0356 0.0000
# 6 0.0000 0.0000 0.0000 -6.6330 0.0000 3.2563
#
#
#
# Elastic Compliance Matrix: (Units=1/GPa)
#
#
# Indices 1 2 3 4 5 6 
#
# 1 0.014206 0.001424 -0.002823 0.000000 0.004618 0.000000
# 2 0.001424 0.031111 -0.009321 0.000000 0.009054 0.000000
# 3 -0.002823 -0.009321 0.008534 0.000000 0.000413 0.000000
# 4 0.000000 0.000000 0.000000 0.062350 0.000000 0.127004
# 5 0.004618 0.009054 0.000413 0.000000 0.024814 0.000000
# 6 0.000000 0.000000 0.000000 0.127004 0.000000 0.565794
#
#
# Mechanical properties :
#
#
# Convention : Reuss Voigt Hill
#
# Bulk Modulus (GPa) = 30.85204 71.35239 51.10222
# Shear Modulus (GPa) = 6.76542 32.45987 19.61264
#
# Velocity S-wave (km/s) = 1.72610 3.78088 2.93892
# Velocity P-wave (km/s) = 4.19041 7.10514 5.83278
#
# Compressibility (1/GPa) = 0.03241277
#
# Stress axis : x y z
#
# Youngs Moduli (GPa) = 70.39436 32.14256 117.17662
#
# Poissons Ratio (x) = -0.04577 0.33074
# Poissons Ratio (y) = -0.10025 1.09217
# Poissons Ratio (z) = 0.19870 0.29959
#
# Static dielectric constant tensor:
#      x y z
#    x 1.945000 0.000000 -0.009710 
#    y 0.000000 1.753250 0.000000 
#    z -0.009710 0.000000 1.821090 
# 
# From -- ./inp_files/280401.got.cif
#   From: 2010.05.17/outbox.cif.g08.bks.cpg/sg12_141_cif.got.tgz:280401.got - 2010.06.03 13:09:07.
