data_PCOD9190654
_publ_section_title
;
Structure prediction by ZEFSAII (Michael W. Deem and Ramdas Pophale) SiO2 
 PCOD9190654
Probable space group: C 2/M
;
_chemical_formula_sum "Si O2"
_cell_formula_units_Z 52
_cell_length_a 9.041080
_cell_length_b 20.834032
_cell_length_c 17.901964
_cell_angle_alpha 90.000000
_cell_angle_beta 51.520000
_cell_angle_gamma 90.000000
_cell_volume 2639.728318
_symmetry_space_group_name_H-M "C 2/M"
_symmetry_group_IT_number 12
_symmetry_cell_setting 'monoclinic'
loop_
_space_group_symop_operation_xyz
x,y,z
-x,y,-z
-x,-y,-z
x,-y,z
1/2+x,1/2+y,z
1/2-x,1/2+y,-z
1/2-x,1/2-y,-z
1/2+x,1/2-y,z
loop_
_atom_site_type_symbol
_atom_site_label
_atom_site_fract_x
_atom_site_fract_y
_atom_site_fract_z
Si Si1 0.706961 0.717841 0.433065
Si Si2 0.500851 0.931648 0.839774
Si Si3 0.307408 0.180228 0.163183
Si Si4 0.000000 0.771831 0.000000
Si Si5 0.275730 0.427090 0.933822
Si Si6 0.329925 0.620137 0.138233
Si Si7 0.875603 0.708062 0.692180
O O1 0.500000 0.683674 0.500000
O O2 0.750000 0.750000 0.500000
O O3 0.673004 0.768951 0.376431
O O4 0.910694 0.684199 0.359561
O O5 0.626922 0.868991 0.794498
O O6 0.332114 0.927400 0.834751
O O7 0.599293 0.000000 0.802762
O O8 0.397541 0.926961 0.953334
O O9 0.480579 0.223750 0.076120
O O10 0.240184 0.132440 0.118425
O O11 0.157780 0.229318 0.244589
O O12 0.837690 0.822783 0.072937
O O13 0.283206 0.500000 0.900035
O O14 0.470051 0.413956 0.916663
O O15 0.271742 0.655520 0.232477
#
# Coordination Sequence:
#
# PCOD9190654 Si02
#       7
#     8   8   8   4   8   8   8
#     4   9  18  35  56  76 110 134 154 191 266 341
#     4  11  21  34  48  66  98 148 197 222 243 280
#     4  11  21  33  50  72 107 136 181 215 255 297
#     4  10  20  32  46  70 100 146 168 202 268 288
#     4  11  21  34  48  66  98 148 197 222 243 280
#     4  11  21  33  50  72 107 136 181 215 255 297
#     4  10  20  33  52  85 106 131 160 219 252 316
#
# _framework density 19.698996999999999
#
# number of rings (size 3 to 8) (size 9 to 14) (size 15 to 20)
#    0.000    1.538    3.077    2.769    0.000    7.385 
#    0.000    0.000    0.000    0.000    0.000    0.000 
#    0.000  310.154    0.000    0.000    0.000    0.000 
#
# Total GULP energy -144747.305203 kJ/mol
# GULP energy per Si atom -5567.204046 kJ/mol
# Density = 1.965416 g / cm^3
# Si number density = 19.698997 Si / 1000 Ang^3
#
#
#
# Elastic Constant Matrix: (Units=GPa)
#
#
# Indices 1 2 3 4 5 6 
#
# 1 71.3363 4.0337 4.7227 0.0000 -0.1754 0.0000
# 2 4.0337 89.6244 10.2985 0.0000 1.0837 0.0000
# 3 4.7227 10.2985 53.4927 0.0000 4.4922 0.0000
# 4 0.0000 0.0000 0.0000 4.9320 0.0000 -1.5340
# 5 -0.1754 1.0837 4.4922 0.0000 40.1393 0.0000
# 6 0.0000 0.0000 0.0000 -1.5340 0.0000 13.6915
#
#
#
# Elastic Compliance Matrix: (Units=1/GPa)
#
#
# Indices 1 2 3 4 5 6 
#
# 1 0.014124 -0.000504 -0.001167 0.000000 0.000206 0.000000
# 2 -0.000504 0.011428 -0.002150 0.000000 -0.000070 0.000000
# 3 -0.001167 -0.002150 0.019389 0.000000 -0.002117 0.000000
# 4 0.000000 0.000000 0.000000 0.210077 0.000000 0.023538
# 5 0.000206 -0.000070 -0.002117 0.000000 0.025153 0.000000
# 6 0.000000 0.000000 0.000000 0.023538 0.000000 0.075675
#
#
# Mechanical properties :
#
#
# Convention : Reuss Voigt Hill
#
# Bulk Modulus (GPa) = 26.81018 28.06259 27.43639
# Shear Modulus (GPa) = 13.30061 24.77913 19.03987
#
# Velocity S-wave (km/s) = 2.60127 3.55052 3.11230
# Velocity P-wave (km/s) = 4.76042 5.57538 5.18394
#
# Compressibility (1/GPa) = 0.03729926
#
# Stress axis : x y z
#
# Youngs Moduli (GPa) = 70.79953 87.50252 51.57603
#
# Poissons Ratio (x) = 0.04411 0.06020
# Poissons Ratio (y) = 0.03569 0.11088
# Poissons Ratio (z) = 0.08264 0.18811
#
# Static dielectric constant tensor:
#      x y z
#    x 1.759290 0.000000 0.001460 
#    y 0.000000 1.715990 0.000000 
#    z 0.001460 0.000000 1.751290 
# 
# From -- ./inp_files/197005.got.cif
#   From: 2010.05.17/outbox.cif.g08.bks.cpg/sg12_99_cif.got.tgz:197005.got - 2010.06.03 13:09:07.
