data_PCOD9190373
_publ_section_title
;
Structure prediction by ZEFSAII (Michael W. Deem and Ramdas Pophale) SiO2 
 PCOD9190373
Probable space group: C 2/M
;
_chemical_formula_sum "Si O2"
_cell_formula_units_Z 64
_cell_length_a 18.599189
_cell_length_b 26.719976
_cell_length_c 9.476817
_cell_angle_alpha 90.000000
_cell_angle_beta 128.799556
_cell_angle_gamma 90.000000
_cell_volume 3670.465148
_symmetry_space_group_name_H-M "C 2/M"
_symmetry_group_IT_number 12
_symmetry_cell_setting 'monoclinic'
loop_
_space_group_symop_operation_xyz
x,y,z
-x,y,-z
-x,-y,-z
x,-y,z
1/2+x,1/2+y,z
1/2-x,1/2+y,-z
1/2-x,1/2-y,-z
1/2+x,1/2-y,z
loop_
_atom_site_type_symbol
_atom_site_label
_atom_site_fract_x
_atom_site_fract_y
_atom_site_fract_z
Si Si1 0.981748 0.756904 0.821484
Si Si2 0.435898 0.637873 0.656650
Si Si3 0.254637 0.800017 0.299408
Si Si4 0.303531 0.646639 0.245751
Si Si5 0.847765 0.120349 0.013889
Si Si6 0.318707 0.191779 0.683156
Si Si7 0.392249 0.555291 0.824549
Si Si8 0.097459 0.249646 0.700672
O O1 0.067798 0.743904 0.827005
O O2 0.925925 0.802585 0.678382
O O3 0.076843 0.706917 0.223703
O O4 0.000000 0.777319 0.000000
O O5 0.388191 0.628743 0.448256
O O6 0.388522 0.599726 0.706669
O O7 0.545557 0.628650 0.807216
O O8 0.184863 0.832902 0.121927
O O9 0.278423 0.823193 0.481117
O O10 0.218926 0.745214 0.303141
O O11 0.344105 0.791365 0.309918
O O12 0.215906 0.653925 0.239834
O O13 0.339515 0.700485 0.233248
O O14 0.290792 0.615874 0.087764
O O15 0.841618 0.073061 0.903703
O O16 0.364354 0.500000 0.741047
O O17 0.500000 0.553067 0.000000
O O18 0.000000 0.242841 0.500000
#
# Coordination Sequence:
#
# PCOD9190373 Si02
#       8
#     8   8   8   8   8   8   8   8
#     4  12  21  30  47  68  93 133 168 198 232 277
#     4  11  19  33  49  66  91 125 164 194 241 284
#     4  10  20  32  46  65  92 127 165 201 236 269
#     4  11  21  31  46  67  95 128 164 201 231 278
#     4  11  20  31  50  69  90 123 158 200 238 285
#     4  10  20  31  42  64  95 125 164 203 233 267
#     4   9  19  34  52  71  90 116 155 202 245 292
#     4  11  19  33  45  65  97 132 166 201 229 267
#
# _framework density 17.436481000000001
#
# number of rings (size 3 to 8) (size 9 to 14) (size 15 to 20)
#    0.000    1.375    3.750    5.250    1.750    1.000 
#    0.000    0.625    0.000    3.000    0.000    0.000 
#    0.000    0.500    0.000    1.125    0.000    0.500 
#
# Total GULP energy -178393.016401 kJ/mol
# GULP energy per Si atom -5574.781763 kJ/mol
# Density = 1.739680 g / cm^3
# Si number density = 17.436481 Si / 1000 Ang^3
#
#
#
# Elastic Constant Matrix: (Units=GPa)
#
#
# Indices 1 2 3 4 5 6 
#
# 1 118.2982 29.8542 27.0655 0.0000 -33.9813 0.0000
# 2 29.8542 45.5423 19.1442 0.0000 -10.7138 0.0000
# 3 27.0655 19.1442 68.3494 0.0000 -30.0642 0.0000
# 4 0.0000 0.0000 0.0000 7.8344 0.0000 -1.0900
# 5 -33.9813 -10.7138 -30.0642 0.0000 34.2632 0.0000
# 6 0.0000 0.0000 0.0000 -1.0900 0.0000 10.6845
#
#
#
# Elastic Compliance Matrix: (Units=1/GPa)
#
#
# Indices 1 2 3 4 5 6 
#
# 1 0.013417 -0.006676 0.002429 0.000000 0.013351 0.000000
# 2 -0.006676 0.028365 -0.007023 0.000000 -0.003913 0.000000
# 3 0.002429 -0.007023 0.025616 0.000000 0.022691 0.000000
# 4 0.000000 0.000000 0.000000 0.129480 0.000000 0.013209
# 5 0.013351 -0.003913 0.022691 0.000000 0.061113 0.000000
# 6 0.000000 0.000000 0.000000 0.013209 0.000000 0.094941
#
#
# Mechanical properties :
#
#
# Convention : Reuss Voigt Hill
#
# Bulk Modulus (GPa) = 22.29126 42.70200 32.49663
# Shear Modulus (GPa) = 12.80655 20.96481 16.88568
#
# Velocity S-wave (km/s) = 2.71305 3.47126 3.11531
# Velocity P-wave (km/s) = 4.75670 6.37255 5.62297
#
# Compressibility (1/GPa) = 0.04486063
#
# Stress axis : x y z
#
# Youngs Moduli (GPa) = 74.53107 35.25443 39.03749
#
# Poissons Ratio (x) = 0.23535 -0.09484
# Poissons Ratio (y) = 0.49755 0.27415
# Poissons Ratio (z) = -0.18107 0.24758
#
# Static dielectric constant tensor:
#      x y z
#    x 1.680890 0.000000 -0.003430 
#    y 0.000000 1.583600 0.000000 
#    z -0.003430 0.000000 1.652600 
# 
# From -- ./inp_files/91102.got.cif
#   From: 2010.05.17/outbox.cif.g08.bks.cpg/sg12_46_cif.got.tgz:91102.got - 2010.06.03 13:09:07.
