data_PCOD9190673
_publ_section_title
;
Structure prediction by ZEFSAII (Michael W. Deem and Ramdas Pophale) SiO2 
 PCOD9190673
Probable space group: C 2/M
;
_chemical_formula_sum "Si O2"
_cell_formula_units_Z 64
_cell_length_a 24.166998
_cell_length_b 7.374616
_cell_length_c 23.102125
_cell_angle_alpha 90.000000
_cell_angle_beta 135.380832
_cell_angle_gamma 90.000000
_cell_volume 2891.965581
_symmetry_space_group_name_H-M "C 2/M"
_symmetry_group_IT_number 12
_symmetry_cell_setting 'monoclinic'
loop_
_space_group_symop_operation_xyz
x,y,z
-x,y,-z
-x,-y,-z
x,-y,z
1/2+x,1/2+y,z
1/2-x,1/2+y,-z
1/2-x,1/2-y,-z
1/2+x,1/2-y,z
loop_
_atom_site_type_symbol
_atom_site_label
_atom_site_fract_x
_atom_site_fract_y
_atom_site_fract_z
Si Si1 0.908607 0.221391 0.924502
Si Si2 0.130143 0.788189 0.231620
Si Si3 0.938713 0.207310 0.400204
Si Si4 0.075480 0.221874 0.424374
Si Si5 0.534673 0.721700 0.269905
Si Si6 0.689428 0.712731 0.038857
Si Si7 0.189808 0.780372 0.611494
Si Si8 0.856872 0.218619 0.123420
O O1 0.879944 0.286378 0.840397
O O2 0.855529 0.286212 0.938686
O O3 0.904028 0.000000 0.921391
O O4 0.000000 0.269569 0.000000
O O5 0.074279 0.712873 0.240261
O O6 0.220193 0.773846 0.318403
O O7 0.108720 0.000000 0.211225
O O8 0.860032 0.286575 0.369776
O O9 0.000000 0.201795 0.500000
O O10 0.991511 0.285172 0.388216
O O11 0.920131 0.000000 0.369485
O O12 0.081189 0.277093 0.362228
O O13 0.144267 0.279002 0.519447
O O14 0.074124 0.000000 0.425488
O O15 0.535859 0.500000 0.270001
O O16 0.443654 0.777498 0.206098
O O17 0.670063 0.500000 0.022467
O O18 0.783850 0.730012 0.109729
O O19 0.661930 0.786386 0.955833
O O20 0.185623 0.000000 0.609537
O O21 0.857243 0.000000 0.122274
#
# Coordination Sequence:
#
# PCOD9190673 Si02
#       8
#     8   8   8   8   8   8   8   8
#     4   9  17  31  51  70  90 123 162 189 215 266
#     4  10  20  32  47  68  92 119 154 195 230 261
#     4   7  11  22  41  63  84 109 145 183 215 255
#     4   8  14  26  46  69  90 117 153 190 227 269
#     4   9  17  29  45  66  91 120 157 195 226 262
#     4   9  17  30  49  72  96 122 151 185 230 278
#     4   9  17  30  48  69  93 120 150 185 229 280
#     4   9  17  30  49  72  96 120 150 191 232 269
#
# _framework density 22.130279000000002
#
# number of rings (size 3 to 8) (size 9 to 14) (size 15 to 20)
#    0.000    3.250    0.000    2.250    0.000    4.500 
#    0.000    2.500    0.000    7.125    0.000    0.000 
#    0.000    0.000    0.000    0.000    0.000    0.000 
#
# Total GULP energy -178520.801680 kJ/mol
# GULP energy per Si atom -5578.775053 kJ/mol
# Density = 2.207991 g / cm^3
# Si number density = 22.130279 Si / 1000 Ang^3
#
#
#
# Elastic Constant Matrix: (Units=GPa)
#
#
# Indices 1 2 3 4 5 6 
#
# 1 187.2551 0.5978 78.5496 0.0000 -8.5966 0.0000
# 2 0.5978 76.5881 -9.1042 0.0000 -8.7575 0.0003
# 3 78.5496 -9.1042 105.2347 0.0000 -1.6831 0.0000
# 4 0.0000 0.0000 0.0000 8.5098 0.0000 10.3465
# 5 -8.5966 -8.7575 -1.6831 0.0000 26.8351 0.0000
# 6 0.0000 0.0003 0.0000 10.3465 0.0000 -5.4146
#
#
#
# Elastic Compliance Matrix: (Units=1/GPa)
#
#
# Indices 1 2 3 4 5 6 
#
# 1 0.007919 -0.000539 -0.005926 0.000000 0.001989 0.000000
# 2 -0.000539 0.013765 0.001664 0.000000 0.004424 0.000000
# 3 -0.005926 0.001664 0.014062 0.000000 -0.000473 0.000000
# 4 0.000000 0.000000 0.000000 0.035360 0.000000 0.067568
# 5 0.001989 0.004424 -0.000473 0.000000 0.039316 0.000000
# 6 0.000000 0.000000 0.000000 0.067568 0.000000 -0.055573
#
#
# Mechanical properties :
#
#
# Convention : Reuss Voigt Hill
#
# Bulk Modulus (GPa) = 38.24940 56.57383 47.41161
# Shear Modulus (GPa) = 68.33858 25.92169 47.13014
#
# Velocity S-wave (km/s) = 5.56302 3.42617 4.61984
# Velocity P-wave (km/s) = 7.65403 6.42425 7.06595
#
# Compressibility (1/GPa) = 0.02614420
#
# Stress axis : x y z
#
# Youngs Moduli (GPa) = 126.27687 72.64975 71.11322
#
# Poissons Ratio (x) = 0.03914 0.42140
# Poissons Ratio (y) = 0.06803 -0.11831
# Poissons Ratio (z) = 0.74829 -0.12087
#
# Static dielectric constant tensor:
#      x y z
#    x 1.812150 0.000000 -0.016250 
#    y 0.000000 1.870080 0.000000 
#    z -0.016250 0.000000 1.768060 
# 
# From -- ./inp_files/346859.got.cif
#   From: 2010.05.17/outbox.cif.g08.bks.cpg/sg12_174_cif.got.tgz:346859.got - 2010.06.03 13:09:07.
