data_PCOD9190302
_publ_section_title
;
Structure prediction by ZEFSAII (Michael W. Deem and Ramdas Pophale) SiO2 
 PCOD9190302
Probable space group: C 2/M
;
_chemical_formula_sum "Si O2"
_cell_formula_units_Z 48
_cell_length_a 22.927692
_cell_length_b 8.584290
_cell_length_c 9.325035
_cell_angle_alpha 90.000000
_cell_angle_beta 84.157546
_cell_angle_gamma 90.000000
_cell_volume 1825.800799
_symmetry_space_group_name_H-M "C 2/M"
_symmetry_group_IT_number 12
_symmetry_cell_setting 'monoclinic'
loop_
_space_group_symop_operation_xyz
x,y,z
-x,y,-z
-x,-y,-z
x,-y,z
1/2+x,1/2+y,z
1/2-x,1/2+y,-z
1/2-x,1/2-y,-z
1/2+x,1/2-y,z
loop_
_atom_site_type_symbol
_atom_site_label
_atom_site_fract_x
_atom_site_fract_y
_atom_site_fract_z
Si Si1 0.412192 0.000000 0.400619
Si Si2 0.781123 0.814333 0.770990
Si Si3 0.666859 0.183486 0.953598
Si Si4 0.456386 0.000000 0.719807
Si Si5 0.446614 0.671414 0.127455
Si Si6 0.636668 0.318878 0.510106
Si Si7 0.947325 0.831623 0.731222
O O1 0.375712 0.838432 0.395378
O O2 0.435330 0.000000 0.560180
O O3 0.472652 0.000000 0.294505
O O4 0.716485 0.756675 0.828688
O O5 0.810987 0.769952 0.613427
O O6 0.779657 0.000000 0.764461
O O7 0.820019 0.766928 0.898662
O O8 0.603532 0.213170 0.904051
O O9 0.676314 0.000000 0.972738
O O10 0.432763 0.159059 0.791773
O O11 0.419712 0.500000 0.123730
O O12 0.482293 0.671798 0.268066
O O13 0.500000 0.682645 0.000000
O O14 0.646744 0.500000 0.560715
O O15 0.580164 0.333397 0.418683
O O16 0.929107 0.000000 0.799436
#
# Coordination Sequence:
#
# PCOD9190302 Si02
#       7
#     4   8   8   4   8   8   8
#     4   9  18  30  48  76  98 124 157 194 253 299
#     4   9  18  33  47  65  99 131 159 199 243 283
#     4  10  20  30  46  71  96 128 166 200 238 280
#     4   9  18  32  47  70 106 124 151 206 241 298
#     4  10  20  34  48  66  98 133 169 199 233 285
#     4   9  17  31  50  71  98 127 160 199 244 291
#     4   9  18  31  49  70  96 134 165 192 243 292
#
# _framework density 26.289833999999999
#
# number of rings (size 3 to 8) (size 9 to 14) (size 15 to 20)
#    0.000    2.667    0.000    1.500    2.333    4.333 
#    3.000    3.333    0.000    0.000    0.000    1.167 
#    0.000    0.000    0.000    0.000    0.000    0.000 
#
# Total GULP energy -133999.941802 kJ/mol
# GULP energy per Si atom -5583.330908 kJ/mol
# Density = 2.623000 g / cm^3
# Si number density = 26.289834 Si / 1000 Ang^3
#
#
#
# Elastic Constant Matrix: (Units=GPa)
#
#
# Indices 1 2 3 4 5 6 
#
# 1 86.4561 -2.4018 34.3606 0.0000 -20.6247 0.0000
# 2 -2.4018 172.5763 17.6795 0.0000 -24.1057 0.0000
# 3 34.3606 17.6795 102.4721 0.0000 -35.7573 0.0000
# 4 0.0000 0.0000 0.0000 10.8164 0.0000 -7.9429
# 5 -20.6247 -24.1057 -35.7573 0.0000 36.8020 0.0000
# 6 0.0000 0.0000 0.0000 -7.9429 0.0000 26.7336
#
#
#
# Elastic Compliance Matrix: (Units=1/GPa)
#
#
# Indices 1 2 3 4 5 6 
#
# 1 0.014187 0.001334 -0.002887 0.000000 0.006020 0.000000
# 2 0.001334 0.006523 0.000271 0.000000 0.005284 0.000000
# 3 -0.002887 0.000271 0.015398 0.000000 0.013520 0.000000
# 4 0.000000 0.000000 0.000000 0.118253 0.000000 0.035135
# 5 0.006020 0.005284 0.013520 0.000000 0.047144 0.000000
# 6 0.000000 0.000000 0.000000 0.035135 0.000000 0.047845
#
#
# Mechanical properties :
#
#
# Convention : Reuss Voigt Hill
#
# Bulk Modulus (GPa) = 29.81091 51.19788 40.50439
# Shear Modulus (GPa) = 19.00452 35.66147 27.33300
#
# Velocity S-wave (km/s) = 2.69157 3.68703 3.22790
# Velocity P-wave (km/s) = 4.58512 6.13533 5.41598
#
# Compressibility (1/GPa) = 0.03354477
#
# Stress axis : x y z
#
# Youngs Moduli (GPa) = 70.48733 153.29440 64.94394
#
# Poissons Ratio (x) = -0.20450 0.18747
# Poissons Ratio (y) = -0.09403 -0.01760
# Poissons Ratio (z) = 0.20348 -0.04154
#
# Static dielectric constant tensor:
#      x y z
#    x 2.061490 0.000000 -0.048260 
#    y 0.000000 2.078990 0.000000 
#    z -0.048260 0.000000 2.106810 
# 
# From -- ./inp_files/173005.got.cif
#   From: 2010.05.17/outbox.cif.g08.bks.cpg/sg12_87_cif.got.tgz:173005.got - 2010.06.03 13:09:07.
