data_PCOD9190443
_publ_section_title
;
Structure prediction by ZEFSAII (Michael W. Deem and Ramdas Pophale) SiO2 
 PCOD9190443
Probable space group: C 2/M
;
_chemical_formula_sum "Si O2"
_cell_formula_units_Z 64
_cell_length_a 9.542557
_cell_length_b 24.366309
_cell_length_c 17.602173
_cell_angle_alpha 90.000000
_cell_angle_beta 73.598322
_cell_angle_gamma 90.000000
_cell_volume 3926.248854
_symmetry_space_group_name_H-M "C 2/M"
_symmetry_group_IT_number 12
_symmetry_cell_setting 'monoclinic'
loop_
_space_group_symop_operation_xyz
x,y,z
-x,y,-z
-x,-y,-z
x,-y,z
1/2+x,1/2+y,z
1/2-x,1/2+y,-z
1/2-x,1/2-y,-z
1/2+x,1/2-y,z
loop_
_atom_site_type_symbol
_atom_site_label
_atom_site_fract_x
_atom_site_fract_y
_atom_site_fract_z
Si Si1 0.631513 0.846464 0.239581
Si Si2 0.813972 0.641882 0.349626
Si Si3 0.663221 0.804157 0.493420
Si Si4 0.544546 0.565404 0.406103
Si Si5 0.158536 0.314614 0.072983
Si Si6 0.365286 0.714394 0.734498
Si Si7 0.177628 0.705211 0.906730
Si Si8 0.351284 0.357517 0.333365
O O1 0.470262 0.866707 0.286488
O O2 0.662198 0.853712 0.145342
O O3 0.630786 0.780212 0.257316
O O4 0.758705 0.870939 0.272564
O O5 0.838323 0.656891 0.433320
O O6 0.702412 0.591278 0.363728
O O7 0.729845 0.692773 0.321813
O O8 0.500000 0.787546 0.500000
O O9 0.750000 0.750000 0.500000
O O10 0.737513 0.833250 0.411068
O O11 0.500000 0.580857 0.500000
O O12 0.543838 0.500000 0.400953
O O13 0.433871 0.593125 0.363307
O O14 0.270212 0.265632 0.075653
O O15 0.990125 0.293440 0.094819
O O16 0.189764 0.331490 0.981150
O O17 0.282881 0.690514 0.821312
O O18 0.525698 0.688453 0.703338
#
# Coordination Sequence:
#
# PCOD9190443 Si02
#       8
#     8   8   8   8   8   8   8   8
#     4  11  19  32  47  75 108 141 167 210 249 295
#     4  11  21  34  50  73 100 132 176 208 252 302
#     4  12  24  33  47  73 110 144 169 199 240 297
#     4  10  22  42  60  72  92 127 175 225 276 316
#     4   9  18  28  45  65 100 146 184 213 236 282
#     4  10  20  31  47  72 108 148 173 203 246 299
#     4   9  17  30  42  66  99 146 188 209 237 285
#     4  11  23  34  50  75 102 134 175 212 254 308
#
# _framework density 16.300547000000002
#
# number of rings (size 3 to 8) (size 9 to 14) (size 15 to 20)
#    0.000    1.625    3.750    2.250    8.750    0.000 
#    0.000    0.625    0.000    2.250    0.000    0.000 
#    0.000   16.000    0.000    0.000    0.000    0.000 
#
# Total GULP energy -178487.695628 kJ/mol
# GULP energy per Si atom -5577.740488 kJ/mol
# Density = 1.626345 g / cm^3
# Si number density = 16.300547 Si / 1000 Ang^3
#
#
#
# Elastic Constant Matrix: (Units=GPa)
#
#
# Indices 1 2 3 4 5 6 
#
# 1 118.7744 22.2681 41.4506 0.0000 9.9246 0.0000
# 2 22.2681 41.7286 12.5648 0.0000 2.3583 0.0000
# 3 41.4506 12.5648 110.5945 0.0000 1.4192 0.0000
# 4 0.0000 0.0000 0.0000 12.3522 0.0000 0.6229
# 5 9.9246 2.3583 1.4192 0.0000 29.4448 0.0000
# 6 0.0000 0.0000 0.0000 0.6229 0.0000 9.1366
#
#
#
# Elastic Compliance Matrix: (Units=1/GPa)
#
#
# Indices 1 2 3 4 5 6 
#
# 1 0.010734 -0.004508 -0.003471 0.000000 -0.003090 0.000000
# 2 -0.004508 0.026808 -0.001349 0.000000 -0.000563 0.000000
# 3 -0.003471 -0.001349 0.010486 0.000000 0.000773 0.000000
# 4 0.000000 0.000000 0.000000 0.081236 0.000000 -0.005538
# 5 -0.003090 -0.000563 0.000773 0.000000 0.035011 0.000000
# 6 0.000000 0.000000 0.000000 -0.005538 0.000000 0.109827
#
#
# Mechanical properties :
#
#
# Convention : Reuss Voigt Hill
#
# Bulk Modulus (GPa) = 34.04618 47.07384 40.56001
# Shear Modulus (GPa) = 16.52616 23.17432 19.85024
#
# Velocity S-wave (km/s) = 3.18754 3.77462 3.49344
# Velocity P-wave (km/s) = 5.87189 6.92376 6.41940
#
# Compressibility (1/GPa) = 0.02937188
#
# Stress axis : x y z
#
# Youngs Moduli (GPa) = 93.16056 37.30209 95.36166
#
# Poissons Ratio (x) = 0.16817 0.33103
# Poissons Ratio (y) = 0.42000 0.12862
# Poissons Ratio (z) = 0.32339 0.05031
#
# Static dielectric constant tensor:
#      x y z
#    x 1.556900 0.000000 0.014450 
#    y 0.000000 1.506210 0.000000 
#    z 0.014450 0.000000 1.601280 
# 
# From -- ./inp_files/258922.got.cif
#   From: 2010.05.17/outbox.cif.g08.bks.cpg/sg12_130_cif.got.tgz:258922.got - 2010.06.03 13:09:07.
