data_PCOD9190399
_publ_section_title
;
Structure prediction by ZEFSAII (Michael W. Deem and Ramdas Pophale) SiO2 
 PCOD9190399
Probable space group: C 2/M
;
_chemical_formula_sum "Si O2"
_cell_formula_units_Z 56
_cell_length_a 11.197527
_cell_length_b 14.037705
_cell_length_c 17.129893
_cell_angle_alpha 90.000000
_cell_angle_beta 102.613110
_cell_angle_gamma 90.000000
_cell_volume 2627.625290
_symmetry_space_group_name_H-M "C 2/M"
_symmetry_group_IT_number 12
_symmetry_cell_setting 'monoclinic'
loop_
_space_group_symop_operation_xyz
x,y,z
-x,y,-z
-x,-y,-z
x,-y,z
1/2+x,1/2+y,z
1/2-x,1/2+y,-z
1/2-x,1/2-y,-z
1/2+x,1/2-y,z
loop_
_atom_site_type_symbol
_atom_site_label
_atom_site_fract_x
_atom_site_fract_y
_atom_site_fract_z
Si Si1 0.067246 0.109617 0.143191
Si Si2 0.744061 0.382923 0.657550
Si Si3 0.361348 0.387267 0.514691
Si Si4 0.798202 0.886122 0.061072
Si Si5 0.920254 0.608810 0.068477
Si Si6 0.355031 0.803565 0.822068
Si Si7 0.020773 0.887586 0.320823
O O1 0.162593 0.194969 0.152340
O O2 0.038246 0.116621 0.231499
O O3 0.942076 0.134813 0.079625
O O4 0.101804 0.000000 0.129528
O O5 0.757965 0.500000 0.665065
O O6 0.733396 0.353494 0.565018
O O7 0.835568 0.330656 0.729248
O O8 0.612529 0.352558 0.674374
O O9 0.500000 0.377288 0.500000
O O10 0.334530 0.500000 0.514415
O O11 0.375167 0.349705 0.605084
O O12 0.737622 0.861551 0.135745
O O13 0.791102 0.000000 0.054159
O O14 0.709216 0.851013 0.979491
O O15 0.907182 0.500000 0.095375
O O16 0.005355 0.667553 0.138274
O O17 0.000000 0.604930 0.000000
O O18 0.015538 0.000000 0.338393
#
# Coordination Sequence:
#
# PCOD9190399 Si02
#       7
#     8   8   8   8   8   8   8
#     4  10  20  31  45  65  90 123 156 183 214 262
#     4   9  14  23  43  69  91 111 141 185 229 262
#     4   7  11  19  36  62  88 113 139 173 222 265
#     4   9  17  33  52  68  89 118 148 182 224 268
#     4   8  15  27  46  70  92 113 142 182 226 267
#     4  11  18  26  46  71  92 114 149 188 224 259
#     4   8  13  25  42  60  87 119 147 176 215 264
#
# _framework density 21.312018999999999
#
# number of rings (size 3 to 8) (size 9 to 14) (size 15 to 20)
#    0.000    3.143    1.429    3.857    0.000    0.571 
#    0.000    0.714    0.000    6.429    0.000    0.000 
#    0.000    5.143    0.000    0.429    0.000    0.000 
#
# Total GULP energy -155931.426770 kJ/mol
# GULP energy per Si atom -5568.979528 kJ/mol
# Density = 2.126351 g / cm^3
# Si number density = 21.312019 Si / 1000 Ang^3
#
#
#
# Elastic Constant Matrix: (Units=GPa)
#
#
# Indices 1 2 3 4 5 6 
#
# 1 9.1228 15.7442 29.2372 0.0000 -0.7124 0.0000
# 2 15.7442 66.6317 36.1477 0.0000 23.3225 0.0000
# 3 29.2372 36.1477 168.6974 0.0000 29.7454 0.0000
# 4 0.0000 0.0000 0.0000 8.4152 0.0000 11.1485
# 5 -0.7124 23.3225 29.7454 0.0000 20.9503 0.0000
# 6 0.0000 0.0000 0.0000 11.1485 0.0000 9.9275
#
#
#
# Elastic Compliance Matrix: (Units=1/GPa)
#
#
# Indices 1 2 3 4 5 6 
#
# 1 -0.232835 0.090686 0.053515 0.000000 -0.184853 0.000000
# 2 0.090686 -0.010688 -0.021434 0.000000 0.045414 0.000000
# 3 0.053515 -0.021434 -0.004378 0.000000 0.031898 0.000000
# 4 0.000000 0.000000 0.000000 -0.243636 0.000000 0.273600
# 5 -0.184853 0.045414 0.031898 0.000000 -0.054399 0.000000
# 6 0.000000 0.000000 0.000000 0.273600 0.000000 -0.206520
#
#
# Mechanical properties :
#
#
# Convention : Reuss Voigt Hill
#
# Bulk Modulus (GPa) = -422.36406 45.19000 -188.58703
# Shear Modulus (GPa) = -5.00611 18.74679 6.87034
#
# Velocity S-wave (km/s) = -1.53430 2.96908 1.79741
# Velocity P-wave (km/s) = 14.20388 5.74491 9.18548
#
# Compressibility (1/GPa) = -0.00236763
#
# Stress axis : x y z
#
# Youngs Moduli (GPa) = -4.29489 -93.56405 -228.39077
#
# Poissons Ratio (x) = 8.48497 12.22235
# Poissons Ratio (y) = 0.38949 -4.89543
# Poissons Ratio (z) = 0.22984 -2.00550
#
# Static dielectric constant tensor:
#      x y z
#    x 1.807970 0.000000 0.010480 
#    y 0.000000 1.801550 0.000000 
#    z 0.010480 0.000000 1.858900 
# 
# From -- ./inp_files/342890.got.cif
#   From: 2010.05.17/outbox.cif.g08.bks.cpg/sg12_172_cif.got.tgz:342890.got - 2010.06.03 13:09:07.
