data_PCOD9190412
_publ_section_title
;
Structure prediction by ZEFSAII (Michael W. Deem and Ramdas Pophale) SiO2 
 PCOD9190412
Probable space group: C 2/M
;
_chemical_formula_sum "Si O2"
_cell_formula_units_Z 56
_cell_length_a 12.359799
_cell_length_b 22.403638
_cell_length_c 25.819197
_cell_angle_alpha 90.000000
_cell_angle_beta 154.409878
_cell_angle_gamma 90.000000
_cell_volume 3088.064195
_symmetry_space_group_name_H-M "C 2/M"
_symmetry_group_IT_number 12
_symmetry_cell_setting 'monoclinic'
loop_
_space_group_symop_operation_xyz
x,y,z
-x,y,-z
-x,-y,-z
x,-y,z
1/2+x,1/2+y,z
1/2-x,1/2+y,-z
1/2-x,1/2-y,-z
1/2+x,1/2-y,z
loop_
_atom_site_type_symbol
_atom_site_label
_atom_site_fract_x
_atom_site_fract_y
_atom_site_fract_z
Si Si1 0.093055 0.430651 0.815041
Si Si2 0.975344 0.243586 0.355398
Si Si3 0.216956 0.867456 0.263004
Si Si4 0.618836 0.647636 0.604488
Si Si5 0.571363 0.430664 0.945652
Si Si6 0.232002 0.429442 0.504100
Si Si7 0.789153 0.161518 0.622539
O O1 0.012523 0.500000 0.781512
O O2 0.325576 0.426935 0.876205
O O3 0.870272 0.388400 0.702218
O O4 0.197585 0.414515 0.917273
O O5 0.250000 0.250000 0.500000
O O6 0.031127 0.210267 0.325794
O O7 0.839862 0.306675 0.294171
O O8 0.833584 0.199918 0.333847
O O9 0.992254 0.890586 0.130783
O O10 0.446836 0.914722 0.364264
O O11 0.139344 0.855825 0.288704
O O12 0.500000 0.670489 0.500000
O O13 0.420512 0.602311 0.545461
O O14 0.601521 0.500000 0.943728
O O15 0.271835 0.500000 0.524709
O O16 0.277460 0.394894 0.578168
O O17 0.500000 0.183633 0.500000
#
# Coordination Sequence:
#
# PCOD9190412 Si02
#       7
#     8   8   8   8   8   8   8
#     4   9  19  36  56  79 111 139 170 224 274 313
#     4  11  21  35  49  77 110 140 172 216 273 313
#     4  11  20  32  54  75 101 140 185 213 256 324
#     4  11  22  32  55  81 105 140 176 214 272 325
#     4   9  19  36  55  79 107 140 181 220 263 317
#     4  10  20  31  45  74 110 133 165 219 267 315
#     4   9  19  32  47  71 105 139 172 211 260 318
#
# _framework density 18.134338
#
# number of rings (size 3 to 8) (size 9 to 14) (size 15 to 20)
#    0.000    2.000    4.286    2.571    2.000    5.429 
#    0.000    0.714    0.000    3.429    0.000    9.000 
#    0.000    0.000    0.000    0.000    0.000    0.000 
#
# Total GULP energy -156331.057947 kJ/mol
# GULP energy per Si atom -5583.252070 kJ/mol
# Density = 1.809306 g / cm^3
# Si number density = 18.134338 Si / 1000 Ang^3
#
#
#
# Elastic Constant Matrix: (Units=GPa)
#
#
# Indices 1 2 3 4 5 6 
#
# 1 59.6121 22.6869 4.8778 -0.0038 -18.6820 0.0010
# 2 22.6869 79.1968 12.3399 0.0025 -10.0590 0.0016
# 3 4.8778 12.3399 46.6034 0.0245 -19.2307 -0.0067
# 4 -0.0038 0.0025 0.0245 14.1212 -0.0001 -2.2472
# 5 -18.6820 -10.0590 -19.2307 -0.0001 27.0861 -0.0027
# 6 0.0010 0.0016 -0.0067 -2.2472 -0.0027 11.1752
#
#
#
# Elastic Compliance Matrix: (Units=1/GPa)
#
#
# Indices 1 2 3 4 5 6 
#
# 1 0.024578 -0.005621 0.007142 -0.000004 0.019935 0.000007
# 2 -0.005621 0.014683 -0.003747 0.000002 -0.001085 -0.000004
# 3 0.007142 -0.003747 0.032758 -0.000052 0.026792 0.000016
# 4 -0.000004 0.000002 -0.000052 0.073156 -0.000037 0.014711
# 5 0.019935 -0.001085 0.026792 -0.000037 0.069288 0.000024
# 6 0.000007 -0.000004 0.000016 0.014711 0.000024 0.092442
#
#
# Mechanical properties :
#
#
# Convention : Reuss Voigt Hill
#
# Bulk Modulus (GPa) = 14.80033 29.46904 22.13468
# Shear Modulus (GPa) = 14.97542 20.17703 17.57623
#
# Velocity S-wave (km/s) = 2.87680 3.33925 3.11661
# Velocity P-wave (km/s) = 4.38336 5.58150 5.01831
#
# Compressibility (1/GPa) = 0.06756606
#
# Stress axis : x y z
#
# Youngs Moduli (GPa) = 40.68755 68.10523 30.52684
#
# Poissons Ratio (x) = 0.38284 -0.21803
# Poissons Ratio (y) = 0.22872 0.11439
# Poissons Ratio (z) = -0.29060 0.25520
#
# Static dielectric constant tensor:
#      x y z
#    x 1.647510 0.000000 -0.017270 
#    y 0.000000 1.635070 0.000000 
#    z -0.017270 0.000000 1.605460 
# 
# From -- ./inp_files/133295.got.cif
#   From: 2010.05.17/outbox.cif.g08.bks.cpg/sg12_67_cif.got.tgz:133295.got - 2010.06.03 13:09:07.
