data_PCOD9190103
_publ_section_title
;
Structure prediction by ZEFSAII (Michael W. Deem and Ramdas Pophale) SiO2 
 PCOD9190103
Probable space group: C 2/M
;
_chemical_formula_sum "Si O2"
_cell_formula_units_Z 36
_cell_length_a 11.241269
_cell_length_b 15.377695
_cell_length_c 20.260857
_cell_angle_alpha 90.000000
_cell_angle_beta 30.662778
_cell_angle_gamma 90.000000
_cell_volume 1786.163148
_symmetry_space_group_name_H-M "C 2/M"
_symmetry_group_IT_number 12
_symmetry_cell_setting 'monoclinic'
loop_
_space_group_symop_operation_xyz
x,y,z
-x,y,-z
-x,-y,-z
x,-y,z
1/2+x,1/2+y,z
1/2-x,1/2+y,-z
1/2-x,1/2-y,-z
1/2+x,1/2-y,z
loop_
_atom_site_type_symbol
_atom_site_label
_atom_site_fract_x
_atom_site_fract_y
_atom_site_fract_z
Si Si1 0.522912 0.601829 0.728269
Si Si2 0.000000 0.316211 0.500000
Si Si3 0.441636 0.651618 0.439543
Si Si4 0.743797 0.252760 0.922923
Si Si5 0.405654 0.902874 0.294383
O O1 0.478076 0.500000 0.752461
O O2 0.519749 0.636659 0.655074
O O3 0.342691 0.659249 0.854495
O O4 0.784410 0.625974 0.625282
O O5 0.058496 0.249696 0.531952
O O6 0.200938 0.610864 0.581515
O O7 0.668741 0.607797 0.364786
O O8 0.919386 0.327672 0.812241
O O9 0.500000 0.265747 0.000000
O O10 0.750000 0.250000 0.000000
O O11 0.501792 0.000000 0.241119
#
# Coordination Sequence:
#
# PCOD9190103 Si02
#       5
#     8   4   8   8   8
#     4  12  24  41  67 100 132 167 217 280 337 395
#     4  10  21  38  67  98 134 166 205 272 353 396
#     4  10  19  39  69  99 129 167 208 269 347 404
#     4  12  28  45  65  90 132 187 232 269 320 390
#     4  10  20  39  66  98 130 167 218 273 331 400
#
# _framework density 20.154934000000001
#
# number of rings (size 3 to 8) (size 9 to 14) (size 15 to 20)
#    0.000    1.333    4.444    5.000    0.000    1.778 
#    0.000    2.222    0.000    0.000    0.000    0.000 
#    0.000    0.000    0.000    0.000    0.000    0.000 
#
# Total GULP energy -100502.235678 kJ/mol
# GULP energy per Si atom -5583.457538 kJ/mol
# Density = 2.010906 g / cm^3
# Si number density = 20.154934 Si / 1000 Ang^3
#
#
#
# Elastic Constant Matrix: (Units=GPa)
#
#
# Indices 1 2 3 4 5 6 
#
# 1 84.0038 62.9728 60.7096 0.0123 11.0735 0.0137
# 2 62.9728 140.0514 69.0763 0.0051 19.4973 0.0047
# 3 60.7096 69.0763 119.9988 0.0261 9.3820 0.0263
# 4 0.0123 0.0051 0.0261 12.9589 -0.0152 10.3459
# 5 11.0735 19.4973 9.3820 -0.0152 40.7850 -0.0159
# 6 0.0137 0.0047 0.0263 10.3459 -0.0159 28.3204
#
#
#
# Elastic Compliance Matrix: (Units=1/GPa)
#
#
# Indices 1 2 3 4 5 6 
#
# 1 0.022071 -0.005973 -0.007619 -0.000003 -0.001384 -0.000002
# 2 -0.005973 0.012107 -0.003688 0.000003 -0.003318 0.000001
# 3 -0.007619 -0.003688 0.014268 -0.000018 0.000550 -0.000002
# 4 -0.000003 0.000003 -0.000018 0.108940 0.000028 -0.039797
# 5 -0.001384 -0.003318 0.000550 0.000028 0.026354 0.000005
# 6 -0.000002 0.000001 -0.000002 -0.039797 0.000005 0.049849
#
#
# Mechanical properties :
#
#
# Convention : Reuss Voigt Hill
#
# Bulk Modulus (GPa) = 72.02054 81.06350 76.54202
# Shear Modulus (GPa) = 18.32988 26.49922 22.41455
#
# Velocity S-wave (km/s) = 3.01898 3.62992 3.33845
# Velocity P-wave (km/s) = 6.92556 7.60762 7.27459
#
# Compressibility (1/GPa) = 0.01388493
#
# Stress axis : x y z
#
# Youngs Moduli (GPa) = 45.30812 82.59800 70.08611
#
# Poissons Ratio (x) = 0.49338 0.53402
# Poissons Ratio (y) = 0.27064 0.25847
# Poissons Ratio (z) = 0.34522 0.30461
#
# Static dielectric constant tensor:
#      x y z
#    x 1.821070 0.000000 0.003570 
#    y 0.000000 1.708250 0.000000 
#    z 0.003570 0.000000 1.711290 
# 
# From -- ./inp_files/305272.got.cif
#   From: 2010.05.17/outbox.cif.g08.bks.cpg/sg12_153_cif.got.tgz:305272.got - 2010.06.03 13:09:07.
