data_PCOD9190899
_publ_section_title
;
Structure prediction by ZEFSAII (Michael W. Deem and Ramdas Pophale) SiO2 
 PCOD9190899
Probable space group: C 2/M
;
_chemical_formula_sum "Si O2"
_cell_formula_units_Z 52
_cell_length_a 21.028895
_cell_length_b 9.251752
_cell_length_c 22.251345
_cell_angle_alpha 90.000000
_cell_angle_beta 149.262905
_cell_angle_gamma 90.000000
_cell_volume 2212.596203
_symmetry_space_group_name_H-M "C 2/M"
_symmetry_group_IT_number 12
_symmetry_cell_setting 'monoclinic'
loop_
_space_group_symop_operation_xyz
x,y,z
-x,y,-z
-x,-y,-z
x,-y,z
1/2+x,1/2+y,z
1/2-x,1/2+y,-z
1/2-x,1/2-y,-z
1/2+x,1/2-y,z
loop_
_atom_site_type_symbol
_atom_site_label
_atom_site_fract_x
_atom_site_fract_y
_atom_site_fract_z
Si Si1 0.499317 0.837679 0.668757
Si Si2 0.944296 0.334375 0.017698
Si Si3 0.203931 0.664155 0.294136
Si Si4 0.384842 0.500000 0.116546
Si Si5 0.362186 0.341667 0.648013
Si Si6 0.249453 0.317610 0.944173
Si Si7 0.611927 0.166835 0.638464
O O1 0.390107 0.751562 0.611963
O O2 0.612631 0.846038 0.807901
O O3 0.556824 0.770278 0.655376
O O4 0.462185 0.000000 0.622483
O O5 0.901442 0.500000 0.971475
O O6 0.060498 0.339798 0.157467
O O7 0.836745 0.245272 0.962140
O O8 0.000000 0.277520 0.000000
O O9 0.245963 0.500000 0.338809
O O10 0.211356 0.759881 0.359898
O O11 0.280724 0.738026 0.303284
O O12 0.498037 0.377350 0.212740
O O13 0.277055 0.643795 0.041580
O O14 0.311622 0.500000 0.592393
O O15 0.314128 0.500000 0.992759
O O16 0.500000 0.163324 0.500000
O O17 0.653773 0.000000 0.682578
#
# Coordination Sequence:
#
# PCOD9190899 Si02
#       7
#     8   8   8   4   8   8   8
#     4  11  22  36  59  89 118 155 200 244 285 340
#     4  10  21  34  50  78 115 154 192 232 279 335
#     4  11  21  38  61  87 115 153 194 241 289 346
#     4  10  20  32  49  84 118 168 194 216 285 332
#     4  10  20  37  57  85 122 159 193 230 282 345
#     4  12  20  32  53  83 121 158 193 229 275 336
#     4  10  24  45  65  85 114 150 193 247 305 351
#
# _framework density 23.501804
#
# number of rings (size 3 to 8) (size 9 to 14) (size 15 to 20)
#    0.462    0.923    3.846    1.846    1.077    2.769 
#    0.000    1.154    0.000    0.000    0.000    0.000 
#    0.000    0.000    0.000    0.000    0.000    0.000 
#
# Total GULP energy -144914.729422 kJ/mol
# GULP energy per Si atom -5573.643439 kJ/mol
# Density = 2.344831 g / cm^3
# Si number density = 23.501804 Si / 1000 Ang^3
#
#
#
# Elastic Constant Matrix: (Units=GPa)
#
#
# Indices 1 2 3 4 5 6 
#
# 1 201.6015 90.7554 -1.3205 0.0000 1.2539 0.0000
# 2 90.7554 141.6620 -12.0232 0.0000 9.1190 0.0000
# 3 -1.3205 -12.0232 55.4652 0.0000 5.5951 0.0000
# 4 0.0000 0.0000 0.0000 10.6028 0.0000 -7.2648
# 5 1.2539 9.1190 5.5951 0.0000 36.4010 0.0000
# 6 0.0000 0.0000 0.0000 -7.2648 0.0000 32.7117
#
#
#
# Elastic Compliance Matrix: (Units=1/GPa)
#
#
# Indices 1 2 3 4 5 6 
#
# 1 0.007047 -0.004665 -0.000952 0.000000 0.001072 0.000000
# 2 -0.004665 0.010436 0.002437 0.000000 -0.002828 0.000000
# 3 -0.000952 0.002437 0.018886 0.000000 -0.003481 0.000000
# 4 0.000000 0.000000 0.000000 0.111242 0.000000 0.024705
# 5 0.001072 -0.002828 -0.003481 0.000000 0.028678 0.000000
# 6 0.000000 0.000000 0.000000 0.024705 0.000000 0.036057
#
#
# Mechanical properties :
#
#
# Convention : Reuss Voigt Hill
#
# Bulk Modulus (GPa) = 33.32185 61.50580 47.41383
# Shear Modulus (GPa) = 21.86184 37.36423 29.61304
#
# Velocity S-wave (km/s) = 3.05326 3.99161 3.55354
# Velocity P-wave (km/s) = 5.16130 6.88995 6.08730
#
# Compressibility (1/GPa) = 0.03001034
#
# Stress axis : x y z
#
# Youngs Moduli (GPa) = 141.89958 95.81985 52.94945
#
# Poissons Ratio (x) = 0.44696 0.05038
# Poissons Ratio (y) = 0.66190 -0.12901
# Poissons Ratio (z) = 0.13502 -0.23347
#
# Static dielectric constant tensor:
#      x y z
#    x 1.830360 0.000000 -0.001450 
#    y 0.000000 2.186320 0.000000 
#    z -0.001450 0.000000 1.946810 
# 
# From -- ./inp_files/346337.got.cif
#   From: 2010.05.17/outbox.cif.g08.bks.cpg/sg12_174_cif.got.tgz:346337.got - 2010.06.03 13:09:07.
