data_PCOD9190749
_publ_section_title
;
Structure prediction by ZEFSAII (Michael W. Deem and Ramdas Pophale) SiO2 
 PCOD9190749
Probable space group: C 2/M
;
_chemical_formula_sum "Si O2"
_cell_formula_units_Z 64
_cell_length_a 22.327176
_cell_length_b 9.599422
_cell_length_c 14.689557
_cell_angle_alpha 90.000000
_cell_angle_beta 108.617077
_cell_angle_gamma 90.000000
_cell_volume 2983.638651
_symmetry_space_group_name_H-M "C 2/M"
_symmetry_group_IT_number 12
_symmetry_cell_setting 'monoclinic'
loop_
_space_group_symop_operation_xyz
x,y,z
-x,y,-z
-x,-y,-z
x,-y,z
1/2+x,1/2+y,z
1/2-x,1/2+y,-z
1/2-x,1/2-y,-z
1/2+x,1/2-y,z
loop_
_atom_site_type_symbol
_atom_site_label
_atom_site_fract_x
_atom_site_fract_y
_atom_site_fract_z
Si Si1 0.571630 0.659956 0.176199
Si Si2 0.190788 0.343444 0.732251
Si Si3 0.812588 0.341774 0.543939
Si Si4 0.951086 0.661318 0.115994
Si Si5 0.548127 0.841309 0.661604
Si Si6 0.310671 0.843601 0.758756
Si Si7 0.810498 0.657928 0.050285
Si Si8 0.930527 0.840623 0.601615
O O1 0.573612 0.500000 0.146669
O O2 0.508394 0.740150 0.115367
O O3 0.633443 0.746336 0.176890
O O4 0.571299 0.657696 0.287641
O O5 0.209028 0.500000 0.710776
O O6 0.119690 0.311821 0.666043
O O7 0.243519 0.231663 0.734786
O O8 0.186561 0.348002 0.839171
O O9 0.807535 0.500000 0.505319
O O10 0.750000 0.250000 0.500000
O O11 0.822277 0.354880 0.656742
O O12 0.872840 0.254711 0.540215
O O13 0.960471 0.500000 0.092413
O O14 0.952186 0.660760 0.227544
O O15 0.880335 0.706878 0.053584
O O16 0.496102 0.731399 0.606593
O O17 0.531661 0.000000 0.626947
O O18 0.311222 0.000000 0.797292
O O19 0.801524 0.500000 0.012390
O O20 0.750000 0.750000 0.000000
O O21 0.924863 0.000000 0.568481
#
# Coordination Sequence:
#
# PCOD9190749 Si02
#       8
#     8   8   8   8   8   8   8   8
#     4   9  16  26  43  67  92 119 153 192 232 274
#     4   9  18  32  49  70  97 128 160 193 232 279
#     4  10  20  33  49  70  96 125 157 192 233 280
#     4   8  14  26  43  64  91 120 152 191 232 272
#     4   8  14  26  44  65  90 120 153 190 230 271
#     4  10  20  32  48  71  97 125 156 192 235 280
#     4   9  18  31  48  71  98 128 159 193 234 279
#     4   9  16  26  43  68  94 119 151 191 232 273
#
# _framework density 21.450319
#
# number of rings (size 3 to 8) (size 9 to 14) (size 15 to 20)
#    0.000    3.000    0.000    3.000    0.000    6.000 
#    0.000    2.500    0.000    1.500    0.000   10.500 
#    0.000    0.000    0.000    0.000    0.000    0.000 
#
# Total GULP energy -178638.777454 kJ/mol
# GULP energy per Si atom -5582.461795 kJ/mol
# Density = 2.140150 g / cm^3
# Si number density = 21.450319 Si / 1000 Ang^3
#
#
#
# Elastic Constant Matrix: (Units=GPa)
#
#
# Indices 1 2 3 4 5 6 
#
# 1 106.9507 114.9401 28.7525 0.0000 46.7654 0.0000
# 2 114.9401 205.7674 38.5302 0.0000 57.5387 0.0000
# 3 28.7525 38.5302 62.2559 0.0000 10.8918 0.0000
# 4 0.0000 0.0000 0.0000 17.0610 0.0000 13.2207
# 5 46.7654 57.5387 10.8918 0.0000 49.5275 0.0000
# 6 0.0000 0.0000 0.0000 13.2207 0.0000 33.6897
#
#
#
# Elastic Compliance Matrix: (Units=1/GPa)
#
#
# Indices 1 2 3 4 5 6 
#
# 1 0.028238 -0.011634 -0.003683 0.000000 -0.012337 0.000000
# 2 -0.011634 0.012622 -0.001867 0.000000 -0.003268 0.000000
# 3 -0.003683 -0.001867 0.018649 0.000000 0.001545 0.000000
# 4 0.000000 0.000000 0.000000 0.084225 0.000000 -0.033052
# 5 -0.012337 -0.003268 0.001545 0.000000 0.035297 0.000000
# 6 0.000000 0.000000 0.000000 -0.033052 0.000000 0.042653
#
#
# Mechanical properties :
#
#
# Convention : Reuss Voigt Hill
#
# Bulk Modulus (GPa) = 39.77544 82.15774 60.96659
# Shear Modulus (GPa) = 18.90852 32.90574 25.90713
#
# Velocity S-wave (km/s) = 2.97223 3.92094 3.47907
# Velocity P-wave (km/s) = 5.51019 7.67352 6.68001
#
# Compressibility (1/GPa) = 0.02514114
#
# Stress axis : x y z
#
# Youngs Moduli (GPa) = 35.41344 79.22776 53.62311
#
# Poissons Ratio (x) = 0.92173 0.19748
# Poissons Ratio (y) = 0.41200 0.10011
# Poissons Ratio (z) = 0.13042 0.14791
#
# Static dielectric constant tensor:
#      x y z
#    x 1.778210 0.000000 -0.043630 
#    y 0.000000 1.757740 0.000000 
#    z -0.043630 0.000000 1.827220 
# 
# From -- ./inp_files/323715.got.cif
#   From: 2010.05.17/outbox.cif.g08.bks.cpg/sg12_162_cif.got.tgz:323715.got - 2010.06.03 13:09:07.
