data_PCOD9190234
_publ_section_title
;
Structure prediction by ZEFSAII (Michael W. Deem and Ramdas Pophale) SiO2 
 PCOD9190234
Probable space group: C 2/M
;
_chemical_formula_sum "Si O2"
_cell_formula_units_Z 42
_cell_length_a 9.077624
_cell_length_b 15.893424
_cell_length_c 15.130558
_cell_angle_alpha 90.000000
_cell_angle_beta 122.930510
_cell_angle_gamma 90.000000
_cell_volume 1832.219968
_symmetry_space_group_name_H-M "C 2/M"
_symmetry_group_IT_number 12
_symmetry_cell_setting 'monoclinic'
loop_
_space_group_symop_operation_xyz
x,y,z
-x,y,-z
-x,-y,-z
x,-y,z
1/2+x,1/2+y,z
1/2-x,1/2+y,-z
1/2-x,1/2-y,-z
1/2+x,1/2-y,z
loop_
_atom_site_type_symbol
_atom_site_label
_atom_site_fract_x
_atom_site_fract_y
_atom_site_fract_z
Si Si1 0.468362 0.813640 0.807643
Si Si2 0.000000 0.500000 0.500000
Si Si3 0.318894 0.405461 0.981928
Si Si4 0.053553 0.344406 0.400996
Si Si5 0.871541 0.140560 0.193563
Si Si6 0.547468 0.347387 0.420393
O O1 0.650644 0.851203 0.902095
O O2 0.424933 0.853212 0.697487
O O3 0.313441 0.828347 0.826409
O O4 0.504831 0.716588 0.798913
O O5 0.037909 0.424820 0.586593
O O6 0.296164 0.500000 0.938766
O O7 0.500000 0.370854 0.000000
O O8 0.336036 0.409361 0.093180
O O9 0.243697 0.343204 0.509648
O O10 0.976739 0.250025 0.391696
O O11 0.972042 0.104311 0.311678
O O12 0.500000 0.383849 0.500000
#
# Coordination Sequence:
#
# PCOD9190234 Si02
#       6
#     8   2   8   8   8   8
#     4  11  23  41  70  99 131 174 222 277 328 410
#     4  12  24  40  58 104 140 174 224 282 332 402
#     4  11  26  47  66  92 130 174 222 282 344 401
#     4  10  23  38  66  99 136 177 218 268 337 387
#     4  11  23  41  71 100 131 173 226 275 332 393
#     4  10  19  42  66  95 132 177 222 265 316 410
#
# _framework density 22.923013000000001
#
# number of rings (size 3 to 8) (size 9 to 14) (size 15 to 20)
#    0.000    1.333    2.857    2.286    1.333    3.048 
#    5.143    0.476    0.000    0.000    0.000    0.000 
#    0.000    0.000    0.000    0.000    0.000    0.000 
#
# Total GULP energy -117077.399748 kJ/mol
# GULP energy per Si atom -5575.114274 kJ/mol
# Density = 2.287084 g / cm^3
# Si number density = 22.923013 Si / 1000 Ang^3
#
#
#
# Elastic Constant Matrix: (Units=GPa)
#
#
# Indices 1 2 3 4 5 6 
#
# 1 110.1568 6.2360 37.4737 0.0000 -17.1789 0.0000
# 2 6.2360 58.9773 20.6367 0.0000 -8.6494 0.0000
# 3 37.4737 20.6367 135.6921 0.0000 -8.6649 0.0000
# 4 0.0000 0.0000 0.0000 -0.7872 0.0000 -15.6704
# 5 -17.1789 -8.6494 -8.6649 0.0000 44.4078 0.0000
# 6 0.0000 0.0000 0.0000 -15.6704 0.0000 1.8300
#
#
#
# Elastic Compliance Matrix: (Units=1/GPa)
#
#
# Indices 1 2 3 4 5 6 
#
# 1 0.010554 0.000374 -0.002740 0.000000 0.003621 0.000000
# 2 0.000374 0.018324 -0.002686 0.000000 0.003189 0.000000
# 3 -0.002740 -0.002686 0.008540 0.000000 0.000083 0.000000
# 4 0.000000 0.000000 0.000000 -0.007409 0.000000 -0.063442
# 5 0.003621 0.003189 0.000083 0.000000 0.024557 0.000000
# 6 0.000000 0.000000 0.000000 -0.063442 0.000000 0.003187
#
#
# Mechanical properties :
#
#
# Convention : Reuss Voigt Hill
#
# Bulk Modulus (GPa) = 36.61334 48.16877 42.39105
# Shear Modulus (GPa) = 64.96714 25.12211 45.04463
#
# Velocity S-wave (km/s) = 5.32944 3.31408 4.43769
# Velocity P-wave (km/s) = 7.34014 5.97521 6.69256
#
# Compressibility (1/GPa) = 0.02731245
#
# Stress axis : x y z
#
# Youngs Moduli (GPa) = 94.75402 54.57360 117.09262
#
# Poissons Ratio (x) = -0.02041 0.32086
# Poissons Ratio (y) = -0.03543 0.31455
# Poissons Ratio (z) = 0.25965 0.14661
#
# Static dielectric constant tensor:
#      x y z
#    x 1.863950 0.000000 -0.019430 
#    y 0.000000 1.839530 0.000000 
#    z -0.019430 0.000000 1.874790 
# 
# From -- ./inp_files/196076.got.cif
#   From: 2010.05.17/outbox.cif.g08.bks.cpg/sg12_99_cif.got.tgz:196076.got - 2010.06.03 13:09:07.
