data_PCOD9190218
_publ_section_title
;
Structure prediction by ZEFSAII (Michael W. Deem and Ramdas Pophale) SiO2 
 PCOD9190218
Probable space group: C 2/M
;
_chemical_formula_sum "Si O2"
_cell_formula_units_Z 64
_cell_length_a 18.801453
_cell_length_b 28.922923
_cell_length_c 8.816733
_cell_angle_alpha 90.000000
_cell_angle_beta 141.553527
_cell_angle_gamma 90.000000
_cell_volume 2981.125723
_symmetry_space_group_name_H-M "C 2/M"
_symmetry_group_IT_number 12
_symmetry_cell_setting 'monoclinic'
loop_
_space_group_symop_operation_xyz
x,y,z
-x,y,-z
-x,-y,-z
x,-y,z
1/2+x,1/2+y,z
1/2-x,1/2+y,-z
1/2-x,1/2-y,-z
1/2+x,1/2-y,z
loop_
_atom_site_type_symbol
_atom_site_label
_atom_site_fract_x
_atom_site_fract_y
_atom_site_fract_z
Si Si1 0.966863 0.451107 0.766331
Si Si2 0.316121 0.869253 0.589514
Si Si3 0.820488 0.400838 0.948697
Si Si4 0.590498 0.627873 0.021797
Si Si5 0.840470 0.300985 0.059447
Si Si6 0.384811 0.445289 0.207364
Si Si7 0.632634 0.227672 0.234609
Si Si8 0.413125 0.295655 0.229768
O O1 0.915408 0.500000 0.636349
O O2 0.883898 0.408441 0.613572
O O3 0.085382 0.440574 0.884249
O O4 0.000000 0.452279 0.000000
O O5 0.297522 0.887626 0.732210
O O6 0.202728 0.861176 0.306183
O O7 0.384761 0.821431 0.710682
O O8 0.710094 0.419031 0.850442
O O9 0.873398 0.354442 0.110393
O O10 0.500000 0.616591 0.000000
O O11 0.602564 0.585355 0.924171
O O12 0.563724 0.674036 0.880035
O O13 0.925639 0.259947 0.247178
O O14 0.821551 0.285393 0.855013
O O15 0.720205 0.300893 0.948153
O O16 0.500000 0.443887 0.500000
O O17 0.358937 0.500000 0.136474
O O18 0.750000 0.250000 0.500000
O O19 0.500000 0.247357 0.000000
O O20 0.500000 0.314330 0.500000
#
# Coordination Sequence:
#
# PCOD9190218 Si02
#       8
#     8   8   8   8   8   8   8   8
#     4   9  18  36  64  96 128 168 215 268 333 404
#     4  10  22  39  65  97 137 172 225 283 343 401
#     4  10  19  41  68  97 129 173 219 273 334 413
#     4  12  26  43  69  99 134 180 229 283 347 413
#     4  10  23  41  65  97 133 180 229 277 336 407
#     4  11  24  43  68  98 133 176 227 282 348 420
#     4  11  24  41  67 102 145 185 234 290 346 411
#     4  11  25  44  67  94 134 180 226 278 337 410
#
# _framework density 21.468399999999999
#
# number of rings (size 3 to 8) (size 9 to 14) (size 15 to 20)
#    0.000    1.500    1.250    4.125    5.250    2.250 
#    4.500    0.625    0.000    1.500    0.000    0.000 
#    0.000    0.000    0.000    0.000    0.000    0.000 
#
# Total GULP energy -178430.039386 kJ/mol
# GULP energy per Si atom -5575.938731 kJ/mol
# Density = 2.141954 g / cm^3
# Si number density = 21.468400 Si / 1000 Ang^3
#
#
#
# Elastic Constant Matrix: (Units=GPa)
#
#
# Indices 1 2 3 4 5 6 
#
# 1 114.4277 45.1280 18.1275 0.0000 4.2010 0.0000
# 2 45.1280 138.4679 36.4265 0.0000 1.0191 0.0000
# 3 18.1275 36.4265 82.4294 0.0000 3.2117 0.0000
# 4 0.0000 0.0000 0.0000 18.4446 0.0000 -9.0860
# 5 4.2010 1.0191 3.2117 0.0000 14.7688 0.0000
# 6 0.0000 0.0000 0.0000 -9.0860 0.0000 8.9254
#
#
#
# Elastic Compliance Matrix: (Units=1/GPa)
#
#
# Indices 1 2 3 4 5 6 
#
# 1 0.010174 -0.003094 -0.000772 0.000000 -0.002513 0.000000
# 2 -0.003094 0.009114 -0.003385 0.000000 0.000987 0.000000
# 3 -0.000772 -0.003385 0.013898 0.000000 -0.002569 0.000000
# 4 0.000000 0.000000 0.000000 0.108753 0.000000 0.110709
# 5 -0.002513 0.000987 -0.002569 0.000000 0.068915 0.000000
# 6 0.000000 0.000000 0.000000 0.110709 0.000000 0.224741
#
#
# Mechanical properties :
#
#
# Convention : Reuss Voigt Hill
#
# Bulk Modulus (GPa) = 53.52854 59.40990 56.46922
# Shear Modulus (GPa) = 10.95711 24.13729 17.54720
#
# Velocity S-wave (km/s) = 2.26162 3.35672 2.86203
# Velocity P-wave (km/s) = 5.63983 6.53886 6.10591
#
# Compressibility (1/GPa) = 0.01868162
#
# Stress axis : x y z
#
# Youngs Moduli (GPa) = 98.28975 109.72554 71.95505
#
# Poissons Ratio (x) = 0.33951 0.05556
# Poissons Ratio (y) = 0.30413 0.24360
# Poissons Ratio (z) = 0.07590 0.37147
#
# Static dielectric constant tensor:
#      x y z
#    x 1.808160 0.000000 0.018880 
#    y 0.000000 1.832200 0.000000 
#    z 0.018880 0.000000 1.835830 
# 
# From -- ./inp_files/80765.got.cif
#   From: 2010.05.17/outbox.cif.g08.bks.cpg/sg12_41_cif.got.tgz:80765.got - 2010.06.03 13:09:07.
