data_PCOD9190703
_publ_section_title
;
Structure prediction by ZEFSAII (Michael W. Deem and Ramdas Pophale) SiO2 
 PCOD9190703
Probable space group: C 2/M
;
_chemical_formula_sum "Si O2"
_cell_formula_units_Z 48
_cell_length_a 30.897285
_cell_length_b 7.283783
_cell_length_c 12.836644
_cell_angle_alpha 90.000000
_cell_angle_beta 133.692766
_cell_angle_gamma 90.000000
_cell_volume 2088.813998
_symmetry_space_group_name_H-M "C 2/M"
_symmetry_group_IT_number 12
_symmetry_cell_setting 'monoclinic'
loop_
_space_group_symop_operation_xyz
x,y,z
-x,y,-z
-x,-y,-z
x,-y,z
1/2+x,1/2+y,z
1/2-x,1/2+y,-z
1/2-x,1/2-y,-z
1/2+x,1/2-y,z
loop_
_atom_site_type_symbol
_atom_site_label
_atom_site_fract_x
_atom_site_fract_y
_atom_site_fract_z
Si Si1 0.184606 0.780884 0.442478
Si Si2 0.355675 0.723254 0.405754
Si Si3 0.319458 0.717204 0.118257
Si Si4 0.401866 0.276714 0.074063
Si Si5 0.070932 0.223893 0.112946
Si Si6 0.510903 0.722667 0.399291
O O1 0.250000 0.750000 0.500000
O O2 0.182661 0.714462 0.559218
O O3 0.123678 0.716761 0.281289
O O4 0.178070 0.000000 0.434462
O O5 0.351147 0.500000 0.394756
O O6 0.341215 0.790169 0.265630
O O7 0.424641 0.772850 0.536679
O O8 0.333487 0.500000 0.143282
O O9 0.348436 0.786570 0.059772
O O10 0.250000 0.750000 0.000000
O O11 0.400970 0.500000 0.067866
O O12 0.460206 0.219723 0.235510
O O13 0.405111 0.218334 0.960777
O O14 0.069194 0.000000 0.116788
O O15 0.000000 0.279584 0.000000
O O16 0.500000 0.784517 0.500000
O O17 0.508841 0.500000 0.400010
#
# Coordination Sequence:
#
# PCOD9190703 Si02
#       6
#     8   8   8   8   8   8
#     4  10  21  35  52  74 102 135 170 207 249 298
#     4   9  17  30  47  70  99 127 158 199 245 292
#     4  10  20  32  47  70  99 129 161 196 238 287
#     4   9  16  26  44  70  96 121 156 201 244 288
#     4   9  17  30  48  72 101 130 163 208 256 294
#     4   9  13  22  42  69  97 120 147 193 250 292
#
# _framework density 22.979547
#
# number of rings (size 3 to 8) (size 9 to 14) (size 15 to 20)
#    0.000    2.667    1.667    1.000    2.333    4.000 
#    0.000    0.000    0.000    0.500    0.000    5.833 
#    0.000    0.000    0.000    0.000    0.000    0.000 
#
# Total GULP energy -133916.974856 kJ/mol
# GULP energy per Si atom -5579.873952 kJ/mol
# Density = 2.292724 g / cm^3
# Si number density = 22.979547 Si / 1000 Ang^3
#
#
#
# Elastic Constant Matrix: (Units=GPa)
#
#
# Indices 1 2 3 4 5 6 
#
# 1 194.4548 1.6093 50.2718 0.0000 -6.0249 0.0000
# 2 1.6093 97.0598 -0.9709 0.0000 -6.5010 0.0000
# 3 50.2718 -0.9709 79.5288 0.0000 -0.7388 0.0000
# 4 0.0000 0.0000 0.0000 -18.0769 0.0000 9.5325
# 5 -6.0249 -6.5010 -0.7388 0.0000 43.5256 0.0000
# 6 0.0000 0.0000 0.0000 9.5325 0.0000 5.5269
#
#
#
# Elastic Compliance Matrix: (Units=1/GPa)
#
#
# Indices 1 2 3 4 5 6 
#
# 1 0.006175 -0.000089 -0.003897 0.000000 0.000775 0.000000
# 2 -0.000089 0.010410 0.000198 0.000000 0.001546 0.000000
# 3 -0.003897 0.000198 0.015038 0.000000 -0.000255 0.000000
# 4 0.000000 0.000000 0.000000 -0.028970 0.000000 0.049967
# 5 0.000775 0.001546 -0.000255 0.000000 0.023309 0.000000
# 6 0.000000 0.000000 0.000000 0.049967 0.000000 0.094754
#
#
# Mechanical properties :
#
#
# Convention : Reuss Voigt Hill
#
# Bulk Modulus (GPa) = 41.58841 52.54043 47.06442
# Shear Modulus (GPa) = 36.68191 27.53733 32.10962
#
# Velocity S-wave (km/s) = 3.99969 3.46546 3.74212
# Velocity P-wave (km/s) = 6.28230 6.23909 6.26073
#
# Compressibility (1/GPa) = 0.02404516
#
# Stress axis : x y z
#
# Youngs Moduli (GPa) = 161.94695 96.06211 66.50002
#
# Poissons Ratio (x) = 0.00859 0.25916
# Poissons Ratio (y) = 0.01448 -0.01317
# Poissons Ratio (z) = 0.63113 -0.01902
#
# Static dielectric constant tensor:
#      x y z
#    x 1.844500 0.000000 -0.015340 
#    y 0.000000 1.939300 0.000000 
#    z -0.015340 0.000000 1.889840 
# 
# From -- ./inp_files/164033.got.cif
#   From: 2010.05.17/outbox.cif.g08.bks.cpg/sg12_83_cif.got.tgz:164033.got - 2010.06.03 13:09:07.
