data_PCOD9190065
_publ_section_title
;
Structure prediction by ZEFSAII (Michael W. Deem and Ramdas Pophale) SiO2 
 PCOD9190065
Probable space group: C 2/M
;
_chemical_formula_sum "Si O2"
_cell_formula_units_Z 50
_cell_length_a 10.265535
_cell_length_b 16.272076
_cell_length_c 26.905230
_cell_angle_alpha 90.000000
_cell_angle_beta 36.840702
_cell_angle_gamma 90.000000
_cell_volume 2694.742607
_symmetry_space_group_name_H-M "C 2/M"
_symmetry_group_IT_number 12
_symmetry_cell_setting 'monoclinic'
loop_
_space_group_symop_operation_xyz
x,y,z
-x,y,-z
-x,-y,-z
x,-y,z
1/2+x,1/2+y,z
1/2-x,1/2+y,-z
1/2-x,1/2-y,-z
1/2+x,1/2-y,z
loop_
_atom_site_type_symbol
_atom_site_label
_atom_site_fract_x
_atom_site_fract_y
_atom_site_fract_z
Si Si1 0.929237 0.263077 0.687274
Si Si2 0.443727 0.284583 0.797626
Si Si3 0.681768 0.408838 0.309189
Si Si4 0.247408 0.907547 0.406970
Si Si5 0.872625 0.364279 0.883872
Si Si6 0.500000 0.500000 0.000000
Si Si7 0.426746 0.096946 0.078742
O O1 0.694159 0.288712 0.737580
O O2 0.922522 0.252760 0.748983
O O3 0.968131 0.170176 0.655764
O O4 0.102367 0.332923 0.621145
O O5 0.329676 0.222151 0.870782
O O6 0.315592 0.369642 0.839355
O O7 0.592206 0.500000 0.325821
O O8 0.745732 0.406219 0.347512
O O9 0.900487 0.395365 0.210156
O O10 0.000000 0.896712 0.500000
O O11 0.318363 0.000000 0.400837
O O12 0.683476 0.428571 0.933150
O O13 0.921390 0.358090 0.927550
O O14 0.443229 0.000000 0.084444
O O15 0.500000 0.109975 0.000000
#
# Coordination Sequence:
#
# PCOD9190065 Si02
#       7
#     8   8   8   8   8   2   8
#     4  11  21  40  65 100 119 168 215 255 317 390
#     4  11  23  40  66  90 126 163 218 264 317 382
#     4  10  19  39  66  87 126 174 204 253 317 390
#     4  10  22  41  66  99 134 165 208 264 318 384
#     4  11  22  40  60  90 122 167 217 256 315 381
#     4  12  24  36  66  92 116 172 230 264 298 396
#     4  11  24  43  59  86 127 164 209 274 330 365
#
# _framework density 18.554646999999999
#
# number of rings (size 3 to 8) (size 9 to 14) (size 15 to 20)
#    0.000    1.280    8.000    0.000    1.120    3.200 
#    0.000    0.000    0.000    0.480    0.000    0.000 
#    0.000    0.000    0.000    0.000    0.000    0.000 
#
# Total GULP energy -139198.436311 kJ/mol
# GULP energy per Si atom -5567.937452 kJ/mol
# Density = 1.851242 g / cm^3
# Si number density = 18.554647 Si / 1000 Ang^3
#
#
#
# Elastic Constant Matrix: (Units=GPa)
#
#
# Indices 1 2 3 4 5 6 
#
# 1 46.4195 8.9299 -0.3897 0.0001 -5.8944 -0.0005
# 2 8.9299 115.6171 20.7351 0.0009 -23.7732 -0.0003
# 3 -0.3897 20.7351 37.4856 0.0063 -11.1400 -0.0017
# 4 0.0001 0.0009 0.0063 36.7367 -0.0001 -12.3985
# 5 -5.8944 -23.7732 -11.1400 -0.0001 17.3229 0.0000
# 6 -0.0005 -0.0003 -0.0017 -12.3985 0.0000 21.5300
#
#
#
# Elastic Compliance Matrix: (Units=1/GPa)
#
#
# Indices 1 2 3 4 5 6 
#
# 1 0.022828 -0.000443 0.003227 0.000000 0.009235 0.000001
# 2 -0.000443 0.012202 -0.002253 0.000000 0.015146 0.000000
# 3 0.003227 -0.002253 0.033829 -0.000006 0.019761 -0.000001
# 4 0.000000 0.000000 -0.000006 0.033788 -0.000003 0.019457
# 5 0.009235 0.015146 0.019761 -0.000003 0.094363 0.000000
# 6 0.000001 0.000000 -0.000001 0.019457 0.000000 0.057652
#
#
# Mechanical properties :
#
#
# Convention : Reuss Voigt Hill
#
# Bulk Modulus (GPa) = 14.30206 28.67476 21.48841
# Shear Modulus (GPa) = 18.05667 26.46769 22.26218
#
# Velocity S-wave (km/s) = 3.12294 3.78096 3.46760
# Velocity P-wave (km/s) = 4.55285 5.87781 5.25724
#
# Compressibility (1/GPa) = 0.06992001
#
# Stress axis : x y z
#
# Youngs Moduli (GPa) = 43.80663 81.95533 29.56017
#
# Poissons Ratio (x) = 0.03631 -0.09538
# Poissons Ratio (y) = 0.01941 0.06660
# Poissons Ratio (z) = -0.14135 0.18465
#
# Static dielectric constant tensor:
#      x y z
#    x 1.641600 0.000000 0.016750 
#    y 0.000000 1.670860 0.000000 
#    z 0.016750 0.000000 1.621880 
# 
# From -- ./inp_files/356524.got.cif
#   From: 2010.05.17/outbox.cif.g08.bks.cpg/sg12_179_cif.got.tgz:356524.got - 2010.06.03 13:09:07.
