data_PCOD9190413
_publ_section_title
;
Structure prediction by ZEFSAII (Michael W. Deem and Ramdas Pophale) SiO2 
 PCOD9190413
Probable space group: C 2/M
;
_chemical_formula_sum "Si O2"
_cell_formula_units_Z 64
_cell_length_a 25.994662
_cell_length_b 7.786186
_cell_length_c 24.769877
_cell_angle_alpha 90.000000
_cell_angle_beta 133.948118
_cell_angle_gamma 90.000000
_cell_volume 3609.493887
_symmetry_space_group_name_H-M "C 2/M"
_symmetry_group_IT_number 12
_symmetry_cell_setting 'monoclinic'
loop_
_space_group_symop_operation_xyz
x,y,z
-x,y,-z
-x,-y,-z
x,-y,z
1/2+x,1/2+y,z
1/2-x,1/2+y,-z
1/2-x,1/2-y,-z
1/2+x,1/2-y,z
loop_
_atom_site_type_symbol
_atom_site_label
_atom_site_fract_x
_atom_site_fract_y
_atom_site_fract_z
Si Si1 0.417064 0.792764 0.655168
Si Si2 0.060054 0.794181 0.813720
Si Si3 0.983145 0.204070 0.098403
Si Si4 0.779981 0.793219 0.080916
Si Si5 0.359946 0.799165 0.820355
Si Si6 0.843009 0.291077 0.928354
Si Si7 0.309829 0.203583 0.670726
Si Si8 0.694410 0.795630 0.507302
O O1 0.498013 0.744820 0.726056
O O2 0.367844 0.727681 0.669463
O O3 0.380608 0.733480 0.572572
O O4 0.411989 0.000000 0.651593
O O5 0.035539 0.729791 0.855019
O O6 0.138705 0.728358 0.856052
O O7 0.065716 0.000000 0.822850
O O8 0.055333 0.285932 0.128449
O O9 0.995752 0.000000 0.110774
O O10 0.915673 0.237066 0.011046
O O11 0.724398 0.730484 0.085425
O O12 0.781847 0.000000 0.086945
O O13 0.750000 0.750000 0.000000
O O14 0.342100 0.726499 0.866160
O O15 0.322531 0.723731 0.739598
O O16 0.339869 0.000000 0.808281
O O17 0.842808 0.500000 0.927691
O O18 0.231453 0.226390 0.588121
O O19 0.323722 0.000000 0.683957
O O20 0.750000 0.750000 0.500000
O O21 0.691309 0.000000 0.510858
#
# Coordination Sequence:
#
# PCOD9190413 Si02
#       8
#     8   8   8   8   8   8   8   8
#     4   9  17  29  45  67  93 122 153 187 226 275
#     4  10  20  31  46  69  95 122 155 195 237 277
#     4  11  21  32  47  70  98 126 158 198 241 281
#     4  10  20  35  51  69  91 120 160 202 243 281
#     4  10  20  34  49  69  96 127 164 196 230 284
#     4  10  21  35  52  68  89 127 166 200 238 281
#     4   9  17  29  45  66  94 124 153 188 229 276
#     4   9  17  28  43  66  95 124 154 186 224 276
#
# _framework density 17.731017999999999
#
# number of rings (size 3 to 8) (size 9 to 14) (size 15 to 20)
#    0.000    2.250    2.500    1.875    0.000    6.000 
#    0.000    0.000    0.000    0.000    0.000    0.875 
#    0.000    7.000    0.000    0.000    0.000    0.000 
#
# Total GULP energy -178426.021315 kJ/mol
# GULP energy per Si atom -5575.813166 kJ/mol
# Density = 1.769066 g / cm^3
# Si number density = 17.731018 Si / 1000 Ang^3
#
#
#
# Elastic Constant Matrix: (Units=GPa)
#
#
# Indices 1 2 3 4 5 6 
#
# 1 97.2014 -5.4962 72.7154 0.0000 -6.6437 0.0000
# 2 -5.4962 16.4601 -12.1986 0.0000 -3.2691 0.0005
# 3 72.7154 -12.1986 157.3242 0.0000 10.9988 0.0000
# 4 0.0000 0.0000 0.0000 23.7389 0.0000 2.4030
# 5 -6.6437 -3.2691 10.9988 0.0000 16.0304 0.0000
# 6 0.0000 0.0005 0.0000 2.4030 0.0000 7.2567
#
#
#
# Elastic Compliance Matrix: (Units=1/GPa)
#
#
# Indices 1 2 3 4 5 6 
#
# 1 0.018387 0.002084 -0.009348 0.000000 0.014459 0.000000
# 2 0.002084 0.066323 0.003333 0.000001 0.012102 -0.000005
# 3 -0.009348 0.003333 0.011721 0.000000 -0.011236 0.000000
# 4 0.000000 0.000001 0.000000 0.043586 0.000000 -0.014433
# 5 0.014459 0.012102 -0.011236 0.000000 0.078551 -0.000001
# 6 0.000000 -0.000005 0.000000 -0.014433 -0.000001 0.142584
#
#
# Mechanical properties :
#
#
# Convention : Reuss Voigt Hill
#
# Bulk Modulus (GPa) = 11.29063 42.33632 26.81348
# Shear Modulus (GPa) = 12.54592 23.80287 18.17440
#
# Velocity S-wave (km/s) = 2.66290 3.66791 3.20504
# Velocity P-wave (km/s) = 3.97948 6.47046 5.37137
#
# Compressibility (1/GPa) = 0.08856899
#
# Stress axis : x y z
#
# Youngs Moduli (GPa) = 54.38621 15.07781 85.31774
#
# Poissons Ratio (x) = -0.03142 0.79753
# Poissons Ratio (y) = -0.11332 -0.28440
# Poissons Ratio (z) = 0.50839 -0.05026
#
# Static dielectric constant tensor:
#      x y z
#    x 1.591810 0.000000 -0.007770 
#    y 0.000000 1.659890 0.000000 
#    z -0.007770 0.000000 1.632270 
# 
# From -- ./inp_files/324087.got.cif
#   From: 2010.05.17/outbox.cif.g08.bks.cpg/sg12_163_cif.got.tgz:324087.got - 2010.06.03 13:09:07.
