data_PCOD9190053
_publ_section_title
;
Structure prediction by ZEFSAII (Michael W. Deem and Ramdas Pophale) SiO2 
 PCOD9190053
Probable space group: C 2/M
;
_chemical_formula_sum "Si O2"
_cell_formula_units_Z 58
_cell_length_a 21.901468
_cell_length_b 9.640303
_cell_length_c 14.152746
_cell_angle_alpha 90.000000
_cell_angle_beta 85.333030
_cell_angle_gamma 90.000000
_cell_volume 2978.257937
_symmetry_space_group_name_H-M "C 2/M"
_symmetry_group_IT_number 12
_symmetry_cell_setting 'monoclinic'
loop_
_space_group_symop_operation_xyz
x,y,z
-x,y,-z
-x,-y,-z
x,-y,z
1/2+x,1/2+y,z
1/2-x,1/2+y,-z
1/2-x,1/2-y,-z
1/2+x,1/2-y,z
loop_
_atom_site_type_symbol
_atom_site_label
_atom_site_fract_x
_atom_site_fract_y
_atom_site_fract_z
Si Si1 0.129577 0.158631 0.319851
Si Si2 0.667813 0.342187 0.837687
Si Si3 0.988437 0.150933 0.800172
Si Si4 0.570137 0.664116 0.524889
Si Si5 0.500000 0.000000 0.000000
Si Si6 0.692759 0.835896 0.158660
Si Si7 0.090802 0.756902 0.022446
Si Si8 0.592518 0.834264 0.711430
O O1 0.113922 0.191858 0.429902
O O2 0.173533 0.261358 0.258435
O O3 0.064934 0.161186 0.271510
O O4 0.152331 0.000000 0.311129
O O5 0.668600 0.500000 0.800664
O O6 0.735567 0.311618 0.868312
O O7 0.649262 0.232802 0.759948
O O8 0.618274 0.330434 0.927558
O O9 0.033454 0.278612 0.777159
O O10 0.955431 0.158503 0.904918
O O11 0.019043 0.000000 0.784273
O O12 0.500000 0.686228 0.500000
O O13 0.575239 0.500000 0.549001
O O14 0.585588 0.762230 0.610429
O O15 0.553594 0.879520 0.999185
O O16 0.648399 0.779206 0.082815
O O17 0.682270 0.000000 0.167879
O O18 0.594152 0.000000 0.707422
#
# Coordination Sequence:
#
# PCOD9190053 Si02
#       8
#     8   8   8   8   2   8   8   8
#     4   9  19  36  63  95 122 160 208 256 313 381
#     4  11  25  44  64  85 121 175 228 264 305 372
#     4  10  20  37  61  88 125 166 206 255 312 384
#     4  10  19  39  65  91 126 167 208 254 318 396
#     4  12  24  36  58  96 136 158 194 262 344 368
#     4  10  22  42  65  91 125 169 215 266 312 373
#     4  11  23  39  63  93 130 165 210 258 323 379
#     4  12  26  38  58  92 130 161 206 268 328 377
#
# _framework density 19.474473
#
# number of rings (size 3 to 8) (size 9 to 14) (size 15 to 20)
#    0.000    1.517    2.069    2.897    3.862    2.483 
#    0.000    2.759    0.000    0.000    0.000    0.000 
#    0.000    0.000    0.000    0.000    0.000    0.000 
#
# Total GULP energy -161773.347452 kJ/mol
# GULP energy per Si atom -5578.391291 kJ/mol
# Density = 1.943015 g / cm^3
# Si number density = 19.474473 Si / 1000 Ang^3
#
#
#
# Elastic Constant Matrix: (Units=GPa)
#
#
# Indices 1 2 3 4 5 6 
#
# 1 59.4734 24.2875 14.6322 0.0000 6.5851 0.0000
# 2 24.2875 111.2755 44.3562 0.0000 12.1949 0.0000
# 3 14.6322 44.3562 103.3328 0.0000 5.1609 0.0000
# 4 0.0000 0.0000 0.0000 -1.3807 0.0000 1.5161
# 5 6.5851 12.1949 5.1609 0.0000 20.1540 0.0000
# 6 0.0000 0.0000 0.0000 1.5161 0.0000 25.5304
#
#
#
# Elastic Compliance Matrix: (Units=1/GPa)
#
#
# Indices 1 2 3 4 5 6 
#
# 1 0.018841 -0.003255 -0.001075 0.000000 -0.003911 0.000000
# 2 -0.003255 0.012026 -0.004448 0.000000 -0.005074 0.000000
# 3 -0.001075 -0.004448 0.011737 0.000000 0.000037 0.000000
# 4 0.000000 0.000000 0.000000 -0.679944 0.000000 0.040378
# 5 -0.003911 -0.005074 0.000037 0.000000 0.053957 0.000000
# 6 0.000000 0.000000 0.000000 0.040378 0.000000 0.036771
#
#
# Mechanical properties :
#
#
# Convention : Reuss Voigt Hill
#
# Bulk Modulus (GPa) = 39.92359 48.95926 44.44142
# Shear Modulus (GPa) = -9.60236 21.58115 5.98939
#
# Velocity S-wave (km/s) = -2.22294 3.33254 1.75562
# Velocity P-wave (km/s) = 3.73582 6.32476 5.19418
#
# Compressibility (1/GPa) = 0.02504785
#
# Stress axis : x y z
#
# Youngs Moduli (GPa) = 53.07531 83.15095 85.19909
#
# Poissons Ratio (x) = 0.27066 0.09162
# Poissons Ratio (y) = 0.17276 0.37897
# Poissons Ratio (z) = 0.05708 0.36986
#
# Static dielectric constant tensor:
#      x y z
#    x 1.685730 0.000000 0.004140 
#    y 0.000000 1.661510 0.000000 
#    z 0.004140 0.000000 1.693940 
# 
# From -- ./inp_files/237548.got.cif
#   From: 2010.05.17/outbox.cif.g08.bks.cpg/sg12_119_cif.got.tgz:237548.got - 2010.06.03 13:09:07.
