data_PCOD9190725
_publ_section_title
;
Structure prediction by ZEFSAII (Michael W. Deem and Ramdas Pophale) SiO2 
 PCOD9190725
Probable space group: C 2/M
;
_chemical_formula_sum "Si O2"
_cell_formula_units_Z 64
_cell_length_a 13.518817
_cell_length_b 32.461680
_cell_length_c 14.724401
_cell_angle_alpha 90.000000
_cell_angle_beta 146.392748
_cell_angle_gamma 90.000000
_cell_volume 3576.535701
_symmetry_space_group_name_H-M "C 2/M"
_symmetry_group_IT_number 12
_symmetry_cell_setting 'monoclinic'
loop_
_space_group_symop_operation_xyz
x,y,z
-x,y,-z
-x,-y,-z
x,-y,z
1/2+x,1/2+y,z
1/2-x,1/2+y,-z
1/2-x,1/2-y,-z
1/2+x,1/2-y,z
loop_
_atom_site_type_symbol
_atom_site_label
_atom_site_fract_x
_atom_site_fract_y
_atom_site_fract_z
Si Si1 0.801514 0.755754 0.326781
Si Si2 0.784503 0.685163 0.188663
Si Si3 0.826902 0.315895 0.920947
Si Si4 0.955183 0.165677 0.160712
Si Si5 0.213166 0.090277 0.345101
Si Si6 0.106367 0.952550 0.984993
Si Si7 0.502240 0.238007 0.213998
Si Si8 0.588528 0.095899 0.694245
O O1 0.716037 0.714587 0.216732
O O2 0.783974 0.792247 0.241022
O O3 0.706716 0.770106 0.346370
O O4 0.000000 0.743935 0.500000
O O5 0.898588 0.645339 0.300612
O O6 0.912428 0.714624 0.227395
O O7 0.630759 0.667633 0.005372
O O8 0.703155 0.345157 0.887944
O O9 0.000000 0.333551 0.000000
O O10 0.902725 0.280480 0.048068
O O11 0.123560 0.135386 0.289670
O O12 0.989568 0.213168 0.212485
O O13 0.380009 0.083407 0.540536
O O14 0.316474 0.084468 0.328343
O O15 0.036902 0.061902 0.200223
O O16 0.157490 0.000000 0.011297
O O17 0.281512 0.923975 0.130671
O O18 0.000000 0.949543 0.000000
#
# Coordination Sequence:
#
# PCOD9190725 Si02
#       8
#     8   8   8   8   8   8   8   8
#     4  11  22  30  42  64  92 125 170 217 251 289
#     4  11  20  33  46  66  95 128 175 214 250 289
#     4   9  18  34  47  62  85 121 170 213 252 290
#     4  11  18  33  51  66  90 132 171 211 253 291
#     4  10  21  32  49  76 101 130 166 202 249 293
#     4   9  18  35  55  71  95 132 163 194 243 301
#     4  10  20  32  48  63  85 132 177 210 248 290
#     4  10  21  33  46  75 106 128 162 210 244 287
#
# _framework density 17.894411000000002
#
# number of rings (size 3 to 8) (size 9 to 14) (size 15 to 20)
#    0.000    1.875    3.750    1.500    3.500    3.000 
#    0.000    2.500    0.000    0.000    0.000    0.000 
#    0.000    0.500    0.000    1.125    0.000    0.125 
#
# Total GULP energy -178268.758319 kJ/mol
# GULP energy per Si atom -5570.898697 kJ/mol
# Density = 1.785368 g / cm^3
# Si number density = 17.894411 Si / 1000 Ang^3
#
#
#
# Elastic Constant Matrix: (Units=GPa)
#
#
# Indices 1 2 3 4 5 6 
#
# 1 54.8464 -3.4001 19.4009 0.0000 16.4369 0.0000
# 2 -3.4001 48.4138 27.4303 0.0000 6.6765 0.0000
# 3 19.4009 27.4303 103.2146 0.0000 20.9351 0.0000
# 4 0.0000 0.0000 0.0000 9.8198 0.0000 0.5531
# 5 16.4369 6.6765 20.9351 0.0000 17.7744 0.0000
# 6 0.0000 0.0000 0.0000 0.5531 0.0000 11.1388
#
#
#
# Elastic Compliance Matrix: (Units=1/GPa)
#
#
# Indices 1 2 3 4 5 6 
#
# 1 0.026733 0.006244 -0.001569 0.000000 -0.025218 0.000000
# 2 0.006244 0.025830 -0.006437 0.000000 -0.007895 0.000000
# 3 -0.001569 -0.006437 0.014334 0.000000 -0.013014 0.000000
# 4 0.000000 0.000000 0.000000 0.102120 0.000000 -0.005071
# 5 -0.025218 -0.007895 -0.013014 0.000000 0.097875 0.000000
# 6 0.000000 0.000000 0.000000 -0.005071 0.000000 0.090028
#
#
# Mechanical properties :
#
#
# Convention : Reuss Voigt Hill
#
# Bulk Modulus (GPa) = 15.77974 32.59301 24.18637
# Shear Modulus (GPa) = 13.10386 18.61617 15.86002
#
# Velocity S-wave (km/s) = 2.70902 3.22892 2.98033
# Velocity P-wave (km/s) = 4.31537 5.67052 5.03871
#
# Compressibility (1/GPa) = 0.06337241
#
# Stress axis : x y z
#
# Youngs Moduli (GPa) = 37.40748 38.71531 69.76548
#
# Poissons Ratio (x) = -0.24175 0.10948
# Poissons Ratio (y) = -0.23358 0.44906
# Poissons Ratio (z) = 0.05870 0.24920
#
# Static dielectric constant tensor:
#      x y z
#    x 1.667700 0.000000 0.013300 
#    y 0.000000 1.601830 0.000000 
#    z 0.013300 0.000000 1.694140 
# 
# From -- ./inp_files/273194.got.cif
#   From: 2010.05.17/outbox.cif.g08.bks.cpg/sg12_137_cif.got.tgz:273194.got - 2010.06.03 13:09:07.
