data_PCOD9190785
_publ_section_title
;
Structure prediction by ZEFSAII (Michael W. Deem and Ramdas Pophale) SiO2 
 PCOD9190785
Probable space group: C 2/M
;
_chemical_formula_sum "Si O2"
_cell_formula_units_Z 56
_cell_length_a 27.662259
_cell_length_b 9.149670
_cell_length_c 14.034276
_cell_angle_alpha 90.000000
_cell_angle_beta 59.410492
_cell_angle_gamma 90.000000
_cell_volume 3057.758053
_symmetry_space_group_name_H-M "C 2/M"
_symmetry_group_IT_number 12
_symmetry_cell_setting 'monoclinic'
loop_
_space_group_symop_operation_xyz
x,y,z
-x,y,-z
-x,-y,-z
x,-y,z
1/2+x,1/2+y,z
1/2-x,1/2+y,-z
1/2-x,1/2-y,-z
1/2+x,1/2-y,z
loop_
_atom_site_type_symbol
_atom_site_label
_atom_site_fract_x
_atom_site_fract_y
_atom_site_fract_z
Si Si1 0.566259 0.673571 0.737322
Si Si2 0.333568 0.327749 0.875991
Si Si3 0.779439 0.327698 0.113177
Si Si4 0.534582 0.834307 0.064469
Si Si5 0.633637 0.673834 0.861955
Si Si6 0.936544 0.672766 0.448767
Si Si7 0.570689 0.172887 0.328308
O O1 0.557627 0.500000 0.742545
O O2 0.507601 0.752719 0.822482
O O3 0.608870 0.704971 0.781793
O O4 0.586428 0.735331 0.616236
O O5 0.336600 0.500000 0.895197
O O6 0.286591 0.307453 0.840404
O O7 0.392204 0.265156 0.781014
O O8 0.309980 0.240478 0.990018
O O9 0.790959 0.500000 0.107544
O O10 0.806641 0.245662 0.175272
O O11 0.547270 0.000000 0.083660
O O12 0.500000 0.843382 0.000000
O O13 0.589646 0.744180 0.981185
O O14 0.635319 0.500000 0.872919
O O15 0.926846 0.500000 0.443322
O O16 0.915432 0.711416 0.575589
O O17 0.004095 0.694539 0.383320
O O18 0.581836 0.000000 0.304305
#
# Coordination Sequence:
#
# PCOD9190785 Si02
#       7
#     8   8   8   8   8   8   8
#     4  10  20  32  48  73 105 137 169 212 260 303
#     4  10  21  36  55  79 105 134 170 215 263 307
#     4  10  21  36  54  77 104 137 175 211 255 311
#     4   9  17  29  45  66  95 134 173 204 243 299
#     4  10  20  33  49  72 103 136 171 213 259 304
#     4   9  19  35  54  77 104 137 176 211 251 308
#     4   9  19  36  56  77 103 136 173 214 258 304
#
# _framework density 18.314071999999999
#
# number of rings (size 3 to 8) (size 9 to 14) (size 15 to 20)
#    0.000    2.429    0.000    3.000    2.000    6.286 
#    0.000    1.429    0.000    0.857    0.000    0.000 
#    0.000    0.000    0.000    0.000    0.000    0.000 
#
# Total GULP energy -156286.167876 kJ/mol
# GULP energy per Si atom -5581.648853 kJ/mol
# Density = 1.827239 g / cm^3
# Si number density = 18.314072 Si / 1000 Ang^3
#
#
#
# Elastic Constant Matrix: (Units=GPa)
#
#
# Indices 1 2 3 4 5 6 
#
# 1 63.2579 31.5385 -1.0158 0.0000 14.0848 0.0000
# 2 31.5385 66.6368 9.5511 0.0000 7.9108 0.0000
# 3 -1.0158 9.5511 34.2062 0.0000 10.5516 0.0000
# 4 0.0000 0.0000 0.0000 11.3215 0.0000 2.8790
# 5 14.0848 7.9108 10.5516 0.0000 26.1766 0.0000
# 6 0.0000 0.0000 0.0000 2.8790 0.0000 29.3040
#
#
#
# Elastic Compliance Matrix: (Units=1/GPa)
#
#
# Indices 1 2 3 4 5 6 
#
# 1 0.024340 -0.011108 0.007799 0.000000 -0.012883 0.000000
# 2 -0.011108 0.020969 -0.006936 0.000000 0.002436 0.000000
# 3 0.007799 -0.006936 0.036602 0.000000 -0.016854 0.000000
# 4 0.000000 0.000000 0.000000 0.090590 0.000000 -0.008900
# 5 -0.012883 0.002436 -0.016854 0.000000 0.051192 0.000000
# 6 0.000000 0.000000 0.000000 -0.008900 0.000000 0.034999
#
#
# Mechanical properties :
#
#
# Convention : Reuss Voigt Hill
#
# Bulk Modulus (GPa) = 16.28155 27.13871 21.71013
# Shear Modulus (GPa) = 16.68568 21.62890 19.15729
#
# Velocity S-wave (km/s) = 3.02169 3.44030 3.23777
# Velocity P-wave (km/s) = 4.59169 5.53457 5.08504
#
# Compressibility (1/GPa) = 0.06141921
#
# Stress axis : x y z
#
# Youngs Moduli (GPa) = 41.08397 47.68898 27.32106
#
# Poissons Ratio (x) = 0.52975 -0.21307
# Poissons Ratio (y) = 0.45638 0.18951
# Poissons Ratio (z) = -0.32040 0.33079
#
# Static dielectric constant tensor:
#      x y z
#    x 1.677840 0.000000 0.025420 
#    y 0.000000 1.610900 0.000000 
#    z 0.025420 0.000000 1.607580 
# 
# From -- ./inp_files/248906.got.cif
#   From: 2010.05.17/outbox.cif.g08.bks.cpg/sg12_125_cif.got.tgz:248906.got - 2010.06.03 13:09:07.
