data_PCOD9190208
_publ_section_title
;
Structure prediction by ZEFSAII (Michael W. Deem and Ramdas Pophale) SiO2 
 PCOD9190208
Probable space group: C 2/M
;
_chemical_formula_sum "Si O2"
_cell_formula_units_Z 64
_cell_length_a 28.870593
_cell_length_b 19.136790
_cell_length_c 8.756725
_cell_angle_alpha 90.000000
_cell_angle_beta 143.161623
_cell_angle_gamma 90.000000
_cell_volume 2900.674595
_symmetry_space_group_name_H-M "C 2/M"
_symmetry_group_IT_number 12
_symmetry_cell_setting 'monoclinic'
loop_
_space_group_symop_operation_xyz
x,y,z
-x,y,-z
-x,-y,-z
x,-y,z
1/2+x,1/2+y,z
1/2-x,1/2+y,-z
1/2-x,1/2-y,-z
1/2+x,1/2-y,z
loop_
_atom_site_type_symbol
_atom_site_label
_atom_site_fract_x
_atom_site_fract_y
_atom_site_fract_z
Si Si1 0.016660 0.575986 0.223765
Si Si2 0.465224 0.211909 0.570399
Si Si3 0.312731 0.075743 0.421211
Si Si4 0.808351 0.298327 0.994910
Si Si5 0.269207 0.831595 0.568172
Si Si6 0.457763 0.638450 0.670272
Si Si7 0.814751 0.146650 0.098416
Si Si8 0.111506 0.083543 0.191862
O O1 0.986351 0.500000 0.195400
O O2 0.992627 0.643932 0.253360
O O3 0.109754 0.573995 0.472469
O O4 0.000000 0.582965 0.000000
O O5 0.500000 0.234990 0.500000
O O6 0.377961 0.190930 0.296206
O O7 0.466351 0.277267 0.687538
O O8 0.318339 0.136985 0.559792
O O9 0.306075 0.000000 0.481348
O O10 0.238347 0.089363 0.120265
O O11 0.813350 0.214493 0.985034
O O12 0.811394 0.336902 0.842547
O O13 0.729875 0.322785 0.870224
O O14 0.250000 0.750000 0.500000
O O15 0.190625 0.876850 0.363765
O O16 0.399075 0.623768 0.375726
O O17 0.417749 0.610606 0.719410
O O18 0.542655 0.604834 0.894048
O O19 0.120616 0.000000 0.218705
#
# Coordination Sequence:
#
# PCOD9190208 Si02
#       8
#     8   8   8   8   8   8   8   8
#     4  10  24  44  64  89 132 179 220 278 347 406
#     4  11  25  40  66 102 134 167 233 283 335 410
#     4  11  24  41  63  95 130 170 222 275 336 407
#     4  10  21  40  63  94 126 168 221 278 326 389
#     4  12  25  40  70  96 132 174 220 278 333 385
#     4  10  23  40  69  97 134 180 225 277 330 403
#     4  10  19  41  65  92 126 169 225 275 329 393
#     4  11  25  45  66 102 141 181 227 275 337 413
#
# _framework density 22.063834
#
# number of rings (size 3 to 8) (size 9 to 14) (size 15 to 20)
#    0.000    1.375    3.750    1.125    7.000    1.250 
#    0.000    1.250    0.000    3.000    0.000    0.000 
#    0.000    0.000    0.000    0.000    0.000    0.000 
#
# Total GULP energy -178756.290248 kJ/mol
# GULP energy per Si atom -5586.134070 kJ/mol
# Density = 2.201362 g / cm^3
# Si number density = 22.063834 Si / 1000 Ang^3
#
#
#
# Elastic Constant Matrix: (Units=GPa)
#
#
# Indices 1 2 3 4 5 6 
#
# 1 35.6866 28.5499 8.8147 0.0000 5.7829 0.0000
# 2 28.5499 143.4084 52.5267 0.0000 -3.6963 0.0000
# 3 8.8147 52.5267 96.4843 0.0000 7.0930 0.0000
# 4 0.0000 0.0000 0.0000 15.3856 0.0000 7.5797
# 5 5.7829 -3.6963 7.0930 0.0000 28.8712 0.0000
# 6 0.0000 0.0000 0.0000 7.5797 0.0000 11.4398
#
#
#
# Elastic Compliance Matrix: (Units=1/GPa)
#
#
# Indices 1 2 3 4 5 6 
#
# 1 0.035265 -0.007853 0.001677 0.000000 -0.008481 0.000000
# 2 -0.007853 0.010614 -0.005374 0.000000 0.004252 0.000000
# 3 0.001677 -0.005374 0.013455 0.000000 -0.004329 0.000000
# 4 0.000000 0.000000 0.000000 0.096492 0.000000 -0.063933
# 5 -0.008481 0.004252 -0.004329 0.000000 0.037943 0.000000
# 6 0.000000 0.000000 0.000000 -0.063933 0.000000 0.129774
#
#
# Mechanical properties :
#
#
# Convention : Reuss Voigt Hill
#
# Bulk Modulus (GPa) = 27.59828 50.59578 39.09703
# Shear Modulus (GPa) = 13.93840 23.51852 18.72846
#
# Velocity S-wave (km/s) = 2.51615 3.26840 2.91663
# Velocity P-wave (km/s) = 4.58005 6.10120 5.39451
#
# Compressibility (1/GPa) = 0.03623414
#
# Stress axis : x y z
#
# Youngs Moduli (GPa) = 28.35698 94.21171 74.32247
#
# Poissons Ratio (x) = 0.73989 -0.12465
# Poissons Ratio (y) = 0.22270 0.39938
# Poissons Ratio (z) = -0.04756 0.50626
#
# Static dielectric constant tensor:
#      x y z
#    x 1.873250 0.000000 0.040250 
#    y 0.000000 1.806700 0.000000 
#    z 0.040250 0.000000 1.860000 
# 
# From -- ./inp_files/112884.got.cif
#   From: 2010.05.17/outbox.cif.g08.bks.cpg/sg12_57_cif.got.tgz:112884.got - 2010.06.03 13:09:07.
