data_PCOD9190305
_publ_section_title
;
Structure prediction by ZEFSAII (Michael W. Deem and Ramdas Pophale) SiO2 
 PCOD9190305
Probable space group: C 2/M
;
_chemical_formula_sum "Si O2"
_cell_formula_units_Z 48
_cell_length_a 17.452390
_cell_length_b 17.732108
_cell_length_c 6.992418
_cell_angle_alpha 90.000000
_cell_angle_beta 73.574230
_cell_angle_gamma 90.000000
_cell_volume 2075.610662
_symmetry_space_group_name_H-M "C 2/M"
_symmetry_group_IT_number 12
_symmetry_cell_setting 'monoclinic'
loop_
_space_group_symop_operation_xyz
x,y,z
-x,y,-z
-x,-y,-z
x,-y,z
1/2+x,1/2+y,z
1/2-x,1/2+y,-z
1/2-x,1/2-y,-z
1/2+x,1/2-y,z
loop_
_atom_site_type_symbol
_atom_site_label
_atom_site_fract_x
_atom_site_fract_y
_atom_site_fract_z
Si Si1 0.811257 0.855921 0.171544
Si Si2 0.158217 0.693155 0.768728
Si Si3 0.130203 0.672604 0.246081
Si Si4 0.904661 0.000000 0.066910
Si Si5 0.907094 0.000000 0.616994
Si Si6 0.478316 0.914226 0.243604
Si Si7 0.161814 0.161745 0.306265
O O1 0.845352 0.782803 0.254300
O O2 0.715343 0.859091 0.259418
O O3 0.862471 0.928173 0.186795
O O4 0.825592 0.845691 0.933065
O O5 0.095559 0.643539 0.696847
O O6 0.249280 0.669297 0.672242
O O7 0.142232 0.682596 0.007378
O O8 0.118934 0.756155 0.344727
O O9 0.054932 0.617191 0.303208
O O10 0.886704 0.000000 0.855800
O O11 0.000000 0.000000 0.000000
O O12 0.875800 0.084475 0.588807
O O13 0.000000 0.000000 0.500000
O O14 0.458021 0.000000 0.310691
O O15 0.500000 0.915681 0.000000
#
# Coordination Sequence:
#
# PCOD9190305 Si02
#       7
#     8   8   8   4   4   8   8
#     4   8  15  26  40  59  89 126 155 187 229 288
#     4   8  14  24  37  58  88 121 152 188 238 287
#     4   8  14  25  38  58  88 123 153 182 236 292
#     4  10  20  30  46  73  95 127 169 200 242 288
#     4  10  20  32  48  71  97 127 163 210 250 282
#     4   9  16  21  33  60  91 122 149 189 243 288
#     4   8  15  27  42  59  86 124 156 187 236 292
#
# _framework density 23.125724000000002
#
# number of rings (size 3 to 8) (size 9 to 14) (size 15 to 20)
#    0.000    3.500    0.000    2.000    2.333    4.667 
#    0.000    0.000    0.000    0.000    0.000   10.500 
#    0.000    0.667    0.000    0.667    0.000    1.000 
#
# Total GULP energy -134003.231012 kJ/mol
# GULP energy per Si atom -5583.467959 kJ/mol
# Density = 2.307309 g / cm^3
# Si number density = 23.125724 Si / 1000 Ang^3
#
#
#
# Elastic Constant Matrix: (Units=GPa)
#
#
# Indices 1 2 3 4 5 6 
#
# 1 141.3669 143.8889 26.1778 0.0000 -13.0594 0.0000
# 2 143.8889 271.4647 44.6726 0.0000 -49.0600 0.0000
# 3 26.1778 44.6726 91.1502 0.0000 9.3992 0.0000
# 4 0.0000 0.0000 0.0000 16.4429 0.0000 -16.6541
# 5 -13.0594 -49.0600 9.3992 0.0000 43.7576 0.0000
# 6 0.0000 0.0000 0.0000 -16.6541 0.0000 27.7604
#
#
#
# Elastic Compliance Matrix: (Units=1/GPa)
#
#
# Indices 1 2 3 4 5 6 
#
# 1 0.016643 -0.010163 0.000883 0.000000 -0.006617 0.000000
# 2 -0.010163 0.011692 -0.003938 0.000000 0.010922 0.000000
# 3 0.000883 -0.003938 0.013372 0.000000 -0.007024 0.000000
# 4 0.000000 0.000000 0.000000 0.154998 0.000000 0.092987
# 5 -0.006617 0.010922 -0.007024 0.000000 0.034633 0.000000
# 6 0.000000 0.000000 0.000000 0.092987 0.000000 0.091808
#
#
# Mechanical properties :
#
#
# Convention : Reuss Voigt Hill
#
# Bulk Modulus (GPa) = 65.47931 103.71783 84.59857
# Shear Modulus (GPa) = 14.09756 36.87500 25.48628
#
# Velocity S-wave (km/s) = 2.47170 3.99751 3.32335
# Velocity P-wave (km/s) = 6.04332 8.13964 7.16852
#
# Compressibility (1/GPa) = 0.01527200
#
# Stress axis : x y z
#
# Youngs Moduli (GPa) = 60.08514 85.52577 74.78592
#
# Poissons Ratio (x) = 0.86918 -0.06606
# Poissons Ratio (y) = 0.61063 0.29451
# Poissons Ratio (z) = -0.05307 0.33680
#
# Static dielectric constant tensor:
#      x y z
#    x 1.836100 0.000000 0.089480 
#    y 0.000000 1.904390 0.000000 
#    z 0.089480 0.000000 1.941870 
# 
# From -- ./inp_files/157185.got.cif
#   From: 2010.05.17/outbox.cif.g08.bks.cpg/sg12_79_cif.got.tgz:157185.got - 2010.06.03 13:09:07.
