data_PCOD9190687
_publ_section_title
;
Structure prediction by ZEFSAII (Michael W. Deem and Ramdas Pophale) SiO2 
 PCOD9190687
Probable space group: C 2/M
;
_chemical_formula_sum "Si O2"
_cell_formula_units_Z 64
_cell_length_a 8.768632
_cell_length_b 29.073522
_cell_length_c 15.554147
_cell_angle_alpha 90.000000
_cell_angle_beta 75.546800
_cell_angle_gamma 90.000000
_cell_volume 3839.802325
_symmetry_space_group_name_H-M "C 2/M"
_symmetry_group_IT_number 12
_symmetry_cell_setting 'monoclinic'
loop_
_space_group_symop_operation_xyz
x,y,z
-x,y,-z
-x,-y,-z
x,-y,z
1/2+x,1/2+y,z
1/2-x,1/2+y,-z
1/2-x,1/2-y,-z
1/2+x,1/2-y,z
loop_
_atom_site_type_symbol
_atom_site_label
_atom_site_fract_x
_atom_site_fract_y
_atom_site_fract_z
Si Si1 0.745787 0.367022 0.149412
Si Si2 0.295050 0.689698 0.162238
Si Si3 0.096921 0.121069 0.727823
Si Si4 0.519853 0.553392 0.395308
Si Si5 0.976741 0.282262 0.107536
Si Si6 0.849877 0.447009 0.256117
Si Si7 0.829587 0.106069 0.031811
Si Si8 0.197732 0.553537 0.195492
O O1 0.574245 0.362642 0.216366
O O2 0.849988 0.321826 0.145042
O O3 0.821412 0.410775 0.185231
O O4 0.728641 0.377925 0.051769
O O5 0.291900 0.663679 0.255750
O O6 0.410253 0.732974 0.145099
O O7 0.356086 0.650714 0.087800
O O8 0.131966 0.705823 0.141079
O O9 0.163390 0.079050 0.774822
O O10 0.071971 0.095094 0.640106
O O11 0.500000 0.557127 0.500000
O O12 0.473101 0.500000 0.377385
O O13 0.704029 0.557810 0.342127
O O14 0.000000 0.281570 0.000000
O O15 0.847485 0.500000 0.225897
O O16 0.027815 0.438292 0.263133
O O17 0.704214 0.075026 0.099456
O O18 0.000000 0.082173 0.000000
O O19 0.226648 0.500000 0.188224
#
# Coordination Sequence:
#
# PCOD9190687 Si02
#       8
#     8   8   8   8   8   8   8   8
#     4  11  20  33  49  70  99 142 181 224 263 300
#     4  11  22  34  48  74 101 141 179 227 274 313
#     4  10  20  35  53  74 107 135 174 217 269 325
#     4   9  18  36  62  87 107 133 170 215 272 334
#     4  12  23  32  52  72 104 143 189 234 270 300
#     4   9  20  35  51  75 106 136 172 217 267 322
#     4  11  20  33  45  67 102 139 188 226 253 303
#     4  10  20  32  47  69 103 143 177 214 256 303
#
# _framework density 16.667525000000001
#
# number of rings (size 3 to 8) (size 9 to 14) (size 15 to 20)
#    0.000    1.625    3.750    3.375    0.000    1.250 
#    0.000    1.875    0.000    3.000    0.000    7.875 
#    0.000    0.000    0.000    0.250    0.000    0.000 
#
# Total GULP energy -178196.592419 kJ/mol
# GULP energy per Si atom -5568.643513 kJ/mol
# Density = 1.662959 g / cm^3
# Si number density = 16.667525 Si / 1000 Ang^3
#
#
#
# Elastic Constant Matrix: (Units=GPa)
#
#
# Indices 1 2 3 4 5 6 
#
# 1 71.1924 42.8201 20.8907 0.0000 5.2633 0.0000
# 2 42.8201 96.9077 44.7671 0.0000 1.6996 0.0000
# 3 20.8907 44.7671 69.5116 0.0000 7.8068 0.0000
# 4 0.0000 0.0000 0.0000 20.4187 0.0000 0.3136
# 5 5.2633 1.6996 7.8068 0.0000 14.2771 0.0000
# 6 0.0000 0.0000 0.0000 0.3136 0.0000 33.0687
#
#
#
# Elastic Compliance Matrix: (Units=1/GPa)
#
#
# Indices 1 2 3 4 5 6 
#
# 1 0.019679 -0.008805 0.000483 0.000000 -0.006471 0.000000
# 2 -0.008805 0.018810 -0.010208 0.000000 0.006589 0.000000
# 3 0.000483 -0.010208 0.022053 0.000000 -0.011022 0.000000
# 4 0.000000 0.000000 0.000000 0.048982 0.000000 -0.000465
# 5 -0.006471 0.006589 -0.011022 0.000000 0.077670 0.000000
# 6 0.000000 0.000000 0.000000 -0.000465 0.000000 0.030244
#
#
# Mechanical properties :
#
#
# Convention : Reuss Voigt Hill
#
# Bulk Modulus (GPa) = 42.58523 50.50750 46.54637
# Shear Modulus (GPa) = 19.06036 22.16184 20.61110
#
# Velocity S-wave (km/s) = 3.38533 3.65038 3.52035
# Velocity P-wave (km/s) = 6.39421 6.93799 6.67164
#
# Compressibility (1/GPa) = 0.02348232
#
# Stress axis : x y z
#
# Youngs Moduli (GPa) = 50.81519 53.16391 45.34615
#
# Poissons Ratio (x) = 0.46812 -0.02192
# Poissons Ratio (y) = 0.44744 0.46287
# Poissons Ratio (z) = -0.02456 0.54267
#
# Static dielectric constant tensor:
#      x y z
#    x 1.620120 0.000000 0.004070 
#    y 0.000000 1.567200 0.000000 
#    z 0.004070 0.000000 1.544870 
# 
# From -- ./inp_files/199806.got.cif
#   From: 2010.05.17/outbox.cif.g08.bks.cpg/sg12_100_cif.got.tgz:199806.got - 2010.06.03 13:09:07.
