data_PCOD9190978
_publ_section_title
;
Structure prediction by ZEFSAII (Michael W. Deem and Ramdas Pophale) SiO2 
 PCOD9190978
Probable space group: C 2/M
;
_chemical_formula_sum "Si O2"
_cell_formula_units_Z 56
_cell_length_a 21.881208
_cell_length_b 27.485312
_cell_length_c 18.005535
_cell_angle_alpha 90.000000
_cell_angle_beta 160.136489
_cell_angle_gamma 90.000000
_cell_volume 3679.396967
_symmetry_space_group_name_H-M "C 2/M"
_symmetry_group_IT_number 12
_symmetry_cell_setting 'monoclinic'
loop_
_space_group_symop_operation_xyz
x,y,z
-x,y,-z
-x,-y,-z
x,-y,z
1/2+x,1/2+y,z
1/2-x,1/2+y,-z
1/2-x,1/2-y,-z
1/2+x,1/2-y,z
loop_
_atom_site_type_symbol
_atom_site_label
_atom_site_fract_x
_atom_site_fract_y
_atom_site_fract_z
Si Si1 0.532878 0.555330 0.409313
Si Si2 0.714701 0.243128 0.138901
Si Si3 0.115992 0.845464 0.422521
Si Si4 0.206922 0.553561 0.152484
Si Si5 0.337651 0.712603 0.660255
Si Si6 0.981612 0.347822 0.065374
Si Si7 0.562163 0.751744 0.453417
O O1 0.545265 0.500000 0.391678
O O2 0.548607 0.601944 0.373613
O O3 0.351107 0.557199 0.250677
O O4 0.687104 0.559760 0.648759
O O5 0.672352 0.186188 0.076427
O O6 0.813265 0.245527 0.331129
O O7 0.860733 0.264608 0.248743
O O8 0.516937 0.266669 0.905094
O O9 0.096957 0.832985 0.313890
O O10 0.043963 0.799959 0.389362
O O11 0.328753 0.841764 0.679900
O O12 0.125080 0.500000 0.057623
O O13 0.068724 0.596378 0.987844
O O14 0.250000 0.750000 0.500000
O O15 0.173224 0.710024 0.530327
O O16 0.000000 0.333403 0.000000
#
# Coordination Sequence:
#
# PCOD9190978 Si02
#       7
#     8   8   8   8   8   8   8
#     4   9  17  31  45  61  87 120 160 195 227 263
#     4  11  19  33  50  67  86 124 159 195 228 270
#     4  11  20  30  43  68  92 123 151 190 231 272
#     4   9  18  29  43  63  86 118 163 203 222 252
#     4  10  20  33  44  66  97 119 154 188 232 276
#     4  12  18  27  44  63  93 119 161 198 223 264
#     4  10  20  32  51  66  90 120 159 193 230 268
#
# _framework density 15.219885
#
# number of rings (size 3 to 8) (size 9 to 14) (size 15 to 20)
#    0.000    1.714    5.714    2.143    0.000    5.429 
#    2.571    0.000    0.000    0.000    0.000    0.000 
#    0.000    2.286    0.000    3.143    0.000    0.000 
#
# Total GULP energy -155907.949928 kJ/mol
# GULP energy per Si atom -5568.141069 kJ/mol
# Density = 1.518524 g / cm^3
# Si number density = 15.219885 Si / 1000 Ang^3
#
#
#
# Elastic Constant Matrix: (Units=GPa)
#
#
# Indices 1 2 3 4 5 6 
#
# 1 64.1612 32.9975 5.0938 -0.0001 16.1543 0.0000
# 2 32.9975 67.6450 -4.8517 0.0000 3.3490 0.0000
# 3 5.0938 -4.8517 32.5690 -0.0001 11.0513 -0.0001
# 4 -0.0001 0.0000 -0.0001 2.7445 0.0000 -3.6587
# 5 16.1543 3.3490 11.0513 0.0000 17.1127 0.0000
# 6 0.0000 0.0000 -0.0001 -3.6587 0.0000 24.0416
#
#
#
# Elastic Compliance Matrix: (Units=1/GPa)
#
#
# Indices 1 2 3 4 5 6 
#
# 1 0.028229 -0.012308 0.002531 0.000002 -0.025874 0.000000
# 2 -0.012308 0.020738 0.003136 0.000000 0.005535 0.000000
# 3 0.002531 0.003136 0.040717 0.000003 -0.029298 0.000001
# 4 0.000002 0.000000 0.000003 0.457091 -0.000003 0.069561
# 5 -0.025874 0.005535 -0.029298 -0.000003 0.100699 -0.000001
# 6 0.000000 0.000000 0.000001 0.069561 -0.000001 0.052180
#
#
# Mechanical properties :
#
#
# Convention : Reuss Voigt Hill
#
# Bulk Modulus (GPa) = 13.08858 25.65048 19.36953
# Shear Modulus (GPa) = 6.77138 17.52214 12.14676
#
# Velocity S-wave (km/s) = 2.11156 3.39671 2.82810
# Velocity P-wave (km/s) = 3.81618 5.68097 4.83925
#
# Compressibility (1/GPa) = 0.07640247
#
# Stress axis : x y z
#
# Youngs Moduli (GPa) = 35.42441 48.22123 24.55997
#
# Poissons Ratio (x) = 0.59350 -0.06217
# Poissons Ratio (y) = 0.43600 -0.07702
# Poissons Ratio (z) = -0.08967 -0.15122
#
# Static dielectric constant tensor:
#      x y z
#    x 1.564590 0.000000 0.022630 
#    y 0.000000 1.517270 0.000000 
#    z 0.022630 0.000000 1.503270 
# 
# From -- ./inp_files/99714.got.cif
#   From: 2010.05.17/outbox.cif.g08.bks.cpg/sg12_50_cif.got.tgz:99714.got - 2010.06.03 13:09:07.
