data_PCOD9190106
_publ_section_title
;
Structure prediction by ZEFSAII (Michael W. Deem and Ramdas Pophale) SiO2 
 PCOD9190106
Probable space group: C 2/M
;
_chemical_formula_sum "Si O2"
_cell_formula_units_Z 42
_cell_length_a 18.801415
_cell_length_b 15.180922
_cell_length_c 7.404977
_cell_angle_alpha 90.000000
_cell_angle_beta 84.817821
_cell_angle_gamma 90.000000
_cell_volume 2104.910330
_symmetry_space_group_name_H-M "C 2/M"
_symmetry_group_IT_number 12
_symmetry_cell_setting 'monoclinic'
loop_
_space_group_symop_operation_xyz
x,y,z
-x,y,-z
-x,-y,-z
x,-y,z
1/2+x,1/2+y,z
1/2-x,1/2+y,-z
1/2-x,1/2-y,-z
1/2+x,1/2-y,z
loop_
_atom_site_type_symbol
_atom_site_label
_atom_site_fract_x
_atom_site_fract_y
_atom_site_fract_z
Si Si1 0.600311 0.838543 0.098333
Si Si2 0.000000 0.500000 0.000000
Si Si3 0.836903 0.266894 0.290383
Si Si4 0.743458 0.398659 0.835781
Si Si5 0.425772 0.295499 0.594695
Si Si6 0.211323 0.100365 0.270255
O O1 0.551847 0.922668 0.074083
O O2 0.674514 0.866974 0.177730
O O3 0.563675 0.765796 0.232827
O O4 0.623232 0.797859 0.900451
O O5 0.803831 0.170426 0.262731
O O6 0.889631 0.263233 0.446100
O O7 0.771199 0.333936 0.333239
O O8 0.737665 0.500000 0.777994
O O9 0.718610 0.393509 0.051085
O O10 0.500000 0.330457 0.500000
O O11 0.367082 0.368371 0.657209
O O12 0.225982 0.000000 0.319241
#
# Coordination Sequence:
#
# PCOD9190106 Si02
#       6
#     8   2   8   8   8   8
#     4  11  22  43  62  94 133 170 211 266 320 399
#     4  12  24  40  70  96 138 178 198 256 358 392
#     4  11  22  43  70  92 128 174 222 274 333 369
#     4  10  19  39  72  98 121 166 227 275 319 383
#     4  12  25  42  62  93 134 177 215 267 333 395
#     4  10  21  40  67  96 127 167 225 278 317 387
#
# _framework density 19.953344999999999
#
# number of rings (size 3 to 8) (size 9 to 14) (size 15 to 20)
#    0.000    1.143    4.762    2.857    1.333    1.143 
#    1.714    1.429    0.000    2.286    0.000    0.000 
#    0.000    0.000    0.000    0.000    0.000    0.000 
#
# Total GULP energy -117189.596046 kJ/mol
# GULP energy per Si atom -5580.456955 kJ/mol
# Density = 1.990793 g / cm^3
# Si number density = 19.953345 Si / 1000 Ang^3
#
#
#
# Elastic Constant Matrix: (Units=GPa)
#
#
# Indices 1 2 3 4 5 6 
#
# 1 61.6081 -7.7622 15.7601 0.0000 -12.4044 0.0000
# 2 -7.7622 72.1339 7.3905 0.0000 -2.0772 0.0000
# 3 15.7601 7.3905 65.9446 0.0000 -4.9331 0.0000
# 4 0.0000 0.0000 0.0000 -60.1428 0.0000 70.5636
# 5 -12.4044 -2.0772 -4.9331 0.0000 28.1894 0.0000
# 6 0.0000 0.0000 0.0000 70.5636 0.0000 -130.0889
#
#
#
# Elastic Compliance Matrix: (Units=1/GPa)
#
#
# Indices 1 2 3 4 5 6 
#
# 1 0.019280 0.002746 -0.004322 0.000000 0.007930 0.000000
# 2 0.002746 0.014432 -0.002132 0.000000 0.001899 0.000000
# 3 -0.004322 -0.002132 0.016498 0.000000 0.000828 0.000000
# 4 0.000000 0.000000 0.000000 -0.045730 0.000000 -0.024805
# 5 0.007930 0.001899 0.000828 0.000000 0.039249 0.000000
# 6 0.000000 0.000000 0.000000 -0.024805 0.000000 -0.021142
#
#
# Mechanical properties :
#
#
# Convention : Reuss Voigt Hill
#
# Bulk Modulus (GPa) = 23.36793 25.60706 24.48749
# Shear Modulus (GPa) = 112.95318 -20.12193 46.41563
#
# Velocity S-wave (km/s) = 7.53203 -3.17905 4.82831
# Velocity P-wave (km/s) = 9.34766 0.78348 6.58654
#
# Compressibility (1/GPa) = 0.04279370
#
# Stress axis : x y z
#
# Youngs Moduli (GPa) = 51.86752 69.29214 60.61319
#
# Poissons Ratio (x) = -0.19027 0.26198
# Poissons Ratio (y) = -0.14242 0.12920
# Poissons Ratio (z) = 0.22418 0.14770
#
# Static dielectric constant tensor:
#      x y z
#    x 1.677730 0.000000 -0.012300 
#    y 0.000000 1.671330 0.000000 
#    z -0.012300 0.000000 1.725250 
# 
# From -- ./inp_files/72982.got.cif
#   From: 2010.05.17/outbox.cif.g08.bks.cpg/sg12_37_cif.got.tgz:72982.got - 2010.06.03 13:09:07.
