data_PCOD9190293
_publ_section_title
;
Structure prediction by ZEFSAII (Michael W. Deem and Ramdas Pophale) SiO2 
 PCOD9190293
Probable space group: C 2/M
;
_chemical_formula_sum "Si O2"
_cell_formula_units_Z 64
_cell_length_a 14.289861
_cell_length_b 18.117790
_cell_length_c 20.550776
_cell_angle_alpha 90.000000
_cell_angle_beta 131.642752
_cell_angle_gamma 90.000000
_cell_volume 3976.105305
_symmetry_space_group_name_H-M "C 2/M"
_symmetry_group_IT_number 12
_symmetry_cell_setting 'monoclinic'
loop_
_space_group_symop_operation_xyz
x,y,z
-x,y,-z
-x,-y,-z
x,-y,z
1/2+x,1/2+y,z
1/2-x,1/2+y,-z
1/2-x,1/2-y,-z
1/2+x,1/2-y,z
loop_
_atom_site_type_symbol
_atom_site_label
_atom_site_fract_x
_atom_site_fract_y
_atom_site_fract_z
Si Si1 0.613191 0.410978 0.096235
Si Si2 0.665862 0.085030 0.481413
Si Si3 0.839888 0.584487 0.678613
Si Si4 0.411384 0.159276 0.372775
Si Si5 0.149563 0.088816 0.261367
Si Si6 0.592826 0.332613 0.603831
Si Si7 0.445826 0.588804 0.649076
Si Si8 0.391882 0.911470 0.222396
O O1 0.600041 0.500000 0.092918
O O2 0.613220 0.386040 0.171827
O O3 0.752302 0.397153 0.131909
O O4 0.500000 0.381927 0.000000
O O5 0.660579 0.086398 0.400340
O O6 0.549219 0.130285 0.454995
O O7 0.804817 0.110327 0.562923
O O8 0.651979 0.000000 0.496053
O O9 0.812271 0.500000 0.685642
O O10 0.731141 0.637105 0.653071
O O11 0.984315 0.602477 0.763004
O O12 0.287302 0.119438 0.342439
O O13 0.404544 0.245318 0.383827
O O14 0.402851 0.137196 0.292401
O O15 0.051833 0.107770 0.273226
O O16 0.160176 0.000000 0.265149
O O17 0.500000 0.349779 0.500000
O O18 0.539444 0.371284 0.643856
O O19 0.457600 0.500000 0.647168
O O20 0.396910 0.000000 0.242270
#
# Coordination Sequence:
#
# PCOD9190293 Si02
#       8
#     8   8   8   8   8   8   8   8
#     4   8  13  25  50  82 106 115 131 179 239 287
#     4   9  17  31  49  62  79 118 162 197 234 272
#     4   9  17  32  50  63  83 121 167 206 230 261
#     4  10  20  30  44  65  94 123 150 192 241 277
#     4   9  18  32  48  69  96 122 150 180 224 292
#     4  12  24  32  42  63  90 125 169 212 239 256
#     4  10  21  34  47  62  85 123 164 199 233 274
#     4   8  15  31  52  72  93 120 154 185 224 285
#
# _framework density 16.096152
#
# number of rings (size 3 to 8) (size 9 to 14) (size 15 to 20)
#    0.000    2.625    1.250    3.000    1.750    3.000 
#    0.000    1.875    0.000    0.000    0.000   14.875 
#    0.000    6.000    0.000    0.000    0.000    0.000 
#
# Total GULP energy -178209.708912 kJ/mol
# GULP energy per Si atom -5569.053404 kJ/mol
# Density = 1.605952 g / cm^3
# Si number density = 16.096152 Si / 1000 Ang^3
#
#
#
# Elastic Constant Matrix: (Units=GPa)
#
#
# Indices 1 2 3 4 5 6 
#
# 1 115.3260 46.9132 42.9310 0.0000 17.2277 0.0000
# 2 46.9132 42.9151 18.0414 0.0000 10.5887 0.0000
# 3 42.9310 18.0414 89.1331 0.0000 15.6373 0.0000
# 4 0.0000 0.0000 0.0000 5.4533 0.0000 -2.9450
# 5 17.2277 10.5887 15.6373 0.0000 19.1750 0.0000
# 6 0.0000 0.0000 0.0000 -2.9450 0.0000 13.8092
#
#
#
# Elastic Compliance Matrix: (Units=1/GPa)
#
#
# Indices 1 2 3 4 5 6 
#
# 1 0.017534 -0.016525 -0.004595 0.000000 -0.002881 0.000000
# 2 -0.016525 0.043422 0.000901 0.000000 -0.009866 0.000000
# 3 -0.004595 0.000901 0.014719 0.000000 -0.008373 0.000000
# 4 0.000000 0.000000 0.000000 0.207245 0.000000 0.044198
# 5 -0.002881 -0.009866 -0.008373 0.000000 0.067016 0.000000
# 6 0.000000 0.000000 0.000000 0.044198 0.000000 0.081841
#
#
# Mechanical properties :
#
#
# Convention : Reuss Voigt Hill
#
# Bulk Modulus (GPa) = 28.37922 51.46059 39.91991
# Shear Modulus (GPa) = 10.33140 16.98672 13.65906
#
# Velocity S-wave (km/s) = 2.53623 3.25211 2.91622
# Velocity P-wave (km/s) = 5.12308 6.79277 6.01613
#
# Compressibility (1/GPa) = 0.03523704
#
# Stress axis : x y z
#
# Youngs Moduli (GPa) = 57.03134 23.02974 67.94013
#
# Poissons Ratio (x) = 0.38057 0.31219
# Poissons Ratio (y) = 0.94246 -0.06123
# Poissons Ratio (z) = 0.26206 -0.02076
#
# Static dielectric constant tensor:
#      x y z
#    x 1.566880 0.000000 -0.005480 
#    y 0.000000 1.525390 0.000000 
#    z -0.005480 0.000000 1.565970 
# 
# From -- ./inp_files/340177.got.cif
#   From: 2010.05.17/outbox.cif.g08.bks.cpg/sg12_171_cif.got.tgz:340177.got - 2010.06.03 13:09:07.
