data_PCOD9190770
_publ_section_title
;
Structure prediction by ZEFSAII (Michael W. Deem and Ramdas Pophale) SiO2 
 PCOD9190770
Probable space group: C 2/M
;
_chemical_formula_sum "Si O2"
_cell_formula_units_Z 64
_cell_length_a 25.687529
_cell_length_b 7.376736
_cell_length_c 17.527186
_cell_angle_alpha 90.000000
_cell_angle_beta 56.049289
_cell_angle_gamma 90.000000
_cell_volume 2755.019931
_symmetry_space_group_name_H-M "C 2/M"
_symmetry_group_IT_number 12
_symmetry_cell_setting 'monoclinic'
loop_
_space_group_symop_operation_xyz
x,y,z
-x,y,-z
-x,-y,-z
x,-y,z
1/2+x,1/2+y,z
1/2-x,1/2+y,-z
1/2-x,1/2-y,-z
1/2+x,1/2-y,z
loop_
_atom_site_type_symbol
_atom_site_label
_atom_site_fract_x
_atom_site_fract_y
_atom_site_fract_z
Si Si1 0.133801 0.721143 0.084492
Si Si2 0.209462 0.719232 0.882032
Si Si3 0.005023 0.278598 0.822170
Si Si4 0.425495 0.211696 0.549580
Si Si5 0.200207 0.699090 0.604430
Si Si6 0.852353 0.290804 0.754902
Si Si7 0.930381 0.293335 0.379139
Si Si8 0.369867 0.777542 0.195713
O O1 0.136327 0.500000 0.084333
O O2 0.066401 0.771461 0.103845
O O3 0.137749 0.786470 0.168320
O O4 0.189001 0.780810 0.982987
O O5 0.212087 0.500000 0.879649
O O6 0.277943 0.784912 0.802170
O O7 0.156031 0.773654 0.865297
O O8 0.007680 0.500000 0.818417
O O9 0.022132 0.215394 0.722092
O O10 0.060501 0.220889 0.834121
O O11 0.500000 0.217725 0.500000
O O12 0.389698 0.289210 0.652288
O O13 0.416647 0.291348 0.472301
O O14 0.404517 0.000000 0.562115
O O15 0.220945 0.500000 0.611683
O O16 0.250000 0.750000 0.500000
O O17 0.134428 0.695632 0.613548
O O18 0.180600 0.790567 0.699767
O O19 0.873975 0.500000 0.742484
O O20 0.953094 0.500000 0.376069
O O21 0.371002 0.000000 0.197536
#
# Coordination Sequence:
#
# PCOD9190770 Si02
#       8
#     8   8   8   8   8   8   8   8
#     4   9  17  29  47  70  93 121 158 201 242 278
#     4  10  20  33  48  68  98 130 159 190 232 285
#     4   8  13  25  45  68  95 120 149 198 246 276
#     4   9  16  26  43  68  94 117 146 189 234 272
#     4   9  17  28  43  63  89 119 150 181 218 268
#     4  10  20  32  48  72  98 122 157 199 237 279
#     4   8  14  24  39  62  90 116 141 178 231 274
#     4   8  16  29  44  67  96 124 154 191 235 281
#
# _framework density 23.230322000000001
#
# number of rings (size 3 to 8) (size 9 to 14) (size 15 to 20)
#    0.000    3.125    0.000    2.625    1.750    3.500 
#    0.000    2.500    0.000    0.375    0.000   13.125 
#    0.000    0.000    0.000    0.000    0.000    0.000 
#
# Total GULP energy -178413.036410 kJ/mol
# GULP energy per Si atom -5575.407388 kJ/mol
# Density = 2.317745 g / cm^3
# Si number density = 23.230322 Si / 1000 Ang^3
#
#
#
# Elastic Constant Matrix: (Units=GPa)
#
#
# Indices 1 2 3 4 5 6 
#
# 1 76.6533 -5.2544 40.1064 0.0001 17.7750 -0.0004
# 2 -5.2544 76.9093 0.5396 0.0006 3.8428 -0.0016
# 3 40.1064 0.5396 129.0162 -0.0004 -0.6401 -0.0001
# 4 0.0001 0.0006 -0.0004 -14.2836 0.0000 1.1270
# 5 17.7750 3.8428 -0.6401 0.0000 35.6708 0.0002
# 6 -0.0004 -0.0016 -0.0001 1.1270 0.0002 -12.5764
#
#
#
# Elastic Compliance Matrix: (Units=1/GPa)
#
#
# Indices 1 2 3 4 5 6 
#
# 1 0.018376 0.001768 -0.005767 0.000000 -0.009451 -0.000001
# 2 0.001768 0.013243 -0.000617 0.000000 -0.002319 -0.000002
# 3 -0.005767 -0.000617 0.009562 0.000000 0.003112 0.000000
# 4 0.000000 0.000000 0.000000 -0.070509 0.000000 -0.006319
# 5 -0.009451 -0.002319 0.003112 0.000000 0.033049 0.000001
# 6 -0.000001 -0.000002 0.000000 -0.006319 0.000001 -0.080080
#
#
# Mechanical properties :
#
#
# Convention : Reuss Voigt Hill
#
# Bulk Modulus (GPa) = 31.29844 39.26245 35.28044
# Shear Modulus (GPa) = -88.52821 18.24131 -35.14345
#
# Velocity S-wave (km/s) = -6.17994 2.80525 -3.89373
# Velocity P-wave (km/s) = 6.11718 5.23743 2.23486
#
# Compressibility (1/GPa) = 0.03195048
#
# Stress axis : x y z
#
# Youngs Moduli (GPa) = 54.41987 75.50984 104.58497
#
# Poissons Ratio (x) = -0.13351 0.60310
# Poissons Ratio (y) = -0.09622 0.06448
# Poissons Ratio (z) = 0.31382 0.04655
#
# Static dielectric constant tensor:
#      x y z
#    x 1.849570 0.000000 0.019760 
#    y 0.000000 1.950270 0.000000 
#    z 0.019760 0.000000 1.908760 
# 
# From -- ./inp_files/289091.got.cif
#   From: 2010.05.17/outbox.cif.g08.bks.cpg/sg12_145_cif.got.tgz:289091.got - 2010.06.03 13:09:07.
