data_PCOD9190041
_publ_section_title
;
Structure prediction by ZEFSAII (Michael W. Deem and Ramdas Pophale) SiO2 
 PCOD9190041
Probable space group: C 2/M
;
_chemical_formula_sum "Si O2"
_cell_formula_units_Z 36
_cell_length_a 23.801251
_cell_length_b 13.658159
_cell_length_c 7.159248
_cell_angle_alpha 90.000000
_cell_angle_beta 138.252592
_cell_angle_gamma 90.000000
_cell_volume 1549.652778
_symmetry_space_group_name_H-M "C 2/M"
_symmetry_group_IT_number 12
_symmetry_cell_setting 'monoclinic'
loop_
_space_group_symop_operation_xyz
x,y,z
-x,y,-z
-x,-y,-z
x,-y,z
1/2+x,1/2+y,z
1/2-x,1/2+y,-z
1/2-x,1/2-y,-z
1/2+x,1/2-y,z
loop_
_atom_site_type_symbol
_atom_site_label
_atom_site_fract_x
_atom_site_fract_y
_atom_site_fract_z
Si Si1 0.214312 0.500000 0.719458
Si Si2 0.221525 0.290146 0.227176
Si Si3 0.556889 0.285087 0.902505
Si Si4 0.884925 0.294957 0.547907
Si Si5 0.384715 0.500000 0.883867
Si Si6 0.741446 0.500000 0.743446
O O1 0.153603 0.404415 0.553072
O O2 0.349486 0.500000 0.583669
O O3 0.256054 0.500000 0.027999
O O4 0.250000 0.250000 0.500000
O O5 0.303046 0.270967 0.303663
O O6 0.209469 0.404917 0.204277
O O7 0.135083 0.238744 0.961999
O O8 0.467282 0.236841 0.636463
O O9 0.585393 0.233982 0.168535
O O10 0.561897 0.401995 0.944716
O O11 0.295204 0.500000 0.778935
#
# Coordination Sequence:
#
# PCOD9190041 Si02
#       6
#     4   8   8   8   4   4
#     4  12  26  42  72 100 143 188 231 285 344 427
#     4  10  19  39  64  97 133 181 223 282 341 410
#     4  10  21  37  72  99 136 180 231 292 341 418
#     4  10  21  39  63 106 131 181 232 281 349 408
#     4  12  20  46  72 103 134 184 241 283 355 403
#     4  12  24  40  73 102 134 184 238 282 353 413
#
# _framework density 23.231010000000001
#
# number of rings (size 3 to 8) (size 9 to 14) (size 15 to 20)
#    0.000    1.333    6.667    1.333    0.000    6.222 
#    0.000    2.222    0.000    1.333    0.000    0.000 
#    0.000    0.000    0.000    0.000    0.000    0.000 
#
# Total GULP energy -100477.467703 kJ/mol
# GULP energy per Si atom -5582.081539 kJ/mol
# Density = 2.317814 g / cm^3
# Si number density = 23.231010 Si / 1000 Ang^3
#
#
#
# Elastic Constant Matrix: (Units=GPa)
#
#
# Indices 1 2 3 4 5 6 
#
# 1 119.5594 28.4348 70.4694 0.0000 32.9840 0.0000
# 2 28.4348 204.9127 35.6846 0.0000 13.9963 0.0000
# 3 70.4694 35.6846 124.1640 0.0000 12.7719 0.0000
# 4 0.0000 0.0000 0.0000 -52.9917 0.0000 36.9360
# 5 32.9840 13.9963 12.7719 0.0000 59.9859 0.0000
# 6 0.0000 0.0000 0.0000 36.9360 0.0000 11.4707
#
#
#
# Elastic Compliance Matrix: (Units=1/GPa)
#
#
# Indices 1 2 3 4 5 6 
#
# 1 0.014661 -0.000278 -0.007585 0.000000 -0.006382 0.000000
# 2 -0.000278 0.005191 -0.001253 0.000000 -0.000792 0.000000
# 3 -0.007585 -0.001253 0.012534 0.000000 0.001794 0.000000
# 4 0.000000 0.000000 0.000000 -0.005816 0.000000 0.018729
# 5 -0.006382 -0.000792 0.001794 0.000000 0.019983 0.000000
# 6 0.000000 0.000000 0.000000 0.018729 0.000000 0.026870
#
#
# Mechanical properties :
#
#
# Convention : Reuss Voigt Hill
#
# Bulk Modulus (GPa) = 70.64265 79.75708 75.19987
# Shear Modulus (GPa) = 51.88240 24.62947 38.25594
#
# Velocity S-wave (km/s) = 4.73093 3.25960 4.06243
# Velocity P-wave (km/s) = 7.76641 6.96946 7.37870
#
# Compressibility (1/GPa) = 0.01415575
#
# Stress axis : x y z
#
# Youngs Moduli (GPa) = 68.20704 192.64437 79.78251
#
# Poissons Ratio (x) = 0.05350 0.60513
# Poissons Ratio (y) = 0.01894 0.09995
# Poissons Ratio (z) = 0.51733 0.24135
#
# Static dielectric constant tensor:
#      x y z
#    x 2.418180 0.000000 -0.165620 
#    y 0.000000 1.877420 0.000000 
#    z -0.165620 0.000000 1.965430 
# 
# From -- ./inp_files/102959.got.cif
#   From: 2010.05.17/outbox.cif.g08.bks.cpg/sg12_52_cif.got.tgz:102959.got - 2010.06.03 13:09:07.
