data_PCOD9190004
_publ_section_title
;
Structure prediction by ZEFSAII (Michael W. Deem and Ramdas Pophale) SiO2 
 PCOD9190004
Probable space group: C 2/M
;
_chemical_formula_sum "Si O2"
_cell_formula_units_Z 52
_cell_length_a 15.857573
_cell_length_b 8.790884
_cell_length_c 34.945347
_cell_angle_alpha 90.000000
_cell_angle_beta 32.727787
_cell_angle_gamma 90.000000
_cell_volume 2633.743778
_symmetry_space_group_name_H-M "C 2/M"
_symmetry_group_IT_number 12
_symmetry_cell_setting 'monoclinic'
loop_
_space_group_symop_operation_xyz
x,y,z
-x,y,-z
-x,-y,-z
x,-y,z
1/2+x,1/2+y,z
1/2-x,1/2+y,-z
1/2-x,1/2-y,-z
1/2+x,1/2-y,z
loop_
_atom_site_type_symbol
_atom_site_label
_atom_site_fract_x
_atom_site_fract_y
_atom_site_fract_z
Si Si1 0.145781 0.817365 0.573480
Si Si2 0.688046 0.325418 0.196190
Si Si3 0.671564 0.175687 0.333156
Si Si4 0.579089 0.746439 0.824889
Si Si5 0.201401 0.000000 0.880966
Si Si6 0.841810 0.500000 0.904680
Si Si7 0.320429 0.321302 0.354592
Si Si8 0.911048 0.000000 0.939215
O O1 0.250000 0.750000 0.500000
O O2 0.200715 0.759024 0.594441
O O3 0.968654 0.768091 0.632315
O O4 0.154894 0.000000 0.570292
O O5 0.711737 0.500000 0.170457
O O6 0.798212 0.317251 0.191711
O O7 0.726121 0.163932 0.160489
O O8 0.505403 0.314774 0.275805
O O9 0.817957 0.176398 0.248251
O O10 0.726344 0.238846 0.353655
O O11 0.620406 0.000000 0.357112
O O12 0.458024 0.862338 0.853739
O O13 0.464670 0.639159 0.892716
O O14 0.212638 0.000000 0.921771
O O15 0.031150 0.000000 0.928292
O O16 0.760988 0.500000 0.977294
O O17 0.278693 0.500000 0.372152
#
# Coordination Sequence:
#
# PCOD9190004 Si02
#       8
#     8   8   8   8   4   4   8   4
#     4  11  24  43  65  93 131 170 204 256 318 381
#     4  10  19  39  62  92 125 166 215 274 323 381
#     4  11  22  40  66  96 121 163 220 266 311 380
#     4  11  21  37  66  92 123 168 218 269 322 381
#     4  10  23  38  62  90 125 172 219 269 333 392
#     4  12  23  38  60  95 130 166 215 276 326 392
#     4   9  20  38  63  89 127 167 210 258 320 378
#     4  10  23  42  60  87 131 175 213 261 340 396
#
# _framework density 19.743760000000002
#
# number of rings (size 3 to 8) (size 9 to 14) (size 15 to 20)
#    0.000    1.538    3.077    2.077    1.077    0.615 
#    4.154    3.077    0.000    1.846    0.000    0.000 
#    0.000    0.000    0.000    0.000    0.000    0.000 
#
# Total GULP energy -144822.274305 kJ/mol
# GULP energy per Si atom -5570.087473 kJ/mol
# Density = 1.969882 g / cm^3
# Si number density = 19.743760 Si / 1000 Ang^3
#
#
#
# Elastic Constant Matrix: (Units=GPa)
#
#
# Indices 1 2 3 4 5 6 
#
# 1 80.5710 19.7784 14.5929 -0.0015 27.4333 0.0241
# 2 19.7784 90.9762 23.1363 0.0787 9.9083 -0.0016
# 3 14.5929 23.1363 79.7476 -0.0016 17.6694 0.0165
# 4 -0.0015 0.0787 -0.0016 84.9979 0.0102 -30.0979
# 5 27.4333 9.9083 17.6694 0.0102 24.9231 -0.0237
# 6 0.0241 -0.0016 0.0165 -30.0979 -0.0237 7.6910
#
#
#
# Elastic Compliance Matrix: (Units=1/GPa)
#
#
# Indices 1 2 3 4 5 6 
#
# 1 0.020486 -0.002472 0.002072 0.000114 -0.023036 0.000308
# 2 -0.002472 0.012321 -0.003132 0.000014 0.000043 0.000073
# 3 0.002072 -0.003132 0.015777 0.000060 -0.012221 0.000156
# 4 0.000114 0.000014 0.000060 -0.030498 -0.000275 -0.119354
# 5 -0.023036 0.000043 -0.012221 -0.000275 0.074126 -0.000750
# 6 0.000308 0.000073 0.000156 -0.119354 -0.000750 -0.337062
#
#
# Mechanical properties :
#
#
# Convention : Reuss Voigt Hill
#
# Bulk Modulus (GPa) = 24.08420 40.70111 32.39265
# Shear Modulus (GPa) = -22.32669 36.44154 7.05743
#
# Velocity S-wave (km/s) = -3.36642 4.30085 1.89269
# Velocity P-wave (km/s) = 1.69867 6.73220 4.60636
#
# Compressibility (1/GPa) = 0.04152099
#
# Stress axis : x y z
#
# Youngs Moduli (GPa) = 48.81342 81.16193 63.38489
#
# Poissons Ratio (x) = 0.20063 -0.13135
# Poissons Ratio (y) = 0.12067 0.19851
# Poissons Ratio (z) = -0.10116 0.25418
#
# Static dielectric constant tensor:
#      x y z
#    x 1.692480 0.000000 0.032900 
#    y 0.000000 1.671770 -0.000010 
#    z 0.032900 -0.000010 1.670420 
# 
# From -- ./inp_files/375354.got.cif
#   From: 2010.05.17/outbox.cif.g08.bks.cpg/sg12_188_cif.got.tgz:375354.got - 2010.06.03 13:09:07.
