data_PCOD9190419
_publ_section_title
;
Structure prediction by ZEFSAII (Michael W. Deem and Ramdas Pophale) SiO2 
 PCOD9190419
Probable space group: C 2/M
;
_chemical_formula_sum "Si O2"
_cell_formula_units_Z 64
_cell_length_a 26.838098
_cell_length_b 9.955605
_cell_length_c 14.503234
_cell_angle_alpha 90.000000
_cell_angle_beta 107.782294
_cell_angle_gamma 90.000000
_cell_volume 3689.973820
_symmetry_space_group_name_H-M "C 2/M"
_symmetry_group_IT_number 12
_symmetry_cell_setting 'monoclinic'
loop_
_space_group_symop_operation_xyz
x,y,z
-x,y,-z
-x,-y,-z
x,-y,z
1/2+x,1/2+y,z
1/2-x,1/2+y,-z
1/2-x,1/2-y,-z
1/2+x,1/2-y,z
loop_
_atom_site_type_symbol
_atom_site_label
_atom_site_fract_x
_atom_site_fract_y
_atom_site_fract_z
Si Si1 0.697044 0.156018 0.564931
Si Si2 0.332675 0.253408 0.984385
Si Si3 0.926202 0.343967 0.162333
Si Si4 0.701762 0.841403 0.355951
Si Si5 0.150758 0.342194 0.725282
Si Si6 0.867935 0.847951 0.808886
Si Si7 0.991308 0.842901 0.887592
Si Si8 0.223607 0.144440 0.870235
O O1 0.680857 0.169820 0.449471
O O2 0.743212 0.261656 0.610996
O O3 0.652514 0.176847 0.616691
O O4 0.715620 0.000000 0.586442
O O5 0.355450 0.331735 0.910250
O O6 0.285050 0.162548 0.921074
O O7 0.378863 0.174653 0.062128
O O8 0.305195 0.343782 0.047275
O O9 0.941677 0.500000 0.174442
O O10 0.900557 0.302700 0.245964
O O11 0.972811 0.249685 0.155533
O O12 0.664241 0.763053 0.265054
O O13 0.707447 0.000000 0.337589
O O14 0.158259 0.500000 0.748857
O O15 0.199525 0.261966 0.795331
O O16 0.929971 0.829698 0.831369
O O17 0.853571 0.000000 0.772002
O O18 0.006211 0.000000 0.886057
O O19 0.000000 0.806657 0.000000
O O20 0.212182 0.000000 0.821573
#
# Coordination Sequence:
#
# PCOD9190419 Si02
#       8
#     8   8   8   8   8   8   8   8
#     4   9  18  36  57  77 107 144 172 202 253 313
#     4  10  20  32  47  69 102 138 171 204 248 304
#     4  10  20  34  52  76 101 129 169 218 263 300
#     4  10  21  34  53  82 110 134 171 218 256 299
#     4   9  19  34  52  73 101 135 170 204 250 312
#     4  11  22  36  54  73  99 139 176 210 256 311
#     4  10  21  38  55  73  99 135 179 217 256 312
#     4  10  20  31  46  71 102 135 171 208 243 290
#
# _framework density 17.344294999999999
#
# number of rings (size 3 to 8) (size 9 to 14) (size 15 to 20)
#    0.000    2.125    1.250    1.875    0.000   10.250 
#    0.000    0.000    0.000    0.750    0.000    5.250 
#    0.000    0.000    0.000    0.000    0.000    0.000 
#
# Total GULP energy -178469.563779 kJ/mol
# GULP energy per Si atom -5577.173868 kJ/mol
# Density = 1.730482 g / cm^3
# Si number density = 17.344295 Si / 1000 Ang^3
#
#
#
# Elastic Constant Matrix: (Units=GPa)
#
#
# Indices 1 2 3 4 5 6 
#
# 1 72.7537 30.4065 30.3164 0.0000 -26.5034 0.0000
# 2 30.4065 70.6628 29.1462 0.0000 -14.4722 0.0000
# 3 30.3164 29.1462 71.5034 0.0000 -25.7641 0.0000
# 4 0.0000 0.0000 0.0000 13.8237 0.0000 3.9033
# 5 -26.5034 -14.4722 -25.7641 0.0000 27.1337 0.0000
# 6 0.0000 0.0000 0.0000 3.9033 0.0000 13.6726
#
#
#
# Elastic Compliance Matrix: (Units=1/GPa)
#
#
# Indices 1 2 3 4 5 6 
#
# 1 0.023458 -0.005909 -0.000634 0.000000 0.019160 0.000000
# 2 -0.005909 0.018760 -0.005496 0.000000 -0.000985 0.000000
# 3 -0.000634 -0.005496 0.023128 0.000000 0.018410 0.000000
# 4 0.000000 0.000000 0.000000 0.078682 0.000000 -0.022462
# 5 0.019160 -0.000985 0.018410 0.000000 0.072525 0.000000
# 6 0.000000 0.000000 0.000000 -0.022462 0.000000 0.079552
#
#
# Mechanical properties :
#
#
# Convention : Reuss Voigt Hill
#
# Bulk Modulus (GPa) = 24.23162 43.85090 34.04126
# Shear Modulus (GPa) = 14.97282 19.26273 17.11778
#
# Velocity S-wave (km/s) = 2.94133 3.33620 3.14497
# Velocity P-wave (km/s) = 5.05337 6.33859 5.73212
#
# Compressibility (1/GPa) = 0.04126839
#
# Stress axis : x y z
#
# Youngs Moduli (GPa) = 42.62865 53.30578 43.23782
#
# Poissons Ratio (x) = 0.31497 0.02740
# Poissons Ratio (y) = 0.25188 0.23765
# Poissons Ratio (z) = 0.02701 0.29299
#
# Static dielectric constant tensor:
#      x y z
#    x 1.577080 0.000000 -0.034330 
#    y 0.000000 1.594040 0.000000 
#    z -0.034330 0.000000 1.593960 
# 
# From -- ./inp_files/244014.got.cif
#   From: 2010.05.17/outbox.cif.g08.bks.cpg/sg12_123_cif.got.tgz:244014.got - 2010.06.03 13:09:07.
