data_PCOD9190078
_publ_section_title
;
Structure prediction by ZEFSAII (Michael W. Deem and Ramdas Pophale) SiO2 
 PCOD9190078
Probable space group: C 2/M
;
_chemical_formula_sum "Si O2"
_cell_formula_units_Z 64
_cell_length_a 35.197660
_cell_length_b 8.543973
_cell_length_c 15.770599
_cell_angle_alpha 90.000000
_cell_angle_beta 43.487180
_cell_angle_gamma 90.000000
_cell_volume 3263.860804
_symmetry_space_group_name_H-M "C 2/M"
_symmetry_group_IT_number 12
_symmetry_cell_setting 'monoclinic'
loop_
_space_group_symop_operation_xyz
x,y,z
-x,y,-z
-x,-y,-z
x,-y,z
1/2+x,1/2+y,z
1/2-x,1/2+y,-z
1/2-x,1/2-y,-z
1/2+x,1/2-y,z
loop_
_atom_site_type_symbol
_atom_site_label
_atom_site_fract_x
_atom_site_fract_y
_atom_site_fract_z
Si Si1 0.653766 0.190528 0.235857
Si Si2 0.759383 0.186065 0.166018
Si Si3 0.539041 0.810983 0.860743
Si Si4 0.008882 0.814554 0.237133
Si Si5 0.542533 0.810881 0.506398
Si Si6 0.371328 0.813080 0.915847
Si Si7 0.763540 0.813743 0.615270
Si Si8 0.835391 0.311422 0.351147
O O1 0.713191 0.242146 0.173646
O O2 0.603671 0.239008 0.378398
O O3 0.640521 0.240021 0.161641
O O4 0.654186 0.000000 0.235421
O O5 0.736694 0.225424 0.295691
O O6 0.766524 0.000000 0.145004
O O7 0.817755 0.268448 0.056582
O O8 0.517285 0.756495 0.805181
O O9 0.602548 0.762244 0.769941
O O10 0.538016 0.000000 0.863659
O O11 0.500000 0.754010 0.000000
O O12 0.072504 0.762257 0.142189
O O13 0.977426 0.755693 0.372175
O O14 0.005523 0.000000 0.238642
O O15 0.500000 0.767146 0.500000
O O16 0.541649 0.000000 0.513676
O O17 0.378745 0.000000 0.903333
O O18 0.813449 0.764950 0.473117
O O19 0.708059 0.771626 0.652452
O O20 0.763891 0.000000 0.628825
O O21 0.833855 0.500000 0.363655
#
# Coordination Sequence:
#
# PCOD9190078 Si02
#       8
#     8   8   8   8   8   8   8   8
#     4   9  20  38  62  89 121 161 207 251 299 355
#     4  11  23  38  59  92 126 158 200 255 310 360
#     4  10  23  43  68  93 119 162 212 256 305 371
#     4  12  26  41  60  95 131 163 201 257 321 374
#     4  10  19  39  67  91 119 166 216 255 299 366
#     4  11  22  42  65  86 117 165 213 252 298 366
#     4  10  21  38  61  90 119 158 202 246 302 364
#     4   9  20  40  63  87 117 154 201 253 301 353
#
# _framework density 19.608678000000001
#
# number of rings (size 3 to 8) (size 9 to 14) (size 15 to 20)
#    0.000    1.750    1.250    2.625    3.500    1.500 
#    0.000    2.500    0.000    0.000    0.000    0.000 
#    0.000    0.000    0.000    0.000    0.000    0.000 
#
# Total GULP energy -178862.382219 kJ/mol
# GULP energy per Si atom -5589.449444 kJ/mol
# Density = 1.956405 g / cm^3
# Si number density = 19.608678 Si / 1000 Ang^3
#
#
#
# Elastic Constant Matrix: (Units=GPa)
#
#
# Indices 1 2 3 4 5 6 
#
# 1 48.9922 6.2513 25.5799 0.0000 3.0783 -0.0001
# 2 6.2513 6.9078 12.7513 0.0001 -2.2738 -0.0008
# 3 25.5799 12.7513 93.1597 0.0001 -6.2012 0.0001
# 4 0.0000 0.0001 0.0001 15.4407 0.0000 -10.6108
# 5 3.0783 -2.2738 -6.2012 0.0000 28.9491 -0.0001
# 6 -0.0001 -0.0008 0.0001 -10.6108 -0.0001 11.6388
#
#
#
# Elastic Compliance Matrix: (Units=1/GPa)
#
#
# Indices 1 2 3 4 5 6 
#
# 1 0.025372 -0.014895 -0.005261 -0.000001 -0.004995 -0.000002
# 2 -0.014895 0.205159 -0.023143 0.000025 0.012740 0.000038
# 3 -0.005261 -0.023143 0.015483 -0.000003 0.002058 -0.000005
# 4 -0.000001 0.000025 -0.000003 0.173394 0.000002 0.158078
# 5 -0.004995 0.012740 0.002058 0.000002 0.036516 0.000003
# 6 -0.000002 0.000038 -0.000005 0.158078 0.000003 0.230034
#
#
# Mechanical properties :
#
#
# Convention : Reuss Voigt Hill
#
# Bulk Modulus (GPa) = 6.27284 26.46941 16.37112
# Shear Modulus (GPa) = 6.05550 18.17088 12.11319
#
# Velocity S-wave (km/s) = 1.75923 3.04744 2.48815
# Velocity P-wave (km/s) = 2.70785 5.09025 4.07695
#
# Compressibility (1/GPa) = 0.15941754
#
# Stress axis : x y z
#
# Youngs Moduli (GPa) = 39.41286 4.87427 64.58496
#
# Poissons Ratio (x) = 0.07260 0.33975
# Poissons Ratio (y) = 0.58704 1.49471
# Poissons Ratio (z) = 0.20733 0.11281
#
# Static dielectric constant tensor:
#      x y z
#    x 1.666760 0.000000 -0.011830 
#    y 0.000000 1.667640 0.000000 
#    z -0.011830 0.000000 1.668100 
# 
# From -- ./inp_files/249819.got.cif
#   From: 2010.05.17/outbox.cif.g08.bks.cpg/sg12_125_cif.got.tgz:249819.got - 2010.06.03 13:09:07.
