data_PCOD9190473
_publ_section_title
;
Structure prediction by ZEFSAII (Michael W. Deem and Ramdas Pophale) SiO2 
 PCOD9190473
Probable space group: C 2/M
;
_chemical_formula_sum "Si O2"
_cell_formula_units_Z 56
_cell_length_a 22.774265
_cell_length_b 21.537396
_cell_length_c 17.071815
_cell_angle_alpha 90.000000
_cell_angle_beta 160.314795
_cell_angle_gamma 90.000000
_cell_volume 2820.697858
_symmetry_space_group_name_H-M "C 2/M"
_symmetry_group_IT_number 12
_symmetry_cell_setting 'monoclinic'
loop_
_space_group_symop_operation_xyz
x,y,z
-x,y,-z
-x,-y,-z
x,-y,z
1/2+x,1/2+y,z
1/2-x,1/2+y,-z
1/2-x,1/2-y,-z
1/2+x,1/2-y,z
loop_
_atom_site_type_symbol
_atom_site_label
_atom_site_fract_x
_atom_site_fract_y
_atom_site_fract_z
Si Si1 0.137028 0.886796 0.228604
Si Si2 0.822109 0.676832 0.043998
Si Si3 0.799543 0.669499 0.661613
Si Si4 0.060909 0.319742 0.492600
Si Si5 0.056972 0.176184 0.488922
Si Si6 0.013643 0.776774 0.178216
Si Si7 0.432646 0.070879 0.714455
O O1 0.277848 0.850375 0.350788
O O2 0.018599 0.839593 0.132532
O O3 0.264960 0.924801 0.445791
O O4 0.000000 0.920387 0.000000
O O5 0.903216 0.681463 0.232240
O O6 0.879061 0.735948 0.061646
O O7 0.914877 0.615180 0.126914
O O8 0.615638 0.671892 0.780906
O O9 0.719224 0.652813 0.643749
O O10 0.936835 0.724989 0.825032
O O11 0.652688 0.701226 0.419823
O O12 0.870722 0.607168 0.713241
O O13 0.000000 0.347109 0.500000
O O14 0.105855 0.248113 0.564869
O O15 0.000000 0.147947 0.500000
O O16 0.484378 0.000000 0.789544
#
# Coordination Sequence:
#
# PCOD9190473 Si02
#       7
#     8   8   8   8   8   8   8
#     4  10  20  31  52  82 114 145 173 224 268 329
#     4  10  20  34  55  76 112 148 177 232 269 322
#     4   9  16  32  51  74 106 132 177 224 266 314
#     4  10  20  31  48  80 118 148 172 204 269 345
#     4  11  21  31  50  84 113 142 171 214 278 343
#     4   9  16  29  48  74 107 142 172 210 272 322
#     4   9  20  39  59  75  96 145 199 232 272 314
#
# _framework density 19.853242000000002
#
# number of rings (size 3 to 8) (size 9 to 14) (size 15 to 20)
#    0.000    2.286    2.857    2.143    4.000    1.429 
#    0.000    2.857    0.000    9.429    0.000    0.000 
#    0.000    0.000    0.000    0.000    0.000    0.000 
#
# Total GULP energy -155871.328532 kJ/mol
# GULP energy per Si atom -5566.833162 kJ/mol
# Density = 1.980806 g / cm^3
# Si number density = 19.853242 Si / 1000 Ang^3
#
#
#
# Elastic Constant Matrix: (Units=GPa)
#
#
# Indices 1 2 3 4 5 6 
#
# 1 119.7629 24.6351 -2.5340 0.0000 -3.0308 0.0000
# 2 24.6351 94.4397 -2.9841 0.0000 16.4909 0.0000
# 3 -2.5340 -2.9841 38.3813 -0.0001 -8.9010 0.0000
# 4 0.0000 0.0000 -0.0001 6.4158 0.0000 3.5704
# 5 -3.0308 16.4909 -8.9010 0.0000 16.5903 0.0000
# 6 0.0000 0.0000 0.0000 3.5704 0.0000 7.0364
#
#
#
# Elastic Compliance Matrix: (Units=1/GPa)
#
#
# Indices 1 2 3 4 5 6 
#
# 1 0.009239 -0.003403 0.001737 0.000000 0.006003 0.000000
# 2 -0.003403 0.014237 -0.002905 0.000000 -0.016332 0.000000
# 3 0.001737 -0.002905 0.030479 0.000001 0.019558 0.000000
# 4 0.000000 0.000000 0.000001 0.217197 0.000001 -0.110209
# 5 0.006003 -0.016332 0.019558 0.000001 0.088100 0.000000
# 6 0.000000 0.000000 0.000000 -0.110209 0.000000 0.198039
#
#
# Mechanical properties :
#
#
# Convention : Reuss Voigt Hill
#
# Bulk Modulus (GPa) = 22.31554 32.31308 27.31431
# Shear Modulus (GPa) = 8.60038 21.57296 15.08667
#
# Velocity S-wave (km/s) = 2.08360 3.29997 2.75964
# Velocity P-wave (km/s) = 4.12955 5.55257 4.89307
#
# Compressibility (1/GPa) = 0.04481181
#
# Stress axis : x y z
#
# Youngs Moduli (GPa) = 108.24225 70.24178 32.80960
#
# Poissons Ratio (x) = 0.23905 -0.05700
# Poissons Ratio (y) = 0.36837 0.09532
# Poissons Ratio (z) = -0.18806 0.20407
#
# Static dielectric constant tensor:
#      x y z
#    x 1.773170 0.000000 -0.012920 
#    y 0.000000 1.653960 0.000000 
#    z -0.012920 0.000000 1.779280 
# 
# From -- ./inp_files/290837.got.cif
#   From: 2010.05.17/outbox.cif.g08.bks.cpg/sg12_146_cif.got.tgz:290837.got - 2010.06.03 13:09:07.
