data_PCOD9190291
_publ_section_title
;
Structure prediction by ZEFSAII (Michael W. Deem and Ramdas Pophale) SiO2 
 PCOD9190291
Probable space group: C 2/M
;
_chemical_formula_sum "Si O2"
_cell_formula_units_Z 60
_cell_length_a 14.192071
_cell_length_b 24.894552
_cell_length_c 19.908914
_cell_angle_alpha 90.000000
_cell_angle_beta 30.396374
_cell_angle_gamma 90.000000
_cell_volume 3559.018999
_symmetry_space_group_name_H-M "C 2/M"
_symmetry_group_IT_number 12
_symmetry_cell_setting 'monoclinic'
loop_
_space_group_symop_operation_xyz
x,y,z
-x,y,-z
-x,-y,-z
x,-y,z
1/2+x,1/2+y,z
1/2-x,1/2+y,-z
1/2-x,1/2-y,-z
1/2+x,1/2-y,z
loop_
_atom_site_type_symbol
_atom_site_label
_atom_site_fract_x
_atom_site_fract_y
_atom_site_fract_z
Si Si1 0.564068 0.060162 0.382599
Si Si2 0.625132 0.669793 0.273319
Si Si3 0.327350 0.346176 0.257141
Si Si4 0.016587 0.716408 0.696175
Si Si5 0.708093 0.269921 0.346925
Si Si6 0.000000 0.300499 0.000000
Si Si7 0.657699 0.714100 0.998910
Si Si8 0.251900 0.633462 0.462318
O O1 0.500000 0.058577 0.500000
O O2 0.726936 0.104716 0.281645
O O3 0.384151 0.082312 0.453913
O O4 0.618900 0.000000 0.328873
O O5 0.530198 0.725902 0.307489
O O6 0.710516 0.680978 0.293679
O O7 0.812255 0.664564 0.114674
O O8 0.454375 0.629053 0.372570
O O9 0.229686 0.289308 0.302030
O O10 0.537880 0.334033 0.104406
O O11 0.298243 0.354019 0.355314
O O12 0.147183 0.724418 0.681297
O O13 0.129925 0.679486 0.574493
O O14 0.817517 0.696362 0.848021
O O15 0.500000 0.270889 0.500000
O O16 0.976432 0.257676 0.954304
O O17 0.750000 0.750000 0.000000
#
# Coordination Sequence:
#
# PCOD9190291 Si02
#       8
#     8   8   8   8   8   4   8   8
#     4   9  20  36  54  77 101 129 177 230 270 304
#     4  11  19  29  44  69  99 136 171 199 243 309
#     4  11  19  32  52  70 100 140 171 204 262 301
#     4  11  21  31  46  72 108 139 176 203 243 311
#     4  12  19  28  45  70 105 135 162 203 245 301
#     4  10  20  30  44  64 104 140 168 196 238 300
#     4  11  20  33  44  68 105 145 173 196 243 309
#     4  11  20  32  51  73  96 132 173 214 255 302
#
# _framework density 16.858578000000001
#
# number of rings (size 3 to 8) (size 9 to 14) (size 15 to 20)
#    0.000    1.200    5.333    4.000    1.867    0.000 
#    0.000    0.000    0.000    1.600    0.000    2.333 
#    0.000    3.200    0.000    0.133    0.000    0.000 
#
# Total GULP energy -167139.552182 kJ/mol
# GULP energy per Si atom -5571.318406 kJ/mol
# Density = 1.682021 g / cm^3
# Si number density = 16.858578 Si / 1000 Ang^3
#
#
#
# Elastic Constant Matrix: (Units=GPa)
#
#
# Indices 1 2 3 4 5 6 
#
# 1 74.1594 17.7642 2.5793 0.0227 -12.3518 -0.0111
# 2 17.7642 60.4269 25.2968 0.0382 -9.4475 -0.0175
# 3 2.5793 25.2968 112.5153 0.0289 -11.4432 -0.0414
# 4 0.0227 0.0382 0.0289 12.5002 -0.0393 -5.7482
# 5 -12.3518 -9.4475 -11.4432 -0.0393 22.7367 0.0111
# 6 -0.0111 -0.0175 -0.0414 -5.7482 0.0111 8.2520
#
#
#
# Elastic Compliance Matrix: (Units=1/GPa)
#
#
# Indices 1 2 3 4 5 6 
#
# 1 0.015639 -0.003968 0.001296 0.000012 0.007500 0.000018
# 2 -0.003968 0.020037 -0.003991 -0.000039 0.004162 -0.000015
# 3 0.001296 -0.003991 0.010179 0.000025 0.004169 0.000056
# 4 0.000012 -0.000039 0.000025 0.117703 0.000167 0.081990
# 5 0.007500 0.004162 0.004169 0.000167 0.051884 0.000086
# 6 0.000018 -0.000015 0.000056 0.081990 0.000086 0.178296
#
#
# Mechanical properties :
#
#
# Convention : Reuss Voigt Hill
#
# Bulk Modulus (GPa) = 30.74007 37.59803 34.16905
# Shear Modulus (GPa) = 11.96444 22.12851 17.04648
#
# Velocity S-wave (km/s) = 2.66690 3.62691 3.18330
# Velocity P-wave (km/s) = 5.26847 6.31583 5.81578
#
# Compressibility (1/GPa) = 0.03253083
#
# Stress axis : x y z
#
# Youngs Moduli (GPa) = 63.94297 49.90862 98.23952
#
# Poissons Ratio (x) = 0.19802 -0.12735
# Poissons Ratio (y) = 0.25370 0.39204
# Poissons Ratio (z) = -0.08289 0.19917
#
# Static dielectric constant tensor:
#      x y z
#    x 1.580240 0.000010 -0.023420 
#    y 0.000010 1.541220 0.000010 
#    z -0.023420 0.000010 1.634490 
# 
# From -- ./inp_files/312573.got.cif
#   From: 2010.05.17/outbox.cif.g08.bks.cpg/sg12_157_cif.got.tgz:312573.got - 2010.06.03 13:09:07.
