data_PCOD9190148
_publ_section_title
;
Structure prediction by ZEFSAII (Michael W. Deem and Ramdas Pophale) SiO2 
 PCOD9190148
Probable space group: C 2/M
;
_chemical_formula_sum "Si O2"
_cell_formula_units_Z 58
_cell_length_a 15.879865
_cell_length_b 33.612074
_cell_length_c 10.868803
_cell_angle_alpha 90.000000
_cell_angle_beta 28.168335
_cell_angle_gamma 90.000000
_cell_volume 2738.573355
_symmetry_space_group_name_H-M "C 2/M"
_symmetry_group_IT_number 12
_symmetry_cell_setting 'monoclinic'
loop_
_space_group_symop_operation_xyz
x,y,z
-x,y,-z
-x,-y,-z
x,-y,z
1/2+x,1/2+y,z
1/2-x,1/2+y,-z
1/2-x,1/2-y,-z
1/2+x,1/2-y,z
loop_
_atom_site_type_symbol
_atom_site_label
_atom_site_fract_x
_atom_site_fract_y
_atom_site_fract_z
Si Si1 0.598666 0.637421 0.501086
Si Si2 0.914879 0.639730 0.414142
Si Si3 0.491264 0.774891 0.213901
Si Si4 0.206525 0.427169 0.619008
Si Si5 0.273089 0.625907 0.105234
Si Si6 0.277479 0.272159 0.662816
Si Si7 0.000000 0.500000 0.000000
Si Si8 0.074676 0.956156 0.042013
O O1 0.500000 0.628983 0.500000
O O2 0.751921 0.604560 0.325874
O O3 0.677470 0.681363 0.396194
O O4 0.454126 0.636742 0.799341
O O5 0.947736 0.678673 0.290283
O O6 0.856580 0.601448 0.410336
O O7 0.766660 0.646609 0.712274
O O8 0.102804 0.632899 0.239467
O O9 0.444794 0.753001 0.400576
O O10 0.364343 0.762934 0.263046
O O11 0.686482 0.764895 0.911033
O O12 0.400556 0.446529 0.346300
O O13 0.079832 0.464120 0.808370
O O14 0.287646 0.579066 0.115282
O O15 0.145459 0.000000 0.977641
O O16 0.000000 0.954969 0.000000
#
# Coordination Sequence:
#
# PCOD9190148 Si02
#       8
#     8   8   8   8   8   8   2   8
#     4  11  24  43  66  96 132 181 222 268 332 401
#     4  11  22  44  66  95 133 172 220 271 334 393
#     4  10  22  40  67  96 132 175 217 280 324 401
#     4  11  24  43  67  93 129 174 216 275 325 399
#     4  10  24  39  65  97 129 171 218 270 326 397
#     4  10  22  41  64  98 130 173 225 269 335 390
#     4  12  28  40  68 102 124 170 234 270 338 392
#     4  10  19  40  63  90 125 163 210 266 321 386
#
# _framework density 21.178910999999999
#
# number of rings (size 3 to 8) (size 9 to 14) (size 15 to 20)
#    0.000    1.517    3.448    0.828    5.793    0.000 
#    3.724    2.414    0.000    0.000    0.000    0.000 
#    0.000    0.000    0.000    0.000    0.000    0.000 
#
# Total GULP energy -161609.730602 kJ/mol
# GULP energy per Si atom -5572.749331 kJ/mol
# Density = 2.113071 g / cm^3
# Si number density = 21.178911 Si / 1000 Ang^3
#
#
#
# Elastic Constant Matrix: (Units=GPa)
#
#
# Indices 1 2 3 4 5 6 
#
# 1 49.8390 -0.6932 18.0970 0.0000 7.8829 0.0000
# 2 -0.6932 75.3106 42.1623 0.0000 17.1123 0.0000
# 3 18.0970 42.1623 112.9135 0.0000 33.5012 0.0000
# 4 0.0000 0.0000 0.0000 32.4614 0.0000 -2.2282
# 5 7.8829 17.1123 33.5012 0.0000 20.3458 0.0000
# 6 0.0000 0.0000 0.0000 -2.2282 0.0000 -12.7093
#
#
#
# Elastic Compliance Matrix: (Units=1/GPa)
#
#
# Indices 1 2 3 4 5 6 
#
# 1 0.022194 0.003303 -0.002766 0.000000 -0.006822 0.000000
# 2 0.003303 0.017874 -0.004621 0.000000 -0.008704 0.000000
# 3 -0.002766 -0.004621 0.018680 0.000000 -0.025800 0.000000
# 4 0.000000 0.000000 0.000000 0.030440 0.000000 -0.005337
# 5 -0.006822 -0.008704 -0.025800 0.000000 0.101596 0.000000
# 6 0.000000 0.000000 0.000000 -0.005337 0.000000 -0.077747
#
#
# Mechanical properties :
#
#
# Convention : Reuss Voigt Hill
#
# Bulk Modulus (GPa) = 19.77103 39.68834 29.72969
# Shear Modulus (GPa) = 36.21506 19.91938 28.06722
#
# Velocity S-wave (km/s) = 4.13965 3.07013 3.64434
# Velocity P-wave (km/s) = 5.67490 5.59891 5.63703
#
# Compressibility (1/GPa) = 0.05057904
#
# Stress axis : x y z
#
# Youngs Moduli (GPa) = 45.05705 55.94862 53.53326
#
# Poissons Ratio (x) = -0.18481 0.14810
# Poissons Ratio (y) = -0.14883 0.24738
# Poissons Ratio (z) = 0.12465 0.25854
#
# Static dielectric constant tensor:
#      x y z
#    x 1.744750 0.000000 0.031640 
#    y 0.000000 1.729630 0.000000 
#    z 0.031640 0.000000 1.828920 
# 
# From -- ./inp_files/160897.got.cif
#   From: 2010.05.17/outbox.cif.g08.bks.cpg/sg12_81_cif.got.tgz:160897.got - 2010.06.03 13:09:07.
