data_PCOD9190130
_publ_section_title
;
Structure prediction by ZEFSAII (Michael W. Deem and Ramdas Pophale) SiO2 
 PCOD9190130
Probable space group: C 2/M
;
_chemical_formula_sum "Si O2"
_cell_formula_units_Z 36
_cell_length_a 20.083999
_cell_length_b 10.093163
_cell_length_c 8.452778
_cell_angle_alpha 90.000000
_cell_angle_beta 73.712759
_cell_angle_gamma 90.000000
_cell_volume 1644.706277
_symmetry_space_group_name_H-M "C 2/M"
_symmetry_group_IT_number 12
_symmetry_cell_setting 'monoclinic'
loop_
_space_group_symop_operation_xyz
x,y,z
-x,y,-z
-x,-y,-z
x,-y,z
1/2+x,1/2+y,z
1/2-x,1/2+y,-z
1/2-x,1/2-y,-z
1/2+x,1/2-y,z
loop_
_atom_site_type_symbol
_atom_site_label
_atom_site_fract_x
_atom_site_fract_y
_atom_site_fract_z
Si Si1 0.474351 0.000000 0.196102
Si Si2 0.870009 0.500000 0.847373
Si Si3 0.443264 0.751606 0.401535
Si Si4 0.955989 0.000000 0.189108
Si Si5 0.194161 0.733697 0.314557
Si Si6 0.207332 0.000000 0.767681
Si Si7 0.251297 0.500000 0.884876
O O1 0.436094 0.871282 0.283275
O O2 0.549164 0.000000 0.229349
O O3 0.500000 0.000000 0.000000
O O4 0.843530 0.635548 0.785433
O O5 0.832510 0.500000 0.042231
O O6 0.500000 0.780489 0.500000
O O7 0.470962 0.627345 0.285356
O O8 0.367385 0.728673 0.525608
O O9 0.874060 0.000000 0.205993
O O10 0.000000 0.000000 0.000000
O O11 0.255136 0.631878 0.327576
O O12 0.223846 0.866450 0.216623
O O13 0.220328 0.000000 0.951152
#
# Coordination Sequence:
#
# PCOD9190130 Si02
#       7
#     4   4   8   4   8   4   4
#     4  12  25  42  69 102 134 172 224 283 341 389
#     4  10  19  40  61  95 131 172 215 273 328 400
#     4  12  25  45  71  98 135 182 229 271 334 407
#     4  12  30  45  64 100 144 182 216 283 342 397
#     4  10  21  40  70  94 127 174 226 273 324 403
#     4  10  23  43  63  96 139 170 218 279 342 385
#     4  10  21  35  68  99 123 174 223 273 330 394
#
# _framework density 21.888406
#
# number of rings (size 3 to 8) (size 9 to 14) (size 15 to 20)
#    0.000    1.333    2.222    6.000    3.111    6.222 
#    0.000    2.222    0.000    0.000    0.000    0.000 
#    0.000    0.000    0.000    0.000    0.000    0.000 
#
# Total GULP energy -100554.537430 kJ/mol
# GULP energy per Si atom -5586.363191 kJ/mol
# Density = 2.183859 g / cm^3
# Si number density = 21.888406 Si / 1000 Ang^3
#
#
#
# Elastic Constant Matrix: (Units=GPa)
#
#
# Indices 1 2 3 4 5 6 
#
# 1 52.1568 -23.6223 11.8139 0.0000 -11.7370 0.0000
# 2 -23.6223 145.2590 54.2785 0.0000 -3.6356 0.0000
# 3 11.8139 54.2785 135.9507 0.0000 -27.8089 0.0000
# 4 0.0000 0.0000 0.0000 51.2979 0.0000 -14.1620
# 5 -11.7370 -3.6356 -27.8089 0.0000 37.6644 0.0000
# 6 0.0000 0.0000 0.0000 -14.1620 0.0000 44.1455
#
#
#
# Elastic Compliance Matrix: (Units=1/GPa)
#
#
# Indices 1 2 3 4 5 6 
#
# 1 0.023367 0.005017 -0.002880 0.000000 0.005639 0.000000
# 2 0.005017 0.009285 -0.004287 0.000000 -0.000706 0.000000
# 3 -0.002880 -0.004287 0.010659 0.000000 0.006559 0.000000
# 4 0.000000 0.000000 0.000000 0.021388 0.000000 0.006861
# 5 0.005639 -0.000706 0.006559 0.000000 0.033082 0.000000
# 6 0.000000 0.000000 0.000000 0.006861 0.000000 0.024853
#
#
# Mechanical properties :
#
#
# Convention : Reuss Voigt Hill
#
# Bulk Modulus (GPa) = 25.63422 46.47851 36.05637
# Shear Modulus (GPa) = 35.73021 46.01467 40.87244
#
# Velocity S-wave (km/s) = 4.04466 4.58999 4.32593
# Velocity P-wave (km/s) = 5.79216 7.02646 6.43895
#
# Compressibility (1/GPa) = 0.03901035
#
# Stress axis : x y z
#
# Youngs Moduli (GPa) = 42.79578 107.70638 93.81616
#
# Poissons Ratio (x) = -0.54040 0.27021
# Poissons Ratio (y) = -0.21472 0.40221
# Poissons Ratio (z) = 0.12326 0.46176
#
# Static dielectric constant tensor:
#      x y z
#    x 1.905430 0.000000 0.053890 
#    y 0.000000 1.749170 0.000000 
#    z 0.053890 0.000000 1.807560 
# 
# From -- ./inp_files/92692.got.cif
#   From: 2010.05.17/outbox.cif.g08.bks.cpg/sg12_47_cif.got.tgz:92692.got - 2010.06.03 13:09:07.
