data_PCOD9190997
_publ_section_title
;
Structure prediction by ZEFSAII (Michael W. Deem and Ramdas Pophale) SiO2 
 PCOD9190997
Probable space group: C 2/M
;
_chemical_formula_sum "Si O2"
_cell_formula_units_Z 60
_cell_length_a 5.198936
_cell_length_b 26.764136
_cell_length_c 23.305555
_cell_angle_alpha 90.000000
_cell_angle_beta 117.169990
_cell_angle_gamma 90.000000
_cell_volume 2885.021795
_symmetry_space_group_name_H-M "C 2/M"
_symmetry_group_IT_number 12
_symmetry_cell_setting 'monoclinic'
loop_
_space_group_symop_operation_xyz
x,y,z
-x,y,-z
-x,-y,-z
x,-y,z
1/2+x,1/2+y,z
1/2-x,1/2+y,-z
1/2-x,1/2-y,-z
1/2+x,1/2-y,z
loop_
_atom_site_type_symbol
_atom_site_label
_atom_site_fract_x
_atom_site_fract_y
_atom_site_fract_z
Si Si1 0.706514 0.130878 0.434220
Si Si2 0.158015 0.613090 0.955124
Si Si3 0.659562 0.000000 0.956314
Si Si4 0.364349 0.348660 0.320346
Si Si5 0.222602 0.556468 0.649402
Si Si6 0.194372 0.717836 0.591900
Si Si7 0.960086 0.380351 0.819465
Si Si8 0.391953 0.557243 0.792430
O O1 0.743332 0.152909 0.373070
O O2 0.562521 0.076786 0.410755
O O3 0.470857 0.166806 0.439335
O O4 0.000000 0.130381 0.500000
O O5 0.043042 0.644138 0.888840
O O6 0.500000 0.618540 0.000000
O O7 0.095096 0.555591 0.927636
O O8 0.000000 0.620895 0.000000
O O9 0.500000 0.000000 0.000000
O O10 0.000000 0.000000 0.000000
O O11 0.534009 0.401709 0.336896
O O12 0.593706 0.303377 0.336415
O O13 0.135996 0.347852 0.245576
O O14 0.302781 0.500000 0.641168
O O15 0.188190 0.556670 0.715094
O O16 0.429227 0.744693 0.575956
O O17 0.681565 0.415223 0.802588
O O18 0.232650 0.412303 0.825235
O O19 0.448523 0.500000 0.815441
#
# Coordination Sequence:
#
# PCOD9190997 Si02
#       8
#     8   8   4   8   8   8   8   8
#     4  11  23  40  61  89 126 162 202 252 302 361
#     4  10  20  34  46  73 107 146 192 239 291 344
#     4   8  16  28  42  58  98 138 179 231 275 321
#     4  10  22  41  61  90 121 155 207 252 301 359
#     4   9  20  37  56  83 120 162 213 262 300 345
#     4  11  23  43  68  94 124 156 191 245 307 377
#     4  11  21  35  57  76 111 152 190 250 295 345
#     4  10  20  32  51  78 104 147 205 250 294 343
#
# _framework density 20.797070000000001
#
# number of rings (size 3 to 8) (size 9 to 14) (size 15 to 20)
#    0.000    1.867    2.667    1.200    1.867    4.000 
#    2.400    0.667    0.000    0.000    0.000    0.000 
#    0.000    3.200    0.000    0.000    0.000    0.000 
#
# Total GULP energy -167190.740781 kJ/mol
# GULP energy per Si atom -5573.024693 kJ/mol
# Density = 2.074974 g / cm^3
# Si number density = 20.797070 Si / 1000 Ang^3
#
#
#
# Elastic Constant Matrix: (Units=GPa)
#
#
# Indices 1 2 3 4 5 6 
#
# 1 94.7622 6.5290 25.3233 0.0000 -12.3833 0.0000
# 2 6.5290 37.7313 16.0768 0.0000 -1.3156 0.0000
# 3 25.3233 16.0768 148.8791 0.0000 -0.9740 0.0000
# 4 0.0000 0.0000 0.0000 -23.6699 0.0000 16.7955
# 5 -12.3833 -1.3156 -0.9740 0.0000 30.0768 0.0000
# 6 0.0000 0.0000 0.0000 16.7955 0.0000 16.4056
#
#
#
# Elastic Compliance Matrix: (Units=1/GPa)
#
#
# Indices 1 2 3 4 5 6 
#
# 1 0.011739 -0.001079 -0.001849 0.000000 0.004726 0.000000
# 2 -0.001079 0.027918 -0.002827 0.000000 0.000686 0.000000
# 3 -0.001849 -0.002827 0.007332 0.000000 -0.000648 0.000000
# 4 0.000000 0.000000 0.000000 -0.024471 0.000000 0.025053
# 5 0.004726 0.000686 -0.000648 0.000000 0.035203 0.000000
# 6 0.000000 0.000000 0.000000 0.025053 0.000000 0.035307
#
#
# Mechanical properties :
#
#
# Convention : Reuss Voigt Hill
#
# Bulk Modulus (GPa) = 28.18479 41.91452 35.04965
# Shear Modulus (GPa) = 42.96857 20.12541 31.54699
#
# Velocity S-wave (km/s) = 4.55035 3.11417 3.89896
# Velocity P-wave (km/s) = 6.41789 5.75574 6.09581
#
# Compressibility (1/GPa) = 0.03548013
#
# Stress axis : x y z
#
# Youngs Moduli (GPa) = 85.18742 35.81898 136.38037
#
# Poissons Ratio (x) = 0.03863 0.25221
# Poissons Ratio (y) = 0.09188 0.38552
# Poissons Ratio (z) = 0.15754 0.10125
#
# Static dielectric constant tensor:
#      x y z
#    x 1.779190 0.000000 -0.022660 
#    y 0.000000 1.777480 0.000000 
#    z -0.022660 0.000000 1.824680 
# 
# From -- ./inp_files/331595.got.cif
#   From: 2010.05.17/outbox.cif.g08.bks.cpg/sg12_166_cif.got.tgz:331595.got - 2010.06.03 13:09:07.
