data_PCOD9190385
_publ_section_title
;
Structure prediction by ZEFSAII (Michael W. Deem and Ramdas Pophale) SiO2 
 PCOD9190385
Probable space group: C 2/M
;
_chemical_formula_sum "Si O2"
_cell_formula_units_Z 64
_cell_length_a 25.841458
_cell_length_b 9.081641
_cell_length_c 18.270105
_cell_angle_alpha 90.000000
_cell_angle_beta 105.211121
_cell_angle_gamma 90.000000
_cell_volume 4137.463846
_symmetry_space_group_name_H-M "C 2/M"
_symmetry_group_IT_number 12
_symmetry_cell_setting 'monoclinic'
loop_
_space_group_symop_operation_xyz
x,y,z
-x,y,-z
-x,-y,-z
x,-y,z
1/2+x,1/2+y,z
1/2-x,1/2+y,-z
1/2-x,1/2-y,-z
1/2+x,1/2-y,z
loop_
_atom_site_type_symbol
_atom_site_label
_atom_site_fract_x
_atom_site_fract_y
_atom_site_fract_z
Si Si1 0.308948 0.827604 0.737099
Si Si2 0.743372 0.328241 0.574623
Si Si3 0.413899 0.326780 0.000754
Si Si4 0.632541 0.823912 0.802421
Si Si5 0.804877 0.826326 0.043089
Si Si6 0.798369 0.324240 0.306730
Si Si7 0.474121 0.824536 0.155259
Si Si8 0.917225 0.824292 0.830079
O O1 0.296957 0.817959 0.645209
O O2 0.256323 0.743627 0.748423
O O3 0.363303 0.750656 0.780707
O O4 0.308375 0.000000 0.757014
O O5 0.730698 0.500000 0.560838
O O6 0.750000 0.250000 0.500000
O O7 0.700672 0.249126 0.612675
O O8 0.426981 0.500000 0.017894
O O9 0.351790 0.305214 0.000125
O O10 0.449215 0.230567 0.068940
O O11 0.421986 0.293341 0.918852
O O12 0.670777 0.742448 0.874145
O O13 0.652355 0.789305 0.728187
O O14 0.571557 0.787703 0.801678
O O15 0.638879 0.000000 0.815238
O O16 0.796512 0.000000 0.049062
O O17 0.750000 0.750000 0.000000
O O18 0.792936 0.500000 0.311158
O O19 0.530078 0.742968 0.187496
O O20 0.481821 0.000000 0.156649
O O21 0.914596 0.000000 0.819839
#
# Coordination Sequence:
#
# PCOD9190385 Si02
#       8
#     8   8   8   8   8   8   8   8
#     4   9  20  33  47  74 103 127 160 196 238 287
#     4   9  18  31  50  77 107 134 160 190 231 284
#     4   9  20  35  47  63  89 123 165 207 252 301
#     4   9  19  34  49  66  92 126 161 198 243 293
#     4  10  20  31  44  63  88 121 158 202 249 296
#     4   9  17  31  51  72  99 129 158 192 235 287
#     4  10  20  34  50  69  92 124 167 213 252 289
#     4  11  21  33  50  69  94 129 165 205 252 298
#
# _framework density 15.468413
#
# number of rings (size 3 to 8) (size 9 to 14) (size 15 to 20)
#    0.750    1.750    0.000    2.250    1.750    4.500 
#    0.000    0.000    0.000    0.000    0.000    0.875 
#    0.000    7.000    0.000    0.000    0.000    0.000 
#
# Total GULP energy -178228.632006 kJ/mol
# GULP energy per Si atom -5569.644750 kJ/mol
# Density = 1.543321 g / cm^3
# Si number density = 15.468413 Si / 1000 Ang^3
#
#
#
# Elastic Constant Matrix: (Units=GPa)
#
#
# Indices 1 2 3 4 5 6 
#
# 1 74.5145 45.1628 41.4668 0.0000 -18.3842 0.0000
# 2 45.1628 71.9869 39.8358 0.0000 -14.8034 0.0000
# 3 41.4668 39.8358 53.8574 0.0000 -24.4529 0.0000
# 4 0.0000 0.0000 0.0000 25.5602 0.0000 1.7070
# 5 -18.3842 -14.8034 -24.4529 0.0000 21.3843 0.0000
# 6 0.0000 0.0000 0.0000 1.7070 0.0000 25.3437
#
#
#
# Elastic Compliance Matrix: (Units=1/GPa)
#
#
# Indices 1 2 3 4 5 6 
#
# 1 0.026593 -0.009202 -0.012855 0.000000 0.001793 0.000000
# 2 -0.009202 0.027295 -0.016882 0.000000 -0.008320 0.000000
# 3 -0.012855 -0.016882 0.063700 0.000000 0.050102 0.000000
# 4 0.000000 0.000000 0.000000 0.039300 0.000000 -0.002647
# 5 0.001793 -0.008320 0.050102 0.000000 0.099837 0.000000
# 6 0.000000 0.000000 0.000000 -0.002647 0.000000 0.039636
#
#
# Mechanical properties :
#
#
# Convention : Reuss Voigt Hill
#
# Bulk Modulus (GPa) = 25.18177 50.36552 37.77364
# Shear Modulus (GPa) = 12.90401 19.38389 16.14395
#
# Velocity S-wave (km/s) = 2.89141 3.54379 3.23410
# Velocity P-wave (km/s) = 5.24041 7.02677 6.19828
#
# Compressibility (1/GPa) = 0.03971127
#
# Stress axis : x y z
#
# Youngs Moduli (GPa) = 37.60328 36.63618 15.69858
#
# Poissons Ratio (x) = 0.33711 0.20181
# Poissons Ratio (y) = 0.34601 0.26502
# Poissons Ratio (z) = 0.48340 0.61849
#
# Static dielectric constant tensor:
#      x y z
#    x 1.521980 0.000000 -0.019620 
#    y 0.000000 1.515690 0.000000 
#    z -0.019620 0.000000 1.495440 
# 
# From -- ./inp_files/323401.got.cif
#   From: 2010.05.17/outbox.cif.g08.bks.cpg/sg12_162_cif.got.tgz:323401.got - 2010.06.03 13:09:07.
