data_PCOD9190535
_publ_section_title
;
Structure prediction by ZEFSAII (Michael W. Deem and Ramdas Pophale) SiO2 
 PCOD9190535
Probable space group: C 2/M
;
_chemical_formula_sum "Si O2"
_cell_formula_units_Z 48
_cell_length_a 24.543207
_cell_length_b 7.625517
_cell_length_c 23.239711
_cell_angle_alpha 90.000000
_cell_angle_beta 29.386824
_cell_angle_gamma 90.000000
_cell_volume 2134.275049
_symmetry_space_group_name_H-M "C 2/M"
_symmetry_group_IT_number 12
_symmetry_cell_setting 'monoclinic'
loop_
_space_group_symop_operation_xyz
x,y,z
-x,y,-z
-x,-y,-z
x,-y,z
1/2+x,1/2+y,z
1/2-x,1/2+y,-z
1/2-x,1/2-y,-z
1/2+x,1/2-y,z
loop_
_atom_site_type_symbol
_atom_site_label
_atom_site_fract_x
_atom_site_fract_y
_atom_site_fract_z
Si Si1 0.150358 0.500000 0.421528
Si Si2 0.614027 0.000000 0.327257
Si Si3 0.206058 0.701211 0.657427
Si Si4 0.962562 0.287974 0.280690
Si Si5 0.490658 0.709528 0.074525
Si Si6 0.619313 0.704960 0.230648
Si Si7 0.346035 0.791430 0.979348
O O1 0.179503 0.500000 0.326843
O O2 0.200474 0.331409 0.406772
O O3 0.018508 0.500000 0.543300
O O4 0.635205 0.826474 0.270842
O O5 0.242342 0.500000 0.618210
O O6 0.149658 0.763119 0.649153
O O7 0.107510 0.709120 0.796220
O O8 0.962133 0.500000 0.280600
O O9 0.000833 0.231317 0.308539
O O10 0.062493 0.216940 0.148191
O O11 0.472682 0.500000 0.091363
O O12 0.500000 0.768948 0.000000
O O13 0.603866 0.751684 0.004002
O O14 0.634472 0.500000 0.229076
O O15 0.718750 0.766959 0.096139
O O16 0.346132 0.000000 0.970392
#
# Coordination Sequence:
#
# PCOD9190535 Si02
#       7
#     4   4   8   8   8   8   8
#     4  11  26  50  70  89 120 165 219 269 346 374
#     4  11  28  48  67  92 125 160 214 287 316 386
#     4  10  22  40  67  95 124 167 209 263 318 380
#     4   9  18  37  62  94 137 167 206 253 305 376
#     4  10  20  31  52  88 128 167 210 250 303 375
#     4  11  23  39  65  94 130 171 212 257 318 378
#     4   9  20  33  51  89 129 172 208 244 301 373
#
# _framework density 22.490072000000001
#
# number of rings (size 3 to 8) (size 9 to 14) (size 15 to 20)
#    0.000    2.000    1.667    2.000    4.667    3.333 
#    0.000    2.500    0.000    0.000    0.000    0.000 
#    0.000    0.000    0.000    0.000    0.000    0.000 
#
# Total GULP energy -134104.691146 kJ/mol
# GULP energy per Si atom -5587.695464 kJ/mol
# Density = 2.243888 g / cm^3
# Si number density = 22.490072 Si / 1000 Ang^3
#
#
#
# Elastic Constant Matrix: (Units=GPa)
#
#
# Indices 1 2 3 4 5 6 
#
# 1 88.7467 21.5466 15.1503 0.0023 -22.9814 0.0013
# 2 21.5466 100.3120 15.3624 0.0100 -11.1523 0.0018
# 3 15.1503 15.3624 37.5374 -0.0016 -10.1276 -0.0014
# 4 0.0023 0.0100 -0.0016 36.2652 0.0009 11.2817
# 5 -22.9814 -11.1523 -10.1276 0.0009 30.7924 0.0005
# 6 0.0013 0.0018 -0.0014 11.2817 0.0005 31.9918
#
#
#
# Elastic Compliance Matrix: (Units=1/GPa)
#
#
# Indices 1 2 3 4 5 6 
#
# 1 0.014559 -0.001677 -0.002658 -0.000001 0.009384 -0.000001
# 2 -0.001677 0.011030 -0.003399 -0.000003 0.001626 0.000000
# 3 -0.002658 -0.003399 0.030986 0.000002 0.006977 0.000001
# 4 -0.000001 -0.000003 0.000002 0.030972 -0.000002 -0.010922
# 5 0.009384 0.001626 0.006977 -0.000002 0.042363 0.000000
# 6 -0.000001 0.000000 0.000001 -0.010922 0.000000 0.035110
#
#
# Mechanical properties :
#
#
# Convention : Reuss Voigt Hill
#
# Bulk Modulus (GPa) = 24.32605 36.74608 30.53606
# Shear Modulus (GPa) = 25.74793 31.44565 28.59679
#
# Velocity S-wave (km/s) = 3.38724 3.74331 3.56972
# Velocity P-wave (km/s) = 5.11251 5.92093 5.53151
#
# Compressibility (1/GPa) = 0.04110819
#
# Stress axis : x y z
#
# Youngs Moduli (GPa) = 68.68593 90.65915 32.27247
#
# Poissons Ratio (x) = 0.15202 0.08578
# Poissons Ratio (y) = 0.11518 0.10969
# Poissons Ratio (z) = 0.18256 0.30814
#
# Static dielectric constant tensor:
#      x y z
#    x 1.846650 0.000000 0.033860 
#    y 0.000000 1.778530 0.000000 
#    z 0.033860 0.000000 1.893930 
# 
# From -- ./inp_files/348786.got.cif
#   From: 2010.05.17/outbox.cif.g08.bks.cpg/sg12_175_cif.got.tgz:348786.got - 2010.06.03 13:09:07.
