data_PCOD9190629
_publ_section_title
;
Structure prediction by ZEFSAII (Michael W. Deem and Ramdas Pophale) SiO2 
 PCOD9190629
Probable space group: C 2/M
;
_chemical_formula_sum "Si O2"
_cell_formula_units_Z 56
_cell_length_a 15.537121
_cell_length_b 7.594866
_cell_length_c 21.435566
_cell_angle_alpha 90.000000
_cell_angle_beta 128.135152
_cell_angle_gamma 90.000000
_cell_volume 1989.552663
_symmetry_space_group_name_H-M "C 2/M"
_symmetry_group_IT_number 12
_symmetry_cell_setting 'monoclinic'
loop_
_space_group_symop_operation_xyz
x,y,z
-x,y,-z
-x,-y,-z
x,-y,z
1/2+x,1/2+y,z
1/2-x,1/2+y,-z
1/2-x,1/2-y,-z
1/2+x,1/2-y,z
loop_
_atom_site_type_symbol
_atom_site_label
_atom_site_fract_x
_atom_site_fract_y
_atom_site_fract_z
Si Si1 0.880206 0.291889 0.054686
Si Si2 0.643449 0.284919 0.231063
Si Si3 0.869371 0.209096 0.910236
Si Si4 0.336058 0.704014 0.627304
Si Si5 0.888005 0.206407 0.513453
Si Si6 0.111545 0.285754 0.806377
Si Si7 0.101084 0.288792 0.664203
O O1 0.890034 0.500000 0.061552
O O2 0.916034 0.237831 0.000923
O O3 0.750000 0.250000 0.000000
O O4 0.925074 0.217461 0.141288
O O5 0.637308 0.500000 0.230296
O O6 0.598647 0.217472 0.144239
O O7 0.614688 0.215330 0.287358
O O8 0.772794 0.239582 0.285406
O O9 0.741326 0.260576 0.860684
O O10 0.872595 0.000000 0.903452
O O11 0.367094 0.500000 0.638776
O O12 0.202894 0.706498 0.570588
O O13 0.362341 0.783638 0.571731
O O14 0.019053 0.223650 0.574111
O O15 0.863075 0.000000 0.499551
O O16 0.107171 0.500000 0.805348
O O17 0.067572 0.225823 0.719288
O O18 0.095874 0.500000 0.661491
#
# Coordination Sequence:
#
# PCOD9190629 Si02
#       7
#     8   8   8   8   8   8   8
#     4   9  14  21  34  54  82 114 145 174 208 250
#     4   8  15  29  49  68  85 113 153 186 210 252
#     4   8  13  23  38  58  83 107 137 178 218 251
#     4   9  18  34  52  65  82 115 153 180 209 260
#     4  10  20  32  46  67  92 113 139 181 226 262
#     4   7  12  22  36  55  80 110 140 170 203 244
#     4   9  16  29  48  66  86 114 148 181 214 256
#
# _framework density 28.147031999999999
#
# number of rings (size 3 to 8) (size 9 to 14) (size 15 to 20)
#    0.000    3.429    0.000    3.429    0.000    1.143 
#    0.000   11.429    0.000    0.000    0.000    1.000 
#    0.000    8.000    0.000    0.000    0.000    0.000 
#
# Total GULP energy -156499.140496 kJ/mol
# GULP energy per Si atom -5589.255018 kJ/mol
# Density = 2.808297 g / cm^3
# Si number density = 28.147032 Si / 1000 Ang^3
#
#
#
# Elastic Constant Matrix: (Units=GPa)
#
#
# Indices 1 2 3 4 5 6 
#
# 1 60.7889 7.4610 11.5711 0.0000 -26.6288 0.0000
# 2 7.4610 88.7390 -1.8673 0.0000 -1.8711 0.0000
# 3 11.5711 -1.8673 261.2300 0.0000 -6.0906 0.0000
# 4 0.0000 0.0000 0.0000 20.2868 0.0000 3.6204
# 5 -26.6288 -1.8711 -6.0906 0.0000 66.5203 0.0000
# 6 0.0000 0.0000 0.0000 3.6204 0.0000 19.0954
#
#
#
# Elastic Compliance Matrix: (Units=1/GPa)
#
#
# Indices 1 2 3 4 5 6 
#
# 1 0.020288 -0.001552 -0.000723 0.000000 0.008012 0.000000
# 2 -0.001552 0.011396 0.000144 0.000000 -0.000288 0.000000
# 3 -0.000723 0.000144 0.003863 0.000000 0.000068 0.000000
# 4 0.000000 0.000000 0.000000 0.051019 0.000000 -0.009673
# 5 0.008012 -0.000288 0.000068 0.000000 0.018238 0.000000
# 6 0.000000 0.000000 0.000000 -0.009673 0.000000 0.054203
#
#
# Mechanical properties :
#
#
# Convention : Reuss Voigt Hill
#
# Bulk Modulus (GPa) = 31.96511 49.45418 40.70964
# Shear Modulus (GPa) = 28.78550 47.42003 38.10277
#
# Velocity S-wave (km/s) = 3.20141 4.10899 3.68326
# Velocity P-wave (km/s) = 5.00465 6.33402 5.70817
#
# Compressibility (1/GPa) = 0.03128411
#
# Stress axis : x y z
#
# Youngs Moduli (GPa) = 49.29020 87.74659 258.88720
#
# Poissons Ratio (x) = 0.13619 0.18716
# Poissons Ratio (y) = 0.07650 -0.03715
# Poissons Ratio (z) = 0.03563 -0.01259
#
# Static dielectric constant tensor:
#      x y z
#    x 2.485100 0.000000 0.009870 
#    y 0.000000 2.015930 0.000000 
#    z 0.009870 0.000000 2.279090 
# 
# From -- ./inp_files/319347.got.cif
#   From: 2010.05.17/outbox.cif.g08.bks.cpg/sg12_160_cif.got.tgz:319347.got - 2010.06.03 13:09:07.
