data_PCOD9190637
_publ_section_title
;
Structure prediction by ZEFSAII (Michael W. Deem and Ramdas Pophale) SiO2 
 PCOD9190637
Probable space group: C 2/M
;
_chemical_formula_sum "Si O2"
_cell_formula_units_Z 48
_cell_length_a 16.325555
_cell_length_b 7.270573
_cell_length_c 31.740813
_cell_angle_alpha 90.000000
_cell_angle_beta 152.372316
_cell_angle_gamma 90.000000
_cell_volume 1747.086374
_symmetry_space_group_name_H-M "C 2/M"
_symmetry_group_IT_number 12
_symmetry_cell_setting 'monoclinic'
loop_
_space_group_symop_operation_xyz
x,y,z
-x,y,-z
-x,-y,-z
x,-y,z
1/2+x,1/2+y,z
1/2-x,1/2+y,-z
1/2-x,1/2-y,-z
1/2+x,1/2-y,z
loop_
_atom_site_type_symbol
_atom_site_label
_atom_site_fract_x
_atom_site_fract_y
_atom_site_fract_z
Si Si1 0.576368 0.781039 0.947966
Si Si2 0.239694 0.788623 0.888223
Si Si3 0.309019 0.724069 0.227954
Si Si4 0.000778 0.223073 0.606537
Si Si5 0.682713 0.720442 0.557254
Si Si6 0.356818 0.778074 0.718332
O O1 0.386350 0.722361 0.844272
O O2 0.560834 0.000000 0.944789
O O3 0.750000 0.750000 0.000000
O O4 0.622199 0.708977 0.015715
O O5 0.203354 0.708488 0.825616
O O6 0.045396 0.785460 0.820524
O O7 0.290800 0.000000 0.904162
O O8 0.321923 0.500000 0.233960
O O9 0.464597 0.787746 0.329998
O O10 0.185562 0.271726 0.667341
O O11 0.849947 0.289843 0.505234
O O12 0.989680 0.000000 0.601745
O O13 0.500000 0.752539 0.500000
O O14 0.701033 0.500000 0.563054
O O15 0.826721 0.789020 0.656280
O O16 0.360171 0.000000 0.719715
#
# Coordination Sequence:
#
# PCOD9190637 Si02
#       6
#     8   8   8   8   8   8
#     4  10  20  34  52  72  92 116 150 190 228 267
#     4  10  20  32  46  67  96 125 150 181 224 273
#     4   9  17  30  47  66  91 124 156 183 219 272
#     4   8  13  24  46  71  89 113 156 199 225 256
#     4   7  11  21  40  67  92 113 146 193 232 257
#     4   9  16  28  48  71  93 118 152 193 230 263
#
# _framework density 27.474314
#
# number of rings (size 3 to 8) (size 9 to 14) (size 15 to 20)
#    0.000    3.167    0.000    3.500    0.000    4.000 
#    0.000    1.667    0.000    7.500    0.000    0.000 
#    0.000    0.000    0.000    0.000    0.000    0.000 
#
# Total GULP energy -134177.775255 kJ/mol
# GULP energy per Si atom -5590.740636 kJ/mol
# Density = 2.741178 g / cm^3
# Si number density = 27.474314 Si / 1000 Ang^3
#
#
#
# Elastic Constant Matrix: (Units=GPa)
#
#
# Indices 1 2 3 4 5 6 
#
# 1 104.7409 -0.9995 31.4815 -0.0001 -24.4814 0.0002
# 2 -0.9995 123.8804 3.6632 0.0000 -4.2182 0.0003
# 3 31.4815 3.6632 206.2083 -0.0002 -28.0677 0.0003
# 4 -0.0001 0.0000 -0.0002 3.6326 0.0001 11.1516
# 5 -24.4814 -4.2182 -28.0677 0.0001 63.6873 -0.0002
# 6 0.0002 0.0003 0.0003 11.1516 -0.0002 -5.0570
#
#
#
# Elastic Compliance Matrix: (Units=1/GPa)
#
#
# Indices 1 2 3 4 5 6 
#
# 1 0.010746 0.000245 -0.001149 0.000000 0.003640 0.000000
# 2 0.000245 0.008097 -0.000101 0.000000 0.000586 0.000000
# 3 -0.001149 -0.000101 0.005283 0.000000 0.001880 0.000000
# 4 0.000000 0.000000 0.000000 0.035431 0.000000 0.078132
# 5 0.003640 0.000586 0.001880 0.000000 0.017968 0.000000
# 6 0.000000 0.000000 0.000000 0.078132 0.000000 -0.025451
#
#
# Mechanical properties :
#
#
# Convention : Reuss Voigt Hill
#
# Bulk Modulus (GPa) = 45.22156 55.90223 50.56190
# Shear Modulus (GPa) = 81.35723 39.16487 60.26105
#
# Velocity S-wave (km/s) = 5.44760 3.77969 4.68841
# Velocity P-wave (km/s) = 7.48758 6.28007 6.91025
#
# Compressibility (1/GPa) = 0.02211335
#
# Stress axis : x y z
#
# Youngs Moduli (GPa) = 93.05732 123.49923 189.30156
#
# Poissons Ratio (x) = -0.03021 0.21759
# Poissons Ratio (y) = -0.02277 0.01921
# Poissons Ratio (z) = 0.10696 0.01253
#
# Static dielectric constant tensor:
#      x y z
#    x 2.229480 0.000000 -0.002430 
#    y 0.000000 2.053690 0.000000 
#    z -0.002430 0.000000 2.097290 
# 
# From -- ./inp_files/250725.got.cif
#   From: 2010.05.17/outbox.cif.g08.bks.cpg/sg12_126_cif.got.tgz:250725.got - 2010.06.03 13:09:07.
