data_PCOD9190973
_publ_section_title
;
Structure prediction by ZEFSAII (Michael W. Deem and Ramdas Pophale) SiO2 
 PCOD9190973
Probable space group: C 2/M
;
_chemical_formula_sum "Si O2"
_cell_formula_units_Z 48
_cell_length_a 7.980911
_cell_length_b 18.353488
_cell_length_c 18.572672
_cell_angle_alpha 90.000000
_cell_angle_beta 112.179432
_cell_angle_gamma 90.000000
_cell_volume 2519.180847
_symmetry_space_group_name_H-M "C 2/M"
_symmetry_group_IT_number 12
_symmetry_cell_setting 'monoclinic'
loop_
_space_group_symop_operation_xyz
x,y,z
-x,y,-z
-x,-y,-z
x,-y,z
1/2+x,1/2+y,z
1/2-x,1/2+y,-z
1/2-x,1/2-y,-z
1/2+x,1/2-y,z
loop_
_atom_site_type_symbol
_atom_site_label
_atom_site_fract_x
_atom_site_fract_y
_atom_site_fract_z
Si Si1 0.580259 0.088197 0.305332
Si Si2 0.524330 0.292998 0.917224
Si Si3 0.634438 0.911289 0.586402
Si Si4 0.154363 0.351559 0.859939
Si Si5 0.289585 0.080079 0.985240
Si Si6 0.483074 0.411215 0.413307
O O1 0.455964 0.110982 0.353101
O O2 0.490207 0.118186 0.218675
O O3 0.788157 0.111758 0.351132
O O4 0.579505 0.000000 0.302871
O O5 0.338317 0.322534 0.854225
O O6 0.577439 0.216768 0.892000
O O7 0.677503 0.354290 0.932678
O O8 0.500000 0.284628 0.000000
O O9 0.500000 0.889429 0.500000
O O10 0.839056 0.887085 0.601878
O O11 0.637597 0.000000 0.587056
O O12 0.217396 0.409961 0.929757
O O13 0.221550 0.000000 0.953130
O O14 0.500000 0.085006 0.000000
O O15 0.500000 0.389719 0.500000
O O16 0.483777 0.500000 0.412691
#
# Coordination Sequence:
#
# PCOD9190973 Si02
#       6
#     8   8   8   8   8   8
#     4  10  20  32  50  83 119 148 184 237 289 327
#     4  10  21  38  61  79 104 150 194 223 267 343
#     4   9  15  27  48  75 111 150 188 227 275 340
#     4  11  21  37  56  80 113 148 186 231 281 333
#     4  10  20  36  60  87 112 141 182 231 278 331
#     4   9  15  27  49  75 110 152 186 226 279 337
#
# _framework density 19.053813999999999
#
# number of rings (size 3 to 8) (size 9 to 14) (size 15 to 20)
#    0.000    2.167    1.667    4.000    0.000    3.667 
#    6.000    0.000    0.000    0.000    0.000    3.500 
#    0.000    0.000    0.000    0.000    0.000    1.000 
#
# Total GULP energy -133914.747975 kJ/mol
# GULP energy per Si atom -5579.781166 kJ/mol
# Density = 1.901045 g / cm^3
# Si number density = 19.053814 Si / 1000 Ang^3
#
#
#
# Elastic Constant Matrix: (Units=GPa)
#
#
# Indices 1 2 3 4 5 6 
#
# 1 126.2869 25.7824 32.4156 0.0000 19.5359 0.0000
# 2 25.7824 52.1496 17.4788 0.0000 -1.0598 0.0000
# 3 32.4156 17.4788 78.4228 0.0000 22.8896 0.0000
# 4 0.0000 0.0000 0.0000 8.2585 0.0000 2.9837
# 5 19.5359 -1.0598 22.8896 0.0000 29.4747 0.0000
# 6 0.0000 0.0000 0.0000 2.9837 0.0000 7.0346
#
#
#
# Elastic Compliance Matrix: (Units=1/GPa)
#
#
# Indices 1 2 3 4 5 6 
#
# 1 0.010130 -0.004627 -0.001484 0.000000 -0.005728 0.000000
# 2 -0.004627 0.023578 -0.005800 0.000000 0.008419 0.000000
# 3 -0.001484 -0.005800 0.018661 0.000000 -0.013717 0.000000
# 4 0.000000 0.000000 0.000000 0.143002 0.000000 -0.060654
# 5 -0.005728 0.008419 -0.013717 0.000000 0.048679 0.000000
# 6 0.000000 0.000000 0.000000 -0.060654 0.000000 0.167880
#
#
# Mechanical properties :
#
#
# Convention : Reuss Voigt Hill
#
# Bulk Modulus (GPa) = 35.02927 45.35698 40.19312
# Shear Modulus (GPa) = 11.22919 21.03240 16.13080
#
# Velocity S-wave (km/s) = 2.43027 3.32602 2.91278
# Velocity P-wave (km/s) = 5.12828 6.21339 5.69673
#
# Compressibility (1/GPa) = 0.02854756
#
# Stress axis : x y z
#
# Youngs Moduli (GPa) = 98.71443 42.41198 53.58783
#
# Poissons Ratio (x) = 0.19625 0.07952
# Poissons Ratio (y) = 0.45679 0.31079
# Poissons Ratio (z) = 0.14649 0.24597
#
# Static dielectric constant tensor:
#      x y z
#    x 1.721820 0.000000 0.000370 
#    y 0.000000 1.652650 0.000000 
#    z 0.000370 0.000000 1.644200 
# 
# From -- ./inp_files/256707.got.cif
#   From: 2010.05.17/outbox.cif.g08.bks.cpg/sg12_129_cif.got.tgz:256707.got - 2010.06.03 13:09:07.
