data_PCOD9190109
_publ_section_title
;
Structure prediction by ZEFSAII (Michael W. Deem and Ramdas Pophale) SiO2 
 PCOD9190109
Probable space group: C 2/M
;
_chemical_formula_sum "Si O2"
_cell_formula_units_Z 64
_cell_length_a 14.112089
_cell_length_b 28.412876
_cell_length_c 12.986715
_cell_angle_alpha 90.000000
_cell_angle_beta 146.894007
_cell_angle_gamma 90.000000
_cell_volume 2844.128565
_symmetry_space_group_name_H-M "C 2/M"
_symmetry_group_IT_number 12
_symmetry_cell_setting 'monoclinic'
loop_
_space_group_symop_operation_xyz
x,y,z
-x,y,-z
-x,-y,-z
x,-y,z
1/2+x,1/2+y,z
1/2-x,1/2+y,-z
1/2-x,1/2-y,-z
1/2+x,1/2-y,z
loop_
_atom_site_type_symbol
_atom_site_label
_atom_site_fract_x
_atom_site_fract_y
_atom_site_fract_z
Si Si1 0.208971 0.945324 0.964881
Si Si2 0.417175 0.766140 0.533471
Si Si3 0.289366 0.663944 0.410880
Si Si4 0.026392 0.802295 0.145083
Si Si5 0.313854 0.873468 0.886424
Si Si6 0.288594 0.554601 0.801144
Si Si7 0.078807 0.292249 0.883877
Si Si8 0.866412 0.103261 0.675462
O O1 0.281280 0.915588 0.935797
O O2 0.999996 0.938200 0.770895
O O3 0.251541 0.000000 0.993518
O O4 0.269722 0.930926 0.136585
O O5 0.500000 0.774664 0.500000
O O6 0.410255 0.709375 0.543430
O O7 0.221058 0.785950 0.353959
O O8 0.529442 0.793242 0.719990
O O9 0.312350 0.636846 0.324328
O O10 0.104421 0.690521 0.232094
O O11 0.283582 0.626410 0.498524
O O12 0.897646 0.762423 0.068681
O O13 0.010473 0.854595 0.171529
O O14 0.000000 0.802820 0.000000
O O15 0.500000 0.880594 0.000000
O O16 0.297487 0.827638 0.945277
O O17 0.237611 0.500000 0.737641
O O18 0.248302 0.586579 0.664393
O O19 0.500000 0.555570 0.000000
#
# Coordination Sequence:
#
# PCOD9190109 Si02
#       8
#     8   8   8   8   8   8   8   8
#     4  10  22  40  61  91 122 151 205 266 319 373
#     4  11  22  35  55  85 127 171 203 253 305 354
#     4  10  20  38  55  83 124 162 198 250 307 354
#     4  11  20  35  56  86 122 161 206 248 297 365
#     4  10  23  40  64  84 116 169 211 251 308 372
#     4   8  16  33  55  82 115 147 182 243 314 362
#     4  10  19  40  55  78 116 166 209 237 294 364
#     4  11  19  33  61  88 122 157 197 243 317 368
#
# _framework density 22.502497999999999
#
# number of rings (size 3 to 8) (size 9 to 14) (size 15 to 20)
#    0.000    1.875    2.500    4.875    1.750    2.250 
#    0.000    3.750    0.000    1.500    0.000    7.000 
#    0.000    0.000    0.000    0.000    0.000    0.000 
#
# Total GULP energy -178625.872929 kJ/mol
# GULP energy per Si atom -5582.058529 kJ/mol
# Density = 2.245128 g / cm^3
# Si number density = 22.502498 Si / 1000 Ang^3
#
#
#
# Elastic Constant Matrix: (Units=GPa)
#
#
# Indices 1 2 3 4 5 6 
#
# 1 114.2269 49.0163 40.7921 0.0000 -35.3840 0.0000
# 2 49.0163 113.9565 42.0334 0.0000 -35.7855 0.0000
# 3 40.7921 42.0334 98.2469 0.0000 -31.5610 0.0000
# 4 0.0000 0.0000 0.0000 19.3523 0.0000 -19.9004
# 5 -35.3840 -35.7855 -31.5610 0.0000 50.6667 0.0000
# 6 0.0000 0.0000 0.0000 -19.9004 0.0000 35.8508
#
#
#
# Elastic Compliance Matrix: (Units=1/GPa)
#
#
# Indices 1 2 3 4 5 6 
#
# 1 0.012409 -0.002863 -0.002242 0.000000 0.005248 0.000000
# 2 -0.002863 0.012605 -0.002483 0.000000 0.005356 0.000000
# 3 -0.002242 -0.002483 0.013883 0.000000 0.005329 0.000000
# 4 0.000000 0.000000 0.000000 0.120397 0.000000 0.066831
# 5 0.005248 0.005356 0.005329 0.000000 0.030504 0.000000
# 6 0.000000 0.000000 0.000000 0.066831 0.000000 0.064990
#
#
# Mechanical properties :
#
#
# Convention : Reuss Voigt Hill
#
# Bulk Modulus (GPa) = 42.15555 65.56824 53.86189
# Shear Modulus (GPa) = 17.99390 34.14653 26.07022
#
# Velocity S-wave (km/s) = 2.83086 3.89968 3.40744
# Velocity P-wave (km/s) = 5.42765 7.03407 6.28242
#
# Compressibility (1/GPa) = 0.02372167
#
# Stress axis : x y z
#
# Youngs Moduli (GPa) = 80.58607 79.33541 72.02817
#
# Poissons Ratio (x) = 0.22712 0.16146
# Poissons Ratio (y) = 0.23070 0.17888
# Poissons Ratio (z) = 0.18065 0.19702
#
# Static dielectric constant tensor:
#      x y z
#    x 1.969080 0.000000 0.044680 
#    y 0.000000 1.822270 0.000000 
#    z 0.044680 0.000000 1.876350 
# 
# From -- ./inp_files/149792.got.cif
#   From: 2010.05.17/outbox.cif.g08.bks.cpg/sg12_75_cif.got.tgz:149792.got - 2010.06.03 13:09:07.
