data_PCOD9190451
_publ_section_title
;
Structure prediction by ZEFSAII (Michael W. Deem and Ramdas Pophale) SiO2 
 PCOD9190451
Probable space group: C 2/M
;
_chemical_formula_sum "Si O2"
_cell_formula_units_Z 56
_cell_length_a 28.037179
_cell_length_b 7.579635
_cell_length_c 14.232447
_cell_angle_alpha 90.000000
_cell_angle_beta 119.597763
_cell_angle_gamma 90.000000
_cell_volume 2629.897776
_symmetry_space_group_name_H-M "C 2/M"
_symmetry_group_IT_number 12
_symmetry_cell_setting 'monoclinic'
loop_
_space_group_symop_operation_xyz
x,y,z
-x,y,-z
-x,-y,-z
x,-y,z
1/2+x,1/2+y,z
1/2-x,1/2+y,-z
1/2-x,1/2-y,-z
1/2+x,1/2-y,z
loop_
_atom_site_type_symbol
_atom_site_label
_atom_site_fract_x
_atom_site_fract_y
_atom_site_fract_z
Si Si1 0.337268 0.703321 0.122257
Si Si2 0.966305 0.703259 0.066126
Si Si3 0.428033 0.210661 0.737771
Si Si4 0.364213 0.786758 0.858032
Si Si5 0.064844 0.216258 0.665739
Si Si6 0.733566 0.708084 0.119325
Si Si7 0.438921 0.711180 0.544678
O O1 0.347825 0.500000 0.107967
O O2 0.393900 0.781501 0.214342
O O3 0.293160 0.709153 0.164368
O O4 0.304907 0.782916 0.002560
O O5 0.956351 0.500000 0.084071
O O6 0.010373 0.783945 0.180952
O O7 0.907525 0.780786 0.979693
O O8 0.000000 0.701075 0.000000
O O9 0.387151 0.274119 0.779564
O O10 0.410253 0.242717 0.614203
O O11 0.432555 0.000000 0.754934
O O12 0.302683 0.735773 0.823870
O O13 0.367353 0.000000 0.862559
O O14 0.082911 0.270673 0.577889
O O15 0.002060 0.274022 0.614908
O O16 0.065749 0.000000 0.669911
O O17 0.741266 0.500000 0.112340
O O18 0.441074 0.500000 0.541755
#
# Coordination Sequence:
#
# PCOD9190451 Si02
#       7
#     8   8   8   8   8   8   8
#     4   9  18  34  52  67  92 128 160 190 233 285
#     4   7  12  24  40  59  86 122 158 183 210 262
#     4   9  17  29  45  68  97 127 158 191 229 277
#     4   9  17  30  47  65  93 132 162 185 226 284
#     4   8  16  32  51  70  93 126 161 191 229 283
#     4  10  20  31  47  74  99 118 154 202 239 273
#     4   9  17  30  50  73  96 123 158 194 231 276
#
# _framework density 21.293602
#
# number of rings (size 3 to 8) (size 9 to 14) (size 15 to 20)
#    0.000    3.286    0.000    3.000    2.000    1.143 
#    0.000    2.857    0.000    3.429    0.000    0.000 
#    0.000    0.000    0.000    0.000    0.000    0.000 
#
# Total GULP energy -156068.887272 kJ/mol
# GULP energy per Si atom -5573.888831 kJ/mol
# Density = 2.124514 g / cm^3
# Si number density = 21.293602 Si / 1000 Ang^3
#
#
#
# Elastic Constant Matrix: (Units=GPa)
#
#
# Indices 1 2 3 4 5 6 
#
# 1 65.0899 -2.8277 -4.6646 0.0000 -12.5907 0.0000
# 2 -2.8277 55.3493 3.5125 0.0000 -0.0266 0.0000
# 3 -4.6646 3.5125 45.3630 0.0000 -8.7607 0.0000
# 4 0.0000 0.0000 0.0000 10.2397 0.0000 -6.6263
# 5 -12.5907 -0.0266 -8.7607 0.0000 30.5958 0.0000
# 6 0.0000 0.0000 0.0000 -6.6263 0.0000 21.0480
#
#
#
# Elastic Compliance Matrix: (Units=1/GPa)
#
#
# Indices 1 2 3 4 5 6 
#
# 1 0.017174 0.000674 0.003259 0.000000 0.008001 0.000000
# 2 0.000674 0.018188 -0.001357 0.000000 -0.000095 0.000000
# 3 0.003259 -0.001357 0.024075 0.000000 0.008233 0.000000
# 4 0.000000 0.000000 0.000000 0.122645 0.000000 0.038611
# 5 0.008001 -0.000095 0.008233 0.000000 0.038334 0.000000
# 6 0.000000 0.000000 0.000000 0.038611 0.000000 0.059666
#
#
# Mechanical properties :
#
#
# Convention : Reuss Voigt Hill
#
# Bulk Modulus (GPa) = 15.48270 17.53808 16.51039
# Shear Modulus (GPa) = 16.86577 23.69550 20.28063
#
# Velocity S-wave (km/s) = 2.81741 3.33948 3.08949
# Velocity P-wave (km/s) = 4.22736 4.80871 4.52738
#
# Compressibility (1/GPa) = 0.06458822
#
# Stress axis : x y z
#
# Youngs Moduli (GPa) = 58.22786 54.98240 41.53744
#
# Poissons Ratio (x) = -0.03708 -0.13537
# Poissons Ratio (y) = -0.03927 0.05638
# Poissons Ratio (z) = -0.18976 0.07463
#
# Static dielectric constant tensor:
#      x y z
#    x 1.807180 0.000000 -0.020830 
#    y 0.000000 1.808080 0.000000 
#    z -0.020830 0.000000 1.797050 
# 
# From -- ./inp_files/244274.got.cif
#   From: 2010.05.17/outbox.cif.g08.bks.cpg/sg12_123_cif.got.tgz:244274.got - 2010.06.03 13:09:07.
