data_PCOD9190210
_publ_section_title
;
Structure prediction by ZEFSAII (Michael W. Deem and Ramdas Pophale) SiO2 
 PCOD9190210
Probable space group: C 2/M
;
_chemical_formula_sum "Si O2"
_cell_formula_units_Z 64
_cell_length_a 20.774617
_cell_length_b 22.957372
_cell_length_c 9.432054
_cell_angle_alpha 90.000000
_cell_angle_beta 140.155024
_cell_angle_gamma 90.000000
_cell_volume 2882.204110
_symmetry_space_group_name_H-M "C 2/M"
_symmetry_group_IT_number 12
_symmetry_cell_setting 'monoclinic'
loop_
_space_group_symop_operation_xyz
x,y,z
-x,y,-z
-x,-y,-z
x,-y,z
1/2+x,1/2+y,z
1/2-x,1/2+y,-z
1/2-x,1/2-y,-z
1/2+x,1/2-y,z
loop_
_atom_site_type_symbol
_atom_site_label
_atom_site_fract_x
_atom_site_fract_y
_atom_site_fract_z
Si Si1 0.608582 0.348927 0.365181
Si Si2 0.623525 0.065962 0.981703
Si Si3 0.285314 0.936115 0.579609
Si Si4 0.256473 0.818446 0.841676
Si Si5 0.045726 0.069307 0.737102
Si Si6 0.323008 0.726756 0.747935
Si Si7 0.243814 0.143963 0.113911
Si Si8 0.903898 0.565851 0.489005
O O1 0.701674 0.388665 0.469729
O O2 0.652401 0.316146 0.578374
O O3 0.520619 0.391513 0.267334
O O4 0.594550 0.303868 0.212994
O O5 0.624150 0.067576 0.154202
O O6 0.705073 0.114860 0.089152
O O7 0.654619 0.000000 0.995351
O O8 0.516186 0.077823 0.731057
O O9 0.332468 0.933268 0.505500
O O10 0.237876 0.000000 0.519301
O O11 0.334352 0.780320 0.878891
O O12 0.239819 0.810018 0.979476
O O13 0.157437 0.095786 0.940414
O O14 0.000000 0.076443 0.500000
O O15 0.044058 0.000000 0.766041
O O16 0.250000 0.750000 0.500000
O O17 0.277581 0.677985 0.776152
O O18 0.352316 0.113226 0.303403
O O19 0.901325 0.500000 0.426181
#
# Coordination Sequence:
#
# PCOD9190210 Si02
#       8
#     8   8   8   8   8   8   8   8
#     4  10  19  41  66  94 130 170 219 274 333 389
#     4   9  19  35  61  93 130 167 210 262 327 403
#     4   9  16  31  58  91 126 169 209 258 324 392
#     4  10  22  40  67  95 126 173 224 267 335 401
#     4  11  24  42  68 104 141 181 226 275 338 415
#     4  10  23  44  69  93 122 170 223 285 330 384
#     4  12  23  42  65  94 135 176 219 272 334 395
#     4  10  20  35  57  94 133 166 206 263 326 393
#
# _framework density 22.205228000000002
#
# number of rings (size 3 to 8) (size 9 to 14) (size 15 to 20)
#    0.000    1.875    2.500    1.500    0.000    4.000 
#    0.000    5.625    0.000    0.000    0.000    0.000 
#    0.000    0.000    0.000    0.000    0.000    0.125 
#
# Total GULP energy -178460.873957 kJ/mol
# GULP energy per Si atom -5576.902311 kJ/mol
# Density = 2.215469 g / cm^3
# Si number density = 22.205228 Si / 1000 Ang^3
#
#
#
# Elastic Constant Matrix: (Units=GPa)
#
#
# Indices 1 2 3 4 5 6 
#
# 1 67.7107 41.3576 41.2136 0.0000 -15.7756 0.0000
# 2 41.3576 101.1217 51.1320 0.0000 2.3685 0.0000
# 3 41.2136 51.1320 103.3153 0.0000 -15.6249 0.0000
# 4 0.0000 0.0000 0.0000 -9.9828 0.0000 -5.5351
# 5 -15.7756 2.3685 -15.6249 0.0000 44.9012 0.0000
# 6 0.0000 0.0000 0.0000 -5.5351 0.0000 26.3614
#
#
#
# Elastic Compliance Matrix: (Units=1/GPa)
#
#
# Indices 1 2 3 4 5 6 
#
# 1 0.023934 -0.007572 -0.004716 0.000000 0.007167 0.000000
# 2 -0.007572 0.016016 -0.005738 0.000000 -0.005502 0.000000
# 3 -0.004716 -0.005738 0.014984 0.000000 0.003860 0.000000
# 4 0.000000 0.000000 0.000000 -0.089726 0.000000 -0.018840
# 5 0.007167 -0.005502 0.003860 0.000000 0.026423 0.000000
# 6 0.000000 0.000000 0.000000 -0.018840 0.000000 0.033978
#
#
# Mechanical properties :
#
#
# Convention : Reuss Voigt Hill
#
# Bulk Modulus (GPa) = 52.96092 59.95046 56.45569
# Shear Modulus (GPa) = 73.57706 21.48559 47.53133
#
# Velocity S-wave (km/s) = 5.76255 3.11399 4.63162
# Velocity P-wave (km/s) = 8.25702 6.32346 7.35407
#
# Compressibility (1/GPa) = 0.01888185
#
# Stress axis : x y z
#
# Youngs Moduli (GPa) = 41.78136 62.43647 66.73720
#
# Poissons Ratio (x) = 0.47276 0.31475
# Poissons Ratio (y) = 0.31636 0.38295
# Poissons Ratio (z) = 0.19705 0.35828
#
# Static dielectric constant tensor:
#      x y z
#    x 1.821930 0.000000 -0.071310 
#    y 0.000000 2.052250 0.000000 
#    z -0.071310 0.000000 1.867920 
# 
# From -- ./inp_files/90420.got.cif
#   From: 2010.05.17/outbox.cif.g08.bks.cpg/sg12_46_cif.got.tgz:90420.got - 2010.06.03 13:09:07.
