data_PCOD9190700
_publ_section_title
;
Structure prediction by ZEFSAII (Michael W. Deem and Ramdas Pophale) SiO2 
 PCOD9190700
Probable space group: C 2/M
;
_chemical_formula_sum "Si O2"
_cell_formula_units_Z 40
_cell_length_a 11.659218
_cell_length_b 21.600153
_cell_length_c 7.310881
_cell_angle_alpha 90.000000
_cell_angle_beta 81.499120
_cell_angle_gamma 90.000000
_cell_volume 1820.950858
_symmetry_space_group_name_H-M "C 2/M"
_symmetry_group_IT_number 12
_symmetry_cell_setting 'monoclinic'
loop_
_space_group_symop_operation_xyz
x,y,z
-x,y,-z
-x,-y,-z
x,-y,z
1/2+x,1/2+y,z
1/2-x,1/2+y,-z
1/2-x,1/2-y,-z
1/2+x,1/2-y,z
loop_
_atom_site_type_symbol
_atom_site_label
_atom_site_fract_x
_atom_site_fract_y
_atom_site_fract_z
Si Si1 0.247375 0.884831 0.747304
Si Si2 0.390684 0.068113 0.385110
Si Si3 0.882928 0.934647 0.907576
Si Si4 0.003711 0.821674 0.716680
Si Si5 0.983853 0.682661 0.723128
O O1 0.284644 0.916774 0.547148
O O2 0.354510 0.842033 0.779067
O O3 0.128822 0.847717 0.745059
O O4 0.220415 0.929524 0.922892
O O5 0.500000 0.063936 0.500000
O O6 0.424675 0.127395 0.251752
O O7 0.379080 0.000000 0.301551
O O8 0.903583 0.870402 0.797809
O O9 0.875556 0.000000 0.803396
O O10 0.000000 0.938465 0.000000
O O11 0.994612 0.751920 0.793747
O O12 0.000000 0.819804 0.500000
O O13 0.000000 0.689597 0.500000
#
# Coordination Sequence:
#
# PCOD9190700 Si02
#       5
#     8   8   8   8   8
#     4   9  17  31  51  70  94 125 158 197 239 276
#     4   8  14  26  47  74  95 116 155 199 234 274
#     4   9  18  32  49  69  93 124 161 195 231 280
#     4  10  20  32  47  70  99 127 158 196 236 282
#     4   8  17  29  46  72  98 121 155 196 237 280
#
# _framework density 21.966545
#
# number of rings (size 3 to 8) (size 9 to 14) (size 15 to 20)
#    0.000    3.600    0.000    0.600    0.000   10.000 
#    0.000    0.000    0.000    0.000    0.000   16.800 
#    0.000   47.200    0.000    0.000    0.000    0.000 
#
# Total GULP energy -111350.128853 kJ/mol
# GULP energy per Si atom -5567.506443 kJ/mol
# Density = 2.191655 g / cm^3
# Si number density = 21.966545 Si / 1000 Ang^3
#
#
#
# Elastic Constant Matrix: (Units=GPa)
#
#
# Indices 1 2 3 4 5 6 
#
# 1 58.0035 34.4568 28.0681 0.0000 -27.6052 0.0000
# 2 34.4568 239.5477 49.1305 0.0000 -23.4132 0.0000
# 3 28.0681 49.1305 57.0280 0.0000 -12.0274 0.0000
# 4 0.0000 0.0000 0.0000 5.3958 0.0000 9.1631
# 5 -27.6052 -23.4132 -12.0274 0.0000 31.5777 0.0000
# 6 0.0000 0.0000 0.0000 9.1631 0.0000 -6.2022
#
#
#
# Elastic Compliance Matrix: (Units=1/GPa)
#
#
# Indices 1 2 3 4 5 6 
#
# 1 0.035721 -0.000099 -0.011880 0.000000 0.026629 0.000000
# 2 -0.000099 0.005226 -0.003974 0.000000 0.002275 0.000000
# 3 -0.011880 -0.003974 0.026090 0.000000 -0.003395 0.000000
# 4 0.000000 0.000000 0.000000 0.052817 0.000000 0.078031
# 5 0.026629 0.002275 -0.003395 0.000000 0.055341 0.000000
# 6 0.000000 0.000000 0.000000 0.078031 0.000000 -0.045950
#
#
# Mechanical properties :
#
#
# Convention : Reuss Voigt Hill
#
# Bulk Modulus (GPa) = 28.46420 64.21000 46.33710
# Shear Modulus (GPa) = 28.92490 22.34919 25.63704
#
# Velocity S-wave (km/s) = 3.63267 3.19316 3.41998
# Velocity P-wave (km/s) = 5.53002 6.54899 6.06096
#
# Compressibility (1/GPa) = 0.03513185
#
# Stress axis : x y z
#
# Youngs Moduli (GPa) = 27.99455 191.34565 38.32892
#
# Poissons Ratio (x) = 0.01893 0.45534
# Poissons Ratio (y) = 0.00277 0.15232
# Poissons Ratio (z) = 0.33257 0.76040
#
# Static dielectric constant tensor:
#      x y z
#    x 1.793020 0.000000 0.030610 
#    y 0.000000 1.931110 0.000000 
#    z 0.030610 0.000000 1.854810 
# 
# From -- ./inp_files/48513.got.cif
#   From: 2010.05.17/outbox.cif.g08.bks.cpg/sg12_25_cif.got.tgz:48513.got - 2010.06.03 13:09:07.
