data_PCOD9190915
_publ_section_title
;
Structure prediction by ZEFSAII (Michael W. Deem and Ramdas Pophale) SiO2 
 PCOD9190915
Probable space group: C 2/M
;
_chemical_formula_sum "Si O2"
_cell_formula_units_Z 48
_cell_length_a 14.361046
_cell_length_b 25.614158
_cell_length_c 15.026638
_cell_angle_alpha 90.000000
_cell_angle_beta 151.486694
_cell_angle_gamma 90.000000
_cell_volume 2638.618412
_symmetry_space_group_name_H-M "C 2/M"
_symmetry_group_IT_number 12
_symmetry_cell_setting 'monoclinic'
loop_
_space_group_symop_operation_xyz
x,y,z
-x,y,-z
-x,-y,-z
x,-y,z
1/2+x,1/2+y,z
1/2-x,1/2+y,-z
1/2-x,1/2-y,-z
1/2+x,1/2-y,z
loop_
_atom_site_type_symbol
_atom_site_label
_atom_site_fract_x
_atom_site_fract_y
_atom_site_fract_z
Si Si1 0.273047 0.655049 0.786511
Si Si2 0.539337 0.942797 0.639203
Si Si3 0.224590 0.271230 0.221311
Si Si4 0.264594 0.630547 0.570622
Si Si5 0.454385 0.208754 0.744779
Si Si6 0.132469 0.818198 0.825697
O O1 0.179176 0.607636 0.762322
O O2 0.195134 0.713632 0.735295
O O3 0.248857 0.645113 0.661424
O O4 0.500000 0.656202 0.000000
O O5 0.500000 0.946445 0.500000
O O6 0.342738 0.925154 0.524163
O O7 0.611074 0.000000 0.728030
O O8 0.200184 0.282004 0.304845
O O9 0.335895 0.312076 0.253232
O O10 0.000000 0.270979 0.000000
O O11 0.147007 0.672326 0.412750
O O12 0.489756 0.635145 0.732314
O O13 0.523922 0.265541 0.769371
O O14 0.654003 0.182328 0.949540
#
# Coordination Sequence:
#
# PCOD9190915 Si02
#       6
#     8   8   8   8   8   8
#     4  10  20  33  53  76 107 146 181 209 262 320
#     4   9  20  37  53  74 104 134 175 231 272 314
#     4   9  18  32  48  76 114 148 173 213 253 307
#     4  11  21  33  53  75 102 142 178 218 264 307
#     4  10  20  33  49  76 111 141 182 216 249 313
#     4  10  20  32  50  74 109 143 180 213 254 314
#
# _framework density 18.191337999999998
#
# number of rings (size 3 to 8) (size 9 to 14) (size 15 to 20)
#    0.000    2.167    1.667    1.500    4.667    1.000 
#    0.000    0.000    0.000    0.000    0.000    2.333 
#    0.000    4.000    0.000    0.000    0.000    0.000 
#
# Total GULP energy -133869.666653 kJ/mol
# GULP energy per Si atom -5577.902777 kJ/mol
# Density = 1.814993 g / cm^3
# Si number density = 18.191338 Si / 1000 Ang^3
#
#
#
# Elastic Constant Matrix: (Units=GPa)
#
#
# Indices 1 2 3 4 5 6 
#
# 1 95.5235 34.0062 18.4569 0.0000 7.6945 0.0000
# 2 34.0062 72.3645 20.2474 0.0000 9.6262 0.0000
# 3 18.4569 20.2474 69.7574 0.0000 2.1573 0.0000
# 4 0.0000 0.0000 0.0000 11.3783 0.0000 6.1798
# 5 7.6945 9.6262 2.1573 0.0000 29.1563 0.0000
# 6 0.0000 0.0000 0.0000 6.1798 0.0000 10.8433
#
#
#
# Elastic Compliance Matrix: (Units=1/GPa)
#
#
# Indices 1 2 3 4 5 6 
#
# 1 0.012834 -0.005328 -0.001803 0.000000 -0.001495 0.000000
# 2 -0.005328 0.017910 -0.003658 0.000000 -0.004236 0.000000
# 3 -0.001803 -0.003658 0.015858 0.000000 0.000510 0.000000
# 4 0.000000 0.000000 0.000000 0.127286 0.000000 -0.072543
# 5 -0.001495 -0.004236 0.000510 0.000000 0.036053 0.000000
# 6 0.000000 0.000000 0.000000 -0.072543 0.000000 0.133566
#
#
# Mechanical properties :
#
#
# Convention : Reuss Voigt Hill
#
# Bulk Modulus (GPa) = 39.96021 42.56293 41.26157
# Shear Modulus (GPa) = 13.38952 21.27125 17.33039
#
# Velocity S-wave (km/s) = 2.71595 3.42322 3.08989
# Velocity P-wave (km/s) = 5.64353 6.25082 5.95492
#
# Compressibility (1/GPa) = 0.02502490
#
# Stress axis : x y z
#
# Youngs Moduli (GPa) = 77.91752 55.83609 63.05830
#
# Poissons Ratio (x) = 0.29748 0.11370
# Poissons Ratio (y) = 0.41513 0.23065
# Poissons Ratio (z) = 0.14049 0.20423
#
# Static dielectric constant tensor:
#      x y z
#    x 1.663450 0.000000 0.017230 
#    y 0.000000 1.619470 0.000000 
#    z 0.017230 0.000000 1.694830 
# 
# From -- ./inp_files/218552.got.cif
#   From: 2010.05.17/outbox.cif.g08.bks.cpg/sg12_110_cif.got.tgz:218552.got - 2010.06.03 13:09:07.
