data_PCOD9190061
_publ_section_title
;
Structure prediction by ZEFSAII (Michael W. Deem and Ramdas Pophale) SiO2 
 PCOD9190061
Probable space group: C 2/M
;
_chemical_formula_sum "Si O2"
_cell_formula_units_Z 56
_cell_length_a 27.634544
_cell_length_b 22.600360
_cell_length_c 11.515622
_cell_angle_alpha 90.000000
_cell_angle_beta 21.513228
_cell_angle_gamma 90.000000
_cell_volume 2637.454331
_symmetry_space_group_name_H-M "C 2/M"
_symmetry_group_IT_number 12
_symmetry_cell_setting 'monoclinic'
loop_
_space_group_symop_operation_xyz
x,y,z
-x,y,-z
-x,-y,-z
x,-y,z
1/2+x,1/2+y,z
1/2-x,1/2+y,-z
1/2-x,1/2-y,-z
1/2+x,1/2-y,z
loop_
_atom_site_type_symbol
_atom_site_label
_atom_site_fract_x
_atom_site_fract_y
_atom_site_fract_z
Si Si1 0.077789 0.899005 0.722894
Si Si2 0.740047 0.378541 0.155052
Si Si3 0.783662 0.681541 0.404094
Si Si4 0.710826 0.069464 0.205976
Si Si5 0.964093 0.227881 0.445760
Si Si6 0.013715 0.654506 0.242761
Si Si7 0.339588 0.649598 0.101741
O O1 0.175845 0.919296 0.400939
O O2 0.166292 0.849122 0.590494
O O3 0.000000 0.932977 0.000000
O O4 0.957661 0.873863 0.917159
O O5 0.641345 0.324012 0.343821
O O6 0.769449 0.413758 0.972386
O O7 0.872297 0.351716 0.914864
O O8 0.750000 0.750000 0.500000
O O9 0.781282 0.654880 0.539409
O O10 0.914431 0.668949 0.038570
O O11 0.571248 0.095243 0.561303
O O12 0.814816 0.105721 0.051431
O O13 0.722612 0.000000 0.197206
O O14 0.000000 0.231763 0.500000
O O15 0.921605 0.290633 0.487601
O O16 0.102433 0.210943 0.074574
#
# Coordination Sequence:
#
# PCOD9190061 Si02
#       7
#     8   8   8   8   8   8   8
#     4   8  18  36  62  92 130 164 209 268 327 396
#     4  10  22  40  63  95 130 173 221 272 341 398
#     4  10  19  39  65  99 138 174 206 262 342 414
#     4  12  27  46  65  90 132 186 234 272 323 397
#     4  11  20  35  63  97 134 160 204 273 350 401
#     4  11  25  39  63  99 133 175 220 275 336 402
#     4  10  21  39  62  96 133 168 217 274 327 392
#
# _framework density 21.232595
#
# number of rings (size 3 to 8) (size 9 to 14) (size 15 to 20)
#    0.000    1.714    2.857    1.286    2.000    4.000 
#    2.571    7.143    0.000   10.286    0.000    0.000 
#    0.000    0.000    0.000    0.000    0.000    0.000 
#
# Total GULP energy -156189.793195 kJ/mol
# GULP energy per Si atom -5578.206900 kJ/mol
# Density = 2.118427 g / cm^3
# Si number density = 21.232595 Si / 1000 Ang^3
#
#
#
# Elastic Constant Matrix: (Units=GPa)
#
#
# Indices 1 2 3 4 5 6 
#
# 1 69.4554 5.6564 26.1092 0.0020 28.1914 -0.0067
# 2 5.6564 76.5498 7.5802 0.0007 11.4001 -0.0083
# 3 26.1092 7.5802 72.5013 0.0083 17.5542 -0.0139
# 4 0.0020 0.0007 0.0083 0.8275 -0.0010 -6.5790
# 5 28.1914 11.4001 17.5542 -0.0010 41.0509 0.0023
# 6 -0.0067 -0.0083 -0.0139 -6.5790 0.0023 -5.2519
#
#
#
# Elastic Compliance Matrix: (Units=1/GPa)
#
#
# Indices 1 2 3 4 5 6 
#
# 1 0.021298 0.000802 -0.004639 -0.000018 -0.012865 0.000001
# 2 0.000802 0.013678 -0.000743 -0.000017 -0.004031 -0.000001
# 3 -0.004639 -0.000743 0.016420 -0.000042 -0.003630 0.000014
# 4 -0.000018 -0.000017 -0.000042 0.110267 0.000045 -0.138129
# 5 -0.012865 -0.004031 -0.003630 0.000045 0.035867 -0.000009
# 6 0.000001 -0.000001 0.000014 -0.138129 -0.000009 -0.017375
#
#
# Mechanical properties :
#
#
# Convention : Reuss Voigt Hill
#
# Bulk Modulus (GPa) = 23.67628 33.02201 28.34915
# Shear Modulus (GPa) = 24.58292 19.26934 21.92613
#
# Velocity S-wave (km/s) = 3.40632 3.01580 3.21699
# Velocity P-wave (km/s) = 5.16196 5.26432 5.21339
#
# Compressibility (1/GPa) = 0.04223636
#
# Stress axis : x y z
#
# Youngs Moduli (GPa) = 46.95253 73.10968 60.90202
#
# Poissons Ratio (x) = -0.05860 0.28251
# Poissons Ratio (y) = -0.03763 0.04523
# Poissons Ratio (z) = 0.21780 0.05429
#
# Static dielectric constant tensor:
#      x y z
#    x 1.762470 0.000000 0.033360 
#    y 0.000000 1.741820 0.000000 
#    z 0.033360 0.000000 1.859630 
# 
# From -- ./inp_files/190393.got.cif
#   From: 2010.05.17/outbox.cif.g08.bks.cpg/sg12_96_cif.got.tgz:190393.got - 2010.06.03 13:09:07.
