data_PCOD9190361
_publ_section_title
;
Structure prediction by ZEFSAII (Michael W. Deem and Ramdas Pophale) SiO2 
 PCOD9190361
Probable space group: C 2/M
;
_chemical_formula_sum "Si O2"
_cell_formula_units_Z 48
_cell_length_a 25.467441
_cell_length_b 7.403853
_cell_length_c 14.668047
_cell_angle_alpha 90.000000
_cell_angle_beta 71.018730
_cell_angle_gamma 90.000000
_cell_volume 2615.377077
_symmetry_space_group_name_H-M "C 2/M"
_symmetry_group_IT_number 12
_symmetry_cell_setting 'monoclinic'
loop_
_space_group_symop_operation_xyz
x,y,z
-x,y,-z
-x,-y,-z
x,-y,z
1/2+x,1/2+y,z
1/2-x,1/2+y,-z
1/2-x,1/2-y,-z
1/2+x,1/2-y,z
loop_
_atom_site_type_symbol
_atom_site_label
_atom_site_fract_x
_atom_site_fract_y
_atom_site_fract_z
Si Si1 0.276880 0.789716 0.339469
Si Si2 0.544158 0.711214 0.546020
Si Si3 0.331299 0.719989 0.503453
Si Si4 0.875664 0.278248 0.167223
Si Si5 0.480049 0.218618 0.233179
Si Si6 0.445677 0.212214 0.965287
O O1 0.312054 0.777511 0.413481
O O2 0.216370 0.715899 0.399707
O O3 0.316474 0.714873 0.238174
O O4 0.268431 0.000000 0.322547
O O5 0.500000 0.789821 0.500000
O O6 0.550410 0.500000 0.519009
O O7 0.606858 0.785113 0.510116
O O8 0.521900 0.724381 0.661550
O O9 0.330722 0.500000 0.502829
O O10 0.875607 0.500000 0.166564
O O11 0.923684 0.225335 0.212397
O O12 0.895877 0.216181 0.056038
O O13 0.532401 0.284513 0.143440
O O14 0.480667 0.000000 0.230571
O O15 0.434026 0.000000 0.957924
O O16 0.500000 0.223508 0.000000
#
# Coordination Sequence:
#
# PCOD9190361 Si02
#       6
#     8   8   8   8   8   8
#     4   9  15  24  41  61  79  99 124 156 195 237
#     4  10  20  31  40  52  77 112 141 163 190 223
#     4   9  17  27  38  55  78 103 131 161 192 227
#     4   8  12  20  37  61  83 100 118 148 196 243
#     4   9  15  25  41  59  78 100 129 163 193 226
#     4   7  11  19  34  57  81 100 118 147 193 238
#
# _framework density 18.352995
#
# number of rings (size 3 to 8) (size 9 to 14) (size 15 to 20)
#    0.000    3.333    1.667    2.000    0.000    0.333 
#    0.000    0.000    0.000    5.500    0.000    1.167 
#    0.000    0.000    0.000    0.000    0.000    0.000 
#
# Total GULP energy -133621.402156 kJ/mol
# GULP energy per Si atom -5567.558423 kJ/mol
# Density = 1.831122 g / cm^3
# Si number density = 18.352995 Si / 1000 Ang^3
#
#
#
# Elastic Constant Matrix: (Units=GPa)
#
#
# Indices 1 2 3 4 5 6 
#
# 1 88.9069 -1.8270 76.7145 0.0000 -16.8296 0.0000
# 2 -1.8270 57.9354 -6.4477 0.0000 -1.8369 0.0000
# 3 76.7145 -6.4477 145.4746 0.0000 -45.7463 0.0000
# 4 0.0000 0.0000 0.0000 10.0087 0.0000 3.6882
# 5 -16.8296 -1.8369 -45.7463 0.0000 32.5606 0.0000
# 6 0.0000 0.0000 0.0000 3.6882 0.0000 3.8640
#
#
#
# Elastic Compliance Matrix: (Units=1/GPa)
#
#
# Indices 1 2 3 4 5 6 
#
# 1 0.022049 -0.001212 -0.014545 0.000000 -0.009107 0.000000
# 2 -0.001212 0.017664 0.002756 0.000000 0.004242 0.000000
# 3 -0.014545 0.002756 0.022127 0.000000 0.023725 0.000000
# 4 0.000000 0.000000 0.000000 0.154124 0.000000 -0.147113
# 5 -0.009107 0.004242 0.023725 0.000000 0.059577 0.000000
# 6 0.000000 0.000000 0.000000 -0.147113 0.000000 0.399223
#
#
# Mechanical properties :
#
#
# Convention : Reuss Voigt Hill
#
# Bulk Modulus (GPa) = 27.90341 47.68850 37.79595
# Shear Modulus (GPa) = 7.01546 24.21180 15.61363
#
# Velocity S-wave (km/s) = 1.95725 3.63606 2.91991
# Velocity P-wave (km/s) = 4.51049 6.60820 5.65742
#
# Compressibility (1/GPa) = 0.03583791
#
# Stress axis : x y z
#
# Youngs Moduli (GPa) = 45.35314 56.61362 45.19376
#
# Poissons Ratio (x) = 0.06862 0.65734
# Poissons Ratio (y) = 0.05497 -0.12456
# Poissons Ratio (z) = 0.65966 -0.15603
#
# Static dielectric constant tensor:
#      x y z
#    x 1.614230 0.000000 -0.055200 
#    y 0.000000 1.694270 0.000000 
#    z -0.055200 0.000000 1.666420 
# 
# From -- ./inp_files/179332.got.cif
#   From: 2010.05.17/outbox.cif.g08.bks.cpg/sg12_90_cif.got.tgz:179332.got - 2010.06.03 13:09:07.
