data_PCOD9190088
_publ_section_title
;
Structure prediction by ZEFSAII (Michael W. Deem and Ramdas Pophale) SiO2 
 PCOD9190088
Probable space group: C 2/M
;
_chemical_formula_sum "Si O2"
_cell_formula_units_Z 32
_cell_length_a 27.299693
_cell_length_b 13.431758
_cell_length_c 9.212336
_cell_angle_alpha 90.000000
_cell_angle_beta 149.677464
_cell_angle_gamma 90.000000
_cell_volume 1705.444270
_symmetry_space_group_name_H-M "C 2/M"
_symmetry_group_IT_number 12
_symmetry_cell_setting 'monoclinic'
loop_
_space_group_symop_operation_xyz
x,y,z
-x,y,-z
-x,-y,-z
x,-y,z
1/2+x,1/2+y,z
1/2-x,1/2+y,-z
1/2-x,1/2-y,-z
1/2+x,1/2-y,z
loop_
_atom_site_type_symbol
_atom_site_label
_atom_site_fract_x
_atom_site_fract_y
_atom_site_fract_z
Si Si1 0.392683 0.500000 0.796462
Si Si2 0.394114 0.500000 0.155757
Si Si3 0.273627 0.702668 0.906083
Si Si4 0.772708 0.342755 0.660307
Si Si5 0.103915 0.612025 0.285821
O O1 0.325288 0.406894 0.574803
O O2 0.500000 0.500000 0.000000
O O3 0.397385 0.500000 0.986229
O O4 0.500000 0.500000 0.500000
O O5 0.338559 0.601948 0.062800
O O6 0.313581 0.794124 0.910666
O O7 0.173821 0.670647 0.571915
O O8 0.250000 0.750000 0.000000
O O9 0.750000 0.250000 0.500000
O O10 0.848936 0.397297 0.752685
O O11 0.091482 0.500000 0.312997
O O12 0.000000 0.661601 0.000000
#
# Coordination Sequence:
#
# PCOD9190088 Si02
#       5
#     4   4   8   8   8
#     4  12  24  42  70 102 129 174 228 271 321 399
#     4  12  26  46  62  96 141 172 216 281 335 391
#     4  11  24  42  64  93 135 172 208 271 334 392
#     4  10  20  40  64  91 129 165 215 270 312 385
#     4  10  19  39  68  88 118 165 212 263 320 377
#
# _framework density 18.763439999999999
#
# number of rings (size 3 to 8) (size 9 to 14) (size 15 to 20)
#    0.000    1.250    7.500    0.000    3.500    6.000 
#    0.000    0.000    0.000    3.000    0.000    0.000 
#    0.000    0.000    0.000    0.000    0.000    0.000 
#
# Total GULP energy -89072.462759 kJ/mol
# GULP energy per Si atom -5567.028922 kJ/mol
# Density = 1.872073 g / cm^3
# Si number density = 18.763440 Si / 1000 Ang^3
#
#
#
# Elastic Constant Matrix: (Units=GPa)
#
#
# Indices 1 2 3 4 5 6 
#
# 1 138.9680 57.2645 50.4425 0.0000 -7.6704 0.0000
# 2 57.2645 124.8640 51.8243 0.0000 1.7206 0.0000
# 3 50.4425 51.8243 129.4470 0.0000 15.0833 0.0000
# 4 0.0000 0.0000 0.0000 -24.0364 0.0000 -44.0065
# 5 -7.6704 1.7206 15.0833 0.0000 39.0647 0.0000
# 6 0.0000 0.0000 0.0000 -44.0065 0.0000 -16.0341
#
#
#
# Elastic Compliance Matrix: (Units=1/GPa)
#
#
# Indices 1 2 3 4 5 6 
#
# 1 0.009782 -0.003352 -0.002839 0.000000 0.003164 0.000000
# 2 -0.003352 0.010799 -0.003021 0.000000 0.000033 0.000000
# 3 -0.002839 -0.003021 0.010566 0.000000 -0.004504 0.000000
# 4 0.000000 0.000000 0.000000 0.010337 0.000000 -0.028370
# 5 0.003164 0.000033 -0.004504 0.000000 0.027957 0.000000
# 6 0.000000 0.000000 0.000000 -0.028370 0.000000 0.015496
#
#
# Mechanical properties :
#
#
# Convention : Reuss Voigt Hill
#
# Bulk Modulus (GPa) = 78.59270 79.14906 78.87088
# Shear Modulus (GPa) = 46.46772 15.38201 30.92486
#
# Velocity S-wave (km/s) = 4.98185 2.86630 4.06414
# Velocity P-wave (km/s) = 8.66422 7.29578 8.00928
#
# Compressibility (1/GPa) = 0.01272383
#
# Stress axis : x y z
#
# Youngs Moduli (GPa) = 102.22795 92.59819 94.64546
#
# Poissons Ratio (x) = 0.31035 0.26867
# Poissons Ratio (y) = 0.34263 0.28595
# Poissons Ratio (z) = 0.29020 0.27977
#
# Static dielectric constant tensor:
#      x y z
#    x 1.759630 0.000000 0.022770 
#    y 0.000000 1.804600 0.000000 
#    z 0.022770 0.000000 1.655230 
# 
# From -- ./inp_files/72177.got.cif
#   From: 2010.05.17/outbox.cif.g08.bks.cpg/sg12_37_cif.got.tgz:72177.got - 2010.06.03 13:09:07.
