data_PCOD9190670
_publ_section_title
;
Structure prediction by ZEFSAII (Michael W. Deem and Ramdas Pophale) SiO2 
 PCOD9190670
Probable space group: C 2/M
;
_chemical_formula_sum "Si O2"
_cell_formula_units_Z 56
_cell_length_a 16.693818
_cell_length_b 7.426019
_cell_length_c 24.272101
_cell_angle_alpha 90.000000
_cell_angle_beta 120.920965
_cell_angle_gamma 90.000000
_cell_volume 2581.333364
_symmetry_space_group_name_H-M "C 2/M"
_symmetry_group_IT_number 12
_symmetry_cell_setting 'monoclinic'
loop_
_space_group_symop_operation_xyz
x,y,z
-x,y,-z
-x,-y,-z
x,-y,z
1/2+x,1/2+y,z
1/2-x,1/2+y,-z
1/2-x,1/2-y,-z
1/2+x,1/2-y,z
loop_
_atom_site_type_symbol
_atom_site_label
_atom_site_fract_x
_atom_site_fract_y
_atom_site_fract_z
Si Si1 0.439796 0.279869 0.425868
Si Si2 0.631652 0.797118 0.205039
Si Si3 0.414744 0.779442 0.931742
Si Si4 0.267471 0.714416 0.070000
Si Si5 0.554306 0.280277 0.799048
Si Si6 0.468869 0.714912 0.657048
Si Si7 0.224587 0.283489 0.345665
O O1 0.500000 0.225453 0.500000
O O2 0.438481 0.500000 0.423907
O O3 0.493118 0.218980 0.388641
O O4 0.330922 0.224092 0.394909
O O5 0.601420 0.715080 0.136177
O O6 0.535447 0.801189 0.203847
O O7 0.698882 0.713815 0.274988
O O8 0.667520 0.000000 0.205626
O O9 0.323077 0.721988 0.930834
O O10 0.422311 0.000000 0.931788
O O11 0.500000 0.718999 0.000000
O O12 0.271444 0.500000 0.077297
O O13 0.357917 0.782029 0.134184
O O14 0.250000 0.750000 0.000000
O O15 0.549294 0.500000 0.799792
O O16 0.542032 0.229153 0.730831
O O17 0.473213 0.500000 0.655271
O O18 0.362341 0.749053 0.642462
O O19 0.226466 0.500000 0.342417
#
# Coordination Sequence:
#
# PCOD9190670 Si02
#       7
#     8   8   8   8   8   8   8
#     4   9  18  32  52  78 106 137 173 211 252 304
#     4   9  17  30  50  71  92 121 159 202 244 286
#     4   9  17  28  44  66  89 116 152 194 235 278
#     4  10  20  32  47  67  93 123 158 197 241 289
#     4   9  18  31  48  70  95 124 157 198 245 294
#     4   9  18  33  53  75 103 137 171 208 256 307
#     4   9  18  32  52  77 103 132 171 215 253 298
#
# _framework density 21.694215
#
# number of rings (size 3 to 8) (size 9 to 14) (size 15 to 20)
#    0.000    2.857    0.000    0.857    2.000    2.286 
#    0.000    1.429    0.000    3.429    0.000    0.000 
#    0.000    0.000    0.000    0.000    0.000    0.000 
#
# Total GULP energy -155945.186410 kJ/mol
# GULP energy per Si atom -5569.470943 kJ/mol
# Density = 2.164484 g / cm^3
# Si number density = 21.694215 Si / 1000 Ang^3
#
#
#
# Elastic Constant Matrix: (Units=GPa)
#
#
# Indices 1 2 3 4 5 6 
#
# 1 96.1527 -0.1245 108.1997 0.0000 0.2065 0.0000
# 2 -0.1245 68.8081 8.0394 0.0000 -0.0080 0.0000
# 3 108.1997 8.0394 224.8299 0.0000 6.3685 0.0000
# 4 0.0000 0.0000 0.0000 5.4712 0.0000 -10.1182
# 5 0.2065 -0.0080 6.3685 0.0000 52.5428 0.0000
# 6 0.0000 0.0000 0.0000 -10.1182 0.0000 27.1945
#
#
#
# Elastic Compliance Matrix: (Units=1/GPa)
#
#
# Indices 1 2 3 4 5 6 
#
# 1 0.022888 0.001338 -0.011098 0.000000 0.001255 0.000000
# 2 0.001338 0.014673 -0.001173 0.000000 0.000139 0.000000
# 3 -0.011098 -0.001173 0.009863 0.000000 -0.001152 0.000000
# 4 0.000000 0.000000 0.000000 0.585992 0.000000 0.218030
# 5 0.001255 0.000139 -0.001152 0.000000 0.019167 0.000000
# 6 0.000000 0.000000 0.000000 0.218030 0.000000 0.117894
#
#
# Mechanical properties :
#
#
# Convention : Reuss Voigt Hill
#
# Bulk Modulus (GPa) = 39.12567 69.11333 54.11950
# Shear Modulus (GPa) = 6.24328 35.28677 20.76502
#
# Velocity S-wave (km/s) = 1.69826 4.03743 3.09717
# Velocity P-wave (km/s) = 4.68185 7.32540 6.14741
#
# Compressibility (1/GPa) = 0.02555867
#
# Stress axis : x y z
#
# Youngs Moduli (GPa) = 43.69119 68.15420 101.38473
#
# Poissons Ratio (x) = -0.09121 1.12519
# Poissons Ratio (y) = -0.05847 0.11889
# Poissons Ratio (z) = 0.48490 0.07992
#
# Static dielectric constant tensor:
#      x y z
#    x 2.700560 0.000000 -3.303130 
#    y 0.000000 1.897120 0.000000 
#    z -3.303130 0.000000 13.567190 
# 
# From -- ./inp_files/338451.got.cif
#   From: 2010.05.17/outbox.cif.g08.bks.cpg/sg12_170_cif.got.tgz:338451.got - 2010.06.03 13:09:07.
