data_PCOD9190031
_publ_section_title
;
Structure prediction by ZEFSAII (Michael W. Deem and Ramdas Pophale) SiO2 
 PCOD9190031
Probable space group: C 2/M
;
_chemical_formula_sum "Si O2"
_cell_formula_units_Z 38
_cell_length_a 10.116354
_cell_length_b 11.598273
_cell_length_c 14.808155
_cell_angle_alpha 90.000000
_cell_angle_beta 124.012800
_cell_angle_gamma 90.000000
_cell_volume 1440.214079
_symmetry_space_group_name_H-M "C 2/M"
_symmetry_group_IT_number 12
_symmetry_cell_setting 'monoclinic'
loop_
_space_group_symop_operation_xyz
x,y,z
-x,y,-z
-x,-y,-z
x,-y,z
1/2+x,1/2+y,z
1/2-x,1/2+y,-z
1/2-x,1/2-y,-z
1/2+x,1/2-y,z
loop_
_atom_site_type_symbol
_atom_site_label
_atom_site_fract_x
_atom_site_fract_y
_atom_site_fract_z
Si Si1 0.500000 0.500000 0.000000
Si Si2 0.200506 0.803847 0.784843
Si Si3 0.013619 0.000000 0.210789
Si Si4 0.642552 0.500000 0.447557
Si Si5 0.137761 0.500000 0.918552
Si Si6 0.500000 0.809868 0.000000
Si Si7 0.838559 0.500000 0.702504
Si Si8 0.558917 0.249097 0.430975
O O1 0.427508 0.500000 0.867285
O O2 0.322399 0.500000 0.974929
O O3 0.276049 0.886561 0.734532
O O4 0.067238 0.718515 0.694081
O O5 0.351609 0.748328 0.894590
O O6 0.099528 0.889593 0.810524
O O7 0.153212 0.000000 0.342046
O O8 0.782669 0.500000 0.576326
O O9 0.539165 0.387461 0.426064
O O10 0.082287 0.609139 0.957445
O O11 0.026057 0.500000 0.789102
O O12 0.500000 0.192803 0.500000
O O13 0.750000 0.250000 0.500000
#
# Coordination Sequence:
#
# PCOD9190031 Si02
#       8
#     2   8   4   4   4   4   4   8
#     4  12  16  30  38  82 138 166 178 242 350 368
#     4   9  16  30  56  87 115 154 211 263 291 363
#     4   9  18  25  49  81 125 164 192 251 307 375
#     4  10  19  39  64  91 120 170 222 251 294 394
#     4   9  17  24  48  81 123 153 195 257 305 373
#     4   9  14  30  50  82 109 152 220 252 280 363
#     4   9  15  30  59  90 109 149 224 257 284 355
#     4  11  22  38  64  95 125 167 209 263 323 378
#
# _framework density 26.384968000000001
#
# number of rings (size 3 to 8) (size 9 to 14) (size 15 to 20)
#    0.000    2.316    4.211    2.211    0.000    0.000 
#    0.000    5.263    0.000    1.263    0.000    1.474 
#    0.000    0.000    0.000    0.000    0.000    0.000 
#
# Total GULP energy -105867.794414 kJ/mol
# GULP energy per Si atom -5571.989180 kJ/mol
# Density = 2.632491 g / cm^3
# Si number density = 26.384968 Si / 1000 Ang^3
#
#
#
# Elastic Constant Matrix: (Units=GPa)
#
#
# Indices 1 2 3 4 5 6 
#
# 1 152.5295 8.7590 87.6405 0.0000 22.2623 0.0000
# 2 8.7590 58.2083 16.7733 0.0000 -1.8597 0.0000
# 3 87.6405 16.7733 284.4488 0.0000 32.9003 0.0000
# 4 0.0000 0.0000 0.0000 -45.2874 0.0000 5.1572
# 5 22.2623 -1.8597 32.9003 0.0000 81.3772 0.0000
# 6 0.0000 0.0000 0.0000 5.1572 0.0000 5.1235
#
#
#
# Elastic Compliance Matrix: (Units=1/GPa)
#
#
# Indices 1 2 3 4 5 6 
#
# 1 0.008109 -0.000595 -0.002313 0.000000 -0.001297 0.000000
# 2 -0.000595 0.017577 -0.000964 0.000000 0.000954 0.000000
# 3 -0.002313 -0.000964 0.004421 0.000000 -0.001177 0.000000
# 4 0.000000 0.000000 0.000000 -0.019810 0.000000 0.019941
# 5 -0.001297 0.000954 -0.001177 0.000000 0.013141 0.000000
# 6 0.000000 0.000000 0.000000 0.019941 0.000000 0.175108
#
#
# Mechanical properties :
#
#
# Convention : Reuss Voigt Hill
#
# Bulk Modulus (GPa) = 44.71538 80.17023 62.44280
# Shear Modulus (GPa) = 23.39249 33.71023 28.55136
#
# Velocity S-wave (km/s) = 2.98079 3.57827 3.29311
# Velocity P-wave (km/s) = 5.36944 6.89368 6.17874
#
# Compressibility (1/GPa) = 0.02236367
#
# Stress axis : x y z
#
# Youngs Moduli (GPa) = 123.32453 56.89141 226.18200
#
# Poissons Ratio (x) = 0.03385 0.52322
# Poissons Ratio (y) = 0.07338 0.21793
# Poissons Ratio (z) = 0.28528 0.05482
#
# Static dielectric constant tensor:
#      x y z
#    x 1.838020 0.000000 0.075040 
#    y 0.000000 2.134570 0.000000 
#    z 0.075040 0.000000 2.206340 
# 
# From -- ./inp_files/119119.got.cif
#   From: 2010.05.17/outbox.cif.g08.bks.cpg/sg12_60_cif.got.tgz:119119.got - 2010.06.03 13:09:07.
