data_PCOD9190118
_publ_section_title
;
Structure prediction by ZEFSAII (Michael W. Deem and Ramdas Pophale) SiO2 
 PCOD9190118
Probable space group: C 2/M
;
_chemical_formula_sum "Si O2"
_cell_formula_units_Z 36
_cell_length_a 7.404759
_cell_length_b 16.881378
_cell_length_c 18.429348
_cell_angle_alpha 90.000000
_cell_angle_beta 41.458943
_cell_angle_gamma 90.000000
_cell_volume 1525.251133
_symmetry_space_group_name_H-M "C 2/M"
_symmetry_group_IT_number 12
_symmetry_cell_setting 'monoclinic'
loop_
_space_group_symop_operation_xyz
x,y,z
-x,y,-z
-x,-y,-z
x,-y,z
1/2+x,1/2+y,z
1/2-x,1/2+y,-z
1/2-x,1/2-y,-z
1/2+x,1/2-y,z
loop_
_atom_site_type_symbol
_atom_site_label
_atom_site_fract_x
_atom_site_fract_y
_atom_site_fract_z
Si Si1 0.157399 0.355104 0.568348
Si Si2 0.712125 0.367836 0.877254
Si Si3 0.296590 0.686000 0.879100
Si Si4 0.921150 0.500000 0.302019
Si Si5 0.610617 0.680832 0.645904
O O1 0.383036 0.355283 0.436364
O O2 0.156954 0.274064 0.615246
O O3 0.167147 0.431431 0.613169
O O4 0.872367 0.350654 0.610528
O O5 0.532350 0.349652 0.859012
O O6 0.808897 0.281835 0.876955
O O7 0.943338 0.430006 0.790177
O O8 0.500000 0.399471 0.000000
O O9 0.363656 0.665457 0.775316
O O10 0.000000 0.663328 0.000000
#
# Coordination Sequence:
#
# PCOD9190118 Si02
#       5
#     8   8   8   4   8
#     4  10  22  36  68  85 122 154 201 246 302 347
#     4  11  23  38  62  91 121 158 205 246 295 354
#     4  11  20  38  64  92 115 160 208 244 284 358
#     4  12  21  39  59  93 122 159 190 250 314 357
#     4  10  19  40  59  95 112 159 203 249 278 362
#
# _framework density 23.60267
#
# number of rings (size 3 to 8) (size 9 to 14) (size 15 to 20)
#    0.000    1.333    4.444    3.000    0.000    1.778 
#    0.000    0.556    0.000   16.000    0.000    0.778 
#    0.000    0.000    0.000    0.000    0.000    0.000 
#
# Total GULP energy -100227.433347 kJ/mol
# GULP energy per Si atom -5568.190741 kJ/mol
# Density = 2.354895 g / cm^3
# Si number density = 23.602670 Si / 1000 Ang^3
#
#
#
# Elastic Constant Matrix: (Units=GPa)
#
#
# Indices 1 2 3 4 5 6 
#
# 1 77.1427 17.3653 30.3909 0.0037 -2.6263 0.0044
# 2 17.3653 94.3277 37.0822 -0.0019 16.9690 -0.0007
# 3 30.3909 37.0822 224.7765 -0.0122 47.9811 -0.0069
# 4 0.0037 -0.0019 -0.0122 -6.8482 0.0035 22.7833
# 5 -2.6263 16.9690 47.9811 0.0035 34.0695 0.0020
# 6 0.0044 -0.0007 -0.0069 22.7833 0.0020 15.1963
#
#
#
# Elastic Compliance Matrix: (Units=1/GPa)
#
#
# Indices 1 2 3 4 5 6 
#
# 1 0.015016 -0.002801 -0.003021 -0.000001 0.006808 -0.000006
# 2 -0.002801 0.012319 -0.000426 0.000000 -0.005752 0.000002
# 3 -0.003021 -0.000426 0.007052 0.000000 -0.009952 0.000006
# 4 -0.000001 0.000000 0.000000 -0.024387 0.000001 0.036562
# 5 0.006808 -0.005752 -0.009952 0.000001 0.046758 -0.000014
# 6 -0.000006 0.000002 0.000006 0.036562 -0.000014 0.010990
#
#
# Mechanical properties :
#
#
# Convention : Reuss Voigt Hill
#
# Bulk Modulus (GPa) = 45.68204 62.88043 54.28124
# Shear Modulus (GPa) = 57.11600 29.24409 43.18005
#
# Velocity S-wave (km/s) = 4.92458 3.52378 4.28185
# Velocity P-wave (km/s) = 7.19249 6.57686 6.89156
#
# Compressibility (1/GPa) = 0.02189044
#
# Stress axis : x y z
#
# Youngs Moduli (GPa) = 66.59758 81.17420 141.80273
#
# Poissons Ratio (x) = 0.22739 0.42841
# Poissons Ratio (y) = 0.18656 0.06037
# Poissons Ratio (z) = 0.20120 0.03456
#
# Static dielectric constant tensor:
#      x y z
#    x 1.927670 0.000000 -0.027990 
#    y 0.000000 1.818290 0.000000 
#    z -0.027990 0.000000 1.978570 
# 
# From -- ./inp_files/300061.got.cif
#   From: 2010.05.17/outbox.cif.g08.bks.cpg/sg12_151_cif.got.tgz:300061.got - 2010.06.03 13:09:07.
