data_PCOD9190344
_publ_section_title
;
Structure prediction by ZEFSAII (Michael W. Deem and Ramdas Pophale) SiO2 
 PCOD9190344
Probable space group: C 2/M
;
_chemical_formula_sum "Si O2"
_cell_formula_units_Z 28
_cell_length_a 14.000388
_cell_length_b 5.805535
_cell_length_c 22.999576
_cell_angle_alpha 90.000000
_cell_angle_beta 147.226393
_cell_angle_gamma 90.000000
_cell_volume 1011.945176
_symmetry_space_group_name_H-M "C 2/M"
_symmetry_group_IT_number 12
_symmetry_cell_setting 'monoclinic'
loop_
_space_group_symop_operation_xyz
x,y,z
-x,y,-z
-x,-y,-z
x,-y,z
1/2+x,1/2+y,z
1/2-x,1/2+y,-z
1/2-x,1/2-y,-z
1/2+x,1/2-y,z
loop_
_atom_site_type_symbol
_atom_site_label
_atom_site_fract_x
_atom_site_fract_y
_atom_site_fract_z
Si Si1 0.514261 0.748804 0.258365
Si Si2 0.087271 0.500000 0.108851
Si Si3 0.083719 0.000000 0.107125
Si Si4 0.704649 0.500000 0.939090
Si Si5 0.115434 0.750183 0.618195
O O1 0.529041 0.500000 0.297859
O O2 0.347641 0.710063 0.130570
O O3 0.683918 0.751002 0.302527
O O4 0.509689 0.000000 0.284307
O O5 0.176818 0.250449 0.162328
O O6 0.910096 0.500000 0.056998
O O7 0.000000 0.500000 0.000000
O O8 0.928986 0.000000 0.076062
O O9 0.000000 0.000000 0.000000
O O10 0.081249 0.500000 0.628840
O O11 0.000000 0.750291 0.500000
O O12 0.081121 0.000000 0.628886
#
# Coordination Sequence:
#
# PCOD9190344 Si02
#       5
#     8   4   4   4   8
#     4   8  16  24  37  64  86 115 152 179 220 263
#     4  10  22  36  50  69  89 116 156 191 233 282
#     4  10  22  36  50  69  89 116 156 191 233 282
#     4  10  20  30  53  66  94 120 152 194 235 264
#     4   8  12  20  32  49  81 118 144 172 207 251
#
# _framework density 27.669485999999999
#
# number of rings (size 3 to 8) (size 9 to 14) (size 15 to 20)
#    0.857    2.286    0.000    0.857    4.000    0.000 
#    0.000    0.000    0.000    0.000    0.000    0.000 
#    0.000    0.000    0.000   41.143    0.000    2.286 
#
# Total GULP energy -78152.322280 kJ/mol
# GULP energy per Si atom -5582.308734 kJ/mol
# Density = 2.760651 g / cm^3
# Si number density = 27.669486 Si / 1000 Ang^3
#
#
#
# Elastic Constant Matrix: (Units=GPa)
#
#
# Indices 1 2 3 4 5 6 
#
# 1 118.9682 10.1383 6.8972 0.0000 -20.0968 0.0001
# 2 10.1383 353.2619 14.5636 0.0000 -23.5928 0.0003
# 3 6.8972 14.5636 74.8939 0.0000 0.5217 0.0000
# 4 0.0000 0.0000 0.0000 52.5500 0.0000 10.7582
# 5 -20.0968 -23.5928 0.5217 0.0000 14.5987 0.0000
# 6 0.0001 0.0003 0.0000 10.7582 0.0000 22.3322
#
#
#
# Elastic Compliance Matrix: (Units=1/GPa)
#
#
# Indices 1 2 3 4 5 6 
#
# 1 0.011274 0.000864 -0.001324 0.000000 0.016964 0.000000
# 2 0.000864 0.003272 -0.000761 0.000000 0.006504 0.000000
# 3 -0.001324 -0.000761 0.013647 0.000000 -0.003541 0.000000
# 4 0.000000 0.000000 0.000000 0.021112 0.000000 -0.010170
# 5 0.016964 0.006504 -0.003541 0.000000 0.102490 0.000000
# 6 0.000000 0.000000 0.000000 -0.010170 0.000000 0.049678
#
#
# Mechanical properties :
#
#
# Convention : Reuss Voigt Hill
#
# Bulk Modulus (GPa) = 38.83511 67.81360 53.32436
# Shear Modulus (GPa) = 23.52953 52.26450 37.89702
#
# Velocity S-wave (km/s) = 2.91929 4.35085 3.70487
# Velocity P-wave (km/s) = 5.04270 7.05702 6.13312
#
# Compressibility (1/GPa) = 0.02574989
#
# Stress axis : x y z
#
# Youngs Moduli (GPa) = 88.69610 305.65022 73.27688
#
# Poissons Ratio (x) = -0.26408 0.09705
# Poissons Ratio (y) = -0.07663 0.05577
# Poissons Ratio (z) = 0.11748 0.23263
#
# Static dielectric constant tensor:
#      x y z
#    x 2.114540 0.000000 -0.005220 
#    y 0.000000 2.291630 0.000000 
#    z -0.005220 0.000000 2.113690 
# 
# From -- ./inp_files/219706.got.cif
#   From: 2010.05.17/outbox.cif.g08.bks.cpg/sg12_110_cif.got.tgz:219706.got - 2010.06.03 13:09:07.
