data_PCOD9190500
_publ_section_title
;
Structure prediction by ZEFSAII (Michael W. Deem and Ramdas Pophale) SiO2 
 PCOD9190500
Probable space group: C 2/M
;
_chemical_formula_sum "Si O2"
_cell_formula_units_Z 64
_cell_length_a 28.777890
_cell_length_b 7.327811
_cell_length_c 14.267194
_cell_angle_alpha 90.000000
_cell_angle_beta 106.696715
_cell_angle_gamma 90.000000
_cell_volume 2881.802914
_symmetry_space_group_name_H-M "C 2/M"
_symmetry_group_IT_number 12
_symmetry_cell_setting 'monoclinic'
loop_
_space_group_symop_operation_xyz
x,y,z
-x,y,-z
-x,-y,-z
x,-y,z
1/2+x,1/2+y,z
1/2-x,1/2+y,-z
1/2-x,1/2-y,-z
1/2+x,1/2-y,z
loop_
_atom_site_type_symbol
_atom_site_label
_atom_site_fract_x
_atom_site_fract_y
_atom_site_fract_z
Si Si1 0.831131 0.277311 0.131660
Si Si2 0.286156 0.782529 0.435383
Si Si3 0.744845 0.720040 0.212947
Si Si4 0.955156 0.276999 0.908803
Si Si5 0.854940 0.713346 0.938305
Si Si6 0.896299 0.277241 0.506659
Si Si7 0.473420 0.777213 0.706584
Si Si8 0.922522 0.277971 0.311952
O O1 0.829866 0.500000 0.130301
O O2 0.781472 0.217601 0.152436
O O3 0.876683 0.223008 0.222468
O O4 0.839001 0.212252 0.030301
O O5 0.250000 0.750000 0.500000
O O6 0.264264 0.713950 0.324577
O O7 0.340710 0.715785 0.485446
O O8 0.290659 0.000000 0.426760
O O9 0.746354 0.500000 0.214996
O O10 0.690107 0.772154 0.157940
O O11 0.954526 0.500000 0.906963
O O12 0.904395 0.212807 0.923096
O O13 0.962748 0.218811 0.806210
O O14 0.000000 0.222616 0.000000
O O15 0.864774 0.500000 0.960825
O O16 0.896561 0.500000 0.508004
O O17 0.932015 0.218564 0.609918
O O18 0.915328 0.221517 0.415263
O O19 0.526425 0.719255 0.701816
O O20 0.473689 0.000000 0.706547
O O21 0.922596 0.500000 0.311946
#
# Coordination Sequence:
#
# PCOD9190500 Si02
#       8
#     8   8   8   8   8   8   8   8
#     4   9  16  29  47  68  96 131 166 200 243 290
#     4  10  21  35  52  72 100 134 165 202 249 296
#     4  10  20  35  51  70  99 134 168 202 245 293
#     4   9  17  29  42  65 100 130 155 192 249 301
#     4  10  20  31  50  76 100 129 166 206 244 287
#     4   9  16  27  42  65  94 125 160 199 244 290
#     4   9  16  23  38  63  93 126 158 196 240 290
#     4   9  14  24  42  64  93 128 161 194 240 297
#
# _framework density 22.208320000000001
#
# number of rings (size 3 to 8) (size 9 to 14) (size 15 to 20)
#    0.000    2.625    1.250    1.500    1.750    5.000 
#    0.000    0.000    0.000    0.375    0.000    0.000 
#    0.000    4.000    0.000    0.000    0.000    0.125 
#
# Total GULP energy -178885.620812 kJ/mol
# GULP energy per Si atom -5590.175650 kJ/mol
# Density = 2.215777 g / cm^3
# Si number density = 22.208320 Si / 1000 Ang^3
#
#
#
# Elastic Constant Matrix: (Units=GPa)
#
#
# Indices 1 2 3 4 5 6 
#
# 1 214.6652 -2.6462 81.2680 0.0000 -4.3474 0.0000
# 2 -2.6462 84.5070 -3.6391 0.0000 -3.9584 0.0000
# 3 81.2680 -3.6391 93.7892 0.0000 1.4770 0.0000
# 4 0.0000 0.0000 0.0000 -0.2912 0.0000 -2.8048
# 5 -4.3474 -3.9584 1.4770 0.0000 42.6954 0.0000
# 6 0.0000 0.0000 0.0000 -2.8048 0.0000 16.1458
#
#
#
# Elastic Compliance Matrix: (Units=1/GPa)
#
#
# Indices 1 2 3 4 5 6 
#
# 1 0.006968 0.000001 -0.006053 0.000000 0.000919 0.000000
# 2 0.000001 0.011903 0.000444 0.000000 0.001088 0.000000
# 3 -0.006053 0.000444 0.015942 0.000000 -0.001127 0.000000
# 4 0.000000 0.000000 0.000000 -1.284580 0.000000 -0.223151
# 5 0.000919 0.001088 -0.001127 0.000000 0.023655 0.000000
# 6 0.000000 0.000000 0.000000 -0.223151 0.000000 0.023171
#
#
# Mechanical properties :
#
#
# Convention : Reuss Voigt Hill
#
# Bulk Modulus (GPa) = 42.37633 60.32520 51.35076
# Shear Modulus (GPa) = -4.22347 32.90859 14.34256
#
# Velocity S-wave (km/s) = -1.38054 3.85361 2.54405
# Velocity P-wave (km/s) = 4.07204 6.85731 5.63934
#
# Compressibility (1/GPa) = 0.02359808
#
# Stress axis : x y z
#
# Youngs Moduli (GPa) = 143.50484 84.00915 62.72865
#
# Poissons Ratio (x) = -0.00005 0.37967
# Poissons Ratio (y) = -0.00009 -0.02786
# Poissons Ratio (z) = 0.86857 -0.03732
#
# Static dielectric constant tensor:
#      x y z
#    x 1.761940 0.000000 -0.008730 
#    y 0.000000 1.955340 0.000000 
#    z -0.008730 0.000000 1.758120 
# 
# From -- ./inp_files/182143.got.cif
#   From: 2010.05.17/outbox.cif.g08.bks.cpg/sg12_92_cif.got.tgz:182143.got - 2010.06.03 13:09:07.
