data_PCOD9190684
_publ_section_title
;
Structure prediction by ZEFSAII (Michael W. Deem and Ramdas Pophale) SiO2 
 PCOD9190684
Probable space group: C 2/M
;
_chemical_formula_sum "Si O2"
_cell_formula_units_Z 56
_cell_length_a 25.862604
_cell_length_b 7.446294
_cell_length_c 13.819592
_cell_angle_alpha 90.000000
_cell_angle_beta 109.514044
_cell_angle_gamma 90.000000
_cell_volume 2508.513781
_symmetry_space_group_name_H-M "C 2/M"
_symmetry_group_IT_number 12
_symmetry_cell_setting 'monoclinic'
loop_
_space_group_symop_operation_xyz
x,y,z
-x,y,-z
-x,-y,-z
x,-y,z
1/2+x,1/2+y,z
1/2-x,1/2+y,-z
1/2-x,1/2-y,-z
1/2+x,1/2-y,z
loop_
_atom_site_type_symbol
_atom_site_label
_atom_site_fract_x
_atom_site_fract_y
_atom_site_fract_z
Si Si1 0.440927 0.283968 0.852037
Si Si2 0.329477 0.789257 0.476322
Si Si3 0.369273 0.279878 0.210280
Si Si4 0.938357 0.783160 0.441112
Si Si5 0.764087 0.797703 0.246215
Si Si6 0.829246 0.288047 0.688879
Si Si7 0.064617 0.780980 0.931767
O O1 0.442296 0.500000 0.854810
O O2 0.393132 0.230048 0.750572
O O3 0.502550 0.225449 0.865768
O O4 0.426690 0.222765 0.952275
O O5 0.394179 0.770458 0.494594
O O6 0.298053 0.697173 0.368539
O O7 0.316106 0.715935 0.574160
O O8 0.315751 0.000000 0.463240
O O9 0.367676 0.500000 0.211305
O O10 0.411506 0.225664 0.321997
O O11 0.308205 0.216059 0.200145
O O12 0.392141 0.221998 0.121226
O O13 0.000000 0.719251 0.500000
O O14 0.940041 0.000000 0.440401
O O15 0.707176 0.711923 0.245814
O O16 0.752603 0.000000 0.204165
O O17 0.816708 0.500000 0.677641
O O18 0.065536 0.000000 0.932340
#
# Coordination Sequence:
#
# PCOD9190684 Si02
#       7
#     8   8   8   8   8   8   8
#     4   9  18  31  51  75  96 122 159 204 246 290
#     4  10  20  32  47  69 100 133 160 198 248 289
#     4   8  14  27  49  70  92 123 158 199 242 279
#     4   9  18  30  47  73  99 127 166 200 229 285
#     4   9  18  34  52  70  94 130 170 203 235 286
#     4  10  21  34  48  70 101 131 163 200 246 294
#     4   8  15  30  50  74  98 120 156 203 250 290
#
# _framework density 22.323975000000001
#
# number of rings (size 3 to 8) (size 9 to 14) (size 15 to 20)
#    0.000    3.000    0.000    2.571    2.000    2.000 
#    0.000    2.143    0.000    3.429    0.000    0.000 
#    0.000    0.000    0.000    0.000    0.000    0.000 
#
# Total GULP energy -156235.627875 kJ/mol
# GULP energy per Si atom -5579.843853 kJ/mol
# Density = 2.227317 g / cm^3
# Si number density = 22.323975 Si / 1000 Ang^3
#
#
#
# Elastic Constant Matrix: (Units=GPa)
#
#
# Indices 1 2 3 4 5 6 
#
# 1 58.6780 -2.7474 12.0845 0.0000 -24.8387 0.0000
# 2 -2.7474 72.9531 -5.7343 0.0000 -4.1767 0.0000
# 3 12.0845 -5.7343 29.7977 0.0000 -20.3152 0.0000
# 4 0.0000 0.0000 0.0000 0.8239 0.0000 -0.5311
# 5 -24.8387 -4.1767 -20.3152 0.0000 41.3368 0.0000
# 6 0.0000 0.0000 0.0000 -0.5311 0.0000 9.5061
#
#
#
# Elastic Compliance Matrix: (Units=1/GPa)
#
#
# Indices 1 2 3 4 5 6 
#
# 1 0.023070 0.001762 0.000835 0.000000 0.014451 0.000000
# 2 0.001762 0.014529 0.005721 0.000000 0.005338 0.000000
# 3 0.000835 0.005721 0.052724 0.000000 0.026991 0.000000
# 4 0.000000 0.000000 0.000000 1.259106 0.000000 0.070345
# 5 0.014451 0.005338 0.026991 0.000000 0.046679 0.000000
# 6 0.000000 0.000000 0.000000 0.070345 0.000000 0.109126
#
#
# Mechanical properties :
#
#
# Convention : Reuss Voigt Hill
#
# Bulk Modulus (GPa) = 9.34944 18.73715 14.04330
# Shear Modulus (GPa) = 3.28030 20.85509 12.06769
#
# Velocity S-wave (km/s) = 1.21351 3.05979 2.32754
# Velocity P-wave (km/s) = 2.48206 4.57106 3.67799
#
# Compressibility (1/GPa) = 0.10695824
#
# Stress axis : x y z
#
# Youngs Moduli (GPa) = 43.34680 68.82748 18.96682
#
# Poissons Ratio (x) = -0.12126 -0.01584
# Poissons Ratio (y) = -0.07637 -0.10851
# Poissons Ratio (z) = -0.03620 -0.39376
#
# Static dielectric constant tensor:
#      x y z
#    x 1.856970 0.000000 -0.022250 
#    y 0.000000 1.873630 0.000000 
#    z -0.022250 0.000000 1.779160 
# 
# From -- ./inp_files/181107.got.cif
#   From: 2010.05.17/outbox.cif.g08.bks.cpg/sg12_91_cif.got.tgz:181107.got - 2010.06.03 13:09:07.
