data_PCOD9190402
_publ_section_title
;
Structure prediction by ZEFSAII (Michael W. Deem and Ramdas Pophale) SiO2 
 PCOD9190402
Probable space group: C 2/M
;
_chemical_formula_sum "Si O2"
_cell_formula_units_Z 64
_cell_length_a 37.357557
_cell_length_b 13.456965
_cell_length_c 14.066131
_cell_angle_alpha 90.000000
_cell_angle_beta 30.771447
_cell_angle_gamma 90.000000
_cell_volume 3617.789551
_symmetry_space_group_name_H-M "C 2/M"
_symmetry_group_IT_number 12
_symmetry_cell_setting 'monoclinic'
loop_
_space_group_symop_operation_xyz
x,y,z
-x,y,-z
-x,-y,-z
x,-y,z
1/2+x,1/2+y,z
1/2-x,1/2+y,-z
1/2-x,1/2-y,-z
1/2+x,1/2-y,z
loop_
_atom_site_type_symbol
_atom_site_label
_atom_site_fract_x
_atom_site_fract_y
_atom_site_fract_z
Si Si1 0.040292 0.797713 0.200499
Si Si2 0.605508 0.314226 0.384570
Si Si3 0.525923 0.379624 0.835276
Si Si4 0.657801 0.617637 0.060231
Si Si5 0.830306 0.887069 0.572890
Si Si6 0.706469 0.882869 0.958368
Si Si7 0.693181 0.880851 0.201390
Si Si8 0.458468 0.884506 0.690056
O O1 0.113763 0.834779 0.074939
O O2 0.031182 0.680377 0.239874
O O3 0.976445 0.835063 0.412815
O O4 0.022935 0.833111 0.134663
O O5 0.627142 0.339485 0.228699
O O6 0.641631 0.382339 0.382480
O O7 0.631631 0.201061 0.351541
O O8 0.525257 0.500000 0.824506
O O9 0.605666 0.343110 0.633563
O O10 0.500000 0.357102 0.000000
O O11 0.646392 0.500000 0.084831
O O12 0.741864 0.632658 0.875048
O O13 0.753618 0.840415 0.765294
O O14 0.822928 0.000000 0.554568
O O15 0.719065 0.000000 0.922868
O O16 0.724553 0.856286 0.025138
O O17 0.623729 0.871259 0.141841
O O18 0.672887 0.000000 0.247385
O O19 0.500000 0.851052 0.500000
O O20 0.475277 0.000000 0.664866
#
# Coordination Sequence:
#
# PCOD9190402 Si02
#       8
#     8   8   8   8   8   8   8   8
#     4  11  22  32  49  77 101 132 170 214 262 308
#     4  11  20  30  46  69 100 140 173 202 239 297
#     4   9  19  37  57  74  96 126 165 218 273 328
#     4  11  21  31  44  70 107 138 164 203 258 308
#     4   9  17  29  48  74  94 119 167 209 244 292
#     4   9  16  28  45  66  95 134 174 205 231 276
#     4  10  20  31  45  67 101 146 182 205 234 286
#     4  10  20  33  49  73 110 148 179 206 238 287
#
# _framework density 17.690362
#
# number of rings (size 3 to 8) (size 9 to 14) (size 15 to 20)
#    0.000    2.000    1.250    3.750    1.750    3.500 
#    0.000    0.000    0.000    1.125    0.000    0.000 
#    0.000    0.000    0.000    0.000    0.000    0.000 
#
# Total GULP energy -178169.358902 kJ/mol
# GULP energy per Si atom -5567.792466 kJ/mol
# Density = 1.765010 g / cm^3
# Si number density = 17.690362 Si / 1000 Ang^3
#
#
#
# Elastic Constant Matrix: (Units=GPa)
#
#
# Indices 1 2 3 4 5 6 
#
# 1 67.2091 26.8299 41.8683 0.0000 4.5128 0.0000
# 2 26.8299 90.3084 16.9359 0.0000 9.6784 0.0000
# 3 41.8683 16.9359 89.4558 0.0000 -0.3030 0.0000
# 4 0.0000 0.0000 0.0000 13.2911 0.0000 0.5173
# 5 4.5128 9.6784 -0.3030 0.0000 25.5387 0.0000
# 6 0.0000 0.0000 0.0000 0.5173 0.0000 20.8410
#
#
#
# Elastic Compliance Matrix: (Units=1/GPa)
#
#
# Indices 1 2 3 4 5 6 
#
# 1 0.023123 -0.004750 -0.009931 0.000000 -0.002404 0.000000
# 2 -0.004750 0.012967 -0.000246 0.000000 -0.004078 0.000000
# 3 -0.009931 -0.000246 0.015880 0.000000 0.002037 0.000000
# 4 0.000000 0.000000 0.000000 0.075311 0.000000 -0.001869
# 5 -0.002404 -0.004078 0.002037 0.000000 0.041151 0.000000
# 6 0.000000 0.000000 0.000000 -0.001869 0.000000 0.048029
#
#
# Mechanical properties :
#
#
# Convention : Reuss Voigt Hill
#
# Bulk Modulus (GPa) = 45.21350 46.47126 45.84238
# Shear Modulus (GPa) = 19.70927 22.69008 21.19968
#
# Velocity S-wave (km/s) = 3.34147 3.58526 3.46551
# Velocity P-wave (km/s) = 6.36404 6.59280 6.47943
#
# Compressibility (1/GPa) = 0.02211729
#
# Stress axis : x y z
#
# Youngs Moduli (GPa) = 43.24653 77.11661 62.97083
#
# Poissons Ratio (x) = 0.36628 0.62539
# Poissons Ratio (y) = 0.20541 0.01548
# Poissons Ratio (z) = 0.42950 0.01896
#
# Static dielectric constant tensor:
#      x y z
#    x 1.617980 0.000000 -0.084890 
#    y 0.000000 1.687070 0.000000 
#    z -0.084890 0.000000 1.661560 
# 
# From -- ./inp_files/189424.got.cif
#   From: 2010.05.17/outbox.cif.g08.bks.cpg/sg12_95_cif.got.tgz:189424.got - 2010.06.03 13:09:07.
