data_PCOD9190739
_publ_section_title
;
Structure prediction by ZEFSAII (Michael W. Deem and Ramdas Pophale) SiO2 
 PCOD9190739
Probable space group: C 2/M
;
_chemical_formula_sum "Si O2"
_cell_formula_units_Z 56
_cell_length_a 23.547150
_cell_length_b 9.377285
_cell_length_c 14.380937
_cell_angle_alpha 90.000000
_cell_angle_beta 93.233367
_cell_angle_gamma 90.000000
_cell_volume 3170.375765
_symmetry_space_group_name_H-M "C 2/M"
_symmetry_group_IT_number 12
_symmetry_cell_setting 'monoclinic'
loop_
_space_group_symop_operation_xyz
x,y,z
-x,y,-z
-x,-y,-z
x,-y,z
1/2+x,1/2+y,z
1/2-x,1/2+y,-z
1/2-x,1/2-y,-z
1/2+x,1/2-y,z
loop_
_atom_site_type_symbol
_atom_site_label
_atom_site_fract_x
_atom_site_fract_y
_atom_site_fract_z
Si Si1 0.588224 0.169721 0.681240
Si Si2 0.542202 0.830858 0.289855
Si Si3 0.376779 0.168023 0.526437
Si Si4 0.631794 0.663685 0.185548
Si Si5 0.714682 0.662903 0.374546
Si Si6 0.277837 0.166099 0.917572
Si Si7 0.303918 0.664904 0.269702
O O1 0.523950 0.203923 0.704057
O O2 0.598498 0.199590 0.572726
O O3 0.635853 0.259268 0.738602
O O4 0.596969 0.000000 0.695646
O O5 0.575126 0.806610 0.390550
O O6 0.574622 0.739600 0.215336
O O7 0.547684 0.000000 0.270006
O O8 0.321854 0.258787 0.550166
O O9 0.362323 0.000000 0.529106
O O10 0.623181 0.500000 0.155884
O O11 0.673077 0.661633 0.280199
O O12 0.665148 0.755430 0.112086
O O13 0.728715 0.500000 0.399928
O O14 0.769409 0.749169 0.345319
O O15 0.234085 0.170929 0.826732
O O16 0.288110 0.000000 0.940883
O O17 0.250000 0.250000 0.000000
O O18 0.310692 0.500000 0.296928
#
# Coordination Sequence:
#
# PCOD9190739 Si02
#       7
#     8   8   8   8   8   8   8
#     4  10  20  32  48  70  98 135 173 208 246 287
#     4   9  17  31  50  71  98 133 173 211 244 282
#     4   9  17  30  48  70  96 129 172 216 251 283
#     4   9  17  30  50  76 102 128 160 199 243 289
#     4   9  17  30  48  69  95 128 166 207 248 291
#     4  10  20  35  57  82 103 124 153 193 243 297
#     4  10  21  35  50  71 100 131 161 196 245 300
#
# _framework density 17.663519999999998
#
# number of rings (size 3 to 8) (size 9 to 14) (size 15 to 20)
#    0.000    2.571    0.000    2.143    0.000    8.571 
#    0.000    0.000    0.000    5.143    0.000    6.000 
#    0.000    0.000    0.000    0.000    0.000    0.000 
#
# Total GULP energy -156276.537518 kJ/mol
# GULP energy per Si atom -5581.304911 kJ/mol
# Density = 1.762332 g / cm^3
# Si number density = 17.663520 Si / 1000 Ang^3
#
#
#
# Elastic Constant Matrix: (Units=GPa)
#
#
# Indices 1 2 3 4 5 6 
#
# 1 110.2431 70.7195 34.7672 0.0000 -27.7278 0.0000
# 2 70.7195 119.9336 56.3819 0.0000 -30.0729 0.0000
# 3 34.7672 56.3819 54.5332 0.0000 -33.5596 0.0000
# 4 0.0000 0.0000 0.0000 25.2878 0.0000 -6.9410
# 5 -27.7278 -30.0729 -33.5596 0.0000 26.1190 0.0000
# 6 0.0000 0.0000 0.0000 -6.9410 0.0000 29.4743
#
#
#
# Elastic Compliance Matrix: (Units=1/GPa)
#
#
# Indices 1 2 3 4 5 6 
#
# 1 0.018923 -0.013155 0.021874 0.000000 0.033048 0.000000
# 2 -0.013155 0.026467 -0.042134 0.000000 -0.037628 0.000000
# 3 0.021874 -0.042134 0.154763 0.000000 0.173559 0.000000
# 4 0.000000 0.000000 0.000000 0.042277 0.000000 0.009956
# 5 0.033048 -0.037628 0.173559 0.000000 0.253047 0.000000
# 6 0.000000 0.000000 0.000000 0.009956 0.000000 0.036272
#
#
# Mechanical properties :
#
#
# Convention : Reuss Voigt Hill
#
# Bulk Modulus (GPa) = 7.50056 67.60524 37.55290
# Shear Modulus (GPa) = 7.77580 24.36566 16.07073
#
# Velocity S-wave (km/s) = 2.10041 3.71810 3.01960
# Velocity P-wave (km/s) = 3.18401 7.53587 5.78478
#
# Compressibility (1/GPa) = 0.13332340
#
# Stress axis : x y z
#
# Youngs Moduli (GPa) = 52.84555 37.78260 6.46151
#
# Poissons Ratio (x) = 0.49702 -0.14134
# Poissons Ratio (y) = 0.69516 0.27225
# Poissons Ratio (z) = -1.15595 1.59194
#
# Static dielectric constant tensor:
#      x y z
#    x 1.592050 0.000000 0.018660 
#    y 0.000000 1.598040 0.000000 
#    z 0.018660 0.000000 1.588870 
# 
# From -- ./inp_files/287016.got.cif
#   From: 2010.05.17/outbox.cif.g08.bks.cpg/sg12_144_cif.got.tgz:287016.got - 2010.06.03 13:09:07.
