data_PCOD9190683
_publ_section_title
;
Structure prediction by ZEFSAII (Michael W. Deem and Ramdas Pophale) SiO2 
 PCOD9190683
Probable space group: C 2/M
;
_chemical_formula_sum "Si O2"
_cell_formula_units_Z 56
_cell_length_a 9.691868
_cell_length_b 27.581141
_cell_length_c 14.224694
_cell_angle_alpha 90.000000
_cell_angle_beta 136.842830
_cell_angle_gamma 90.000000
_cell_volume 2600.878225
_symmetry_space_group_name_H-M "C 2/M"
_symmetry_group_IT_number 12
_symmetry_cell_setting 'monoclinic'
loop_
_space_group_symop_operation_xyz
x,y,z
-x,y,-z
-x,-y,-z
x,-y,z
1/2+x,1/2+y,z
1/2-x,1/2+y,-z
1/2-x,1/2-y,-z
1/2+x,1/2-y,z
loop_
_atom_site_type_symbol
_atom_site_label
_atom_site_fract_x
_atom_site_fract_y
_atom_site_fract_z
Si Si1 0.056447 0.364480 0.393589
Si Si2 0.088370 0.740126 0.703141
Si Si3 0.769020 0.056300 0.769282
Si Si4 0.432707 0.127143 0.830833
Si Si5 0.481411 0.235603 0.121568
Si Si6 0.502324 0.350859 0.611129
Si Si7 0.278902 0.555519 0.003573
O O1 0.976602 0.310310 0.375570
O O2 0.902714 0.406388 0.347941
O O3 0.064598 0.370076 0.282853
O O4 0.286411 0.366375 0.543286
O O5 0.332248 0.738204 0.836633
O O6 0.973192 0.740911 0.745160
O O7 0.037153 0.792490 0.634025
O O8 0.771743 0.056196 0.885311
O O9 0.736135 0.000000 0.724214
O O10 0.996603 0.071947 0.855763
O O11 0.507441 0.179645 0.898944
O O12 0.592065 0.087688 0.941600
O O13 0.202010 0.123306 0.749443
O O14 0.250000 0.250000 0.000000
O O15 0.500000 0.363109 0.500000
O O16 0.256318 0.500000 0.022224
#
# Coordination Sequence:
#
# PCOD9190683 Si02
#       7
#     8   8   8   8   8   8   8
#     4   9  16  26  43  62  87 124 157 191 237 282
#     4  10  20  32  47  70  96 130 167 195 238 289
#     4   8  14  23  37  60  88 117 151 192 240 288
#     4   8  16  27  41  62  89 121 153 191 239 285
#     4  10  20  32  47  69 100 129 158 198 242 289
#     4   9  17  31  46  64  94 127 162 201 232 274
#     4   8  13  23  39  59  87 119 150 189 238 296
#
# _framework density 21.531189000000001
#
# number of rings (size 3 to 8) (size 9 to 14) (size 15 to 20)
#    0.000    3.143    0.000    2.571    2.000    0.000 
#    0.000    0.714    0.000    4.286    0.000    0.000 
#    0.000   20.000    0.000    0.000    0.000    0.000 
#
# Total GULP energy -156146.884113 kJ/mol
# GULP energy per Si atom -5576.674433 kJ/mol
# Density = 2.148218 g / cm^3
# Si number density = 21.531189 Si / 1000 Ang^3
#
#
#
# Elastic Constant Matrix: (Units=GPa)
#
#
# Indices 1 2 3 4 5 6 
#
# 1 78.0976 37.1919 47.9367 0.0000 23.1248 0.0000
# 2 37.1919 85.5621 82.8212 0.0000 53.0591 0.0000
# 3 47.9367 82.8212 142.3821 0.0000 67.6330 0.0000
# 4 0.0000 0.0000 0.0000 27.4434 0.0000 18.6358
# 5 23.1248 53.0591 67.6330 0.0000 55.0453 0.0000
# 6 0.0000 0.0000 0.0000 18.6358 0.0000 11.5499
#
#
#
# Elastic Compliance Matrix: (Units=1/GPa)
#
#
# Indices 1 2 3 4 5 6 
#
# 1 0.016916 -0.005274 -0.004003 0.000000 0.002895 0.000000
# 2 -0.005274 0.035920 -0.008944 0.000000 -0.021418 0.000000
# 3 -0.004003 -0.008944 0.020846 0.000000 -0.015310 0.000000
# 4 0.000000 0.000000 0.000000 -0.380886 0.000000 0.614561
# 5 0.002895 -0.021418 -0.015310 0.000000 0.056407 0.000000
# 6 0.000000 0.000000 0.000000 0.614561 0.000000 -0.905014
#
#
# Mechanical properties :
#
#
# Convention : Reuss Voigt Hill
#
# Bulk Modulus (GPa) = 26.85295 71.32683 49.08989
# Shear Modulus (GPa) = -4.51689 28.01386 11.74849
#
# Velocity S-wave (km/s) = -1.44996 3.61097 2.33845
# Velocity P-wave (km/s) = 3.11377 7.11228 5.49000
#
# Compressibility (1/GPa) = 0.03723985
#
# Stress axis : x y z
#
# Youngs Moduli (GPa) = 59.11723 27.84001 47.97027
#
# Poissons Ratio (x) = 0.14682 0.19201
# Poissons Ratio (y) = 0.31176 0.42907
# Poissons Ratio (z) = 0.23662 0.24901
#
# Static dielectric constant tensor:
#      x y z
#    x 2.139460 0.000000 -0.231750 
#    y 0.000000 1.736600 0.000000 
#    z -0.231750 0.000000 1.969100 
# 
# From -- ./inp_files/136739.got.cif
#   From: 2010.05.17/outbox.cif.g08.bks.cpg/sg12_69_cif.got.tgz:136739.got - 2010.06.03 13:09:07.
