data_PCOD9190805
_publ_section_title
;
Structure prediction by ZEFSAII (Michael W. Deem and Ramdas Pophale) SiO2 
 PCOD9190805
Probable space group: C 2/M
;
_chemical_formula_sum "Si O2"
_cell_formula_units_Z 44
_cell_length_a 28.204569
_cell_length_b 8.257320
_cell_length_c 8.153850
_cell_angle_alpha 90.000000
_cell_angle_beta 96.679856
_cell_angle_gamma 90.000000
_cell_volume 1886.092930
_symmetry_space_group_name_H-M "C 2/M"
_symmetry_group_IT_number 12
_symmetry_cell_setting 'monoclinic'
loop_
_space_group_symop_operation_xyz
x,y,z
-x,y,-z
-x,-y,-z
x,-y,z
1/2+x,1/2+y,z
1/2-x,1/2+y,-z
1/2-x,1/2-y,-z
1/2+x,1/2-y,z
loop_
_atom_site_type_symbol
_atom_site_label
_atom_site_fract_x
_atom_site_fract_y
_atom_site_fract_z
Si Si1 0.760679 0.809073 0.218508
Si Si2 0.000000 0.237906 0.500000
Si Si3 0.351737 0.696479 0.061734
Si Si4 0.188443 0.310729 0.429260
Si Si5 0.501923 0.000000 0.229423
Si Si6 0.892493 0.173277 0.444483
Si Si7 0.910080 0.500000 0.952533
O O1 0.797146 0.750137 0.091562
O O2 0.788773 0.776170 0.402275
O O3 0.709232 0.745766 0.264432
O O4 0.756946 0.000000 0.184131
O O5 0.995793 0.344717 0.337635
O O6 0.051552 0.160779 0.510229
O O7 0.353053 0.500000 0.017204
O O8 0.379385 0.704855 0.249587
O O9 0.378119 0.837567 0.967683
O O10 0.201297 0.500000 0.443012
O O11 0.132688 0.295605 0.442257
O O12 0.455832 0.000000 0.094105
O O13 0.556786 0.000000 0.193656
O O14 0.870483 0.000000 0.479561
#
# Coordination Sequence:
#
# PCOD9190805 Si02
#       7
#     8   4   8   8   4   8   4
#     4   8  15  26  39  67 106 139 171 211 266 321
#     4  11  21  38  56  76 102 148 170 231 269 324
#     4   9  18  32  53  79 112 145 177 219 269 325
#     4   9  16  24  41  68 103 140 171 214 267 315
#     4  10  24  36  58  80 108 130 194 218 270 323
#     4  10  20  32  48  75 108 143 181 219 270 326
#     4  11  20  40  56  86 106 146 176 231 266 327
#
# _framework density 23.328648000000001
#
# number of rings (size 3 to 8) (size 9 to 14) (size 15 to 20)
#    0.000    2.545    1.818    1.909    7.636    0.727 
#    0.000    3.636    0.000    0.000    0.000    1.273 
#    0.000    0.000    0.000    0.000    0.000    0.000 
#
# Total GULP energy -122476.176741 kJ/mol
# GULP energy per Si atom -5567.098943 kJ/mol
# Density = 2.327555 g / cm^3
# Si number density = 23.328648 Si / 1000 Ang^3
#
#
#
# Elastic Constant Matrix: (Units=GPa)
#
#
# Indices 1 2 3 4 5 6 
#
# 1 156.0380 47.0225 13.6104 0.0000 -30.2510 0.0000
# 2 47.0225 91.1386 16.5490 0.0000 -26.0394 0.0000
# 3 13.6104 16.5490 49.8715 0.0000 -30.7467 0.0000
# 4 0.0000 0.0000 0.0000 5.5595 0.0000 -6.4622
# 5 -30.2510 -26.0394 -30.7467 0.0000 51.9546 0.0000
# 6 0.0000 0.0000 0.0000 -6.4622 0.0000 38.1452
#
#
#
# Elastic Compliance Matrix: (Units=1/GPa)
#
#
# Indices 1 2 3 4 5 6 
#
# 1 0.008019 -0.003289 0.001205 0.000000 0.003733 0.000000
# 2 -0.003289 0.014162 -0.000955 0.000000 0.004618 0.000000
# 3 0.001205 -0.000955 0.031768 0.000000 0.019023 0.000000
# 4 0.000000 0.000000 0.000000 0.223978 0.000000 0.037944
# 5 0.003733 0.004618 0.019023 0.000000 0.034993 0.000000
# 6 0.000000 0.000000 0.000000 0.037944 0.000000 0.032644
#
#
# Mechanical properties :
#
#
# Convention : Reuss Voigt Hill
#
# Bulk Modulus (GPa) = 20.89012 50.15686 35.52349
# Shear Modulus (GPa) = 13.60178 33.78960 23.69569
#
# Velocity S-wave (km/s) = 2.41726 3.80994 3.19051
# Velocity P-wave (km/s) = 4.09451 6.39538 5.36964
#
# Compressibility (1/GPa) = 0.04786952
#
# Stress axis : x y z
#
# Youngs Moduli (GPa) = 124.70973 70.61102 31.47864
#
# Poissons Ratio (x) = 0.23226 -0.03793
# Poissons Ratio (y) = 0.41020 0.03006
# Poissons Ratio (z) = -0.15025 0.06743
#
# Static dielectric constant tensor:
#      x y z
#    x 1.985960 0.000000 0.017610 
#    y 0.000000 1.828400 0.000000 
#    z 0.017610 0.000000 1.913110 
# 
# From -- ./inp_files/108079.got.cif
#   From: 2010.05.17/outbox.cif.g08.bks.cpg/sg12_55_cif.got.tgz:108079.got - 2010.06.03 13:09:07.
