data_PCOD9190767
_publ_section_title
;
Structure prediction by ZEFSAII (Michael W. Deem and Ramdas Pophale) SiO2 
 PCOD9190767
Probable space group: C 2/M
;
_chemical_formula_sum "Si O2"
_cell_formula_units_Z 48
_cell_length_a 19.875547
_cell_length_b 7.631854
_cell_length_c 23.312841
_cell_angle_alpha 90.000000
_cell_angle_beta 137.509062
_cell_angle_gamma 90.000000
_cell_volume 2388.651098
_symmetry_space_group_name_H-M "C 2/M"
_symmetry_group_IT_number 12
_symmetry_cell_setting 'monoclinic'
loop_
_space_group_symop_operation_xyz
x,y,z
-x,y,-z
-x,-y,-z
x,-y,z
1/2+x,1/2+y,z
1/2-x,1/2+y,-z
1/2-x,1/2-y,-z
1/2+x,1/2-y,z
loop_
_atom_site_type_symbol
_atom_site_label
_atom_site_fract_x
_atom_site_fract_y
_atom_site_fract_z
Si Si1 0.468476 0.211670 0.135842
Si Si2 0.799694 0.714599 0.716113
Si Si3 0.290383 0.714596 0.222403
Si Si4 0.296156 0.803172 0.589201
Si Si5 0.400049 0.786006 0.970935
Si Si6 0.976814 0.795540 0.268612
O O1 0.584665 0.262244 0.200462
O O2 0.437221 0.278843 0.178534
O O3 0.465139 0.000000 0.136052
O O4 0.407772 0.270228 0.041959
O O5 0.798709 0.500000 0.715087
O O6 0.732539 0.770483 0.727147
O O7 0.771106 0.783511 0.634933
O O8 0.291359 0.500000 0.222170
O O9 0.198255 0.770355 0.124420
O O10 0.394295 0.772685 0.260552
O O11 0.250000 0.750000 0.500000
O O12 0.416057 0.795090 0.661067
O O13 0.261439 0.000000 0.574734
O O14 0.400162 0.000000 0.970814
O O15 0.500000 0.732317 0.000000
O O16 0.995192 0.000000 0.292167
#
# Coordination Sequence:
#
# PCOD9190767 Si02
#       6
#     8   8   8   8   8   8
#     4   9  16  28  48  72  97 131 175 216 247 282
#     4   8  14  27  48  73  96 123 164 208 242 278
#     4   9  16  27  45  73 103 130 167 213 250 279
#     4  10  20  36  59  80  97 122 159 202 246 299
#     4   9  14  23  45  74  99 127 174 224 249 269
#     4  10  20  32  48  72 105 136 160 198 252 302
#
# _framework density 20.095023000000001
#
# number of rings (size 3 to 8) (size 9 to 14) (size 15 to 20)
#    0.000    2.833    1.667    2.000    0.000    0.667 
#    0.000    0.833    0.000   16.500    0.000    0.000 
#    0.000    0.000    0.000    0.000    0.000    0.000 
#
# Total GULP energy -133816.309750 kJ/mol
# GULP energy per Si atom -5575.679573 kJ/mol
# Density = 2.004929 g / cm^3
# Si number density = 20.095023 Si / 1000 Ang^3
#
#
#
# Elastic Constant Matrix: (Units=GPa)
#
#
# Indices 1 2 3 4 5 6 
#
# 1 153.0317 -8.0120 55.8872 0.0000 -32.2124 0.0000
# 2 -8.0120 32.2711 -2.8215 0.0000 -5.2428 0.0000
# 3 55.8872 -2.8215 117.0643 0.0000 -43.1622 0.0000
# 4 0.0000 0.0000 0.0000 15.9520 0.0000 -4.8144
# 5 -32.2124 -5.2428 -43.1622 0.0000 28.4534 0.0000
# 6 0.0000 0.0000 0.0000 -4.8144 0.0000 12.5998
#
#
#
# Elastic Compliance Matrix: (Units=1/GPa)
#
#
# Indices 1 2 3 4 5 6 
#
# 1 0.009071 0.003896 -0.000421 0.000000 0.010348 0.000000
# 2 0.003896 0.036092 0.007007 0.000000 0.021691 0.000000
# 3 -0.000421 0.007007 0.020905 0.000000 0.032526 0.000000
# 4 0.000000 0.000000 0.000000 0.070859 0.000000 0.027075
# 5 0.010348 0.021691 0.032526 0.000000 0.100197 0.000000
# 6 0.000000 0.000000 0.000000 0.027075 0.000000 0.089712
#
#
# Mechanical properties :
#
#
# Convention : Reuss Voigt Hill
#
# Bulk Modulus (GPa) = 11.48999 43.60827 27.54913
# Shear Modulus (GPa) = 14.93072 28.55527 21.74300
#
# Velocity S-wave (km/s) = 2.72877 3.77372 3.29296
# Velocity P-wave (km/s) = 3.95708 6.38248 5.31011
#
# Compressibility (1/GPa) = 0.08703230
#
# Stress axis : x y z
#
# Youngs Moduli (GPa) = 110.24627 27.70731 47.83654
#
# Poissons Ratio (x) = -0.10796 0.02014
# Poissons Ratio (y) = -0.42956 -0.33521
# Poissons Ratio (z) = 0.04641 -0.19416
#
# Static dielectric constant tensor:
#      x y z
#    x 1.714230 0.000000 -0.042430 
#    y 0.000000 1.776690 0.000000 
#    z -0.042430 0.000000 1.702660 
# 
# From -- ./inp_files/273594.got.cif
#   From: 2010.05.17/outbox.cif.g08.bks.cpg/sg12_137_cif.got.tgz:273594.got - 2010.06.03 13:09:07.
