data_PCOD9190341
_publ_section_title
;
Structure prediction by ZEFSAII (Michael W. Deem and Ramdas Pophale) SiO2 
 PCOD9190341
Probable space group: C 2/M
;
_chemical_formula_sum "Si O2"
_cell_formula_units_Z 48
_cell_length_a 8.920715
_cell_length_b 29.338566
_cell_length_c 11.744195
_cell_angle_alpha 90.000000
_cell_angle_beta 133.587175
_cell_angle_gamma 90.000000
_cell_volume 2226.363122
_symmetry_space_group_name_H-M "C 2/M"
_symmetry_group_IT_number 12
_symmetry_cell_setting 'monoclinic'
loop_
_space_group_symop_operation_xyz
x,y,z
-x,y,-z
-x,-y,-z
x,-y,z
1/2+x,1/2+y,z
1/2-x,1/2+y,-z
1/2-x,1/2-y,-z
1/2+x,1/2-y,z
loop_
_atom_site_type_symbol
_atom_site_label
_atom_site_fract_x
_atom_site_fract_y
_atom_site_fract_z
Si Si1 0.926145 0.289519 0.330600
Si Si2 0.349357 0.050030 0.596475
Si Si3 0.735540 0.786478 0.092110
Si Si4 0.210713 0.148510 0.546095
Si Si5 0.687274 0.450879 0.250597
Si Si6 0.933028 0.145891 0.790813
O O1 0.867660 0.239250 0.258525
O O2 0.720977 0.321233 0.219581
O O3 0.000000 0.287506 0.500000
O O4 0.105396 0.314321 0.350767
O O5 0.278849 0.097090 0.617905
O O6 0.594788 0.052673 0.701403
O O7 0.248114 0.049186 0.416903
O O8 0.302557 0.000000 0.624815
O O9 0.845984 0.831694 0.108332
O O10 0.500000 0.793842 0.000000
O O11 0.750000 0.750000 0.000000
O O12 0.164891 0.145197 0.387278
O O13 0.000000 0.160163 0.500000
O O14 0.589950 0.500000 0.174940
O O15 0.561617 0.405336 0.162492
#
# Coordination Sequence:
#
# PCOD9190341 Si02
#       6
#     8   8   8   8   8   8
#     4  10  22  41  61  83 118 157 199 242 289 348
#     4   8  13  24  45  76 115 150 185 232 290 344
#     4  12  26  43  61  85 116 157 198 245 299 350
#     4  10  20  30  52  84 118 154 192 238 295 346
#     4   8  13  26  52  80 106 147 195 234 279 346
#     4  10  20  37  57  81 115 152 197 240 289 351
#
# _framework density 21.559825
#
# number of rings (size 3 to 8) (size 9 to 14) (size 15 to 20)
#    0.000    2.333    3.333    1.000    2.333    3.667 
#    0.000    0.000    0.000    0.500    0.000    3.500 
#    0.000    0.000    0.000    0.000    0.000    0.000 
#
# Total GULP energy -134068.295368 kJ/mol
# GULP energy per Si atom -5586.178974 kJ/mol
# Density = 2.151075 g / cm^3
# Si number density = 21.559825 Si / 1000 Ang^3
#
#
#
# Elastic Constant Matrix: (Units=GPa)
#
#
# Indices 1 2 3 4 5 6 
#
# 1 88.1610 58.3384 34.7585 0.0000 34.6926 0.0000
# 2 58.3384 169.5249 53.7294 0.0000 31.1215 0.0000
# 3 34.7585 53.7294 48.8686 0.0000 19.5709 0.0000
# 4 0.0000 0.0000 0.0000 -529.3302 0.0000 -156.5145
# 5 34.6926 31.1215 19.5709 0.0000 39.2187 0.0000
# 6 0.0000 0.0000 0.0000 -156.5145 0.0000 -30.2975
#
#
#
# Elastic Compliance Matrix: (Units=1/GPa)
#
#
# Indices 1 2 3 4 5 6 
#
# 1 0.020866 -0.002672 -0.006700 0.000000 -0.012994 0.000000
# 2 -0.002672 0.009643 -0.008229 0.000000 -0.001183 0.000000
# 3 -0.006700 -0.008229 0.036602 0.000000 -0.005809 0.000000
# 4 0.000000 0.000000 0.000000 0.003582 0.000000 -0.018502
# 5 -0.012994 -0.001183 -0.005809 0.000000 0.040830 0.000000
# 6 0.000000 0.000000 0.000000 -0.018502 0.000000 0.062573
#
#
# Mechanical properties :
#
#
# Convention : Reuss Voigt Hill
#
# Bulk Modulus (GPa) = 31.33738 66.68967 49.01352
# Shear Modulus (GPa) = 22.73432 -93.43326 -35.34947
#
# Velocity S-wave (km/s) = 3.25079 -6.59021 -4.05359
# Velocity P-wave (km/s) = 5.35321 5.18731 0.93504
#
# Compressibility (1/GPa) = 0.03191077
#
# Stress axis : x y z
#
# Youngs Moduli (GPa) = 47.92574 103.69867 27.32118
#
# Poissons Ratio (x) = 0.27703 0.18305
# Poissons Ratio (y) = 0.12803 0.22482
# Poissons Ratio (z) = 0.32109 0.85330
#
# Static dielectric constant tensor:
#      x y z
#    x 1.792650 0.000000 -0.057950 
#    y 0.000000 1.831300 0.000000 
#    z -0.057950 0.000000 1.830430 
# 
# From -- ./inp_files/201063.got.cif
#   From: 2010.05.17/outbox.cif.g08.bks.cpg/sg12_101_cif.got.tgz:201063.got - 2010.06.03 13:09:07.
