data_PCOD9190649
_publ_section_title
;
Structure prediction by ZEFSAII (Michael W. Deem and Ramdas Pophale) SiO2 
 PCOD9190649
Probable space group: C 2/M
;
_chemical_formula_sum "Si O2"
_cell_formula_units_Z 64
_cell_length_a 32.023502
_cell_length_b 8.587717
_cell_length_c 15.220504
_cell_angle_alpha 90.000000
_cell_angle_beta 118.130451
_cell_angle_gamma 90.000000
_cell_volume 3691.333703
_symmetry_space_group_name_H-M "C 2/M"
_symmetry_group_IT_number 12
_symmetry_cell_setting 'monoclinic'
loop_
_space_group_symop_operation_xyz
x,y,z
-x,y,-z
-x,-y,-z
x,-y,z
1/2+x,1/2+y,z
1/2-x,1/2+y,-z
1/2-x,1/2-y,-z
1/2+x,1/2-y,z
loop_
_atom_site_type_symbol
_atom_site_label
_atom_site_fract_x
_atom_site_fract_y
_atom_site_fract_z
Si Si1 0.419213 0.685994 0.766458
Si Si2 0.304786 0.187935 0.957898
Si Si3 0.610830 0.813888 0.085134
Si Si4 0.028848 0.186032 0.884627
Si Si5 0.886559 0.690044 0.358365
Si Si6 0.467193 0.187828 0.301783
Si Si7 0.299609 0.811822 0.153850
Si Si8 0.922537 0.687675 0.580076
O O1 0.418404 0.500000 0.767310
O O2 0.388313 0.751259 0.815178
O O3 0.473986 0.737126 0.836855
O O4 0.406030 0.744257 0.656441
O O5 0.345619 0.241827 0.932345
O O6 0.252891 0.248873 0.881573
O O7 0.304197 0.000000 0.955765
O O8 0.313748 0.235365 0.068260
O O9 0.611519 0.000000 0.087245
O O10 0.562616 0.757954 0.991030
O O11 0.045625 0.238846 0.804673
O O12 0.030236 0.000000 0.893478
O O13 0.886372 0.500000 0.359267
O O14 0.931220 0.735866 0.342287
O O15 0.838668 0.741046 0.262610
O O16 0.894305 0.741280 0.466042
O O17 0.521763 0.228702 0.376036
O O18 0.464492 0.000000 0.290695
O O19 0.298276 0.000000 0.154101
O O20 0.920083 0.500000 0.582455
#
# Coordination Sequence:
#
# PCOD9190649 Si02
#       8
#     8   8   8   8   8   8   8   8
#     4  10  21  35  48  67  99 132 161 198 240 281
#     4   9  19  34  50  72 100 124 151 192 238 284
#     4  11  21  33  52  73  93 123 163 203 240 282
#     4  10  20  32  46  69 102 133 159 193 237 284
#     4   9  16  28  49  75  99 125 163 205 238 275
#     4   9  16  28  47  71 100 132 164 197 233 277
#     4   9  17  31  51  73  99 128 153 185 235 289
#     4   9  17  30  49  71  96 130 168 201 235 277
#
# _framework density 17.337907999999999
#
# number of rings (size 3 to 8) (size 9 to 14) (size 15 to 20)
#    0.000    2.500    0.000    2.625    0.000    7.500 
#    0.000    4.375    0.000    3.750    0.000    0.000 
#    0.000    0.000    0.000    0.000    0.000    0.000 
#
# Total GULP energy -178540.810589 kJ/mol
# GULP energy per Si atom -5579.400331 kJ/mol
# Density = 1.729845 g / cm^3
# Si number density = 17.337908 Si / 1000 Ang^3
#
#
#
# Elastic Constant Matrix: (Units=GPa)
#
#
# Indices 1 2 3 4 5 6 
#
# 1 81.9697 15.8278 59.9844 0.0000 -20.8762 0.0000
# 2 15.8278 10.3450 22.5537 0.0000 -4.1659 0.0000
# 3 59.9844 22.5537 141.1544 0.0000 -12.1966 0.0000
# 4 0.0000 0.0000 0.0000 13.4531 0.0000 8.7664
# 5 -20.8762 -4.1659 -12.1966 0.0000 21.0976 0.0000
# 6 0.0000 0.0000 0.0000 8.7664 0.0000 10.5353
#
#
#
# Elastic Compliance Matrix: (Units=1/GPa)
#
#
# Indices 1 2 3 4 5 6 
#
# 1 0.024352 -0.016898 -0.006163 0.000000 0.017197 0.000000
# 2 -0.016898 0.165664 -0.018849 0.000000 0.005095 0.000000
# 3 -0.006163 -0.018849 0.012490 0.000000 -0.002599 0.000000
# 4 0.000000 0.000000 0.000000 0.162375 0.000000 -0.135112
# 5 0.017197 0.005095 -0.002599 0.000000 0.063919 0.000000
# 6 0.000000 0.000000 0.000000 -0.135112 0.000000 0.207346
#
#
# Mechanical properties :
#
#
# Convention : Reuss Voigt Hill
#
# Bulk Modulus (GPa) = 8.42545 47.80010 28.11277
# Shear Modulus (GPa) = 6.58303 18.02408 12.30356
#
# Velocity S-wave (km/s) = 1.95068 3.22774 2.66678
# Velocity P-wave (km/s) = 3.15335 6.44365 5.07269
#
# Compressibility (1/GPa) = 0.11868801
#
# Stress axis : x y z
#
# Youngs Moduli (GPa) = 41.06430 6.03630 80.06150
#
# Poissons Ratio (x) = 0.10200 0.49339
# Poissons Ratio (y) = 0.69390 1.50907
# Poissons Ratio (z) = 0.25307 0.11378
#
# Static dielectric constant tensor:
#      x y z
#    x 1.581120 0.000000 -0.007800 
#    y 0.000000 1.587590 0.000000 
#    z -0.007800 0.000000 1.584700 
# 
# From -- ./inp_files/248992.got.cif
#   From: 2010.05.17/outbox.cif.g08.bks.cpg/sg12_125_cif.got.tgz:248992.got - 2010.06.03 13:09:07.
