data_PCOD9190439
_publ_section_title
;
Structure prediction by ZEFSAII (Michael W. Deem and Ramdas Pophale) SiO2 
 PCOD9190439
Probable space group: C 2/M
;
_chemical_formula_sum "Si O2"
_cell_formula_units_Z 64
_cell_length_a 22.964221
_cell_length_b 16.542458
_cell_length_c 22.807981
_cell_angle_alpha 90.000000
_cell_angle_beta 153.247785
_cell_angle_gamma 90.000000
_cell_volume 3900.133002
_symmetry_space_group_name_H-M "C 2/M"
_symmetry_group_IT_number 12
_symmetry_cell_setting 'monoclinic'
loop_
_space_group_symop_operation_xyz
x,y,z
-x,y,-z
-x,-y,-z
x,-y,z
1/2+x,1/2+y,z
1/2-x,1/2+y,-z
1/2-x,1/2-y,-z
1/2+x,1/2-y,z
loop_
_atom_site_type_symbol
_atom_site_label
_atom_site_fract_x
_atom_site_fract_y
_atom_site_fract_z
Si Si1 0.661840 0.590300 0.469432
Si Si2 0.097137 0.247951 0.863126
Si Si3 0.629768 0.093017 0.150619
Si Si4 0.099918 0.349874 0.251847
Si Si5 0.739168 0.188664 0.636691
Si Si6 0.138495 0.780175 0.653521
Si Si7 0.562186 0.591748 0.248171
Si Si8 0.005142 0.246158 0.360649
O O1 0.626074 0.500000 0.456438
O O2 0.809825 0.607390 0.619148
O O3 0.637083 0.596664 0.377910
O O4 0.574729 0.658058 0.422393
O O5 0.036484 0.320506 0.846554
O O6 0.044770 0.162283 0.841789
O O7 0.042859 0.258505 0.748315
O O8 0.250000 0.250000 0.000000
O O9 0.597905 0.099168 0.190933
O O10 0.753514 0.149914 0.250644
O O11 0.656602 0.000000 0.158543
O O12 0.500000 0.120173 0.000000
O O13 0.175530 0.266922 0.304163
O O14 0.689865 0.207699 0.657848
O O15 0.833805 0.114746 0.708283
O O16 0.615003 0.192087 0.482169
O O17 0.000000 0.805497 0.500000
O O18 0.106308 0.754974 0.690768
O O19 0.513405 0.500000 0.197691
#
# Coordination Sequence:
#
# PCOD9190439 Si02
#       8
#     8   8   8   8   8   8   8   8
#     4   9  16  27  47  74  98 123 152 192 242 285
#     4  10  20  31  47  70  96 128 162 192 235 284
#     4  10  21  33  45  66  99 133 163 198 236 283
#     4   9  17  30  47  65  92 124 164 196 226 282
#     4   8  15  30  49  71  91 117 157 201 240 275
#     4   9  18  31  50  72  95 126 163 200 239 285
#     4   9  17  31  51  73  96 120 156 201 243 285
#     4   9  17  29  48  72  99 122 153 200 235 282
#
# _framework density 16.409697000000001
#
# number of rings (size 3 to 8) (size 9 to 14) (size 15 to 20)
#    0.000    2.875    0.000    1.875    1.750    3.750 
#    0.000    1.250    0.000    4.125    0.000    0.875 
#    0.000    0.000    0.000    0.000    0.000    0.000 
#
# Total GULP energy -178149.963871 kJ/mol
# GULP energy per Si atom -5567.186371 kJ/mol
# Density = 1.637235 g / cm^3
# Si number density = 16.409697 Si / 1000 Ang^3
#
#
#
# Elastic Constant Matrix: (Units=GPa)
#
#
# Indices 1 2 3 4 5 6 
#
# 1 80.1305 16.8585 16.2290 0.0001 22.9657 0.0000
# 2 16.8585 43.5525 12.7189 0.0013 6.9157 0.0003
# 3 16.2290 12.7189 60.1042 0.0012 19.6211 0.0003
# 4 0.0001 0.0013 0.0012 14.8630 0.0007 3.6638
# 5 22.9657 6.9157 19.6211 0.0007 17.7517 0.0000
# 6 0.0000 0.0003 0.0003 3.6638 0.0000 13.5529
#
#
#
# Elastic Compliance Matrix: (Units=1/GPa)
#
#
# Indices 1 2 3 4 5 6 
#
# 1 0.021660 -0.004916 0.005811 0.000001 -0.032530 0.000000
# 2 -0.004916 0.025999 -0.004606 -0.000002 0.001322 0.000000
# 3 0.005811 -0.004606 0.028024 0.000000 -0.036699 0.000000
# 4 0.000001 -0.000002 0.000000 0.072085 -0.000003 -0.019487
# 5 -0.032530 0.001322 -0.036699 -0.000003 0.138466 0.000001
# 6 0.000000 0.000000 0.000000 -0.019487 0.000001 0.079053
#
#
# Mechanical properties :
#
#
# Convention : Reuss Voigt Hill
#
# Bulk Modulus (GPa) = 14.64953 30.59999 22.62476
# Shear Modulus (GPa) = 12.64345 18.43225 15.53785
#
# Velocity S-wave (km/s) = 2.77878 3.35513 3.08046
# Velocity P-wave (km/s) = 4.38659 5.80493 5.14487
#
# Compressibility (1/GPa) = 0.06826159
#
# Stress axis : x y z
#
# Youngs Moduli (GPa) = 46.16759 38.46332 35.68408
#
# Poissons Ratio (x) = 0.18908 -0.20737
# Poissons Ratio (y) = 0.22696 0.16436
# Poissons Ratio (z) = -0.26829 0.17716
#
# Static dielectric constant tensor:
#      x y z
#    x 1.567180 0.000000 -0.004690 
#    y 0.000000 1.552950 0.000000 
#    z -0.004690 0.000000 1.547190 
# 
# From -- ./inp_files/97773.got.cif
#   From: 2010.05.17/outbox.cif.g08.bks.cpg/sg12_49_cif.got.tgz:97773.got - 2010.06.03 13:09:07.
