data_PCOD9190286
_publ_section_title
;
Structure prediction by ZEFSAII (Michael W. Deem and Ramdas Pophale) SiO2 
 PCOD9190286
Probable space group: C 2/M
;
_chemical_formula_sum "Si O2"
_cell_formula_units_Z 56
_cell_length_a 22.326925
_cell_length_b 7.263233
_cell_length_c 15.438571
_cell_angle_alpha 90.000000
_cell_angle_beta 99.653877
_cell_angle_gamma 90.000000
_cell_volume 2468.151924
_symmetry_space_group_name_H-M "C 2/M"
_symmetry_group_IT_number 12
_symmetry_cell_setting 'monoclinic'
loop_
_space_group_symop_operation_xyz
x,y,z
-x,y,-z
-x,-y,-z
x,-y,z
1/2+x,1/2+y,z
1/2-x,1/2+y,-z
1/2-x,1/2-y,-z
1/2+x,1/2-y,z
loop_
_atom_site_type_symbol
_atom_site_label
_atom_site_fract_x
_atom_site_fract_y
_atom_site_fract_z
Si Si1 0.108593 0.776267 0.833915
Si Si2 0.275518 0.277661 0.249183
Si Si3 0.429515 0.275452 0.986531
Si Si4 0.967175 0.776794 0.346759
Si Si5 0.363026 0.710774 0.799781
Si Si6 0.650105 0.276328 0.571361
Si Si7 0.395021 0.724914 0.617491
O O1 0.171684 0.720200 0.804510
O O2 0.054815 0.722072 0.754779
O O3 0.108444 0.000000 0.834400
O O4 0.098854 0.714115 0.929264
O O5 0.274200 0.500000 0.248644
O O6 0.209290 0.212282 0.207899
O O7 0.296848 0.217350 0.350422
O O8 0.426568 0.500000 0.986720
O O9 0.394924 0.210074 0.892367
O O10 0.500000 0.224723 0.000000
O O11 0.913848 0.721140 0.399372
O O12 0.035357 0.719398 0.383779
O O13 0.967627 0.000000 0.349073
O O14 0.385296 0.500000 0.800538
O O15 0.377358 0.790257 0.708729
O O16 0.651195 0.500000 0.572245
O O17 0.648248 0.215678 0.471658
O O18 0.393200 0.500000 0.617121
#
# Coordination Sequence:
#
# PCOD9190286 Si02
#       7
#     8   8   8   8   8   8   8
#     4   8  14  25  42  62  85 114 144 174 210 254
#     4   9  18  32  46  61  85 118 151 176 203 246
#     4   9  16  27  44  67  92 112 133 171 223 265
#     4   8  12  20  37  62  88 110 136 175 221 259
#     4  10  20  30  43  66  91 113 141 177 213 252
#     4   8  14  24  40  61  84 112 144 176 212 255
#     4   9  15  23  37  61  91 114 135 175 224 256
#
# _framework density 22.689042000000001
#
# number of rings (size 3 to 8) (size 9 to 14) (size 15 to 20)
#    0.000    3.286    0.000    3.000    0.000    6.286 
#    0.000    0.000    0.000    0.429    0.000    8.000 
#    0.000    5.714    0.000    0.000    0.000    0.000 
#
# Total GULP energy -156366.517740 kJ/mol
# GULP energy per Si atom -5584.518491 kJ/mol
# Density = 2.263740 g / cm^3
# Si number density = 22.689042 Si / 1000 Ang^3
#
#
#
# Elastic Constant Matrix: (Units=GPa)
#
#
# Indices 1 2 3 4 5 6 
#
# 1 53.1384 -9.1155 64.0543 0.0000 26.0107 0.0000
# 2 -9.1155 99.9372 5.4610 0.0000 -1.7041 0.0000
# 3 64.0543 5.4610 233.0761 0.0000 9.2467 0.0000
# 4 0.0000 0.0000 0.0000 -2.0936 0.0000 12.7786
# 5 26.0107 -1.7041 9.2467 0.0000 28.5617 0.0000
# 6 0.0000 0.0000 0.0000 12.7786 0.0000 4.4672
#
#
#
# Elastic Compliance Matrix: (Units=1/GPa)
#
#
# Indices 1 2 3 4 5 6 
#
# 1 0.065863 0.005958 -0.016081 0.000000 -0.054418 0.000000
# 2 0.005958 0.010571 -0.001717 0.000000 -0.004240 0.000000
# 3 -0.016081 -0.001717 0.008280 0.000000 0.011862 0.000000
# 4 0.000000 0.000000 0.000000 -0.025875 0.000000 0.074016
# 5 -0.054418 -0.004240 0.011862 0.000000 0.080476 0.000000
# 6 0.000000 0.000000 0.000000 0.074016 0.000000 0.012126
#
#
# Mechanical properties :
#
#
# Convention : Reuss Voigt Hill
#
# Bulk Modulus (GPa) = 16.38435 56.32791 36.35613
# Shear Modulus (GPa) = 25.57996 27.90388 26.74192
#
# Velocity S-wave (km/s) = 3.36134 3.51071 3.43684
# Velocity P-wave (km/s) = 4.72247 6.42755 5.63982
#
# Compressibility (1/GPa) = 0.06103386
#
# Stress axis : x y z
#
# Youngs Moduli (GPa) = 15.18310 94.59586 120.77978
#
# Poissons Ratio (x) = -0.56363 1.94228
# Poissons Ratio (y) = -0.09047 0.20737
# Poissons Ratio (z) = 0.24416 0.16242
#
# Static dielectric constant tensor:
#      x y z
#    x 1.776110 0.000000 -0.014380 
#    y 0.000000 1.905890 0.000000 
#    z -0.014380 0.000000 1.822890 
# 
# From -- ./inp_files/223347.got.cif
#   From: 2010.05.17/outbox.cif.g08.bks.cpg/sg12_112_cif.got.tgz:223347.got - 2010.06.03 13:09:07.
