data_PCOD9190895
_publ_section_title
;
Structure prediction by ZEFSAII (Michael W. Deem and Ramdas Pophale) SiO2 
 PCOD9190895
Probable space group: C 2/M
;
_chemical_formula_sum "Si O2"
_cell_formula_units_Z 32
_cell_length_a 4.910181
_cell_length_b 24.109529
_cell_length_c 12.703969
_cell_angle_alpha 90.000000
_cell_angle_beta 95.779249
_cell_angle_gamma 90.000000
_cell_volume 1496.279104
_symmetry_space_group_name_H-M "C 2/M"
_symmetry_group_IT_number 12
_symmetry_cell_setting 'monoclinic'
loop_
_space_group_symop_operation_xyz
x,y,z
-x,y,-z
-x,-y,-z
x,-y,z
1/2+x,1/2+y,z
1/2-x,1/2+y,-z
1/2-x,1/2-y,-z
1/2+x,1/2-y,z
loop_
_atom_site_type_symbol
_atom_site_label
_atom_site_fract_x
_atom_site_fract_y
_atom_site_fract_z
Si Si1 0.958799 0.884152 0.726074
Si Si2 0.252798 0.938363 0.931176
Si Si3 0.608202 0.287832 0.115531
Si Si4 0.091843 0.434690 0.382359
O O1 0.140851 0.913684 0.821312
O O2 0.149721 0.894959 0.632144
O O3 0.916787 0.824919 0.780879
O O4 0.668907 0.913785 0.695344
O O5 0.355971 0.000000 0.907824
O O6 0.500000 0.908009 0.000000
O O7 0.000000 0.942174 0.000000
O O8 0.416473 0.233571 0.117526
O O9 0.500000 0.314245 0.000000
O O10 0.157208 0.500000 0.364302
O O11 0.000000 0.430850 0.500000
#
# Coordination Sequence:
#
# PCOD9190895 Si02
#       4
#     8   8   8   8
#     4  12  22  38  64  86 117 161 204 246 301 358
#     4  10  20  32  49  80 118 149 181 225 285 360
#     4  10  22  40  62  90 122 157 201 249 298 358
#     4  11  24  41  62  90 122 158 204 253 301 359
#
# _framework density 21.386384
#
# number of rings (size 3 to 8) (size 9 to 14) (size 15 to 20)
#    0.000    1.250    0.000    6.750    0.000    7.000 
#    0.000    0.000    0.000   15.000    0.000    0.000 
#    0.000    0.000    0.000    0.000    0.000    0.000 
#
# Total GULP energy -89358.347855 kJ/mol
# GULP energy per Si atom -5584.896741 kJ/mol
# Density = 2.133771 g / cm^3
# Si number density = 21.386384 Si / 1000 Ang^3
#
#
#
# Elastic Constant Matrix: (Units=GPa)
#
#
# Indices 1 2 3 4 5 6 
#
# 1 95.7297 6.8478 12.6985 0.0000 -2.8501 0.0000
# 2 6.8478 69.0270 28.5193 0.0000 -5.9473 0.0000
# 3 12.6985 28.5193 85.7562 0.0000 -9.2573 0.0000
# 4 0.0000 0.0000 0.0000 45.7549 0.0000 4.7904
# 5 -2.8501 -5.9473 -9.2573 0.0000 47.0313 0.0000
# 6 0.0000 0.0000 0.0000 4.7904 0.0000 37.7303
#
#
#
# Elastic Compliance Matrix: (Units=1/GPa)
#
#
# Indices 1 2 3 4 5 6 
#
# 1 0.010673 -0.000455 -0.001395 0.000000 0.000315 0.000000
# 2 -0.000455 0.016865 -0.005429 0.000000 0.001036 0.000000
# 3 -0.001395 -0.005429 0.013885 0.000000 0.001962 0.000000
# 4 0.000000 0.000000 0.000000 0.022150 0.000000 -0.002812
# 5 0.000315 0.001036 0.001962 0.000000 0.021799 0.000000
# 6 0.000000 0.000000 0.000000 -0.002812 0.000000 0.026861
#
#
# Mechanical properties :
#
#
# Convention : Reuss Voigt Hill
#
# Bulk Modulus (GPa) = 37.22539 38.51601 37.87070
# Shear Modulus (GPa) = 36.83347 39.59980 38.21664
#
# Velocity S-wave (km/s) = 4.15455 4.30773 4.23183
# Velocity P-wave (km/s) = 6.36063 6.54147 6.45168
#
# Compressibility (1/GPa) = 0.02686339
#
# Stress axis : x y z
#
# Youngs Moduli (GPa) = 93.69377 59.29538 72.02070
#
# Poissons Ratio (x) = 0.02700 0.10047
# Poissons Ratio (y) = 0.04266 0.39102
# Poissons Ratio (z) = 0.13071 0.32193
#
# Static dielectric constant tensor:
#      x y z
#    x 1.820020 0.000000 -0.062720 
#    y 0.000000 1.817980 0.000000 
#    z -0.062720 0.000000 1.838920 
# 
# From -- ./inp_files/114512.got.cif
#   From: 2010.05.17/outbox.cif.g08.bks.cpg/sg12_58_cif.got.tgz:114512.got - 2010.06.03 13:09:07.
