data_PCOD9190602
_publ_section_title
;
Structure prediction by ZEFSAII (Michael W. Deem and Ramdas Pophale) SiO2 
 PCOD9190602
Probable space group: C 2/M
;
_chemical_formula_sum "Si O2"
_cell_formula_units_Z 56
_cell_length_a 28.746893
_cell_length_b 7.315715
_cell_length_c 11.776123
_cell_angle_alpha 90.000000
_cell_angle_beta 83.557863
_cell_angle_gamma 90.000000
_cell_volume 2460.928818
_symmetry_space_group_name_H-M "C 2/M"
_symmetry_group_IT_number 12
_symmetry_cell_setting 'monoclinic'
loop_
_space_group_symop_operation_xyz
x,y,z
-x,y,-z
-x,-y,-z
x,-y,z
1/2+x,1/2+y,z
1/2-x,1/2+y,-z
1/2-x,1/2-y,-z
1/2+x,1/2-y,z
loop_
_atom_site_type_symbol
_atom_site_label
_atom_site_fract_x
_atom_site_fract_y
_atom_site_fract_z
Si Si1 0.805202 0.281977 0.476504
Si Si2 0.115539 0.277166 0.701942
Si Si3 0.057824 0.277792 0.198859
Si Si4 0.847231 0.277196 0.700472
Si Si5 0.522288 0.222730 0.612667
Si Si6 0.894085 0.723132 0.039788
Si Si7 0.198973 0.716949 0.062029
O O1 0.810609 0.500000 0.475065
O O2 0.750000 0.250000 0.500000
O O3 0.833802 0.217194 0.358177
O O4 0.831239 0.212435 0.582249
O O5 0.115599 0.500000 0.706447
O O6 0.075329 0.223054 0.623923
O O7 0.101917 0.215780 0.831893
O O8 0.057383 0.500000 0.197044
O O9 0.101841 0.224083 0.266254
O O10 0.010590 0.220089 0.273496
O O11 0.068783 0.219460 0.066933
O O12 0.847875 0.500000 0.695578
O O13 0.810520 0.218052 0.807543
O O14 0.500000 0.283692 0.500000
O O15 0.521938 0.000000 0.609592
O O16 0.895616 0.500000 0.040907
O O17 0.843301 0.781882 0.006066
O O18 0.192777 0.500000 0.068464
O O19 0.250000 0.750000 0.000000
#
# Coordination Sequence:
#
# PCOD9190602 Si02
#       7
#     8   8   8   8   8   8   8
#     4  10  20  32  46  63  88 121 152 185 226 268
#     4   9  17  27  39  59  87 114 143 185 228 263
#     4   8  13  23  39  57  82 115 145 175 217 271
#     4   8  15  28  42  59  84 115 147 179 220 266
#     4   9  15  22  36  58  83 114 149 180 215 267
#     4   8  15  26  38  56  83 113 143 177 224 272
#     4   9  17  28  44  62  83 114 150 185 219 260
#
# _framework density 22.755635999999999
#
# number of rings (size 3 to 8) (size 9 to 14) (size 15 to 20)
#    0.000    3.286    0.000    2.571    2.000    4.000 
#    0.000    2.857    0.000    0.000    0.000    0.000 
#    0.000    9.714    0.000    6.429    0.000    7.143 
#
# Total GULP energy -156278.042404 kJ/mol
# GULP energy per Si atom -5581.358657 kJ/mol
# Density = 2.270384 g / cm^3
# Si number density = 22.755636 Si / 1000 Ang^3
#
#
#
# Elastic Constant Matrix: (Units=GPa)
#
#
# Indices 1 2 3 4 5 6 
#
# 1 90.2582 -3.3171 70.6026 0.0000 -24.0480 0.0000
# 2 -3.3171 88.3272 3.6139 0.0000 2.5665 0.0000
# 3 70.6026 3.6139 154.5263 0.0000 -3.9462 0.0000
# 4 0.0000 0.0000 0.0000 -12.5856 0.0000 -10.2704
# 5 -24.0480 2.5665 -3.9462 0.0000 39.8797 0.0000
# 6 0.0000 0.0000 0.0000 -10.2704 0.0000 0.2940
#
#
#
# Elastic Compliance Matrix: (Units=1/GPa)
#
#
# Indices 1 2 3 4 5 6 
#
# 1 0.022015 0.000870 -0.009766 0.000000 0.012253 0.000000
# 2 0.000870 0.011390 -0.000671 0.000000 -0.000275 0.000000
# 3 -0.009766 -0.000671 0.010827 0.000000 -0.004775 0.000000
# 4 0.000000 0.000000 0.000000 -0.002693 0.000000 -0.094067
# 5 0.012253 -0.000275 -0.004775 0.000000 0.032010 0.000000
# 6 0.000000 0.000000 0.000000 -0.094067 0.000000 0.115271
#
#
# Mechanical properties :
#
#
# Convention : Reuss Voigt Hill
#
# Bulk Modulus (GPa) = 39.84294 52.76783 46.30539
# Shear Modulus (GPa) = 23.11387 22.99845 23.05616
#
# Velocity S-wave (km/s) = 3.19053 3.18255 3.18654
# Velocity P-wave (km/s) = 5.57850 6.06169 5.82511
#
# Compressibility (1/GPa) = 0.02509855
#
# Stress axis : x y z
#
# Youngs Moduli (GPa) = 45.42269 87.79899 92.35909
#
# Poissons Ratio (x) = -0.07641 0.90200
# Poissons Ratio (y) = -0.03953 0.06198
# Poissons Ratio (z) = 0.44361 0.05892
#
# Static dielectric constant tensor:
#      x y z
#    x 1.811320 0.000000 -0.021280 
#    y 0.000000 1.926040 0.000000 
#    z -0.021280 0.000000 1.845950 
# 
# From -- ./inp_files/181548.got.cif
#   From: 2010.05.17/outbox.cif.g08.bks.cpg/sg12_91_cif.got.tgz:181548.got - 2010.06.03 13:09:07.
