data_PCOD9190268
_publ_section_title
;
Structure prediction by ZEFSAII (Michael W. Deem and Ramdas Pophale) SiO2 
 PCOD9190268
Probable space group: C 2/M
;
_chemical_formula_sum "Si O2"
_cell_formula_units_Z 64
_cell_length_a 13.199804
_cell_length_b 37.222653
_cell_length_c 18.243793
_cell_angle_alpha 90.000000
_cell_angle_beta 19.618064
_cell_angle_gamma 90.000000
_cell_volume 3009.567600
_symmetry_space_group_name_H-M "C 2/M"
_symmetry_group_IT_number 12
_symmetry_cell_setting 'monoclinic'
loop_
_space_group_symop_operation_xyz
x,y,z
-x,y,-z
-x,-y,-z
x,-y,z
1/2+x,1/2+y,z
1/2-x,1/2+y,-z
1/2-x,1/2-y,-z
1/2+x,1/2-y,z
loop_
_atom_site_type_symbol
_atom_site_label
_atom_site_fract_x
_atom_site_fract_y
_atom_site_fract_z
Si Si1 0.618420 0.841310 0.003339
Si Si2 0.783825 0.302757 0.719254
Si Si3 0.323612 0.320526 0.449337
Si Si4 0.797824 0.085976 0.926493
Si Si5 0.729124 0.381042 0.743959
Si Si6 0.768087 0.774924 0.722796
Si Si7 0.293879 0.899798 0.462055
Si Si8 0.673311 0.040597 0.685111
O O1 0.579598 0.879394 0.066921
O O2 0.973353 0.832674 0.758510
O O3 0.500000 0.844702 0.000000
O O4 0.458795 0.806526 0.143526
O O5 0.607840 0.340450 0.838106
O O6 0.624087 0.264154 0.833071
O O7 0.000000 0.302343 0.500000
O O8 0.011593 0.305430 0.632999
O O9 0.528654 0.291155 0.349960
O O10 0.281427 0.359428 0.516721
O O11 0.990012 0.093102 0.869047
O O12 0.026669 0.088195 0.701173
O O13 0.588976 0.051630 0.078870
O O14 0.000000 0.378226 0.500000
O O15 0.897929 0.394692 0.701456
O O16 0.000000 0.770686 0.500000
O O17 0.328608 0.929703 0.377194
O O18 0.000000 0.042130 0.500000
O O19 0.624179 0.000000 0.691544
#
# Coordination Sequence:
#
# PCOD9190268 Si02
#       8
#     8   8   8   8   8   8   8   8
#     4   9  19  32  51  79 106 146 198 236 284 345
#     4   9  16  31  52  74 110 148 190 243 294 337
#     4   9  18  33  54  74 102 150 194 235 284 342
#     4  10  21  38  66  88 117 158 200 243 293 357
#     4   8  16  36  62  89 113 155 205 246 290 348
#     4  10  20  29  47  77 110 148 189 238 297 342
#     4   9  20  39  66  88 117 157 200 243 293 355
#     4  11  27  43  62  94 128 154 188 244 298 354
#
# _framework density 21.265514
#
# number of rings (size 3 to 8) (size 9 to 14) (size 15 to 20)
#    0.000    2.625    0.000    2.625    7.000    1.000 
#    0.000    8.125   16.500    2.250    0.000    0.000 
#    0.000    0.000    0.000    0.000    0.000    0.000 
#
# Total GULP energy -178521.686122 kJ/mol
# GULP energy per Si atom -5578.802691 kJ/mol
# Density = 2.121711 g / cm^3
# Si number density = 21.265514 Si / 1000 Ang^3
#
#
#
# Elastic Constant Matrix: (Units=GPa)
#
#
# Indices 1 2 3 4 5 6 
#
# 1 42.6682 23.7355 3.1057 0.0004 3.1310 -0.0004
# 2 23.7355 124.2845 22.6495 0.0022 3.4853 0.0005
# 3 3.1057 22.6495 47.1231 0.0061 2.3207 -0.0026
# 4 0.0004 0.0022 0.0061 13.2049 -0.0003 11.7367
# 5 3.1310 3.4853 2.3207 -0.0003 25.1644 -0.0003
# 6 -0.0004 0.0005 -0.0026 11.7367 -0.0003 41.6967
#
#
#
# Elastic Compliance Matrix: (Units=1/GPa)
#
#
# Indices 1 2 3 4 5 6 
#
# 1 0.026421 -0.005127 0.000854 -0.000001 -0.002656 0.000001
# 2 -0.005127 0.009831 -0.004371 0.000001 -0.000321 -0.000001
# 3 0.000854 -0.004371 0.023347 -0.000015 -0.001654 0.000006
# 4 -0.000001 0.000001 -0.000015 0.100997 0.000002 -0.028429
# 5 -0.002656 -0.000321 -0.001654 0.000002 0.040266 -0.000001
# 6 0.000001 -0.000001 0.000006 -0.028429 -0.000001 0.031985
#
#
# Mechanical properties :
#
#
# Convention : Reuss Voigt Hill
#
# Bulk Modulus (GPa) = 23.63495 34.78413 29.20954
# Shear Modulus (GPa) = 18.92214 26.98555 22.95384
#
# Velocity S-wave (km/s) = 2.98619 3.56614 3.28898
# Velocity P-wave (km/s) = 4.79877 5.77486 5.30929
#
# Compressibility (1/GPa) = 0.04231022
#
# Stress axis : x y z
#
# Youngs Moduli (GPa) = 37.84802 101.72080 42.83149
#
# Poissons Ratio (x) = 0.52152 -0.03657
# Poissons Ratio (y) = 0.19405 0.18724
# Poissons Ratio (z) = -0.03231 0.44467
#
# Static dielectric constant tensor:
#      x y z
#    x 1.920550 0.000000 0.046170 
#    y 0.000000 1.779070 0.000000 
#    z 0.046170 0.000000 1.836410 
# 
# From -- ./inp_files/312903.got.cif
#   From: 2010.05.17/outbox.cif.g08.bks.cpg/sg12_157_cif.got.tgz:312903.got - 2010.06.03 13:09:07.
