data_PCOD9190926
_publ_section_title
;
Structure prediction by ZEFSAII (Michael W. Deem and Ramdas Pophale) SiO2 
 PCOD9190926
Probable space group: C 2/M
;
_chemical_formula_sum "Si O2"
_cell_formula_units_Z 64
_cell_length_a 31.515840
_cell_length_b 7.703414
_cell_length_c 14.889223
_cell_angle_alpha 90.000000
_cell_angle_beta 49.724739
_cell_angle_gamma 90.000000
_cell_volume 2757.902001
_symmetry_space_group_name_H-M "C 2/M"
_symmetry_group_IT_number 12
_symmetry_cell_setting 'monoclinic'
loop_
_space_group_symop_operation_xyz
x,y,z
-x,y,-z
-x,-y,-z
x,-y,z
1/2+x,1/2+y,z
1/2-x,1/2+y,-z
1/2-x,1/2-y,-z
1/2+x,1/2-y,z
loop_
_atom_site_type_symbol
_atom_site_label
_atom_site_fract_x
_atom_site_fract_y
_atom_site_fract_z
Si Si1 0.107337 0.205850 0.217901
Si Si2 0.407993 0.793221 0.372234
Si Si3 0.169215 0.706235 0.777706
Si Si4 0.289556 0.800619 0.567490
Si Si5 0.813366 0.788718 0.739866
Si Si6 0.550167 0.212568 0.867943
Si Si7 0.306879 0.791175 0.054028
Si Si8 0.510870 0.290950 0.587239
O O1 0.134606 0.272988 0.273017
O O2 0.045219 0.270076 0.285327
O O3 0.102078 0.000000 0.239126
O O4 0.150079 0.232742 0.079227
O O5 0.345317 0.720048 0.448097
O O6 0.449383 0.732215 0.236984
O O7 0.435170 0.764322 0.431855
O O8 0.402120 0.000000 0.369255
O O9 0.162726 0.500000 0.793522
O O10 0.226898 0.731308 0.644853
O O11 0.110957 0.770395 0.819002
O O12 0.177870 0.774196 0.867120
O O13 0.304729 0.786321 0.652935
O O14 0.286068 0.000000 0.544715
O O15 0.757512 0.743613 0.872011
O O16 0.815459 0.000000 0.727077
O O17 0.548055 0.000000 0.873135
O O18 0.500000 0.273333 0.000000
O O19 0.308877 0.000000 0.053081
O O20 0.500000 0.233407 0.500000
O O21 0.514521 0.500000 0.580085
#
# Coordination Sequence:
#
# PCOD9190926 Si02
#       8
#     8   8   8   8   8   8   8   8
#     4  10  20  32  50  75 104 141 185 231 278 332
#     4  10  22  38  59  87 114 145 191 240 284 331
#     4   9  19  36  58  84 109 144 191 226 267 334
#     4  10  20  34  54  83 115 143 177 230 290 332
#     4   9  18  34  53  75 105 146 190 225 266 331
#     4   9  19  37  62  86 112 149 191 234 277 331
#     4   9  18  30  49  78 107 138 181 228 273 327
#     4  10  22  39  57  79 110 151 192 228 278 342
#
# _framework density 23.206047000000002
#
# number of rings (size 3 to 8) (size 9 to 14) (size 15 to 20)
#    0.000    2.500    0.000    2.250    1.750    5.750 
#    0.000    0.625    0.000    0.750    0.000    0.000 
#    0.000    0.000    0.000    0.000    0.000    0.000 
#
# Total GULP energy -178629.918994 kJ/mol
# GULP energy per Si atom -5582.184969 kJ/mol
# Density = 2.315323 g / cm^3
# Si number density = 23.206047 Si / 1000 Ang^3
#
#
#
# Elastic Constant Matrix: (Units=GPa)
#
#
# Indices 1 2 3 4 5 6 
#
# 1 122.1263 1.1463 48.4586 0.0000 -19.7860 -0.0001
# 2 1.1463 29.7860 -1.1250 0.0000 -2.4173 0.0000
# 3 48.4586 -1.1250 141.0943 0.0000 -18.5038 0.0000
# 4 0.0000 0.0000 0.0000 11.4853 0.0000 -5.6227
# 5 -19.7860 -2.4173 -18.5038 0.0000 32.8082 0.0000
# 6 -0.0001 0.0000 0.0000 -5.6227 0.0000 8.3532
#
#
#
# Elastic Compliance Matrix: (Units=1/GPa)
#
#
# Indices 1 2 3 4 5 6 
#
# 1 0.010046 -0.000136 -0.002870 0.000000 0.004430 0.000000
# 2 -0.000136 0.033831 0.000683 0.000000 0.002796 0.000000
# 3 -0.002870 0.000683 0.008486 0.000000 0.003105 0.000000
# 4 0.000000 0.000000 0.000000 0.129861 0.000000 0.087411
# 5 0.004430 0.002796 0.003105 0.000000 0.035109 0.000000
# 6 0.000000 0.000000 0.000000 0.087411 0.000000 0.178552
#
#
# Mechanical properties :
#
#
# Convention : Reuss Voigt Hill
#
# Bulk Modulus (GPa) = 20.95693 43.32957 32.14325
# Shear Modulus (GPa) = 12.00662 26.83112 19.41887
#
# Velocity S-wave (km/s) = 2.27709 3.40400 2.89589
# Velocity P-wave (km/s) = 3.99549 5.84481 5.00629
#
# Compressibility (1/GPa) = 0.04771692
#
# Stress axis : x y z
#
# Youngs Moduli (GPa) = 99.54046 29.55887 117.84100
#
# Poissons Ratio (x) = 0.00401 0.33826
# Poissons Ratio (y) = 0.01349 -0.08049
# Poissons Ratio (z) = 0.28573 -0.02019
#
# Static dielectric constant tensor:
#      x y z
#    x 1.871010 0.000000 -0.003880 
#    y 0.000000 1.865490 0.000000 
#    z -0.003880 0.000000 1.908670 
# 
# From -- ./inp_files/249693.got.cif
#   From: 2010.05.17/outbox.cif.g08.bks.cpg/sg12_125_cif.got.tgz:249693.got - 2010.06.03 13:09:07.
