data_PCOD9190436
_publ_section_title
;
Structure prediction by ZEFSAII (Michael W. Deem and Ramdas Pophale) SiO2 
 PCOD9190436
Probable space group: C 2/M
;
_chemical_formula_sum "Si O2"
_cell_formula_units_Z 44
_cell_length_a 25.969986
_cell_length_b 7.219350
_cell_length_c 9.348224
_cell_angle_alpha 90.000000
_cell_angle_beta 98.585089
_cell_angle_gamma 90.000000
_cell_volume 1733.026887
_symmetry_space_group_name_H-M "C 2/M"
_symmetry_group_IT_number 12
_symmetry_cell_setting 'monoclinic'
loop_
_space_group_symop_operation_xyz
x,y,z
-x,y,-z
-x,-y,-z
x,-y,z
1/2+x,1/2+y,z
1/2-x,1/2+y,-z
1/2-x,1/2-y,-z
1/2+x,1/2-y,z
loop_
_atom_site_type_symbol
_atom_site_label
_atom_site_fract_x
_atom_site_fract_y
_atom_site_fract_z
Si Si1 0.076513 0.724969 0.649073
Si Si2 0.437856 0.217876 0.968887
Si Si3 0.803552 0.288992 0.720959
Si Si4 0.642762 0.500000 0.046312
Si Si5 0.964893 0.276123 0.682998
Si Si6 0.186014 0.275848 0.603542
O O1 0.077405 0.500000 0.663184
O O2 0.025243 0.784420 0.715535
O O3 0.136196 0.785935 0.673852
O O4 0.058434 0.770403 0.479043
O O5 0.396987 0.338923 0.035296
O O6 0.429357 0.283096 0.799853
O O7 0.430084 0.000000 0.988918
O O8 0.500000 0.248675 0.000000
O O9 0.822881 0.500000 0.746141
O O10 0.818816 0.223196 0.566347
O O11 0.740663 0.290804 0.687761
O O12 0.822976 0.161204 0.856271
O O13 0.965867 0.500000 0.692604
O O14 0.187515 0.500000 0.603607
#
# Coordination Sequence:
#
# PCOD9190436 Si02
#       6
#     8   8   8   4   8   8
#     4   8  13  23  47  73 104 138 168 195 246 307
#     4  10  21  36  55  78 105 131 171 215 259 303
#     4  10  20  31  47  70 103 138 175 209 251 303
#     4  12  21  34  52  75 100 138 166 216 261 302
#     4   8  14  27  46  75 103 135 167 201 247 312
#     4   9  16  29  45  71 103 141 175 208 245 301
#
# _framework density 25.389102999999999
#
# number of rings (size 3 to 8) (size 9 to 14) (size 15 to 20)
#    0.000    2.727    0.909    3.000    1.273    2.909 
#    0.000    0.000    2.000    2.182    0.000    1.273 
#    0.000    0.000    0.000    0.000    0.000    0.000 
#
# Total GULP energy -122493.854142 kJ/mol
# GULP energy per Si atom -5567.902461 kJ/mol
# Density = 2.533132 g / cm^3
# Si number density = 25.389103 Si / 1000 Ang^3
#
#
#
# Elastic Constant Matrix: (Units=GPa)
#
#
# Indices 1 2 3 4 5 6 
#
# 1 152.2779 2.8626 26.3734 0.0000 1.5899 0.0000
# 2 2.8626 141.8081 -1.0079 0.0000 13.9299 0.0000
# 3 26.3734 -1.0079 49.9999 0.0000 7.4999 0.0000
# 4 0.0000 0.0000 0.0000 -5.0399 0.0000 14.0990
# 5 1.5899 13.9299 7.4999 0.0000 50.0391 0.0000
# 6 0.0000 0.0000 0.0000 14.0990 0.0000 9.5659
#
#
#
# Elastic Compliance Matrix: (Units=1/GPa)
#
#
# Indices 1 2 3 4 5 6 
#
# 1 0.007239 -0.000214 -0.003885 0.000000 0.000412 0.000000
# 2 -0.000214 0.007267 0.000575 0.000000 -0.002102 0.000000
# 3 -0.003885 0.000575 0.022574 0.000000 -0.003420 0.000000
# 4 0.000000 0.000000 0.000000 -0.038729 0.000000 0.057082
# 5 0.000412 -0.002102 -0.003420 0.000000 0.021069 0.000000
# 6 0.000000 0.000000 0.000000 0.057082 0.000000 0.020405
#
#
# Mechanical properties :
#
#
# Convention : Reuss Voigt Hill
#
# Bulk Modulus (GPa) = 33.29819 44.50468 38.90144
# Shear Modulus (GPa) = 87.89914 31.97020 59.93467
#
# Velocity S-wave (km/s) = 5.89033 3.55238 4.86392
# Velocity P-wave (km/s) = 7.70746 5.86456 6.84828
#
# Compressibility (1/GPa) = 0.03003166
#
# Stress axis : x y z
#
# Youngs Moduli (GPa) = 138.13164 137.61410 44.29934
#
# Poissons Ratio (x) = 0.02948 0.17209
# Poissons Ratio (y) = 0.02959 -0.02546
# Poissons Ratio (z) = 0.53660 -0.07910
#
# Static dielectric constant tensor:
#      x y z
#    x 2.003270 0.000000 -0.022700 
#    y 0.000000 1.950660 0.000000 
#    z -0.022700 0.000000 2.119500 
# 
# From -- ./inp_files/179372.got.cif
#   From: 2010.05.17/outbox.cif.g08.bks.cpg/sg12_90_cif.got.tgz:179372.got - 2010.06.03 13:09:07.
