data_PCOD9190367
_publ_section_title
;
Structure prediction by ZEFSAII (Michael W. Deem and Ramdas Pophale) SiO2 
 PCOD9190367
Probable space group: C 2/M
;
_chemical_formula_sum "Si O2"
_cell_formula_units_Z 64
_cell_length_a 25.480526
_cell_length_b 7.327533
_cell_length_c 21.081005
_cell_angle_alpha 90.000000
_cell_angle_beta 42.799798
_cell_angle_gamma 90.000000
_cell_volume 2674.285530
_symmetry_space_group_name_H-M "C 2/M"
_symmetry_group_IT_number 12
_symmetry_cell_setting 'monoclinic'
loop_
_space_group_symop_operation_xyz
x,y,z
-x,y,-z
-x,-y,-z
x,-y,z
1/2+x,1/2+y,z
1/2-x,1/2+y,-z
1/2-x,1/2-y,-z
1/2+x,1/2-y,z
loop_
_atom_site_type_symbol
_atom_site_label
_atom_site_fract_x
_atom_site_fract_y
_atom_site_fract_z
Si Si1 0.564499 0.710020 0.137730
Si Si2 0.686399 0.723457 0.927972
Si Si3 0.583046 0.719388 0.669266
Si Si4 0.104696 0.713953 0.375924
Si Si5 0.208346 0.785982 0.771604
Si Si6 0.635288 0.778376 0.211291
Si Si7 0.724482 0.276679 0.619552
Si Si8 0.898348 0.284244 0.485052
O O1 0.553014 0.500000 0.128474
O O2 0.479857 0.789410 0.225009
O O3 0.601616 0.713585 0.174853
O O4 0.623869 0.788359 0.034139
O O5 0.686382 0.500000 0.928053
O O6 0.672475 0.786724 0.868165
O O7 0.774208 0.774244 0.867146
O O8 0.583688 0.500000 0.672118
O O9 0.668252 0.784726 0.613455
O O10 0.558330 0.764625 0.619633
O O11 0.082289 0.500000 0.391215
O O12 0.198136 0.724836 0.303607
O O13 0.095882 0.787183 0.312275
O O14 0.073416 0.787016 0.471511
O O15 0.189473 0.717468 0.718482
O O16 0.189388 0.000000 0.786921
O O17 0.631490 0.000000 0.215351
O O18 0.727011 0.500000 0.615855
O O19 0.812752 0.211970 0.543623
O O20 0.890595 0.500000 0.503022
#
# Coordination Sequence:
#
# PCOD9190367 Si02
#       8
#     8   8   8   8   8   8   8   8
#     4  10  20  31  41  60  94 125 143 168 211 258
#     4   8  14  26  45  67  88 111 141 178 217 253
#     4  10  20  31  41  60  94 125 143 168 211 258
#     4   7  12  24  44  69  87  99 130 185 230 248
#     4   7  10  20  41  66  87 106 134 175 218 254
#     4   9  16  29  50  69  83 106 145 186 217 250
#     4   8  14  26  45  67  88 111 141 178 217 253
#     4   9  16  29  50  69  83 106 145 186 217 250
#
# _framework density 23.931626000000001
#
# number of rings (size 3 to 8) (size 9 to 14) (size 15 to 20)
#    0.000    3.500    0.000    3.750    0.000    0.500 
#    0.000    1.875    0.000    7.500    0.000    2.625 
#    0.000    2.000    0.000    0.000    0.000    0.000 
#
# Total GULP energy -178496.422345 kJ/mol
# GULP energy per Si atom -5578.013198 kJ/mol
# Density = 2.387716 g / cm^3
# Si number density = 23.931626 Si / 1000 Ang^3
#
#
#
# Elastic Constant Matrix: (Units=GPa)
#
#
# Indices 1 2 3 4 5 6 
#
# 1 94.2412 -4.4272 37.7907 -0.0124 15.0673 0.0097
# 2 -4.4272 91.3835 -8.6886 -0.0005 -2.7823 0.0057
# 3 37.7907 -8.6886 146.1960 -0.0124 21.3433 -0.0151
# 4 -0.0124 -0.0005 -0.0124 -0.3650 -0.0167 4.8566
# 5 15.0673 -2.7823 21.3433 -0.0167 33.4551 -0.0109
# 6 0.0097 0.0057 -0.0151 4.8566 -0.0109 4.0197
#
#
#
# Elastic Compliance Matrix: (Units=1/GPa)
#
#
# Indices 1 2 3 4 5 6 
#
# 1 0.012280 0.000231 -0.002598 -0.000048 -0.003854 0.000008
# 2 0.000231 0.011019 0.000526 -0.000014 0.000477 0.000004
# 3 -0.002598 0.000526 0.008122 0.000019 -0.003968 0.000002
# 4 -0.000048 -0.000014 0.000019 -0.160441 -0.000009 0.193846
# 5 -0.003854 0.000477 -0.003968 -0.000009 0.034198 0.000097
# 6 0.000008 0.000004 0.000002 0.193846 0.000097 0.014568
#
#
# Mechanical properties :
#
#
# Convention : Reuss Voigt Hill
#
# Bulk Modulus (GPa) = 36.05282 42.35226 39.20254
# Shear Modulus (GPa) = -74.26625 27.89836 -23.18394
#
# Velocity S-wave (km/s) = -5.57674 3.41802 -3.11586
# Velocity P-wave (km/s) = 5.13509 5.77172 1.86328
#
# Compressibility (1/GPa) = 0.02773708
#
# Stress axis : x y z
#
# Youngs Moduli (GPa) = 81.43435 90.75588 123.11938
#
# Poissons Ratio (x) = -0.02093 0.31985
# Poissons Ratio (y) = -0.01878 -0.06471
# Poissons Ratio (z) = 0.21156 -0.04770
#
# Static dielectric constant tensor:
#      x y z
#    x 1.888190 -0.000020 -0.004000 
#    y -0.000020 1.983700 0.000020 
#    z -0.004000 0.000020 1.949450 
# 
# From -- ./inp_files/326872.got.cif
#   From: 2010.05.17/outbox.cif.g08.bks.cpg/sg12_164_cif.got.tgz:326872.got - 2010.06.03 13:09:07.
