data_PCOD9190966
_publ_section_title
;
Structure prediction by ZEFSAII (Michael W. Deem and Ramdas Pophale) SiO2 
 PCOD9190966
Probable space group: C 2/M
;
_chemical_formula_sum "Si O2"
_cell_formula_units_Z 56
_cell_length_a 22.166191
_cell_length_b 7.416885
_cell_length_c 21.057548
_cell_angle_alpha 90.000000
_cell_angle_beta 40.654875
_cell_angle_gamma 90.000000
_cell_volume 2255.462319
_symmetry_space_group_name_H-M "C 2/M"
_symmetry_group_IT_number 12
_symmetry_cell_setting 'monoclinic'
loop_
_space_group_symop_operation_xyz
x,y,z
-x,y,-z
-x,-y,-z
x,-y,z
1/2+x,1/2+y,z
1/2-x,1/2+y,-z
1/2-x,1/2-y,-z
1/2+x,1/2-y,z
loop_
_atom_site_type_symbol
_atom_site_label
_atom_site_fract_x
_atom_site_fract_y
_atom_site_fract_z
Si Si1 0.532822 0.214870 0.572660
Si Si2 0.355543 0.782813 0.645860
Si Si3 0.799142 0.701964 0.057224
Si Si4 0.322055 0.293889 0.281521
Si Si5 0.875028 0.221387 0.860118
Si Si6 0.915737 0.787089 0.328727
Si Si7 0.488860 0.793694 0.934889
O O1 0.591769 0.254571 0.462761
O O2 0.428134 0.285957 0.641716
O O3 0.587440 0.268842 0.592702
O O4 0.525317 0.000000 0.582625
O O5 0.251545 0.717142 0.711236
O O6 0.350415 0.000000 0.660311
O O7 0.794466 0.500000 0.088602
O O8 0.831372 0.696444 0.958050
O O9 0.888851 0.799791 0.010997
O O10 0.695984 0.776928 0.138796
O O11 0.289806 0.500000 0.317034
O O12 0.340728 0.214315 0.337666
O O13 0.424002 0.292655 0.169032
O O14 0.980242 0.280131 0.769206
O O15 0.871918 0.000000 0.865946
O O16 0.917112 0.000000 0.314708
O O17 0.483869 0.000000 0.913454
O O18 0.500000 0.806515 0.000000
#
# Coordination Sequence:
#
# PCOD9190966 Si02
#       7
#     8   8   8   8   8   8   8
#     4   9  18  35  58  79 102 137 177 215 255 309
#     4   8  17  36  58  78 103 137 177 216 256 306
#     4   9  17  30  48  67  92 127 168 206 242 293
#     4  10  20  36  56  77 105 140 175 215 262 314
#     4   9  17  30  47  68  95 129 163 201 250 295
#     4  10  20  32  50  80 113 137 166 215 268 310
#     4  10  21  35  50  73 104 137 172 214 261 306
#
# _framework density 24.828614000000002
#
# number of rings (size 3 to 8) (size 9 to 14) (size 15 to 20)
#    0.000    2.714    1.429    0.857    0.000    3.143 
#    0.000    4.286    0.000    0.000    0.000    0.000 
#    0.000    0.000    0.000    0.000    0.000    0.000 
#
# Total GULP energy -155922.682356 kJ/mol
# GULP energy per Si atom -5568.667227 kJ/mol
# Density = 2.477210 g / cm^3
# Si number density = 24.828614 Si / 1000 Ang^3
#
#
#
# Elastic Constant Matrix: (Units=GPa)
#
#
# Indices 1 2 3 4 5 6 
#
# 1 117.4248 9.3959 5.3379 0.0011 -27.1351 -0.0026
# 2 9.3959 85.6520 -3.5704 -0.0062 -6.8761 -0.0013
# 3 5.3379 -3.5704 32.1774 0.0005 7.9593 0.0014
# 4 0.0011 -0.0062 0.0005 11.4519 0.0014 5.7846
# 5 -27.1351 -6.8761 7.9593 0.0014 33.2630 -0.0021
# 6 -0.0026 -0.0013 0.0014 5.7846 -0.0021 10.6365
#
#
#
# Elastic Compliance Matrix: (Units=1/GPa)
#
#
# Indices 1 2 3 4 5 6 
#
# 1 0.011059 -0.000597 -0.004360 -0.000007 0.009942 0.000009
# 2 -0.000597 0.011922 0.000991 0.000007 0.001740 -0.000003
# 3 -0.004360 0.000991 0.034800 0.000007 -0.011679 -0.000011
# 4 -0.000007 0.000007 0.000007 0.120396 -0.000015 -0.065477
# 5 0.009942 0.001740 -0.011679 -0.000015 0.041328 0.000021
# 6 0.000009 -0.000003 -0.000011 -0.065477 0.000021 0.129626
#
#
# Mechanical properties :
#
#
# Convention : Reuss Voigt Hill
#
# Bulk Modulus (GPa) = 20.06021 28.62011 24.34016
# Shear Modulus (GPa) = 13.38048 26.00967 19.69508
#
# Velocity S-wave (km/s) = 2.32397 3.24013 2.81951
# Velocity P-wave (km/s) = 3.91128 5.05470 4.51930
#
# Compressibility (1/GPa) = 0.04984993
#
# Stress axis : x y z
#
# Youngs Moduli (GPa) = 90.42009 83.88091 28.73572
#
# Poissons Ratio (x) = 0.05006 0.12529
# Poissons Ratio (y) = 0.05396 -0.02849
# Poissons Ratio (z) = 0.39424 -0.08316
#
# Static dielectric constant tensor:
#      x y z
#    x 7.799370 -0.009310 -1.925700 
#    y -0.009310 2.586230 0.003190 
#    z -1.925700 0.003190 2.604710 
# 
# From -- ./inp_files/319722.got.cif
#   From: 2010.05.17/outbox.cif.g08.bks.cpg/sg12_160_cif.got.tgz:319722.got - 2010.06.03 13:09:07.
