data_PCOD9190282
_publ_section_title
;
Structure prediction by ZEFSAII (Michael W. Deem and Ramdas Pophale) SiO2 
 PCOD9190282
Probable space group: C 2/M
;
_chemical_formula_sum "Si O2"
_cell_formula_units_Z 56
_cell_length_a 26.345221
_cell_length_b 14.122692
_cell_length_c 9.562301
_cell_angle_alpha 90.000000
_cell_angle_beta 108.683091
_cell_angle_gamma 90.000000
_cell_volume 3370.322868
_symmetry_space_group_name_H-M "C 2/M"
_symmetry_group_IT_number 12
_symmetry_cell_setting 'monoclinic'
loop_
_space_group_symop_operation_xyz
x,y,z
-x,y,-z
-x,-y,-z
x,-y,z
1/2+x,1/2+y,z
1/2-x,1/2+y,-z
1/2-x,1/2-y,-z
1/2+x,1/2-y,z
loop_
_atom_site_type_symbol
_atom_site_label
_atom_site_fract_x
_atom_site_fract_y
_atom_site_fract_z
Si Si1 0.330432 0.796422 0.266400
Si Si2 0.177630 0.610805 0.040385
Si Si3 0.443614 0.886346 0.374206
Si Si4 0.003475 0.614946 0.161750
Si Si5 0.223470 0.385964 0.533651
Si Si6 0.712688 0.609322 0.680665
Si Si7 0.620972 0.114869 0.265736
O O1 0.387693 0.838931 0.363867
O O2 0.282527 0.839411 0.320373
O O3 0.327670 0.684840 0.291194
O O4 0.321639 0.827889 0.098714
O O5 0.167977 0.500000 0.993509
O O6 0.233216 0.614265 0.176830
O O7 0.133248 0.640484 0.115788
O O8 0.500000 0.863738 0.500000
O O9 0.456521 0.859011 0.225024
O O10 0.436646 0.000000 0.382423
O O11 0.002883 0.500000 0.159680
O O12 0.062555 0.644119 0.265082
O O13 0.000000 0.647687 0.000000
O O14 0.222334 0.500000 0.548036
O O15 0.270738 0.364969 0.464967
O O16 0.169801 0.354193 0.404530
O O17 0.695140 0.500000 0.666495
O O18 0.622318 0.000000 0.268701
#
# Coordination Sequence:
#
# PCOD9190282 Si02
#       7
#     8   8   8   8   8   8   8
#     4  12  19  28  48  70  90 117 154 188 220 261
#     4   9  17  29  46  70  95 116 143 180 221 266
#     4  10  20  30  41  65  97 118 138 178 228 269
#     4   9  15  23  36  55  83 118 146 164 195 254
#     4   9  17  29  45  65  88 115 145 178 221 270
#     4   9  20  35  46  61  90 123 152 185 225 266
#     4   8  14  26  41  58  89 125 143 161 208 270
#
# _framework density 16.615618999999999
#
# number of rings (size 3 to 8) (size 9 to 14) (size 15 to 20)
#    0.000    2.571    0.000    5.571    0.000    4.571 
#    0.000    0.000    0.000    0.429    0.000    0.000 
#    0.000    5.143    0.000    0.000    0.000    0.571 
#
# Total GULP energy -156008.708340 kJ/mol
# GULP energy per Si atom -5571.739584 kJ/mol
# Density = 1.657780 g / cm^3
# Si number density = 16.615619 Si / 1000 Ang^3
#
#
#
# Elastic Constant Matrix: (Units=GPa)
#
#
# Indices 1 2 3 4 5 6 
#
# 1 55.9762 34.1576 14.0443 0.0000 -15.3438 0.0000
# 2 34.1576 50.2776 12.7327 0.0000 -12.3317 0.0000
# 3 14.0443 12.7327 52.7349 0.0000 -21.0918 0.0000
# 4 0.0000 0.0000 0.0000 11.3336 0.0000 -2.4416
# 5 -15.3438 -12.3317 -21.0918 0.0000 27.5592 0.0000
# 6 0.0000 0.0000 0.0000 -2.4416 0.0000 17.3341
#
#
#
# Elastic Compliance Matrix: (Units=1/GPa)
#
#
# Indices 1 2 3 4 5 6 
#
# 1 0.032478 -0.019784 -0.000261 0.000000 0.009030 0.000000
# 2 -0.019784 0.034542 -0.001866 0.000000 0.003013 0.000000
# 3 -0.000261 -0.001866 0.027512 0.000000 0.020075 0.000000
# 4 0.000000 0.000000 0.000000 0.090994 0.000000 0.012817
# 5 0.009030 0.003013 0.020075 0.000000 0.058026 0.000000
# 6 0.000000 0.000000 0.000000 0.012817 0.000000 0.059495
#
#
# Mechanical properties :
#
#
# Convention : Reuss Voigt Hill
#
# Bulk Modulus (GPa) = 19.72000 31.20644 25.46322
# Shear Modulus (GPa) = 13.74484 17.78231 15.76357
#
# Velocity S-wave (km/s) = 2.87927 3.27497 3.08347
# Velocity P-wave (km/s) = 4.79038 5.75523 5.29483
#
# Compressibility (1/GPa) = 0.05070995
#
# Stress axis : x y z
#
# Youngs Moduli (GPa) = 30.79009 28.95023 36.34749
#
# Poissons Ratio (x) = 0.57275 0.00949
# Poissons Ratio (y) = 0.60915 0.06783
# Poissons Ratio (z) = 0.00804 0.05403
#
# Static dielectric constant tensor:
#      x y z
#    x 1.572100 0.000000 -0.007580 
#    y 0.000000 1.542230 0.000000 
#    z -0.007580 0.000000 1.632570 
# 
# From -- ./inp_files/104104.got.cif
#   From: 2010.05.17/outbox.cif.g08.bks.cpg/sg12_53_cif.got.tgz:104104.got - 2010.06.03 13:09:07.
