data_PCOD9190991
_publ_section_title
;
Structure prediction by ZEFSAII (Michael W. Deem and Ramdas Pophale) SiO2 
 PCOD9190991
Probable space group: C 2/M
;
_chemical_formula_sum "Si O2"
_cell_formula_units_Z 56
_cell_length_a 20.412761
_cell_length_b 7.744049
_cell_length_c 25.330874
_cell_angle_alpha 90.000000
_cell_angle_beta 43.872106
_cell_angle_gamma 90.000000
_cell_volume 2775.141818
_symmetry_space_group_name_H-M "C 2/M"
_symmetry_group_IT_number 12
_symmetry_cell_setting 'monoclinic'
loop_
_space_group_symop_operation_xyz
x,y,z
-x,y,-z
-x,-y,-z
x,-y,z
1/2+x,1/2+y,z
1/2-x,1/2+y,-z
1/2-x,1/2-y,-z
1/2+x,1/2-y,z
loop_
_atom_site_type_symbol
_atom_site_label
_atom_site_fract_x
_atom_site_fract_y
_atom_site_fract_z
Si Si1 0.913891 0.300144 0.507835
Si Si2 0.428845 0.712189 0.195481
Si Si3 0.042842 0.798619 0.229727
Si Si4 0.053140 0.200475 0.340725
Si Si5 0.257952 0.793447 0.933609
Si Si6 0.448720 0.711086 0.976522
Si Si7 0.215845 0.294831 0.327623
O O1 0.894010 0.500000 0.506406
O O2 0.828131 0.223434 0.591984
O O3 0.000000 0.298213 0.500000
O O4 0.957436 0.216095 0.430591
O O5 0.430890 0.500000 0.193849
O O6 0.474494 0.773032 0.223983
O O7 0.493524 0.767100 0.108780
O O8 0.320253 0.769112 0.253660
O O9 0.041273 0.721419 0.289396
O O10 0.148848 0.786982 0.145656
O O11 0.015815 0.000000 0.250773
O O12 0.139482 0.273442 0.325347
O O13 0.076544 0.000000 0.320807
O O14 0.265626 0.000000 0.923440
O O15 0.250000 0.750000 0.000000
O O16 0.160203 0.734624 0.963761
O O17 0.448459 0.500000 0.976355
O O18 0.500000 0.767541 0.000000
O O19 0.223932 0.500000 0.331531
#
# Coordination Sequence:
#
# PCOD9190991 Si02
#       7
#     8   8   8   8   8   8   8
#     4   8  15  30  50  75 103 130 170 215 252 299
#     4   9  17  33  53  71 101 138 171 211 252 299
#     4  10  21  37  53  74 105 139 175 208 250 309
#     4  10  20  32  51  77 106 137 168 208 258 313
#     4  11  21  35  57  79 103 136 173 212 255 303
#     4   9  18  31  51  79 102 127 171 215 246 291
#     4   9  18  32  55  79  99 132 175 217 256 297
#
# _framework density 20.179148999999999
#
# number of rings (size 3 to 8) (size 9 to 14) (size 15 to 20)
#    0.000    2.571    1.429    1.714    2.000    3.714 
#    0.000    1.429    0.000    1.714    0.000    0.000 
#    0.000    0.000    0.000    0.000    0.000    0.000 
#
# Total GULP energy -156147.633507 kJ/mol
# GULP energy per Si atom -5576.701197 kJ/mol
# Density = 2.013322 g / cm^3
# Si number density = 20.179149 Si / 1000 Ang^3
#
#
#
# Elastic Constant Matrix: (Units=GPa)
#
#
# Indices 1 2 3 4 5 6 
#
# 1 106.9171 -1.6669 36.4096 -0.0002 17.5320 0.0011
# 2 -1.6669 23.1153 -2.5622 0.0004 -2.5540 0.0008
# 3 36.4096 -2.5622 77.5210 -0.0005 22.7109 -0.0003
# 4 -0.0002 0.0004 -0.0005 18.3518 0.0000 -2.1437
# 5 17.5320 -2.5540 22.7109 0.0000 35.7922 0.0001
# 6 0.0011 0.0008 -0.0003 -2.1437 0.0001 -12.4902
#
#
#
# Elastic Compliance Matrix: (Units=1/GPa)
#
#
# Indices 1 2 3 4 5 6 
#
# 1 0.011338 0.000019 -0.004542 0.000000 -0.002670 0.000001
# 2 0.000019 0.043632 0.000643 -0.000001 0.002696 0.000003
# 3 -0.004542 0.000643 0.017675 0.000000 -0.008944 -0.000001
# 4 0.000000 -0.000001 0.000000 0.053420 0.000000 -0.009169
# 5 -0.002670 0.002696 -0.008944 0.000000 0.035115 0.000001
# 6 0.000001 0.000003 -0.000001 -0.009169 0.000001 -0.078489
#
#
# Mechanical properties :
#
#
# Convention : Reuss Voigt Hill
#
# Bulk Modulus (GPa) = 15.41189 30.21270 22.81229
# Shear Modulus (GPa) = 44.61200 20.02230 32.31715
#
# Velocity S-wave (km/s) = 4.70701 3.15338 4.00623
# Velocity P-wave (km/s) = 6.09880 5.31631 5.72095
#
# Compressibility (1/GPa) = 0.06488499
#
# Stress axis : x y z
#
# Youngs Moduli (GPa) = 88.19893 22.91898 56.57803
#
# Poissons Ratio (x) = -0.00044 0.25699
# Poissons Ratio (y) = -0.00169 -0.03640
# Poissons Ratio (z) = 0.40062 -0.01474
#
# Static dielectric constant tensor:
#      x y z
#    x 1.703400 0.000000 0.010150 
#    y 0.000000 1.743230 0.000000 
#    z 0.010150 0.000000 1.716610 
# 
# From -- ./inp_files/280237.got.cif
#   From: 2010.05.17/outbox.cif.g08.bks.cpg/sg12_141_cif.got.tgz:280237.got - 2010.06.03 13:09:07.
