data_PCOD9190144
_publ_section_title
;
Structure prediction by ZEFSAII (Michael W. Deem and Ramdas Pophale) SiO2 
 PCOD9190144
Probable space group: C 2/M
;
_chemical_formula_sum "Si O2"
_cell_formula_units_Z 44
_cell_length_a 11.035999
_cell_length_b 16.151900
_cell_length_c 10.759628
_cell_angle_alpha 90.000000
_cell_angle_beta 101.674009
_cell_angle_gamma 90.000000
_cell_volume 1878.256064
_symmetry_space_group_name_H-M "C 2/M"
_symmetry_group_IT_number 12
_symmetry_cell_setting 'monoclinic'
loop_
_space_group_symop_operation_xyz
x,y,z
-x,y,-z
-x,-y,-z
x,-y,z
1/2+x,1/2+y,z
1/2-x,1/2+y,-z
1/2-x,1/2-y,-z
1/2+x,1/2-y,z
loop_
_atom_site_type_symbol
_atom_site_label
_atom_site_fract_x
_atom_site_fract_y
_atom_site_fract_z
Si Si1 0.638113 0.766696 0.381738
Si Si2 0.908356 0.306251 0.221107
Si Si3 0.531849 0.407876 0.360204
Si Si4 0.500000 0.281064 0.000000
Si Si5 0.728024 0.408277 0.053935
Si Si6 0.232226 0.140244 0.788953
O O1 0.750000 0.750000 0.500000
O O2 0.492337 0.793562 0.359803
O O3 0.612979 0.670210 0.333628
O O4 0.683884 0.847988 0.313725
O O5 0.836346 0.388825 0.173837
O O6 0.803037 0.236362 0.200715
O O7 0.988884 0.276589 0.118793
O O8 0.500000 0.396375 0.500000
O O9 0.585062 0.500000 0.353733
O O10 0.398919 0.402950 0.265312
O O11 0.617797 0.341503 0.033575
O O12 0.678070 0.500000 0.059596
O O13 0.783558 0.397038 0.926119
#
# Coordination Sequence:
#
# PCOD9190144 Si02
#       6
#     8   8   8   4   8   8
#     4  11  21  37  60  84 116 169 207 236 302 377
#     4  10  21  36  59  86 123 156 202 256 295 363
#     4  10  20  36  58  89 116 143 198 264 297 335
#     4  10  19  40  63  86 116 166 208 236 301 380
#     4  11  22  38  61  94 126 157 198 259 314 359
#     4  10  20  37  58  86 118 159 202 245 298 369
#
# _framework density 23.425984
#
# number of rings (size 3 to 8) (size 9 to 14) (size 15 to 20)
#    0.000    1.636    1.818    5.182    0.000    0.000 
#    0.000   13.182    0.000    0.000    0.000    7.636 
#    0.000    0.000    0.000    0.000    0.000    0.000 
#
# Total GULP energy -122588.135614 kJ/mol
# GULP energy per Si atom -5572.187982 kJ/mol
# Density = 2.337267 g / cm^3
# Si number density = 23.425984 Si / 1000 Ang^3
#
#
#
# Elastic Constant Matrix: (Units=GPa)
#
#
# Indices 1 2 3 4 5 6 
#
# 1 53.9558 36.1870 23.3704 0.0000 24.4361 0.0000
# 2 36.1870 53.4084 18.7742 0.0000 16.8692 0.0000
# 3 23.3704 18.7742 111.6653 0.0000 32.5864 0.0000
# 4 0.0000 0.0000 0.0000 12.5015 0.0000 3.9587
# 5 24.4361 16.8692 32.5864 0.0000 45.0012 0.0000
# 6 0.0000 0.0000 0.0000 3.9587 0.0000 17.2473
#
#
#
# Elastic Compliance Matrix: (Units=1/GPa)
#
#
# Indices 1 2 3 4 5 6 
#
# 1 0.039791 -0.022719 -0.000872 0.000000 -0.012459 0.000000
# 2 -0.022719 0.034432 -0.001100 0.000000 0.000226 0.000000
# 3 -0.000872 -0.001100 0.011493 0.000000 -0.007436 0.000000
# 4 0.000000 0.000000 0.000000 0.086260 0.000000 -0.019799
# 5 -0.012459 0.000226 -0.007436 0.000000 0.034287 0.000000
# 6 0.000000 0.000000 0.000000 -0.019799 0.000000 0.062525
#
#
# Mechanical properties :
#
#
# Convention : Reuss Voigt Hill
#
# Bulk Modulus (GPa) = 27.52280 41.74365 34.63323
# Shear Modulus (GPa) = 15.13860 24.32985 19.73423
#
# Velocity S-wave (km/s) = 2.54487 3.22620 2.90557
# Velocity P-wave (km/s) = 4.51768 5.63346 5.10614
#
# Compressibility (1/GPa) = 0.03633351
#
# Stress axis : x y z
#
# Youngs Moduli (GPa) = 25.13127 29.04262 87.01009
#
# Poissons Ratio (x) = 0.65981 0.07591
# Poissons Ratio (y) = 0.57095 0.09573
# Poissons Ratio (z) = 0.02193 0.03195
#
# Static dielectric constant tensor:
#      x y z
#    x 2.081400 0.000000 -0.164190 
#    y 0.000000 1.855770 0.000000 
#    z -0.164190 0.000000 2.105450 
# 
# From -- ./inp_files/131305.got.cif
#   From: 2010.05.17/outbox.cif.g08.bks.cpg/sg12_66_cif.got.tgz:131305.got - 2010.06.03 13:09:07.
