data_PCOD9190897
_publ_section_title
;
Structure prediction by ZEFSAII (Michael W. Deem and Ramdas Pophale) SiO2 
 PCOD9190897
Probable space group: C 2/M
;
_chemical_formula_sum "Si O2"
_cell_formula_units_Z 64
_cell_length_a 13.679166
_cell_length_b 26.245664
_cell_length_c 9.304976
_cell_angle_alpha 90.000000
_cell_angle_beta 130.621134
_cell_angle_gamma 90.000000
_cell_volume 2535.666172
_symmetry_space_group_name_H-M "C 2/M"
_symmetry_group_IT_number 12
_symmetry_cell_setting 'monoclinic'
loop_
_space_group_symop_operation_xyz
x,y,z
-x,y,-z
-x,-y,-z
x,-y,z
1/2+x,1/2+y,z
1/2-x,1/2+y,-z
1/2-x,1/2-y,-z
1/2+x,1/2-y,z
loop_
_atom_site_type_symbol
_atom_site_label
_atom_site_fract_x
_atom_site_fract_y
_atom_site_fract_z
Si Si1 0.106324 0.176979 0.523489
Si Si2 0.792197 0.621662 0.282714
Si Si3 0.295573 0.560548 0.049917
Si Si4 0.574326 0.260034 0.214982
Si Si5 0.609582 0.147399 0.319331
Si Si6 0.194492 0.441190 0.262049
Si Si7 0.405480 0.559475 0.721249
Si Si8 0.208907 0.734962 0.798513
O O1 0.064440 0.200237 0.330821
O O2 0.249181 0.157678 0.618713
O O3 0.117422 0.219780 0.659899
O O4 0.000000 0.141470 0.500000
O O5 0.883025 0.632710 0.506472
O O6 0.662115 0.600530 0.237900
O O7 0.802897 0.674466 0.206859
O O8 0.800377 0.580256 0.165425
O O9 0.295432 0.500000 0.050121
O O10 0.247344 0.577306 0.159545
O O11 0.446255 0.574352 0.165661
O O12 0.540878 0.201944 0.229675
O O13 0.715251 0.262794 0.283934
O O14 0.500000 0.273620 0.000000
O O15 0.580276 0.094908 0.211363
O O16 0.153661 0.500000 0.211770
O O17 0.312965 0.441304 0.492189
O O18 0.402612 0.500000 0.772793
O O19 0.250000 0.750000 0.000000
#
# Coordination Sequence:
#
# PCOD9190897 Si02
#       8
#     8   8   8   8   8   8   8   8
#     4  11  22  41  60  84 117 152 191 238 293 346
#     4  11  20  33  53  73 112 151 188 230 281 326
#     4  10  20  32  49  81 117 150 194 236 276 341
#     4  11  22  41  62  84 114 151 192 245 301 343
#     4  10  21  40  58  83 118 149 192 241 282 347
#     4   9  19  35  55  79 112 154 192 232 287 342
#     4   9  18  33  51  76 113 153 189 232 281 342
#     4  11  23  40  56  82 117 152 194 243 282 345
#
# _framework density 25.239915
#
# number of rings (size 3 to 8) (size 9 to 14) (size 15 to 20)
#    0.000    1.750    2.500    2.625    3.500    6.000 
#    2.250    0.000    0.000    0.375    0.000    0.000 
#    0.000    4.500    0.000    0.000    0.000    0.000 
#
# Total GULP energy -178311.657986 kJ/mol
# GULP energy per Si atom -5572.239312 kJ/mol
# Density = 2.518247 g / cm^3
# Si number density = 25.239915 Si / 1000 Ang^3
#
#
#
# Elastic Constant Matrix: (Units=GPa)
#
#
# Indices 1 2 3 4 5 6 
#
# 1 81.3168 12.7952 19.2712 0.0000 -30.0711 0.0000
# 2 12.7952 61.2300 21.9543 0.0000 -10.2621 0.0000
# 3 19.2712 21.9543 148.1422 0.0000 -41.8038 0.0000
# 4 0.0000 0.0000 0.0000 42.4117 0.0000 -18.8969
# 5 -30.0711 -10.2621 -41.8038 0.0000 38.1271 0.0000
# 6 0.0000 0.0000 0.0000 -18.8969 0.0000 -5.8630
#
#
#
# Elastic Compliance Matrix: (Units=1/GPa)
#
#
# Indices 1 2 3 4 5 6 
#
# 1 0.018146 -0.001941 0.002633 0.000000 0.016676 0.000000
# 2 -0.001941 0.017645 -0.002106 0.000000 0.000909 0.000000
# 3 0.002633 -0.002106 0.010347 0.000000 0.012855 0.000000
# 4 0.000000 0.000000 0.000000 0.009679 0.000000 -0.031196
# 5 0.016676 0.000909 0.012855 0.000000 0.053720 0.000000
# 6 0.000000 0.000000 0.000000 -0.031196 0.000000 -0.070015
#
#
# Mechanical properties :
#
#
# Convention : Reuss Voigt Hill
#
# Bulk Modulus (GPa) = 23.08916 44.30337 33.69627
# Shear Modulus (GPa) = 88.04822 30.71303 59.38063
#
# Velocity S-wave (km/s) = 5.91272 3.49211 4.85567
# Velocity P-wave (km/s) = 7.46869 5.81814 6.69448
#
# Compressibility (1/GPa) = 0.04331036
#
# Stress axis : x y z
#
# Youngs Moduli (GPa) = 55.10884 56.67345 96.64299
#
# Poissons Ratio (x) = 0.11001 -0.25446
# Poissons Ratio (y) = 0.10697 0.20351
# Poissons Ratio (z) = -0.14510 0.11934
#
# Static dielectric constant tensor:
#      x y z
#    x 2.241210 0.000000 0.215580 
#    y 0.000000 2.106740 0.000000 
#    z 0.215580 0.000000 2.063900 
# 
# From -- ./inp_files/68274.got.cif
#   From: 2010.05.17/outbox.cif.g08.bks.cpg/sg12_35_cif.got.tgz:68274.got - 2010.06.03 13:09:07.
