data_PCOD9190528
_publ_section_title
;
Structure prediction by ZEFSAII (Michael W. Deem and Ramdas Pophale) SiO2 
 PCOD9190528
Probable space group: C 2/M
;
_chemical_formula_sum "Si O2"
_cell_formula_units_Z 64
_cell_length_a 16.762030
_cell_length_b 14.850190
_cell_length_c 23.909548
_cell_angle_alpha 90.000000
_cell_angle_beta 153.308173
_cell_angle_gamma 90.000000
_cell_volume 2673.385425
_symmetry_space_group_name_H-M "C 2/M"
_symmetry_group_IT_number 12
_symmetry_cell_setting 'monoclinic'
loop_
_space_group_symop_operation_xyz
x,y,z
-x,y,-z
-x,-y,-z
x,-y,z
1/2+x,1/2+y,z
1/2-x,1/2+y,-z
1/2-x,1/2-y,-z
1/2+x,1/2-y,z
loop_
_atom_site_type_symbol
_atom_site_label
_atom_site_fract_x
_atom_site_fract_y
_atom_site_fract_z
Si Si1 0.628693 0.601163 0.840283
Si Si2 0.732576 0.144727 0.595730
Si Si3 0.289483 0.889577 0.053602
Si Si4 0.876668 0.108360 0.281984
Si Si5 0.164727 0.602932 0.674419
Si Si6 0.309720 0.892860 0.723266
Si Si7 0.244082 0.157718 0.561004
Si Si8 0.350561 0.108352 0.212738
O O1 0.706722 0.500000 0.890341
O O2 0.417020 0.595352 0.703127
O O3 0.685020 0.645562 0.816903
O O4 0.673384 0.642427 0.928474
O O5 0.719993 0.159721 0.654994
O O6 0.549765 0.098145 0.463879
O O7 0.741743 0.235899 0.566844
O O8 0.490062 0.862162 0.163469
O O9 0.256342 0.859370 0.096635
O O10 0.279135 0.000000 0.049708
O O11 0.775908 0.143635 0.273719
O O12 0.084155 0.126277 0.422382
O O13 0.854423 0.000000 0.265228
O O14 0.234147 0.500000 0.710879
O O15 0.210016 0.640132 0.764030
O O16 0.208033 0.877523 0.601466
O O17 0.320113 0.000000 0.737317
O O18 0.438924 0.127035 0.663762
O O19 0.331235 0.000000 0.203319
#
# Coordination Sequence:
#
# PCOD9190528 Si02
#       8
#     8   8   8   8   8   8   8   8
#     4  10  20  36  55  79 110 142 184 228 268 320
#     4  11  23  35  52  81 111 145 179 221 285 326
#     4   8  16  33  57  81 106 139 181 228 269 311
#     4  10  20  31  52  83 113 147 178 215 266 323
#     4  10  21  38  58  78 106 145 188 229 272 328
#     4   9  18  33  53  79 111 146 179 215 264 321
#     4  11  21  33  52  82 114 143 175 223 276 332
#     4   9  18  36  60  82 105 142 187 226 269 323
#
# _framework density 23.939682999999999
#
# number of rings (size 3 to 8) (size 9 to 14) (size 15 to 20)
#    0.000    2.250    0.000    4.500    3.500    5.500 
#    0.000    5.625    0.000    3.000    6.500    0.000 
#    0.000    0.000    0.000    0.000    0.000    0.000 
#
# Total GULP energy -178777.177941 kJ/mol
# GULP energy per Si atom -5586.786811 kJ/mol
# Density = 2.388520 g / cm^3
# Si number density = 23.939683 Si / 1000 Ang^3
#
#
#
# Elastic Constant Matrix: (Units=GPa)
#
#
# Indices 1 2 3 4 5 6 
#
# 1 119.8386 11.6275 33.4712 0.0093 -54.3565 0.0014
# 2 11.6275 34.7873 6.5012 0.0024 -10.9174 0.0059
# 3 33.4712 6.5012 75.2442 -0.0320 -43.3296 -0.0001
# 4 0.0093 0.0024 -0.0320 -68.3584 -0.0055 -25.6305
# 5 -54.3565 -10.9174 -43.3296 -0.0055 45.0985 0.0015
# 6 0.0014 0.0059 -0.0001 -25.6305 0.0015 10.9172
#
#
#
# Elastic Compliance Matrix: (Units=1/GPa)
#
#
# Indices 1 2 3 4 5 6 
#
# 1 0.023033 0.002732 0.013175 -0.000001 0.041081 -0.000013
# 2 0.002732 0.031898 0.005308 0.000003 0.016115 -0.000013
# 3 0.013175 0.005308 0.037729 -0.000008 0.053414 -0.000031
# 4 -0.000001 0.000003 -0.000008 -0.007780 -0.000009 -0.018266
# 5 0.041081 0.016115 0.053414 -0.000009 0.126908 -0.000052
# 6 -0.000013 -0.000013 -0.000031 -0.018266 -0.000052 0.048716
#
#
# Mechanical properties :
#
#
# Convention : Reuss Voigt Hill
#
# Bulk Modulus (GPa) = 7.40245 37.00775 22.20510
# Shear Modulus (GPa) = 19.00380 9.41614 14.20997
#
# Velocity S-wave (km/s) = 2.82054 1.98540 2.43898
# Velocity P-wave (km/s) = 3.70217 4.55500 4.15055
#
# Compressibility (1/GPa) = 0.13509038
#
# Stress axis : x y z
#
# Youngs Moduli (GPa) = 43.41533 31.34962 26.50450
#
# Poissons Ratio (x) = -0.08564 -0.34918
# Poissons Ratio (y) = -0.11860 -0.14070
# Poissons Ratio (z) = -0.57198 -0.16642
#
# Static dielectric constant tensor:
#      x y z
#    x 1.950460 0.000000 -0.055400 
#    y 0.000000 1.915150 -0.000010 
#    z -0.055400 -0.000010 1.898730 
# 
# From -- ./inp_files/344102.got.cif
#   From: 2010.05.17/outbox.cif.g08.bks.cpg/sg12_173_cif.got.tgz:344102.got - 2010.06.03 13:09:07.
