data_PCOD9190426
_publ_section_title
;
Structure prediction by ZEFSAII (Michael W. Deem and Ramdas Pophale) SiO2 
 PCOD9190426
Probable space group: C 2/M
;
_chemical_formula_sum "Si O2"
_cell_formula_units_Z 56
_cell_length_a 14.054493
_cell_length_b 16.102202
_cell_length_c 20.962351
_cell_angle_alpha 90.000000
_cell_angle_beta 143.205787
_cell_angle_gamma 90.000000
_cell_volume 2841.356538
_symmetry_space_group_name_H-M "C 2/M"
_symmetry_group_IT_number 12
_symmetry_cell_setting 'monoclinic'
loop_
_space_group_symop_operation_xyz
x,y,z
-x,y,-z
-x,-y,-z
x,-y,z
1/2+x,1/2+y,z
1/2-x,1/2+y,-z
1/2-x,1/2-y,-z
1/2+x,1/2-y,z
loop_
_atom_site_type_symbol
_atom_site_label
_atom_site_fract_x
_atom_site_fract_y
_atom_site_fract_z
Si Si1 0.115250 0.409645 0.123754
Si Si2 0.312034 0.406163 0.005404
Si Si3 0.490367 0.899280 0.601301
Si Si4 0.246187 0.598358 0.632516
Si Si5 0.435888 0.268434 0.895170
Si Si6 0.383482 0.361444 0.176861
Si Si7 0.128653 0.670640 0.795243
O O1 0.102699 0.500000 0.149666
O O2 0.082977 0.323290 0.144557
O O3 0.293091 0.396082 0.190429
O O4 0.000000 0.414103 0.000000
O O5 0.373609 0.500000 0.029138
O O6 0.441108 0.333084 0.067151
O O7 0.275273 0.394248 0.060059
O O8 0.180284 0.388642 0.881089
O O9 0.336570 0.872758 0.477545
O O10 0.639001 0.873016 0.634975
O O11 0.496584 0.861735 0.675604
O O12 0.495842 0.000000 0.610308
O O13 0.223296 0.500000 0.620586
O O14 0.434151 0.612731 0.735107
O O15 0.276960 0.317575 0.826512
O O16 0.500000 0.249074 0.000000
O O17 0.390077 0.262048 0.185560
#
# Coordination Sequence:
#
# PCOD9190426 Si02
#       7
#     8   8   8   8   8   8   8
#     4   9  17  31  49  67  95 134 170 209 255 302
#     4  11  21  33  52  75 103 140 177 218 267 315
#     4   9  18  34  54  76 102 133 171 214 265 320
#     4   9  18  33  55  79 101 129 170 219 264 312
#     4   8  17  30  44  69  98 126 167 211 252 306
#     4  11  21  33  50  75 105 136 177 219 258 308
#     4  10  20  31  46  72 107 138 168 211 259 313
#
# _framework density 19.708894999999998
#
# number of rings (size 3 to 8) (size 9 to 14) (size 15 to 20)
#    0.000    2.429    0.000    4.714    0.000    4.857 
#    0.000    0.000    0.000    0.857    0.000    0.000 
#    0.000    0.000    0.000   47.286    0.000    2.286 
#
# Total GULP energy -155891.306712 kJ/mol
# GULP energy per Si atom -5567.546668 kJ/mol
# Density = 1.966404 g / cm^3
# Si number density = 19.708895 Si / 1000 Ang^3
#
#
#
# Elastic Constant Matrix: (Units=GPa)
#
#
# Indices 1 2 3 4 5 6 
#
# 1 39.3075 21.8590 23.7129 0.0000 1.7791 0.0000
# 2 21.8590 96.1373 17.7782 0.0000 -22.4025 0.0000
# 3 23.7129 17.7782 113.4176 0.0000 -18.9890 0.0000
# 4 0.0000 0.0000 0.0000 19.5054 0.0000 -0.1040
# 5 1.7791 -22.4025 -18.9890 0.0000 24.5298 0.0000
# 6 0.0000 0.0000 0.0000 -0.1040 0.0000 42.4373
#
#
#
# Elastic Compliance Matrix: (Units=1/GPa)
#
#
# Indices 1 2 3 4 5 6 
#
# 1 0.039089 -0.012073 -0.009882 0.000000 -0.021510 0.000000
# 2 -0.012073 0.016943 0.002994 0.000000 0.018667 0.000000
# 3 -0.009882 0.002994 0.012628 0.000000 0.013226 0.000000
# 4 0.000000 0.000000 0.000000 0.051268 0.000000 0.000126
# 5 -0.021510 0.018667 0.013226 0.000000 0.069613 0.000000
# 6 0.000000 0.000000 0.000000 0.000126 0.000000 0.023565
#
#
# Mechanical properties :
#
#
# Convention : Reuss Voigt Hill
#
# Bulk Modulus (GPa) = 32.53245 41.72919 37.13082
# Shear Modulus (GPa) = 19.13698 29.66199 24.39949
#
# Velocity S-wave (km/s) = 3.11944 3.88365 3.52233
# Velocity P-wave (km/s) = 5.43294 6.42877 5.95172
#
# Compressibility (1/GPa) = 0.03073854
#
# Stress axis : x y z
#
# Youngs Moduli (GPa) = 25.58269 59.02123 79.18822
#
# Poissons Ratio (x) = 0.71256 0.78250
# Poissons Ratio (y) = 0.30886 -0.23706
# Poissons Ratio (z) = 0.25280 -0.17669
#
# Static dielectric constant tensor:
#      x y z
#    x 1.758470 0.000000 0.029240 
#    y 0.000000 1.753760 0.000000 
#    z 0.029240 0.000000 1.732920 
# 
# From -- ./inp_files/310822.got.cif
#   From: 2010.05.17/outbox.cif.g08.bks.cpg/sg12_156_cif.got.tgz:310822.got - 2010.06.03 13:09:07.
