data_PCOD9190165
_publ_section_title
;
Structure prediction by ZEFSAII (Michael W. Deem and Ramdas Pophale) SiO2 
 PCOD9190165
Probable space group: C 2/M
;
_chemical_formula_sum "Si O2"
_cell_formula_units_Z 44
_cell_length_a 15.439731
_cell_length_b 18.507440
_cell_length_c 22.826050
_cell_angle_alpha 90.000000
_cell_angle_beta 160.505512
_cell_angle_gamma 90.000000
_cell_volume 2176.677553
_symmetry_space_group_name_H-M "C 2/M"
_symmetry_group_IT_number 12
_symmetry_cell_setting 'monoclinic'
loop_
_space_group_symop_operation_xyz
x,y,z
-x,y,-z
-x,-y,-z
x,-y,z
1/2+x,1/2+y,z
1/2-x,1/2+y,-z
1/2-x,1/2-y,-z
1/2+x,1/2-y,z
loop_
_atom_site_type_symbol
_atom_site_label
_atom_site_fract_x
_atom_site_fract_y
_atom_site_fract_z
Si Si1 0.850536 0.141692 0.086272
Si Si2 0.667554 0.919840 0.547615
Si Si3 0.883587 0.265433 0.821491
Si Si4 0.506709 0.195226 0.348235
Si Si5 0.500000 0.637116 0.500000
Si Si6 0.002556 0.581447 0.761322
O O1 0.037903 0.094837 0.245649
O O2 0.025811 0.200170 0.163149
O O3 0.638005 0.185004 0.988561
O O4 0.696657 0.096547 0.939091
O O5 0.500000 0.915668 0.500000
O O6 0.574417 0.860197 0.443278
O O7 0.637047 0.000000 0.503116
O O8 0.750973 0.236552 0.795467
O O9 0.664433 0.311768 0.648106
O O10 0.750000 0.250000 0.500000
O O11 0.464418 0.146575 0.263836
O O12 0.710276 0.590397 0.599162
O O13 0.043733 0.500000 0.764867
#
# Coordination Sequence:
#
# PCOD9190165 Si02
#       6
#     8   8   8   8   4   8
#     4  10  22  40  67  89 127 164 215 258 306 376
#     4  11  23  43  67  91 127 171 210 255 317 385
#     4  10  20  37  62  95 122 160 211 258 308 360
#     4  12  24  40  65  96 128 163 211 263 312 368
#     4  10  19  40  66  90 121 170 214 254 309 382
#     4  11  24  41  63  95 130 164 205 263 321 375
#
# _framework density 20.214293000000001
#
# number of rings (size 3 to 8) (size 9 to 14) (size 15 to 20)
#    0.000    1.273    3.636    2.455    5.091    0.727 
#    0.000    0.909    0.000    1.091    0.000    0.000 
#    0.000    0.000    0.000    0.000    0.000    0.000 
#
# Total GULP energy -123023.040012 kJ/mol
# GULP energy per Si atom -5591.956364 kJ/mol
# Density = 2.016828 g / cm^3
# Si number density = 20.214293 Si / 1000 Ang^3
#
#
#
# Elastic Constant Matrix: (Units=GPa)
#
#
# Indices 1 2 3 4 5 6 
#
# 1 76.9356 32.9980 26.3396 0.0477 13.5127 -0.0153
# 2 32.9980 112.1456 27.3277 0.1260 9.8144 -0.0296
# 3 26.3396 27.3277 92.2597 0.1909 9.0690 -0.0746
# 4 0.0477 0.1260 0.1909 10.6422 -0.0129 10.3593
# 5 13.5127 9.8144 9.0690 -0.0129 24.9324 -0.0048
# 6 -0.0153 -0.0296 -0.0746 10.3593 -0.0048 23.5399
#
#
#
# Elastic Compliance Matrix: (Units=1/GPa)
#
#
# Indices 1 2 3 4 5 6 
#
# 1 0.016744 -0.003607 -0.003069 0.000034 -0.006539 -0.000020
# 2 -0.003607 0.010587 -0.001958 -0.000140 -0.001500 0.000066
# 3 -0.003069 -0.001958 0.012504 -0.000391 -0.002114 0.000207
# 4 0.000034 -0.000140 -0.000391 0.164401 0.000250 -0.072350
# 5 -0.006539 -0.001500 -0.002114 0.000250 0.045012 -0.000114
# 6 -0.000020 0.000066 0.000207 -0.072350 -0.000114 0.074321
#
#
# Mechanical properties :
#
#
# Convention : Reuss Voigt Hill
#
# Bulk Modulus (GPa) = 44.31398 50.51907 47.41652
# Shear Modulus (GPa) = 14.35295 24.80127 19.57711
#
# Velocity S-wave (km/s) = 2.66755 3.50654 3.11542
# Velocity P-wave (km/s) = 5.60869 6.43742 6.03730
#
# Compressibility (1/GPa) = 0.02256624
#
# Stress axis : x y z
#
# Youngs Moduli (GPa) = 59.72282 94.45620 79.97367
#
# Poissons Ratio (x) = 0.34067 0.24547
# Poissons Ratio (y) = 0.21540 0.15662
# Poissons Ratio (z) = 0.18331 0.18498
#
# Static dielectric constant tensor:
#      x y z
#    x 1.704110 0.000010 0.009870 
#    y 0.000010 1.726560 -0.000020 
#    z 0.009870 -0.000020 1.698600 
# 
# From -- ./inp_files/340900.got.cif
#   From: 2010.05.17/outbox.cif.g08.bks.cpg/sg12_171_cif.got.tgz:340900.got - 2010.06.03 13:09:07.
