data_PCOD9190550
_publ_section_title
;
Structure prediction by ZEFSAII (Michael W. Deem and Ramdas Pophale) SiO2 
 PCOD9190550
Probable space group: C 2/M
;
_chemical_formula_sum "Si O2"
_cell_formula_units_Z 52
_cell_length_a 24.976510
_cell_length_b 23.332794
_cell_length_c 9.088851
_cell_angle_alpha 90.000000
_cell_angle_beta 30.929919
_cell_angle_gamma 90.000000
_cell_volume 2722.460083
_symmetry_space_group_name_H-M "C 2/M"
_symmetry_group_IT_number 12
_symmetry_cell_setting 'monoclinic'
loop_
_space_group_symop_operation_xyz
x,y,z
-x,y,-z
-x,-y,-z
x,-y,z
1/2+x,1/2+y,z
1/2-x,1/2+y,-z
1/2-x,1/2-y,-z
1/2+x,1/2-y,z
loop_
_atom_site_type_symbol
_atom_site_label
_atom_site_fract_x
_atom_site_fract_y
_atom_site_fract_z
Si Si1 0.299002 0.000000 0.660097
Si Si2 0.310127 0.180938 0.423903
Si Si3 0.790787 0.116807 0.795162
Si Si4 0.885369 0.000000 0.702206
Si Si5 0.855985 0.622685 0.617075
Si Si6 0.912090 0.381964 0.922282
Si Si7 0.097536 0.500000 0.876866
Si Si8 0.622680 0.309918 0.677783
O O1 0.349251 0.945412 0.618957
O O2 0.308506 0.000000 0.462027
O O3 0.182310 0.000000 0.990088
O O4 0.347682 0.142882 0.469314
O O5 0.330979 0.245350 0.431032
O O6 0.192820 0.165609 0.647564
O O7 0.376514 0.166796 0.121873
O O8 0.852537 0.156413 0.532745
O O9 0.851669 0.057671 0.690618
O O10 0.746341 0.143631 0.052600
O O11 0.677955 0.108501 0.984524
O O12 0.000000 0.000000 0.500000
O O13 0.972005 0.635014 0.400759
O O14 0.909793 0.442314 0.013380
O O15 0.000000 0.500000 0.000000
O O16 0.500000 0.309825 0.000000
#
# Coordination Sequence:
#
# PCOD9190550 Si02
#       8
#     4   8   8   4   8   8   4   8
#     4  10  20  31  53  88 112 141 189 229 269 342
#     4  10  21  36  60  86 113 154 194 236 284 352
#     4  10  24  38  56  85 113 148 192 239 286 349
#     4  10  23  44  59  77 116 156 196 241 298 335
#     4  11  19  35  57  86 120 154 184 227 289 347
#     4  11  19  33  57  87 123 148 181 231 289 342
#     4  12  17  29  54  91 115 148 187 217 275 355
#     4  10  22  41  58  81 115 149 197 248 293 325
#
# _framework density 19.100372
#
# number of rings (size 3 to 8) (size 9 to 14) (size 15 to 20)
#    0.000    1.538    3.077    2.308    0.000    3.077 
#    0.000    3.462    0.000    1.846    0.000    0.000 
#    0.000    0.000    0.000    0.000    0.000    0.000 
#
# Total GULP energy -144762.004487 kJ/mol
# GULP energy per Si atom -5567.769403 kJ/mol
# Density = 1.905690 g / cm^3
# Si number density = 19.100372 Si / 1000 Ang^3
#
#
#
# Elastic Constant Matrix: (Units=GPa)
#
#
# Indices 1 2 3 4 5 6 
#
# 1 78.3046 15.6673 45.2521 0.0000 -14.6892 0.0000
# 2 15.6673 60.3347 24.7891 0.0000 -0.2871 0.0000
# 3 45.2521 24.7891 131.0709 0.0001 -17.1169 0.0000
# 4 0.0000 0.0000 0.0001 12.3245 0.0000 7.4518
# 5 -14.6892 -0.2871 -17.1169 0.0000 31.3296 0.0000
# 6 0.0000 0.0000 0.0000 7.4518 0.0000 5.0652
#
#
#
# Elastic Compliance Matrix: (Units=1/GPa)
#
#
# Indices 1 2 3 4 5 6 
#
# 1 0.016985 -0.002455 -0.004698 0.000000 0.005374 0.000000
# 2 -0.002455 0.018423 -0.002977 0.000000 -0.002609 0.000000
# 3 -0.004698 -0.002977 0.010255 0.000000 0.003373 0.000000
# 4 0.000000 0.000000 0.000000 0.734468 0.000000 -1.080539
# 5 0.005374 -0.002609 0.003373 0.000000 0.036257 -0.000001
# 6 0.000000 0.000000 0.000000 -1.080539 -0.000001 1.787101
#
#
# Mechanical properties :
#
#
# Convention : Reuss Voigt Hill
#
# Bulk Modulus (GPa) = 39.36655 49.01414 44.19035
# Shear Modulus (GPa) = 1.89954 22.01063 11.95509
#
# Velocity S-wave (km/s) = 0.99833 3.39834 2.50453
# Velocity P-wave (km/s) = 4.68871 6.41212 5.61691
#
# Compressibility (1/GPa) = 0.02540228
#
# Stress axis : x y z
#
# Youngs Moduli (GPa) = 58.87587 54.28138 97.51368
#
# Poissons Ratio (x) = 0.13325 0.45811
# Poissons Ratio (y) = 0.14453 0.29034
# Poissons Ratio (z) = 0.27659 0.16162
#
# Static dielectric constant tensor:
#      x y z
#    x 1.706900 0.000000 0.027000 
#    y 0.000000 1.689100 0.000000 
#    z 0.027000 0.000000 1.823120 
# 
# From -- ./inp_files/52682.got.cif
#   From: 2010.05.17/outbox.cif.g08.bks.cpg/sg12_27_cif.got.tgz:52682.got - 2010.06.03 13:09:07.
