data_PCOD9190441
_publ_section_title
;
Structure prediction by ZEFSAII (Michael W. Deem and Ramdas Pophale) SiO2 
 PCOD9190441
Probable space group: C 2/M
;
_chemical_formula_sum "Si O2"
_cell_formula_units_Z 48
_cell_length_a 28.693804
_cell_length_b 17.464308
_cell_length_c 5.351651
_cell_angle_alpha 90.000000
_cell_angle_beta 86.081278
_cell_angle_gamma 90.000000
_cell_volume 2675.535540
_symmetry_space_group_name_H-M "C 2/M"
_symmetry_group_IT_number 12
_symmetry_cell_setting 'monoclinic'
loop_
_space_group_symop_operation_xyz
x,y,z
-x,y,-z
-x,-y,-z
x,-y,z
1/2+x,1/2+y,z
1/2-x,1/2+y,-z
1/2-x,1/2-y,-z
1/2+x,1/2-y,z
loop_
_atom_site_type_symbol
_atom_site_label
_atom_site_fract_x
_atom_site_fract_y
_atom_site_fract_z
Si Si1 0.762372 0.686243 0.701096
Si Si2 0.150176 0.222000 0.217357
Si Si3 0.295131 0.588853 0.951265
Si Si4 0.031197 0.412588 0.738188
Si Si5 0.804045 0.413478 0.299967
Si Si6 0.384438 0.795055 0.248094
O O1 0.750000 0.750000 0.500000
O O2 0.799936 0.733604 0.847992
O O3 0.791448 0.615112 0.580840
O O4 0.715781 0.644588 0.811933
O O5 0.164958 0.132942 0.215555
O O6 0.129981 0.252193 0.488719
O O7 0.116714 0.241058 0.995849
O O8 0.304672 0.500000 0.002564
O O9 0.245013 0.592840 0.828489
O O10 0.051253 0.500000 0.726454
O O11 0.069348 0.345506 0.730841
O O12 0.000000 0.405104 0.500000
O O13 0.000000 0.407247 0.000000
O O14 0.819728 0.500000 0.284851
O O15 0.844377 0.357355 0.202486
#
# Coordination Sequence:
#
# PCOD9190441 Si02
#       6
#     8   8   8   8   8   8
#     4  11  19  33  48  68 101 148 197 236 272 315
#     4  11  22  35  53  77 107 150 189 235 270 324
#     4  11  21  34  49  73 107 151 196 236 276 313
#     4  10  21  39  62  87 115 145 175 220 283 344
#     4  10  20  31  47  72 104 146 192 232 266 312
#     4  11  22  37  56  79 111 141 187 225 276 329
#
# _framework density 17.940335000000001
#
# number of rings (size 3 to 8) (size 9 to 14) (size 15 to 20)
#    0.000    1.333    3.333    4.500    0.000    0.000 
#    0.000    1.667    0.000    0.000    0.000    0.000 
#    0.000   13.333    0.000    0.000    0.000    0.000 
#
# Total GULP energy -133761.048144 kJ/mol
# GULP energy per Si atom -5573.377006 kJ/mol
# Density = 1.789950 g / cm^3
# Si number density = 17.940335 Si / 1000 Ang^3
#
#
#
# Elastic Constant Matrix: (Units=GPa)
#
#
# Indices 1 2 3 4 5 6 
#
# 1 55.8287 38.1244 29.4103 0.0000 4.0992 0.0000
# 2 38.1244 120.7023 64.5312 0.0000 -5.6401 0.0000
# 3 29.4103 64.5312 86.6824 0.0000 6.2971 0.0000
# 4 0.0000 0.0000 0.0000 13.4093 0.0000 8.7883
# 5 4.0992 -5.6401 6.2971 0.0000 19.2402 0.0000
# 6 0.0000 0.0000 0.0000 8.7883 0.0000 26.3348
#
#
#
# Elastic Compliance Matrix: (Units=1/GPa)
#
#
# Indices 1 2 3 4 5 6 
#
# 1 0.024288 -0.006276 -0.003133 0.000000 -0.005989 0.000000
# 2 -0.006276 0.016551 -0.010901 0.000000 0.009757 0.000000
# 3 -0.003133 -0.010901 0.021407 0.000000 -0.009534 0.000000
# 4 0.000000 0.000000 0.000000 0.095452 0.000000 -0.031853
# 5 -0.005989 0.009757 -0.009534 0.000000 0.059231 0.000000
# 6 0.000000 0.000000 0.000000 -0.031853 0.000000 0.048602
#
#
# Mechanical properties :
#
#
# Convention : Reuss Voigt Hill
#
# Bulk Modulus (GPa) = 46.24100 58.59391 52.41745
# Shear Modulus (GPa) = 15.95605 20.54004 18.24804
#
# Velocity S-wave (km/s) = 2.98551 3.38732 3.19274
# Velocity P-wave (km/s) = 6.14127 6.93036 6.54771
#
# Compressibility (1/GPa) = 0.02162583
#
# Stress axis : x y z
#
# Youngs Moduli (GPa) = 41.17230 60.41907 46.71315
#
# Poissons Ratio (x) = 0.37921 0.14636
# Poissons Ratio (y) = 0.25841 0.50921
# Poissons Ratio (z) = 0.12900 0.65862
#
# Static dielectric constant tensor:
#      x y z
#    x 1.607080 0.000000 -0.013850 
#    y 0.000000 1.636450 0.000000 
#    z -0.013850 0.000000 1.742720 
# 
# From -- ./inp_files/24838.got.cif
#   From: 2010.05.17/outbox.cif.g08.bks.cpg/sg12_13_cif.got.tgz:24838.got - 2010.06.03 13:09:07.
