data_PCOD9190653
_publ_section_title
;
Structure prediction by ZEFSAII (Michael W. Deem and Ramdas Pophale) SiO2 
 PCOD9190653
Probable space group: C 2/M
;
_chemical_formula_sum "Si O2"
_cell_formula_units_Z 64
_cell_length_a 14.802124
_cell_length_b 7.511505
_cell_length_c 31.302734
_cell_angle_alpha 90.000000
_cell_angle_beta 61.121567
_cell_angle_gamma 90.000000
_cell_volume 3047.628498
_symmetry_space_group_name_H-M "C 2/M"
_symmetry_group_IT_number 12
_symmetry_cell_setting 'monoclinic'
loop_
_space_group_symop_operation_xyz
x,y,z
-x,y,-z
-x,-y,-z
x,-y,z
1/2+x,1/2+y,z
1/2-x,1/2+y,-z
1/2-x,1/2-y,-z
1/2+x,1/2-y,z
loop_
_atom_site_type_symbol
_atom_site_label
_atom_site_fract_x
_atom_site_fract_y
_atom_site_fract_z
Si Si1 0.444436 0.791531 0.316308
Si Si2 0.609134 0.207409 0.501108
Si Si3 0.302951 0.288143 0.943016
Si Si4 0.469081 0.709132 0.127617
Si Si5 0.967825 0.716532 0.793161
Si Si6 0.261315 0.292969 0.134493
Si Si7 0.008981 0.718654 0.392981
Si Si8 0.715315 0.784265 0.395320
O O1 0.482528 0.719343 0.262349
O O2 0.494080 0.717199 0.348354
O O3 0.322495 0.775376 0.351328
O O4 0.472012 0.000000 0.309192
O O5 0.500000 0.211627 0.500000
O O6 0.580403 0.282450 0.553942
O O7 0.691799 0.283068 0.448907
O O8 0.635765 0.000000 0.501350
O O9 0.307315 0.500000 0.936116
O O10 0.420588 0.217084 0.913465
O O11 0.240899 0.216593 0.916337
O O12 0.250000 0.250000 0.000000
O O13 0.470545 0.500000 0.115897
O O14 0.471455 0.726220 0.178265
O O15 0.365256 0.786048 0.130702
O O16 0.967884 0.500000 0.793971
O O17 0.849413 0.780557 0.825113
O O18 0.259264 0.500000 0.147963
O O19 0.004807 0.500000 0.394324
O O20 0.118653 0.769032 0.388026
O O21 0.715176 0.000000 0.397057
#
# Coordination Sequence:
#
# PCOD9190653 Si02
#       8
#     8   8   8   8   8   8   8   8
#     4  10  20  32  46  69  98 125 154 194 247 298
#     4   7  11  23  44  67  88 114 153 196 233 278
#     4  10  20  34  52  79 113 142 167 201 243 285
#     4   9  19  35  56  78  99 128 169 211 246 280
#     4   9  19  34  50  69  96 127 161 202 247 295
#     4   9  18  35  56  75  97 131 172 209 244 285
#     4   8  15  29  48  67  91 124 158 192 236 294
#     4   9  17  30  49  70  90 119 160 199 235 286
#
# _framework density 20.999934
#
# number of rings (size 3 to 8) (size 9 to 14) (size 15 to 20)
#    0.000    3.125    0.000    1.875    0.000    3.500 
#    0.000    5.625    0.000    3.375    0.000    0.000 
#    0.000    0.000    0.000    0.000    0.000    0.000 
#
# Total GULP energy -178467.398812 kJ/mol
# GULP energy per Si atom -5577.106213 kJ/mol
# Density = 2.095214 g / cm^3
# Si number density = 20.999934 Si / 1000 Ang^3
#
#
#
# Elastic Constant Matrix: (Units=GPa)
#
#
# Indices 1 2 3 4 5 6 
#
# 1 157.6540 -7.6909 89.2638 -0.0008 8.6184 -0.0009
# 2 -7.6909 52.3202 -18.5236 -0.0025 -4.4475 -0.0029
# 3 89.2638 -18.5236 202.4350 -0.0004 7.9876 -0.0005
# 4 -0.0008 -0.0025 -0.0004 -688.7886 -0.0005 -820.4918
# 5 8.6184 -4.4475 7.9876 -0.0005 11.5989 -0.0006
# 6 -0.0009 -0.0029 -0.0005 -820.4918 -0.0006 -945.5578
#
#
#
# Elastic Compliance Matrix: (Units=1/GPa)
#
#
# Indices 1 2 3 4 5 6 
#
# 1 0.008628 -0.000377 -0.003680 0.000000 -0.004021 0.000000
# 2 -0.000377 0.020259 0.001750 0.000000 0.006843 0.000000
# 3 -0.003680 0.001750 0.006773 0.000000 -0.001258 0.000000
# 4 0.000000 0.000000 0.000000 0.043142 0.000000 -0.037436
# 5 -0.004021 0.006843 -0.001258 0.000000 0.092693 0.000000
# 6 0.000000 0.000000 0.000000 -0.037436 0.000000 0.031427
#
#
# Mechanical properties :
#
#
# Convention : Reuss Voigt Hill
#
# Bulk Modulus (GPa) = 32.21087 59.83420 46.02254
# Shear Modulus (GPa) = 22.94800 -301.25884 -139.15542
#
# Velocity S-wave (km/s) = 3.30929 -11.99035 -8.14914
# Velocity P-wave (km/s) = 5.47482 12.77250 8.15975
#
# Compressibility (1/GPa) = 0.03104542
#
# Stress axis : x y z
#
# Youngs Moduli (GPa) = 115.89728 49.36095 147.65547
#
# Poissons Ratio (x) = 0.01859 0.54344
# Poissons Ratio (y) = 0.04364 -0.25837
# Poissons Ratio (z) = 0.42656 -0.08637
#
# Static dielectric constant tensor:
#      x y z
#    x 1.756250 0.000000 -0.007490 
#    y 0.000000 1.823560 0.000000 
#    z -0.007490 0.000000 1.745150 
# 
# From -- ./inp_files/359841.got.cif
#   From: 2010.05.17/outbox.cif.g08.bks.cpg/sg12_180_cif.got.tgz:359841.got - 2010.06.03 13:09:07.
