data_PCOD9190645
_publ_section_title
;
Structure prediction by ZEFSAII (Michael W. Deem and Ramdas Pophale) SiO2 
 PCOD9190645
Probable space group: C 2/M
;
_chemical_formula_sum "Si O2"
_cell_formula_units_Z 64
_cell_length_a 14.940357
_cell_length_b 7.598204
_cell_length_c 24.289806
_cell_angle_alpha 90.000000
_cell_angle_beta 79.298246
_cell_angle_gamma 90.000000
_cell_volume 2709.417141
_symmetry_space_group_name_H-M "C 2/M"
_symmetry_group_IT_number 12
_symmetry_cell_setting 'monoclinic'
loop_
_space_group_symop_operation_xyz
x,y,z
-x,y,-z
-x,-y,-z
x,-y,z
1/2+x,1/2+y,z
1/2-x,1/2+y,-z
1/2-x,1/2-y,-z
1/2+x,1/2-y,z
loop_
_atom_site_type_symbol
_atom_site_label
_atom_site_fract_x
_atom_site_fract_y
_atom_site_fract_z
Si Si1 0.094034 0.787332 0.377173
Si Si2 0.724504 0.214527 0.588471
Si Si3 0.033887 0.798671 0.197345
Si Si4 0.868328 0.712746 0.285517
Si Si5 0.477936 0.792279 0.085100
Si Si6 0.687945 0.284979 0.251686
Si Si7 0.431942 0.797025 0.463459
Si Si8 0.852527 0.711107 0.005570
O O1 0.170811 0.733987 0.413733
O O2 0.134684 0.735683 0.313725
O O3 0.997246 0.706324 0.402340
O O4 0.086670 0.000000 0.378868
O O5 0.671681 0.265300 0.650714
O O6 0.664181 0.281821 0.544438
O O7 0.723400 0.000000 0.586503
O O8 0.129650 0.719155 0.206731
O O9 0.964817 0.786553 0.256500
O O10 0.984262 0.726634 0.149499
O O11 0.052217 0.000000 0.181854
O O12 0.874256 0.500000 0.284597
O O13 0.791865 0.767915 0.249452
O O14 0.390513 0.725321 0.060806
O O15 0.478587 0.000000 0.075027
O O16 0.571118 0.722951 0.046509
O O17 0.687743 0.500000 0.250290
O O18 0.500000 0.710611 0.500000
O O19 0.416997 0.000000 0.481240
O O20 0.855706 0.500000 0.005123
O O21 0.750000 0.750000 0.000000
#
# Coordination Sequence:
#
# PCOD9190645 Si02
#       8
#     8   8   8   8   8   8   8   8
#     4   9  17  33  54  70  89 124 168 205 236 287
#     4   8  16  32  52  70  92 128 167 198 240 300
#     4  11  21  32  49  77 108 131 158 206 253 284
#     4   9  17  33  54  71  93 132 172 199 237 301
#     4   9  20  38  54  74 105 140 171 198 241 301
#     4   8  17  33  51  71  97 129 163 200 246 293
#     4  10  20  32  46  69 100 127 154 198 254 301
#     4   9  19  37  60  79 100 133 173 212 247 287
#
# _framework density 23.621317000000001
#
# number of rings (size 3 to 8) (size 9 to 14) (size 15 to 20)
#    0.000    2.875    0.000    3.375    0.000    2.750 
#    0.000   10.000    0.000    0.000    0.000    0.000 
#    0.000    0.000    0.000    0.000    0.000    0.000 
#
# Total GULP energy -178608.133761 kJ/mol
# GULP energy per Si atom -5581.504180 kJ/mol
# Density = 2.356755 g / cm^3
# Si number density = 23.621317 Si / 1000 Ang^3
#
#
#
# Elastic Constant Matrix: (Units=GPa)
#
#
# Indices 1 2 3 4 5 6 
#
# 1 174.5251 3.1554 35.2167 0.0000 37.8010 0.0000
# 2 3.1554 56.4170 4.3425 0.0000 6.5724 0.0000
# 3 35.2167 4.3425 47.9806 0.0000 22.6389 0.0000
# 4 0.0000 0.0000 0.0000 11.1129 0.0000 -4.7026
# 5 37.8010 6.5724 22.6389 0.0000 30.6540 0.0000
# 6 0.0000 0.0000 0.0000 -4.7026 0.0000 11.8601
#
#
#
# Elastic Compliance Matrix: (Units=1/GPa)
#
#
# Indices 1 2 3 4 5 6 
#
# 1 0.007950 0.000698 -0.001845 0.000000 -0.008591 0.000000
# 2 0.000698 0.018243 0.000135 0.000000 -0.004872 0.000000
# 3 -0.001845 0.000135 0.032422 0.000000 -0.021698 0.000000
# 4 0.000000 0.000000 0.000000 0.108128 0.000000 0.042874
# 5 -0.008591 -0.004872 -0.021698 0.000000 0.060286 0.000000
# 6 0.000000 0.000000 0.000000 0.042874 0.000000 0.101316
#
#
# Mechanical properties :
#
#
# Convention : Reuss Voigt Hill
#
# Bulk Modulus (GPa) = 17.67020 40.48352 29.07686
# Shear Modulus (GPa) = 14.31712 26.47261 20.39487
#
# Velocity S-wave (km/s) = 2.46460 3.35133 2.94157
# Velocity P-wave (km/s) = 3.94916 5.67018 4.88604
#
# Compressibility (1/GPa) = 0.05659246
#
# Stress axis : x y z
#
# Youngs Moduli (GPa) = 125.78204 54.81463 30.84363
#
# Poissons Ratio (x) = -0.03827 0.05691
# Poissons Ratio (y) = -0.08782 -0.00418
# Poissons Ratio (z) = 0.23207 -0.00742
#
# Static dielectric constant tensor:
#      x y z
#    x 1.906920 0.000000 0.056160 
#    y 0.000000 1.873970 0.000000 
#    z 0.056160 0.000000 1.944770 
# 
# From -- ./inp_files/359847.got.cif
#   From: 2010.05.17/outbox.cif.g08.bks.cpg/sg12_180_cif.got.tgz:359847.got - 2010.06.03 13:09:07.
