data_PCOD9190384
_publ_section_title
;
Structure prediction by ZEFSAII (Michael W. Deem and Ramdas Pophale) SiO2 
 PCOD9190384
Probable space group: C 2/M
;
_chemical_formula_sum "Si O2"
_cell_formula_units_Z 64
_cell_length_a 14.247755
_cell_length_b 26.360870
_cell_length_c 7.859957
_cell_angle_alpha 90.000000
_cell_angle_beta 69.177066
_cell_angle_gamma 90.000000
_cell_volume 2759.249079
_symmetry_space_group_name_H-M "C 2/M"
_symmetry_group_IT_number 12
_symmetry_cell_setting 'monoclinic'
loop_
_space_group_symop_operation_xyz
x,y,z
-x,y,-z
-x,-y,-z
x,-y,z
1/2+x,1/2+y,z
1/2-x,1/2+y,-z
1/2-x,1/2-y,-z
1/2+x,1/2-y,z
loop_
_atom_site_type_symbol
_atom_site_label
_atom_site_fract_x
_atom_site_fract_y
_atom_site_fract_z
Si Si1 0.659808 0.558319 0.782967
Si Si2 0.365110 0.634610 0.896929
Si Si3 0.130853 0.867426 0.495245
Si Si4 0.633412 0.742221 0.526332
Si Si5 0.897955 0.579106 0.632612
Si Si6 0.378088 0.860405 0.976081
Si Si7 0.132001 0.751891 0.120375
Si Si8 0.630433 0.846488 0.652407
O O1 0.626527 0.500000 0.812668
O O2 0.625031 0.587310 0.633642
O O3 0.783698 0.557506 0.700901
O O4 0.620461 0.592183 0.967360
O O5 0.401570 0.622160 0.679470
O O6 0.399815 0.691868 0.921525
O O7 0.243620 0.637452 0.962243
O O8 0.091314 0.813424 0.591561
O O9 0.249096 0.852144 0.407921
O O10 0.750000 0.750000 0.500000
O O11 0.621925 0.748733 0.331655
O O12 0.591121 0.789445 0.656626
O O13 0.912962 0.600670 0.810858
O O14 0.892654 0.626289 0.507524
O O15 0.000000 0.552269 0.500000
O O16 0.404507 0.801585 0.928478
O O17 0.593964 0.871969 0.848594
O O18 0.250000 0.750000 0.000000
#
# Coordination Sequence:
#
# PCOD9190384 Si02
#       8
#     8   8   8   8   8   8   8   8
#     4  10  20  31  44  58  76 110 153 189 220 242
#     4   8  16  26  39  60  82 102 128 167 211 258
#     4   8  16  26  39  60  82 102 128 167 211 258
#     4   9  14  21  37  62  86 104 122 153 203 261
#     4  10  20  33  44  56  80 110 149 193 220 244
#     4   9  16  26  41  61  81 103 130 168 213 259
#     4   9  14  21  37  62  86 104 122 153 203 261
#     4   9  16  26  41  61  81 103 130 168 213 259
#
# _framework density 23.194718000000002
#
# number of rings (size 3 to 8) (size 9 to 14) (size 15 to 20)
#    0.000    3.000    1.250    2.250    7.000    1.250 
#    0.000    0.000    0.000    0.000    0.000    7.000 
#    0.000    0.000    0.000    0.000    0.000    3.750 
#
# Total GULP energy -178503.548766 kJ/mol
# GULP energy per Si atom -5578.235899 kJ/mol
# Density = 2.314193 g / cm^3
# Si number density = 23.194718 Si / 1000 Ang^3
#
#
#
# Elastic Constant Matrix: (Units=GPa)
#
#
# Indices 1 2 3 4 5 6 
#
# 1 80.6557 13.1438 18.0137 0.0000 0.7314 0.0000
# 2 13.1438 159.2990 62.9742 0.0000 24.4917 0.0000
# 3 18.0137 62.9742 124.9887 0.0000 12.6395 0.0000
# 4 0.0000 0.0000 0.0000 -0.5348 0.0000 9.4181
# 5 0.7314 24.4917 12.6395 0.0000 38.7657 0.0000
# 6 0.0000 0.0000 0.0000 9.4181 0.0000 -5.0342
#
#
#
# Elastic Compliance Matrix: (Units=1/GPa)
#
#
# Indices 1 2 3 4 5 6 
#
# 1 0.012845 -0.000497 -0.001663 0.000000 0.000614 0.000000
# 2 -0.000497 0.008436 -0.003765 0.000000 -0.004093 0.000000
# 3 -0.001663 -0.003765 0.010231 0.000000 -0.000926 0.000000
# 4 0.000000 0.000000 0.000000 0.058532 0.000000 0.109503
# 5 0.000614 -0.004093 -0.000926 0.000000 0.028672 0.000000
# 6 0.000000 0.000000 0.000000 0.109503 0.000000 0.006218
#
#
# Mechanical properties :
#
#
# Convention : Reuss Voigt Hill
#
# Bulk Modulus (GPa) = 50.85772 61.46743 56.16257
# Shear Modulus (GPa) = 34.88270 24.69347 29.78809
#
# Velocity S-wave (km/s) = 3.88223 3.26639 3.58755
# Velocity P-wave (km/s) = 6.48611 6.38622 6.43636
#
# Compressibility (1/GPa) = 0.01966270
#
# Stress axis : x y z
#
# Youngs Moduli (GPa) = 77.85012 118.53776 97.74262
#
# Poissons Ratio (x) = 0.05889 0.16255
# Poissons Ratio (y) = 0.03867 0.36800
# Poissons Ratio (z) = 0.12947 0.44629
#
# Static dielectric constant tensor:
#      x y z
#    x 2.185880 0.000000 -0.139040 
#    y 0.000000 1.817610 0.000000 
#    z -0.139040 0.000000 1.883220 
# 
# From -- ./inp_files/90379.got.cif
#   From: 2010.05.17/outbox.cif.g08.bks.cpg/sg12_46_cif.got.tgz:90379.got - 2010.06.03 13:09:07.
