data_PCOD9190727
_publ_section_title
;
Structure prediction by ZEFSAII (Michael W. Deem and Ramdas Pophale) SiO2 
 PCOD9190727
Probable space group: C 2/M
;
_chemical_formula_sum "Si O2"
_cell_formula_units_Z 44
_cell_length_a 5.533815
_cell_length_b 26.712473
_cell_length_c 15.820454
_cell_angle_alpha 90.000000
_cell_angle_beta 86.029817
_cell_angle_gamma 90.000000
_cell_volume 2332.997157
_symmetry_space_group_name_H-M "C 2/M"
_symmetry_group_IT_number 12
_symmetry_cell_setting 'monoclinic'
loop_
_space_group_symop_operation_xyz
x,y,z
-x,y,-z
-x,-y,-z
x,-y,z
1/2+x,1/2+y,z
1/2-x,1/2+y,-z
1/2-x,1/2-y,-z
1/2+x,1/2-y,z
loop_
_atom_site_type_symbol
_atom_site_label
_atom_site_fract_x
_atom_site_fract_y
_atom_site_fract_z
Si Si1 0.438586 0.942520 0.769494
Si Si2 0.000000 0.623030 0.500000
Si Si3 0.742910 0.940294 0.039122
Si Si4 0.260867 0.128908 0.338272
Si Si5 0.870541 0.056201 0.394300
Si Si6 0.009042 0.779703 0.399135
O O1 0.294507 0.935495 0.859776
O O2 0.604515 0.893555 0.746376
O O3 0.264214 0.942699 0.692665
O O4 0.549004 0.000000 0.771228
O O5 0.921399 0.648848 0.414089
O O6 0.779121 0.590022 0.538433
O O7 0.747394 0.000000 0.019780
O O8 0.500000 0.920090 0.000000
O O9 0.000000 0.919891 0.000000
O O10 0.058854 0.171860 0.339133
O O11 0.133241 0.078435 0.373656
O O12 0.870723 0.000000 0.423972
O O13 0.249373 0.745024 0.384558
O O14 0.000000 0.793519 0.500000
#
# Coordination Sequence:
#
# PCOD9190727 Si02
#       6
#     8   4   8   8   8   8
#     4   9  20  34  51  78 110 144 179 218 265 315
#     4  10  21  32  46  70 102 136 184 218 261 312
#     4   9  18  32  52  76 107 145 180 212 254 314
#     4  11  22  34  53  72 103 138 181 227 273 318
#     4  10  20  32  48  69 103 143 180 217 258 309
#     4  10  23  38  58  77 101 135 181 231 281 324
#
# _framework density 18.859862
#
# number of rings (size 3 to 8) (size 9 to 14) (size 15 to 20)
#    0.000    2.182    0.000    2.455   11.455    2.909 
#    0.000    0.000    0.000    0.000    0.000    0.000 
#    0.000    4.364    0.000    0.000    0.000    0.000 
#
# Total GULP energy -122546.304763 kJ/mol
# GULP energy per Si atom -5570.286580 kJ/mol
# Density = 1.881694 g / cm^3
# Si number density = 18.859862 Si / 1000 Ang^3
#
#
#
# Elastic Constant Matrix: (Units=GPa)
#
#
# Indices 1 2 3 4 5 6 
#
# 1 80.5993 22.6601 31.3939 0.0000 -24.6063 0.0000
# 2 22.6601 57.4489 20.2071 0.0000 -14.9046 0.0000
# 3 31.3939 20.2071 73.9180 0.0000 -17.6539 0.0000
# 4 0.0000 0.0000 0.0000 19.1232 0.0000 -11.7058
# 5 -24.6063 -14.9046 -17.6539 0.0000 22.1967 0.0000
# 6 0.0000 0.0000 0.0000 -11.7058 0.0000 29.8761
#
#
#
# Elastic Compliance Matrix: (Units=1/GPa)
#
#
# Indices 1 2 3 4 5 6 
#
# 1 0.019782 -0.001919 -0.003639 0.000000 0.017747 0.000000
# 2 -0.001919 0.021796 -0.002662 0.000000 0.010392 0.000000
# 3 -0.003639 -0.002662 0.017791 0.000000 0.008329 0.000000
# 4 0.000000 0.000000 0.000000 0.068791 0.000000 0.026953
# 5 0.017747 0.010392 0.008329 0.000000 0.078327 0.000000
# 6 0.000000 0.000000 0.000000 0.026953 0.000000 0.044032
#
#
# Mechanical properties :
#
#
# Convention : Reuss Voigt Hill
#
# Bulk Modulus (GPa) = 23.29335 40.05425 31.67380
# Shear Modulus (GPa) = 17.77673 23.41953 20.59813
#
# Velocity S-wave (km/s) = 3.07346 3.52769 3.30838
# Velocity P-wave (km/s) = 4.99724 6.15441 5.60576
#
# Compressibility (1/GPa) = 0.04293070
#
# Stress axis : x y z
#
# Youngs Moduli (GPa) = 50.55177 45.88042 56.20932
#
# Poissons Ratio (x) = 0.08802 0.20452
# Poissons Ratio (y) = 0.09699 0.14961
# Poissons Ratio (z) = 0.18393 0.12212
#
# Static dielectric constant tensor:
#      x y z
#    x 1.746630 0.000000 0.012170 
#    y 0.000000 1.704230 0.000000 
#    z 0.012170 0.000000 1.655370 
# 
# From -- ./inp_files/191904.got.cif
#   From: 2010.05.17/outbox.cif.g08.bks.cpg/sg12_96_cif.got.tgz:191904.got - 2010.06.03 13:09:07.
