data_PCOD9190414
_publ_section_title
;
Structure prediction by ZEFSAII (Michael W. Deem and Ramdas Pophale) SiO2 
 PCOD9190414
Probable space group: C 2/M
;
_chemical_formula_sum "Si O2"
_cell_formula_units_Z 64
_cell_length_a 17.635647
_cell_length_b 28.741291
_cell_length_c 21.977315
_cell_angle_alpha 90.000000
_cell_angle_beta 158.555724
_cell_angle_gamma 90.000000
_cell_volume 4072.620354
_symmetry_space_group_name_H-M "C 2/M"
_symmetry_group_IT_number 12
_symmetry_cell_setting 'monoclinic'
loop_
_space_group_symop_operation_xyz
x,y,z
-x,y,-z
-x,-y,-z
x,-y,z
1/2+x,1/2+y,z
1/2-x,1/2+y,-z
1/2-x,1/2-y,-z
1/2+x,1/2-y,z
loop_
_atom_site_type_symbol
_atom_site_label
_atom_site_fract_x
_atom_site_fract_y
_atom_site_fract_z
Si Si1 0.776521 0.054252 0.866388
Si Si2 0.943969 0.783426 0.301050
Si Si3 0.387709 0.311068 0.856374
Si Si4 0.033508 0.615127 0.597459
Si Si5 0.732031 0.861344 0.920668
Si Si6 0.331007 0.204359 0.022705
Si Si7 0.630920 0.180271 0.432571
Si Si8 0.719761 0.717555 0.692876
O O1 0.597365 0.070105 0.684587
O O2 0.763284 0.087065 0.916421
O O3 0.756726 0.000000 0.866524
O O4 0.000000 0.060934 0.000000
O O5 0.814462 0.798287 0.263340
O O6 0.150444 0.811454 0.436727
O O7 0.030594 0.730476 0.375020
O O8 0.790212 0.788165 0.130105
O O9 0.234976 0.352481 0.758972
O O10 0.255781 0.272987 0.723270
O O11 0.500000 0.290590 0.000000
O O12 0.571324 0.332113 0.954958
O O13 0.000000 0.608503 0.500000
O O14 0.858540 0.645897 0.501149
O O15 0.715824 0.844118 0.977828
O O16 0.528461 0.842121 0.734327
O O17 0.576342 0.202781 0.191377
O O18 0.250000 0.250000 0.000000
O O19 0.500000 0.706185 0.500000
#
# Coordination Sequence:
#
# PCOD9190414 Si02
#       8
#     8   8   8   8   8   8   8   8
#     4  10  20  36  56  75 100 140 180 222 271 320
#     4  11  22  33  48  68 103 136 181 213 257 300
#     4  12  18  31  48  70  99 142 174 218 252 309
#     4  11  21  31  50  76 105 139 180 219 267 307
#     4  11  19  35  50  72 101 129 182 216 264 308
#     4  12  23  33  51  73 101 140 179 219 262 311
#     4  10  20  31  46  69  98 139 175 220 249 309
#     4  12  24  35  48  70 106 144 185 217 255 304
#
# _framework density 15.714698
#
# number of rings (size 3 to 8) (size 9 to 14) (size 15 to 20)
#    0.000    0.875    7.500    2.250    3.500    0.250 
#    0.000    0.000    0.000    0.000    0.000    0.000 
#    0.000   14.500    0.000    0.000    0.000    1.500 
#
# Total GULP energy -178343.942911 kJ/mol
# GULP energy per Si atom -5573.248216 kJ/mol
# Density = 1.567893 g / cm^3
# Si number density = 15.714698 Si / 1000 Ang^3
#
#
#
# Elastic Constant Matrix: (Units=GPa)
#
#
# Indices 1 2 3 4 5 6 
#
# 1 104.9078 44.7825 37.9377 -0.0028 1.7619 0.0011
# 2 44.7825 77.1116 19.5225 -0.0062 7.7819 0.0011
# 3 37.9377 19.5225 72.6430 -0.0234 13.1411 0.0055
# 4 -0.0028 -0.0062 -0.0234 36.7633 0.0041 -5.6148
# 5 1.7619 7.7819 13.1411 0.0041 32.3461 -0.0011
# 6 0.0011 0.0011 0.0055 -5.6148 -0.0011 20.2692
#
#
#
# Elastic Compliance Matrix: (Units=1/GPa)
#
#
# Indices 1 2 3 4 5 6 
#
# 1 0.014986 -0.007425 -0.006483 -0.000005 0.003604 0.000000
# 2 -0.007425 0.017712 -0.000199 0.000003 -0.003776 0.000000
# 3 -0.006483 -0.000199 0.018491 0.000012 -0.007111 -0.000002
# 4 -0.000005 0.000003 0.000012 0.028403 -0.000008 0.007868
# 5 0.003604 -0.003776 -0.007111 -0.000008 0.034517 0.000002
# 6 0.000000 0.000000 -0.000002 0.007868 0.000002 0.051515
#
#
# Mechanical properties :
#
#
# Convention : Reuss Voigt Hill
#
# Bulk Modulus (GPa) = 43.52575 51.01642 47.27109
# Shear Modulus (GPa) = 24.81433 28.03704 26.42568
#
# Velocity S-wave (km/s) = 3.97804 4.22848 4.10517
# Velocity P-wave (km/s) = 6.98980 7.50830 7.25369
#
# Compressibility (1/GPa) = 0.02297490
#
# Stress axis : x y z
#
# Youngs Moduli (GPa) = 66.73048 56.45911 54.07908
#
# Poissons Ratio (x) = 0.41923 0.35057
# Poissons Ratio (y) = 0.49550 0.01077
# Poissons Ratio (z) = 0.43259 0.01124
#
# Static dielectric constant tensor:
#      x y z
#    x 1.608010 0.000000 0.003670 
#    y 0.000000 1.521260 0.000000 
#    z 0.003670 0.000000 1.558150 
# 
# From -- ./inp_files/345199.got.cif
#   From: 2010.05.17/outbox.cif.g08.bks.cpg/sg12_173_cif.got.tgz:345199.got - 2010.06.03 13:09:07.
