data_PCOD9190618
_publ_section_title
;
Structure prediction by ZEFSAII (Michael W. Deem and Ramdas Pophale) SiO2 
 PCOD9190618
Probable space group: C 2/M
;
_chemical_formula_sum "Si O2"
_cell_formula_units_Z 48
_cell_length_a 13.585501
_cell_length_b 7.860408
_cell_length_c 18.037573
_cell_angle_alpha 90.000000
_cell_angle_beta 67.738703
_cell_angle_gamma 90.000000
_cell_volume 1782.621897
_symmetry_space_group_name_H-M "C 2/M"
_symmetry_group_IT_number 12
_symmetry_cell_setting 'monoclinic'
loop_
_space_group_symop_operation_xyz
x,y,z
-x,y,-z
-x,-y,-z
x,-y,z
1/2+x,1/2+y,z
1/2-x,1/2+y,-z
1/2-x,1/2-y,-z
1/2+x,1/2-y,z
loop_
_atom_site_type_symbol
_atom_site_label
_atom_site_fract_x
_atom_site_fract_y
_atom_site_fract_z
Si Si1 0.191197 0.312387 0.093050
Si Si2 0.805146 0.801932 0.601966
Si Si3 0.166667 0.703833 0.764327
Si Si4 0.051846 0.704695 0.261467
Si Si5 0.986505 0.189001 0.090198
Si Si6 0.404728 0.704754 0.427965
O O1 0.234453 0.500000 0.095071
O O2 0.152815 0.228096 0.184068
O O3 0.070591 0.321324 0.096272
O O4 0.250000 0.250000 0.000000
O O5 0.766301 0.722186 0.690926
O O6 0.691798 0.792495 0.589442
O O7 0.887180 0.735069 0.517581
O O8 0.832086 0.000000 0.606632
O O9 0.173707 0.500000 0.760794
O O10 0.057637 0.754879 0.751423
O O11 0.133289 0.764248 0.854782
O O12 0.059088 0.500000 0.259020
O O13 0.015935 0.759934 0.354700
O O14 0.013571 0.000000 0.109880
O O15 0.000000 0.187339 0.000000
O O16 0.388497 0.500000 0.431403
#
# Coordination Sequence:
#
# PCOD9190618 Si02
#       6
#     8   8   8   8   8   8
#     4  10  20  33  49  67  89 118 151 187 225 266
#     4   8  14  22  30  46  74 104 134 169 208 248
#     4   8  14  25  39  54  77 110 144 177 214 257
#     4   8  15  26  37  53  79 108 136 170 213 255
#     4  10  20  32  46  66  92 119 149 187 226 264
#     4   9  14  19  31  50  72 102 137 169 203 248
#
# _framework density 26.926631
#
# number of rings (size 3 to 8) (size 9 to 14) (size 15 to 20)
#    0.000    3.167    0.000    3.500    0.000    8.667 
#    0.000    0.000    0.000    0.000    0.000    0.000 
#    0.000    1.333    0.000   15.000    0.000   14.667 
#
# Total GULP energy -133801.202039 kJ/mol
# GULP energy per Si atom -5575.050085 kJ/mol
# Density = 2.686534 g / cm^3
# Si number density = 26.926631 Si / 1000 Ang^3
#
#
#
# Elastic Constant Matrix: (Units=GPa)
#
#
# Indices 1 2 3 4 5 6 
#
# 1 77.9798 10.1520 33.4968 0.0000 -46.8475 0.0000
# 2 10.1520 55.1724 24.6261 0.0000 5.9033 0.0000
# 3 33.4968 24.6261 334.1700 0.0000 -45.0813 0.0000
# 4 0.0000 0.0000 0.0000 33.0889 0.0000 1.2986
# 5 -46.8475 5.9033 -45.0813 0.0000 47.9668 0.0000
# 6 0.0000 0.0000 0.0000 1.2986 0.0000 24.2667
#
#
#
# Elastic Compliance Matrix: (Units=1/GPa)
#
#
# Indices 1 2 3 4 5 6 
#
# 1 0.038153 -0.012642 0.002684 0.000000 0.041342 0.000000
# 2 -0.012642 0.023672 -0.002904 0.000000 -0.017990 0.000000
# 3 0.002684 -0.002904 0.003824 0.000000 0.006573 0.000000
# 4 0.000000 0.000000 0.000000 0.030285 0.000000 -0.001621
# 5 0.041342 -0.017990 0.006573 0.000000 0.069616 0.000000
# 6 0.000000 0.000000 0.000000 -0.001621 0.000000 0.041296
#
#
# Mechanical properties :
#
#
# Convention : Reuss Voigt Hill
#
# Bulk Modulus (GPa) = 25.04626 67.09689 46.07158
# Shear Modulus (GPa) = 20.33520 47.66762 34.00141
#
# Velocity S-wave (km/s) = 2.75109 4.21203 3.55736
# Velocity P-wave (km/s) = 4.40604 6.97334 5.83269
#
# Compressibility (1/GPa) = 0.03992611
#
# Stress axis : x y z
#
# Youngs Moduli (GPa) = 26.21019 42.24343 261.49219
#
# Poissons Ratio (x) = 0.53404 -0.70195
# Poissons Ratio (y) = 0.33135 0.75943
# Poissons Ratio (z) = -0.07036 0.12268
#
# Static dielectric constant tensor:
#      x y z
#    x 2.266830 0.000000 0.110060 
#    y 0.000000 1.969450 0.000000 
#    z 0.110060 0.000000 2.344260 
# 
# From -- ./inp_files/318981.got.cif
#   From: 2010.05.17/outbox.cif.g08.bks.cpg/sg12_160_cif.got.tgz:318981.got - 2010.06.03 13:09:07.
