data_PCOD9190287
_publ_section_title
;
Structure prediction by ZEFSAII (Michael W. Deem and Ramdas Pophale) SiO2 
 PCOD9190287
Probable space group: C 2/M
;
_chemical_formula_sum "Si O2"
_cell_formula_units_Z 58
_cell_length_a 20.716853
_cell_length_b 13.612003
_cell_length_c 14.286390
_cell_angle_alpha 90.000000
_cell_angle_beta 38.179559
_cell_angle_gamma 90.000000
_cell_volume 2490.271699
_symmetry_space_group_name_H-M "C 2/M"
_symmetry_group_IT_number 12
_symmetry_cell_setting 'monoclinic'
loop_
_space_group_symop_operation_xyz
x,y,z
-x,y,-z
-x,-y,-z
x,-y,z
1/2+x,1/2+y,z
1/2-x,1/2+y,-z
1/2-x,1/2-y,-z
1/2+x,1/2-y,z
loop_
_atom_site_type_symbol
_atom_site_label
_atom_site_fract_x
_atom_site_fract_y
_atom_site_fract_z
Si Si1 0.101724 0.200835 0.844471
Si Si2 0.999077 0.882207 0.300917
Si Si3 0.500000 0.500000 0.000000
Si Si4 0.844829 0.387443 0.899548
Si Si5 0.176833 0.119025 0.241105
Si Si6 0.537871 0.117734 0.562497
Si Si7 0.197221 0.778236 0.417570
Si Si8 0.835067 0.887942 0.044749
O O1 0.168519 0.178267 0.861695
O O2 0.182682 0.261467 0.690278
O O3 0.000000 0.257261 0.000000
O O4 0.058316 0.091560 0.871600
O O5 0.885873 0.835361 0.423728
O O6 0.066052 0.856282 0.318292
O O7 0.076983 0.855585 0.128031
O O8 0.990960 0.000000 0.310644
O O9 0.865544 0.500000 0.905148
O O10 0.953381 0.347985 0.736722
O O11 0.770571 0.344500 0.065093
O O12 0.770879 0.392480 0.892122
O O13 0.189406 0.160552 0.329619
O O14 0.181327 0.000000 0.237108
O O15 0.500000 0.140776 0.500000
O O16 0.644431 0.172367 0.462082
O O17 0.546991 0.000000 0.556966
O O18 0.864177 0.000000 0.046491
#
# Coordination Sequence:
#
# PCOD9190287 Si02
#       8
#     8   8   2   8   8   8   8   8
#     4  10  21  36  56  74  92 126 177 223 262 306
#     4   9  19  33  53  81 111 139 169 203 245 300
#     4   8  20  40  60  68  92 124 182 226 264 304
#     4   8  16  30  49  74 105 142 174 196 235 299
#     4   9  18  34  54  76 109 147 177 199 230 295
#     4  10  20  30  43  68 106 137 162 203 255 305
#     4  12  22  31  51  78 104 134 170 212 259 302
#     4   9  15  31  55  75  98 136 175 209 244 294
#
# _framework density 23.290631999999999
#
# number of rings (size 3 to 8) (size 9 to 14) (size 15 to 20)
#    0.414    2.069    0.690    4.138    0.966    3.310 
#    0.000    4.138    0.000    1.655    0.000    0.000 
#    0.000    0.000    0.000    0.000    0.000    0.000 
#
# Total GULP energy -161761.773021 kJ/mol
# GULP energy per Si atom -5577.992173 kJ/mol
# Density = 2.323762 g / cm^3
# Si number density = 23.290632 Si / 1000 Ang^3
#
#
#
# Elastic Constant Matrix: (Units=GPa)
#
#
# Indices 1 2 3 4 5 6 
#
# 1 37.9143 2.3990 8.0024 0.0000 3.6970 0.0000
# 2 2.3990 79.7009 25.5058 0.0000 -6.7991 0.0000
# 3 8.0024 25.5058 168.5694 0.0000 -32.6359 0.0000
# 4 0.0000 0.0000 0.0000 37.5119 0.0000 -4.5958
# 5 3.6970 -6.7991 -32.6359 0.0000 25.1412 0.0000
# 6 0.0000 0.0000 0.0000 -4.5958 0.0000 25.0411
#
#
#
# Elastic Compliance Matrix: (Units=1/GPa)
#
#
# Indices 1 2 3 4 5 6 
#
# 1 0.027752 -0.000626 -0.002732 0.000000 -0.007797 0.000000
# 2 -0.000626 0.013232 -0.001685 0.000000 0.001483 0.000000
# 3 -0.002732 -0.001685 0.008424 0.000000 0.010881 0.000000
# 4 0.000000 0.000000 0.000000 0.027271 0.000000 0.005005
# 5 -0.007797 0.001483 0.010881 0.000000 0.055447 0.000000
# 6 0.000000 0.000000 0.000000 0.005005 0.000000 0.040853
#
#
# Mechanical properties :
#
#
# Convention : Reuss Voigt Hill
#
# Bulk Modulus (GPa) = 25.43255 39.77767 32.60511
# Shear Modulus (GPa) = 25.48786 34.22402 29.85594
#
# Velocity S-wave (km/s) = 3.31167 3.83748 3.58423
# Velocity P-wave (km/s) = 5.05631 6.06225 5.58198
#
# Compressibility (1/GPa) = 0.03931970
#
# Stress axis : x y z
#
# Youngs Moduli (GPa) = 36.03366 75.57688 118.71540
#
# Poissons Ratio (x) = 0.04732 0.32436
# Poissons Ratio (y) = 0.02256 0.20006
# Poissons Ratio (z) = 0.09845 0.12736
#
# Static dielectric constant tensor:
#      x y z
#    x 1.802500 0.000000 0.038460 
#    y 0.000000 1.892110 0.000000 
#    z 0.038460 0.000000 1.900250 
# 
# From -- ./inp_files/289902.got.cif
#   From: 2010.05.17/outbox.cif.g08.bks.cpg/sg12_145_cif.got.tgz:289902.got - 2010.06.03 13:09:07.
