data_PCOD9190546
_publ_section_title
;
Structure prediction by ZEFSAII (Michael W. Deem and Ramdas Pophale) SiO2 
 PCOD9190546
Probable space group: C 2/M
;
_chemical_formula_sum "Si O2"
_cell_formula_units_Z 44
_cell_length_a 23.420948
_cell_length_b 7.433855
_cell_length_c 29.730749
_cell_angle_alpha 90.000000
_cell_angle_beta 159.373878
_cell_angle_gamma 90.000000
_cell_volume 1823.467648
_symmetry_space_group_name_H-M "C 2/M"
_symmetry_group_IT_number 12
_symmetry_cell_setting 'monoclinic'
loop_
_space_group_symop_operation_xyz
x,y,z
-x,y,-z
-x,-y,-z
x,-y,z
1/2+x,1/2+y,z
1/2-x,1/2+y,-z
1/2-x,1/2-y,-z
1/2+x,1/2-y,z
loop_
_atom_site_type_symbol
_atom_site_label
_atom_site_fract_x
_atom_site_fract_y
_atom_site_fract_z
Si Si1 0.002480 0.716200 0.450885
Si Si2 0.570433 0.213266 0.350453
Si Si3 0.353805 0.000000 0.953183
Si Si4 0.789261 0.282404 0.211950
Si Si5 0.370563 0.211898 0.703254
Si Si6 0.642784 0.299223 0.964998
O O1 0.996982 0.500000 0.448097
O O2 0.177581 0.764571 0.559746
O O3 0.000000 0.785257 0.500000
O O4 0.853814 0.769324 0.309214
O O5 0.750000 0.250000 0.500000
O O6 0.439239 0.273615 0.289513
O O7 0.556622 0.285522 0.289782
O O8 0.552859 0.000000 0.334549
O O9 0.347031 0.159337 0.909327
O O10 0.345241 0.156834 0.986703
O O11 0.764686 0.500000 0.192230
O O12 0.458519 0.299041 0.810340
O O13 0.405121 0.000000 0.731770
O O14 0.689022 0.500000 0.014269
O O15 0.750000 0.250000 0.000000
#
# Coordination Sequence:
#
# PCOD9190546 Si02
#       6
#     8   8   4   8   8   8
#     4  10  22  41  65  96 132 171 216 270 335 398
#     4  10  20  31  53  85 125 162 197 246 315 389
#     4  12  24  40  63  87 125 170 221 268 313 378
#     4  10  22  40  61  92 130 171 213 263 330 395
#     4  11  22  38  61  94 131 170 215 266 326 388
#     4  12  24  42  63  92 131 177 221 266 319 384
#
# _framework density 24.129849
#
# number of rings (size 3 to 8) (size 9 to 14) (size 15 to 20)
#    0.000    1.273    3.636    2.182    2.545    2.545 
#    0.000    0.000    0.000    2.182    0.000    5.091 
#    0.000    0.000    0.000    0.000    0.000    0.000 
#
# Total GULP energy -122607.500929 kJ/mol
# GULP energy per Si atom -5573.068224 kJ/mol
# Density = 2.407493 g / cm^3
# Si number density = 24.129849 Si / 1000 Ang^3
#
#
#
# Elastic Constant Matrix: (Units=GPa)
#
#
# Indices 1 2 3 4 5 6 
#
# 1 102.2332 38.3124 52.5733 -0.0051 -32.4300 0.0237
# 2 38.3124 166.2210 40.7945 0.0112 -31.7899 0.0006
# 3 52.5733 40.7945 104.6149 -0.0367 -44.5477 0.1409
# 4 -0.0051 0.0112 -0.0367 109.3481 -0.0153 -25.8298
# 5 -32.4300 -31.7899 -44.5477 -0.0153 41.9823 0.0595
# 6 0.0237 0.0006 0.1409 -25.8298 0.0595 -219.7606
#
#
#
# Elastic Compliance Matrix: (Units=1/GPa)
#
#
# Indices 1 2 3 4 5 6 
#
# 1 0.014186 -0.001157 -0.004350 0.000000 0.005466 0.000000
# 2 -0.001157 0.007172 -0.000517 0.000000 0.003989 0.000001
# 3 -0.004350 -0.000517 0.018880 0.000012 0.016281 0.000015
# 4 0.000000 0.000000 0.000012 0.008898 0.000017 -0.001046
# 5 0.005466 0.003989 0.016281 0.000017 0.048339 0.000022
# 6 0.000000 0.000001 0.000015 -0.001046 0.000022 -0.004427
#
#
# Mechanical properties :
#
#
# Convention : Reuss Voigt Hill
#
# Bulk Modulus (GPa) = 35.47322 70.71441 53.09381
# Shear Modulus (GPa) = 43.67081 2.40655 23.03868
#
# Velocity S-wave (km/s) = 4.25882 0.99975 3.09330
# Velocity P-wave (km/s) = 6.23829 5.54094 5.89993
#
# Compressibility (1/GPa) = 0.02819028
#
# Stress axis : x y z
#
# Youngs Moduli (GPa) = 70.49093 139.42175 52.96684
#
# Poissons Ratio (x) = 0.16126 0.23043
# Poissons Ratio (y) = 0.08153 0.02738
# Poissons Ratio (z) = 0.30667 0.07208
#
# Static dielectric constant tensor:
#      x y z
#    x 1.925310 0.000000 0.014880 
#    y 0.000000 1.900280 0.000000 
#    z 0.014880 0.000000 1.969510 
# 
# From -- ./inp_files/383695.got.cif
#   From: 2010.05.17/outbox.cif.g08.bks.cpg/sg12_192_cif.got.tgz:383695.got - 2010.06.03 13:09:07.
