data_PCOD9190729
_publ_section_title
;
Structure prediction by ZEFSAII (Michael W. Deem and Ramdas Pophale) SiO2 
 PCOD9190729
Probable space group: C 2/M
;
_chemical_formula_sum "Si O2"
_cell_formula_units_Z 56
_cell_length_a 21.995997
_cell_length_b 9.696211
_cell_length_c 25.664887
_cell_angle_alpha 90.000000
_cell_angle_beta 40.532855
_cell_angle_gamma 90.000000
_cell_volume 3557.303315
_symmetry_space_group_name_H-M "C 2/M"
_symmetry_group_IT_number 12
_symmetry_cell_setting 'monoclinic'
loop_
_space_group_symop_operation_xyz
x,y,z
-x,y,-z
-x,-y,-z
x,-y,z
1/2+x,1/2+y,z
1/2-x,1/2+y,-z
1/2-x,1/2-y,-z
1/2+x,1/2-y,z
loop_
_atom_site_type_symbol
_atom_site_label
_atom_site_fract_x
_atom_site_fract_y
_atom_site_fract_z
Si Si1 0.312727 0.661355 0.387884
Si Si2 0.474955 0.837679 0.576964
Si Si3 0.237400 0.337160 0.253828
Si Si4 0.409658 0.663024 0.219522
Si Si5 0.477100 0.839483 0.929887
Si Si6 0.346489 0.160512 0.105189
Si Si7 0.632992 0.338009 0.527295
O O1 0.284803 0.500000 0.398196
O O2 0.385334 0.696529 0.294966
O O3 0.355746 0.673249 0.417489
O O4 0.222491 0.759184 0.444883
O O5 0.500000 0.819089 0.500000
O O6 0.366294 0.806211 0.658437
O O7 0.541545 0.740174 0.567094
O O8 0.490898 0.000000 0.579101
O O9 0.242513 0.500000 0.238986
O O10 0.314514 0.309620 0.248476
O O11 0.267252 0.251379 0.183635
O O12 0.429280 0.500000 0.202579
O O13 0.492206 0.748704 0.138942
O O14 0.565116 0.833158 0.912615
O O15 0.464775 0.000000 0.923953
O O16 0.387846 0.793994 0.022389
O O17 0.319205 0.000000 0.119163
O O18 0.632601 0.500000 0.514046
#
# Coordination Sequence:
#
# PCOD9190729 Si02
#       7
#     8   8   8   8   8   8   8
#     4   9  18  33  49  65  90 120 147 180 225 269
#     4  10  20  34  49  64  89 123 151 180 223 268
#     4   9  17  27  42  64  86 114 151 181 209 255
#     4   9  16  27  44  65  88 115 146 178 214 258
#     4   8  14  24  38  59  87 116 143 172 213 261
#     4   8  14  25  39  56  85 120 144 170 214 261
#     4  10  20  32  48  69  89 114 151 189 221 258
#
# _framework density 15.742262999999999
#
# number of rings (size 3 to 8) (size 9 to 14) (size 15 to 20)
#    0.000    3.000    0.000    2.143    0.000    4.857 
#    0.000    5.714    0.000    0.000    0.000    1.000 
#    0.000    0.000    0.000    0.000    0.000    0.000 
#
# Total GULP energy -155933.875367 kJ/mol
# GULP energy per Si atom -5569.066977 kJ/mol
# Density = 1.570643 g / cm^3
# Si number density = 15.742263 Si / 1000 Ang^3
#
#
#
# Elastic Constant Matrix: (Units=GPa)
#
#
# Indices 1 2 3 4 5 6 
#
# 1 19.6156 25.1199 19.8107 0.0000 -4.2743 -0.0002
# 2 25.1199 58.4458 66.1704 0.0000 0.8824 -0.0003
# 3 19.8107 66.1704 153.9061 0.0000 7.3880 0.0000
# 4 0.0000 0.0000 0.0000 30.4153 0.0000 -1.1204
# 5 -4.2743 0.8824 7.3880 0.0000 17.1859 0.0000
# 6 -0.0002 -0.0003 0.0000 -1.1204 0.0000 19.7681
#
#
#
# Elastic Compliance Matrix: (Units=1/GPa)
#
#
# Indices 1 2 3 4 5 6 
#
# 1 0.144155 -0.077169 0.012979 0.000000 0.034236 0.000000
# 2 -0.077169 0.074998 -0.021652 0.000000 -0.013736 0.000000
# 3 0.012979 -0.021652 0.014221 0.000000 -0.001774 0.000000
# 4 0.000000 0.000000 0.000000 0.032947 0.000000 0.001867
# 5 0.034236 -0.013736 -0.001774 0.000000 0.068170 0.000000
# 6 0.000000 0.000000 0.000000 0.001867 0.000000 0.050692
#
#
# Mechanical properties :
#
#
# Convention : Reuss Voigt Hill
#
# Bulk Modulus (GPa) = 16.21001 50.46328 33.33664
# Shear Modulus (GPa) = 8.65904 21.53162 15.09533
#
# Velocity S-wave (km/s) = 2.34786 3.70233 3.09998
# Velocity P-wave (km/s) = 4.20350 7.09943 5.83401
#
# Compressibility (1/GPa) = 0.06169029
#
# Stress axis : x y z
#
# Youngs Moduli (GPa) = 6.93697 13.33366 70.31789
#
# Poissons Ratio (x) = 1.02894 -0.91265
# Poissons Ratio (y) = 0.53532 1.52254
# Poissons Ratio (z) = -0.09003 0.28870
#
# Static dielectric constant tensor:
#      x y z
#    x 1.511110 0.000000 0.007500 
#    y 0.000000 1.525730 0.000000 
#    z 0.007500 0.000000 1.528560 
# 
# From -- ./inp_files/348492.got.cif
#   From: 2010.05.17/outbox.cif.g08.bks.cpg/sg12_175_cif.got.tgz:348492.got - 2010.06.03 13:09:07.
