data_PCOD9190100
_publ_section_title
;
Structure prediction by ZEFSAII (Michael W. Deem and Ramdas Pophale) SiO2 
 PCOD9190100
Probable space group: C 2/M
;
_chemical_formula_sum "Si O2"
_cell_formula_units_Z 32
_cell_length_a 15.049895
_cell_length_b 14.301534
_cell_length_c 8.485467
_cell_angle_alpha 90.000000
_cell_angle_beta 46.670830
_cell_angle_gamma 90.000000
_cell_volume 1328.553879
_symmetry_space_group_name_H-M "C 2/M"
_symmetry_group_IT_number 12
_symmetry_cell_setting 'monoclinic'
loop_
_space_group_symop_operation_xyz
x,y,z
-x,y,-z
-x,-y,-z
x,-y,z
1/2+x,1/2+y,z
1/2-x,1/2+y,-z
1/2-x,1/2-y,-z
1/2+x,1/2-y,z
loop_
_atom_site_type_symbol
_atom_site_label
_atom_site_fract_x
_atom_site_fract_y
_atom_site_fract_z
Si Si1 0.673317 0.600217 0.249569
Si Si2 0.949900 0.644846 0.895316
Si Si3 0.824724 0.291770 0.559880
Si Si4 0.399414 0.635898 0.001639
O O1 0.653623 0.500000 0.357380
O O2 0.647803 0.697243 0.372908
O O3 0.816735 0.604399 0.026613
O O4 0.600166 0.599409 0.175384
O O5 0.056961 0.650029 0.637373
O O6 0.925429 0.754228 0.952463
O O7 0.000000 0.606382 0.000000
O O8 0.750000 0.250000 0.500000
O O9 0.734573 0.362223 0.759479
O O10 0.500000 0.599141 0.000000
#
# Coordination Sequence:
#
# PCOD9190100 Si02
#       4
#     8   8   8   8
#     4  11  25  41  63 102 138 165 212 282 335 372
#     4  10  19  39  69  94 124 172 226 260 315 401
#     4  11  19  41  70  95 123 176 226 259 319 407
#     4  10  21  39  63  90 126 179 227 261 311 396
#
# _framework density 24.086341000000001
#
# number of rings (size 3 to 8) (size 9 to 14) (size 15 to 20)
#    0.000    1.500    7.500    3.000    0.000    5.000 
#    0.000    6.250    0.000    0.750    0.000    0.000 
#    0.000    0.000    0.000    0.000    0.000    0.000 
#
# Total GULP energy -89393.363044 kJ/mol
# GULP energy per Si atom -5587.085190 kJ/mol
# Density = 2.403152 g / cm^3
# Si number density = 24.086341 Si / 1000 Ang^3
#
#
#
# Elastic Constant Matrix: (Units=GPa)
#
#
# Indices 1 2 3 4 5 6 
#
# 1 149.6369 32.6996 31.7234 0.0000 14.1702 0.0000
# 2 32.6996 115.3470 18.4833 0.0000 4.0609 0.0000
# 3 31.7234 18.4833 150.7352 0.0000 -27.0203 0.0000
# 4 0.0000 0.0000 0.0000 -0.4740 0.0000 8.5246
# 5 14.1702 4.0609 -27.0203 0.0000 45.7203 0.0000
# 6 0.0000 0.0000 0.0000 8.5246 0.0000 65.0116
#
#
#
# Elastic Compliance Matrix: (Units=1/GPa)
#
#
# Indices 1 2 3 4 5 6 
#
# 1 0.007836 -0.001769 -0.002057 0.000000 -0.003487 0.000000
# 2 -0.001769 0.009348 -0.000922 0.000000 -0.000827 0.000000
# 3 -0.002057 -0.000922 0.008175 0.000000 0.005551 0.000000
# 4 0.000000 0.000000 0.000000 -0.628227 0.000000 0.082375
# 5 -0.003487 -0.000827 0.005551 0.000000 0.026307 0.000000
# 6 0.000000 0.000000 0.000000 0.082375 0.000000 0.004581
#
#
# Mechanical properties :
#
#
# Convention : Reuss Voigt Hill
#
# Bulk Modulus (GPa) = 63.04370 64.61464 63.82917
# Shear Modulus (GPa) = -8.97350 44.23909 17.63279
#
# Velocity S-wave (km/s) = -1.93226 4.29031 2.70861
# Velocity P-wave (km/s) = 4.61006 7.17125 6.02825
#
# Compressibility (1/GPa) = 0.01586201
#
# Stress axis : x y z
#
# Youngs Moduli (GPa) = 127.61943 106.97635 122.31995
#
# Poissons Ratio (x) = 0.18923 0.25165
# Poissons Ratio (y) = 0.22575 0.11281
# Poissons Ratio (z) = 0.26255 0.09866
#
# Static dielectric constant tensor:
#      x y z
#    x 1.956400 0.000000 -0.053440 
#    y 0.000000 1.957530 0.000000 
#    z -0.053440 0.000000 2.054530 
# 
# From -- ./inp_files/60016.got.cif
#   From: 2010.05.17/outbox.cif.g08.bks.cpg/sg12_31_cif.got.tgz:60016.got - 2010.06.03 13:09:07.
