data_PCOD9190006
_publ_section_title
;
Structure prediction by ZEFSAII (Michael W. Deem and Ramdas Pophale) SiO2 
 PCOD9190006
Probable space group: C 2/M
;
_chemical_formula_sum "Si O2"
_cell_formula_units_Z 58
_cell_length_a 21.136286
_cell_length_b 12.327301
_cell_length_c 17.444881
_cell_angle_alpha 90.000000
_cell_angle_beta 141.304377
_cell_angle_gamma 90.000000
_cell_volume 2841.658423
_symmetry_space_group_name_H-M "C 2/M"
_symmetry_group_IT_number 12
_symmetry_cell_setting 'monoclinic'
loop_
_space_group_symop_operation_xyz
x,y,z
-x,y,-z
-x,-y,-z
x,-y,z
1/2+x,1/2+y,z
1/2-x,1/2+y,-z
1/2-x,1/2-y,-z
1/2+x,1/2-y,z
loop_
_atom_site_type_symbol
_atom_site_label
_atom_site_fract_x
_atom_site_fract_y
_atom_site_fract_z
Si Si1 0.625557 0.875614 0.747793
Si Si2 0.679237 0.878164 0.146972
Si Si3 0.480047 0.719009 0.227893
Si Si4 0.377405 0.876895 0.727476
Si Si5 0.364700 0.660468 0.977593
Si Si6 0.153384 0.124631 0.493660
Si Si7 0.109156 0.797769 0.608401
Si Si8 0.000000 0.000000 0.000000
O O1 0.579126 0.797122 0.769098
O O2 0.747628 0.874954 0.865603
O O3 0.598332 0.815042 0.642673
O O4 0.589889 0.000000 0.719580
O O5 0.644030 0.862344 0.202027
O O6 0.636243 0.785193 0.052415
O O7 0.801237 0.862823 0.265159
O O8 0.652416 0.000000 0.098137
O O9 0.544620 0.793028 0.231627
O O10 0.563279 0.646373 0.350093
O O11 0.405319 0.652890 0.102545
O O12 0.270503 0.864848 0.580874
O O13 0.412629 0.000000 0.750071
O O14 0.434909 0.593238 0.986270
O O15 0.141256 0.210276 0.550750
O O16 0.146173 0.000000 0.516404
O O17 0.000000 0.853151 0.500000
#
# Coordination Sequence:
#
# PCOD9190006 Si02
#       8
#     8   8   8   8   8   8   8   2
#     4  11  24  44  64  93 137 171 216 274 331 404
#     4   9  20  39  65  95 128 161 214 285 326 381
#     4  12  23  40  63  94 129 174 211 265 335 398
#     4   9  19  38  62  90 125 163 207 265 330 386
#     4  11  25  43  67  97 130 174 231 273 329 394
#     4  10  22  39  62  92 128 163 214 276 320 388
#     4  10  19  39  62  93 122 166 219 261 322 397
#     4  12  24  48  74  84 130 190 228 284 312 386
#
# _framework density 20.410615
#
# number of rings (size 3 to 8) (size 9 to 14) (size 15 to 20)
#    0.000    1.655    2.069    3.310    0.966    2.483 
#    0.000    1.724    0.000    0.000    0.000    0.000 
#    0.000    0.000    0.000    0.000    0.000    0.000 
#
# Total GULP energy -161572.824113 kJ/mol
# GULP energy per Si atom -5571.476694 kJ/mol
# Density = 2.036416 g / cm^3
# Si number density = 20.410615 Si / 1000 Ang^3
#
#
#
# Elastic Constant Matrix: (Units=GPa)
#
#
# Indices 1 2 3 4 5 6 
#
# 1 46.1374 22.4325 14.7666 0.0000 16.1365 0.0000
# 2 22.4325 83.8585 23.7836 0.0000 -3.0127 0.0000
# 3 14.7666 23.7836 104.6694 0.0000 -5.1904 0.0000
# 4 0.0000 0.0000 0.0000 0.7502 0.0000 5.1411
# 5 16.1365 -3.0127 -5.1904 0.0000 20.6823 0.0000
# 6 0.0000 0.0000 0.0000 5.1411 0.0000 15.0437
#
#
#
# Elastic Compliance Matrix: (Units=1/GPa)
#
#
# Indices 1 2 3 4 5 6 
#
# 1 0.040475 -0.010645 -0.004996 0.000000 -0.034383 0.000000
# 2 -0.010645 0.015573 -0.001531 0.000000 0.010190 0.000000
# 3 -0.004996 -0.001531 0.010925 0.000000 0.006417 0.000000
# 4 0.000000 0.000000 0.000000 -0.993319 0.000000 0.339458
# 5 -0.034383 0.010190 0.006417 0.000000 0.078271 0.000000
# 6 0.000000 0.000000 0.000000 0.339458 0.000000 -0.049534
#
#
# Mechanical properties :
#
#
# Convention : Reuss Voigt Hill
#
# Bulk Modulus (GPa) = 30.64985 39.62563 35.13774
# Shear Modulus (GPa) = -5.86588 18.87409 6.50410
#
# Velocity S-wave (km/s) = -1.69711 3.04422 1.78705
# Velocity P-wave (km/s) = 3.34798 5.64028 4.63798
#
# Compressibility (1/GPa) = 0.03262658
#
# Stress axis : x y z
#
# Youngs Moduli (GPa) = 24.70664 64.21379 91.53373
#
# Poissons Ratio (x) = 0.68358 0.45732
# Poissons Ratio (y) = 0.26301 0.14018
# Poissons Ratio (z) = 0.12344 0.09834
#
# Static dielectric constant tensor:
#      x y z
#    x 1.738050 0.000000 0.020970 
#    y 0.000000 1.712250 0.000000 
#    z 0.020970 0.000000 1.765470 
# 
# From -- ./inp_files/283547.got.cif
#   From: 2010.05.17/outbox.cif.g08.bks.cpg/sg12_142_cif.got.tgz:283547.got - 2010.06.03 13:09:07.
