data_PCOD9190340
_publ_section_title
;
Structure prediction by ZEFSAII (Michael W. Deem and Ramdas Pophale) SiO2 
 PCOD9190340
Probable space group: C 2/M
;
_chemical_formula_sum "Si O2"
_cell_formula_units_Z 64
_cell_length_a 30.598630
_cell_length_b 22.363837
_cell_length_c 5.301272
_cell_angle_alpha 90.000000
_cell_angle_beta 110.704719
_cell_angle_gamma 90.000000
_cell_volume 3393.381426
_symmetry_space_group_name_H-M "C 2/M"
_symmetry_group_IT_number 12
_symmetry_cell_setting 'monoclinic'
loop_
_space_group_symop_operation_xyz
x,y,z
-x,y,-z
-x,-y,-z
x,-y,z
1/2+x,1/2+y,z
1/2-x,1/2+y,-z
1/2-x,1/2-y,-z
1/2+x,1/2-y,z
loop_
_atom_site_type_symbol
_atom_site_label
_atom_site_fract_x
_atom_site_fract_y
_atom_site_fract_z
Si Si1 0.647948 0.333268 0.775963
Si Si2 0.553630 0.722232 0.615002
Si Si3 0.785305 0.931220 0.853089
Si Si4 0.298774 0.236881 0.831522
Si Si5 0.814437 0.430067 0.115006
Si Si6 0.647708 0.134046 0.309151
Si Si7 0.053719 0.303082 0.115253
Si Si8 0.223716 0.157680 0.559565
O O1 0.592737 0.328951 0.681040
O O2 0.671138 0.342018 0.551457
O O3 0.672817 0.387202 0.979156
O O4 0.666588 0.267661 0.901404
O O5 0.500000 0.700718 0.500000
O O6 0.560324 0.764810 0.384762
O O7 0.559934 0.760348 0.884195
O O8 0.741768 0.927157 0.956692
O O9 0.766222 0.905233 0.549081
O O10 0.799447 0.000000 0.861692
O O11 0.328694 0.199002 0.691421
O O12 0.259062 0.189181 0.829956
O O13 0.274056 0.294290 0.660651
O O14 0.826730 0.500000 0.161359
O O15 0.836680 0.393543 0.393816
O O16 0.833778 0.404526 0.890847
O O17 0.592489 0.145543 0.186698
O O18 0.000000 0.324556 0.000000
#
# Coordination Sequence:
#
# PCOD9190340 Si02
#       8
#     8   8   8   8   8   8   8   8
#     4  11  21  34  56  82 118 152 191 243 292 356
#     4  10  21  37  59  88 124 153 186 236 301 365
#     4  10  23  39  54  79 115 162 208 242 282 341
#     4  10  20  30  52  83 117 146 182 231 297 357
#     4  11  25  41  58  82 116 161 208 244 284 339
#     4  12  21  37  63  84 115 157 196 244 295 349
#     4  10  21  38  60  91 121 151 188 238 300 365
#     4  10  20  34  51  82 118 149 188 236 297 353
#
# _framework density 18.860244000000002
#
# number of rings (size 3 to 8) (size 9 to 14) (size 15 to 20)
#    0.000    1.500    2.500    3.000    3.500    0.500 
#    0.000    0.000    0.000    2.625    0.000    0.875 
#    0.000    0.000    0.000    0.000    0.000    0.000 
#
# Total GULP energy -178539.189414 kJ/mol
# GULP energy per Si atom -5579.349669 kJ/mol
# Density = 1.881732 g / cm^3
# Si number density = 18.860244 Si / 1000 Ang^3
#
#
#
# Elastic Constant Matrix: (Units=GPa)
#
#
# Indices 1 2 3 4 5 6 
#
# 1 133.7623 39.5844 42.0215 0.0000 13.7875 0.0000
# 2 39.5844 105.9743 33.6224 0.0000 4.6504 0.0000
# 3 42.0215 33.6224 88.2467 0.0000 -10.6146 0.0000
# 4 0.0000 0.0000 0.0000 18.7743 0.0000 -1.6450
# 5 13.7875 4.6504 -10.6146 0.0000 31.9959 0.0000
# 6 0.0000 0.0000 0.0000 -1.6450 0.0000 25.4441
#
#
#
# Elastic Compliance Matrix: (Units=1/GPa)
#
#
# Indices 1 2 3 4 5 6 
#
# 1 0.010149 -0.002041 -0.004735 0.000000 -0.005648 0.000000
# 2 -0.002041 0.011435 -0.003624 0.000000 -0.001985 0.000000
# 3 -0.004735 -0.003624 0.015911 0.000000 0.007845 0.000000
# 4 0.000000 0.000000 0.000000 0.053568 0.000000 0.003463
# 5 -0.005648 -0.001985 0.007845 0.000000 0.036579 0.000000
# 6 0.000000 0.000000 0.000000 0.003463 0.000000 0.039526
#
#
# Mechanical properties :
#
#
# Convention : Reuss Voigt Hill
#
# Bulk Modulus (GPa) = 59.89216 62.04886 60.97051
# Shear Modulus (GPa) = 25.83545 29.42654 27.63099
#
# Velocity S-wave (km/s) = 3.70515 3.95427 3.83174
# Velocity P-wave (km/s) = 7.08017 7.33615 7.20930
#
# Compressibility (1/GPa) = 0.01669668
#
# Stress axis : x y z
#
# Youngs Moduli (GPa) = 98.52710 87.44729 62.85065
#
# Poissons Ratio (x) = 0.17849 0.29757
# Poissons Ratio (y) = 0.20111 0.22775
# Poissons Ratio (z) = 0.46649 0.31689
#
# Static dielectric constant tensor:
#      x y z
#    x 1.697060 0.000000 0.012050 
#    y 0.000000 1.652990 0.000000 
#    z 0.012050 0.000000 1.741700 
# 
# From -- ./inp_files/32348.got.cif
#   From: 2010.05.17/outbox.cif.g08.bks.cpg/sg12_17_cif.got.tgz:32348.got - 2010.06.03 13:09:07.
