data_PCOD9190593
_publ_section_title
;
Structure prediction by ZEFSAII (Michael W. Deem and Ramdas Pophale) SiO2 
 PCOD9190593
Probable space group: C 2/M
;
_chemical_formula_sum "Si O2"
_cell_formula_units_Z 56
_cell_length_a 14.305471
_cell_length_b 21.828299
_cell_length_c 7.444353
_cell_angle_alpha 90.000000
_cell_angle_beta 88.129293
_cell_angle_gamma 90.000000
_cell_volume 2323.365247
_symmetry_space_group_name_H-M "C 2/M"
_symmetry_group_IT_number 12
_symmetry_cell_setting 'monoclinic'
loop_
_space_group_symop_operation_xyz
x,y,z
-x,y,-z
-x,-y,-z
x,-y,z
1/2+x,1/2+y,z
1/2-x,1/2+y,-z
1/2-x,1/2-y,-z
1/2+x,1/2-y,z
loop_
_atom_site_type_symbol
_atom_site_label
_atom_site_fract_x
_atom_site_fract_y
_atom_site_fract_z
Si Si1 0.166362 0.155428 0.716534
Si Si2 0.856817 0.070856 0.953957
Si Si3 0.882200 0.689331 0.619616
Si Si4 0.861281 0.588962 0.084489
Si Si5 0.533159 0.936136 0.281874
Si Si6 0.160722 0.714431 0.789195
Si Si7 0.123483 0.178959 0.303763
O O1 0.277426 0.168978 0.687443
O O2 0.137626 0.215796 0.832160
O O3 0.126627 0.157479 0.514598
O O4 0.144268 0.097296 0.841945
O O5 0.747115 0.072464 0.901699
O O6 0.905350 0.121744 0.820252
O O7 0.888950 0.000000 0.939947
O O8 0.939255 0.628350 0.641907
O O9 0.873640 0.704288 0.410515
O O10 0.921473 0.752909 0.700819
O O11 0.875308 0.662433 0.077500
O O12 0.923074 0.566223 0.246088
O O13 0.910164 0.563461 0.907218
O O14 0.561899 0.000000 0.369060
O O15 0.271100 0.698388 0.762984
#
# Coordination Sequence:
#
# PCOD9190593 Si02
#       7
#     8   8   8   8   8   8   8
#     4   9  17  31  50  70  95 119 163 215 259 289
#     4  11  20  30  50  74  99 136 169 198 249 304
#     4   9  17  32  50  66  88 125 169 207 252 289
#     4  10  20  32  45  64  99 134 173 205 229 279
#     4  11  21  32  45  65 100 140 171 204 237 277
#     4   8  17  32  49  68  85 120 168 216 248 289
#     4   8  18  32  48  73  95 119 163 216 252 295
#
# _framework density 24.102969000000002
#
# number of rings (size 3 to 8) (size 9 to 14) (size 15 to 20)
#    0.000    2.571    1.429    3.429    2.000    2.857 
#    0.000    7.857    0.000    0.000    0.000    0.000 
#    0.000    2.286    0.000    6.714    0.000   15.714 
#
# Total GULP energy -156306.574280 kJ/mol
# GULP energy per Si atom -5582.377653 kJ/mol
# Density = 2.404811 g / cm^3
# Si number density = 24.102969 Si / 1000 Ang^3
#
#
#
# Elastic Constant Matrix: (Units=GPa)
#
#
# Indices 1 2 3 4 5 6 
#
# 1 55.7356 17.6555 -0.4032 0.0000 3.7976 0.0000
# 2 17.6555 227.0414 72.2846 0.0000 3.1063 0.0000
# 3 -0.4032 72.2846 100.3610 0.0000 -0.6027 0.0000
# 4 0.0000 0.0000 0.0000 154.1159 0.0000 -24.4169
# 5 3.7976 3.1063 -0.6027 0.0000 14.8286 0.0000
# 6 0.0000 0.0000 0.0000 -24.4169 0.0000 8.6553
#
#
#
# Elastic Compliance Matrix: (Units=1/GPa)
#
#
# Indices 1 2 3 4 5 6 
#
# 1 0.018834 -0.001843 0.001377 0.000000 -0.004381 0.000000
# 2 -0.001843 0.005923 -0.004279 0.000000 -0.000943 0.000000
# 3 0.001377 -0.004279 0.013058 0.000000 0.001075 0.000000
# 4 0.000000 0.000000 0.000000 0.011732 0.000000 0.033097
# 5 -0.004381 -0.000943 0.001075 0.000000 0.068800 0.000000
# 6 0.000000 0.000000 0.000000 0.033097 0.000000 0.208903
#
#
# Mechanical properties :
#
#
# Convention : Reuss Voigt Hill
#
# Bulk Modulus (GPa) = 35.30505 62.46795 48.88650
# Shear Modulus (GPa) = 14.44322 55.09337 34.76829
#
# Velocity S-wave (km/s) = 2.45057 4.78614 3.80213
# Velocity P-wave (km/s) = 4.76303 7.51773 6.29296
#
# Compressibility (1/GPa) = 0.02832456
#
# Stress axis : x y z
#
# Youngs Moduli (GPa) = 53.09502 168.83122 76.58110
#
# Poissons Ratio (x) = 0.31115 -0.10543
# Poissons Ratio (y) = 0.09785 0.32770
# Poissons Ratio (z) = -0.07310 0.72245
#
# Static dielectric constant tensor:
#      x y z
#    x 1.967530 0.000000 0.029640 
#    y 0.000000 1.959140 0.000000 
#    z 0.029640 0.000000 1.957360 
# 
# From -- ./inp_files/76833.got.cif
#   From: 2010.05.17/outbox.cif.g08.bks.cpg/sg12_39_cif.got.tgz:76833.got - 2010.06.03 13:09:07.
