data_PCOD9190712
_publ_section_title
;
Structure prediction by ZEFSAII (Michael W. Deem and Ramdas Pophale) SiO2 
 PCOD9190712
Probable space group: C 2/M
;
_chemical_formula_sum "Si O2"
_cell_formula_units_Z 52
_cell_length_a 18.358965
_cell_length_b 13.024655
_cell_length_c 10.771458
_cell_angle_alpha 90.000000
_cell_angle_beta 42.125088
_cell_angle_gamma 90.000000
_cell_volume 1727.629177
_symmetry_space_group_name_H-M "C 2/M"
_symmetry_group_IT_number 12
_symmetry_cell_setting 'monoclinic'
loop_
_space_group_symop_operation_xyz
x,y,z
-x,y,-z
-x,-y,-z
x,-y,z
1/2+x,1/2+y,z
1/2-x,1/2+y,-z
1/2-x,1/2-y,-z
1/2+x,1/2-y,z
loop_
_atom_site_type_symbol
_atom_site_label
_atom_site_fract_x
_atom_site_fract_y
_atom_site_fract_z
Si Si1 0.175339 0.382928 0.359408
Si Si2 0.000000 0.768083 0.500000
Si Si3 0.728445 0.123157 0.675680
Si Si4 0.621909 0.374856 0.744810
Si Si5 0.025439 0.617522 0.793807
Si Si6 0.575990 0.375647 0.159835
Si Si7 0.788446 0.623255 0.023470
O O1 0.180302 0.500000 0.306596
O O2 0.101871 0.309979 0.370356
O O3 0.294163 0.346184 0.251672
O O4 0.105500 0.386591 0.575006
O O5 0.988492 0.837668 0.636321
O O6 0.813001 0.156000 0.463899
O O7 0.605983 0.161078 0.797878
O O8 0.761394 0.138817 0.775753
O O9 0.721635 0.000000 0.668961
O O10 0.622822 0.500000 0.753062
O O11 0.497607 0.348937 0.867457
O O12 0.999004 0.500000 0.863266
O O13 0.911915 0.662050 0.887817
O O14 0.576883 0.500000 0.159613
O O15 0.701659 0.344848 0.028023
O O16 0.798701 0.500000 0.994571
#
# Coordination Sequence:
#
# PCOD9190712 Si02
#       7
#     8   4   8   8   8   8   8
#     4   9  19  35  53  73  95 122 163 209 244 276
#     4  12  22  32  50  74  98 130 164 200 244 278
#     4   8  12  19  37  65  93 122 155 191 235 284
#     4   8  15  30  49  68  96 129 157 194 240 282
#     4   8  14  26  44  66  93 124 157 195 239 282
#     4  10  20  32  47  72 103 130 157 189 234 296
#     4   9  15  24  42  68  97 127 155 187 233 289
#
# _framework density 30.099050999999999
#
# number of rings (size 3 to 8) (size 9 to 14) (size 15 to 20)
#    0.000    3.077    0.000    3.692    0.000    4.923 
#    0.000    0.769    0.000    0.000    0.000    3.231 
#    0.000    7.385    0.000    0.000    0.000   18.154 
#
# Total GULP energy -145874.316192 kJ/mol
# GULP energy per Si atom -5610.550623 kJ/mol
# Density = 3.003054 g / cm^3
# Si number density = 30.099051 Si / 1000 Ang^3
#
#
#
# Elastic Constant Matrix: (Units=GPa)
#
#
# Indices 1 2 3 4 5 6 
#
# 1 284.8112 71.5509 73.5379 0.0000 -56.9032 0.0000
# 2 71.5509 129.6056 33.0288 0.0000 -39.8193 0.0000
# 3 73.5379 33.0288 156.7410 0.0000 -51.6383 0.0000
# 4 0.0000 0.0000 0.0000 40.2164 0.0000 -27.9637
# 5 -56.9032 -39.8193 -51.6383 0.0000 81.1199 0.0000
# 6 0.0000 0.0000 0.0000 -27.9637 0.0000 55.3797
#
#
#
# Elastic Compliance Matrix: (Units=1/GPa)
#
#
# Indices 1 2 3 4 5 6 
#
# 1 0.004585 -0.001728 -0.001274 0.000000 0.001557 0.000000
# 2 -0.001728 0.009777 -0.000086 0.000000 0.003532 0.000000
# 3 -0.001274 -0.000086 0.008462 0.000000 0.004451 0.000000
# 4 0.000000 0.000000 0.000000 0.038320 0.000000 0.019349
# 5 0.001557 0.003532 0.004451 0.000000 0.017987 0.000000
# 6 0.000000 0.000000 0.000000 0.019349 0.000000 0.027827
#
#
# Mechanical properties :
#
#
# Convention : Reuss Voigt Hill
#
# Bulk Modulus (GPa) = 60.06634 103.04366 81.55500
# Shear Modulus (GPa) = 42.12872 61.54589 51.83730
#
# Velocity S-wave (km/s) = 3.74527 4.52683 4.15447
# Velocity P-wave (km/s) = 6.22112 7.85061 7.08288
#
# Compressibility (1/GPa) = 0.01664826
#
# Stress axis : x y z
#
# Youngs Moduli (GPa) = 218.08530 102.28139 118.17342
#
# Poissons Ratio (x) = 0.17678 0.15057
# Poissons Ratio (y) = 0.37693 0.01012
# Poissons Ratio (z) = 0.27787 0.00876
#
# Static dielectric constant tensor:
#      x y z
#    x 2.254450 0.000000 -0.000850 
#    y 0.000000 2.336450 0.000000 
#    z -0.000850 0.000000 2.313320 
# 
# From -- ./inp_files/225616.got.cif
#   From: 2010.05.17/outbox.cif.g08.bks.cpg/sg12_113_cif.got.tgz:225616.got - 2010.06.03 13:09:07.
