data_PCOD9190478
_publ_section_title
;
Structure prediction by ZEFSAII (Michael W. Deem and Ramdas Pophale) SiO2 
 PCOD9190478
Probable space group: C 2/M
;
_chemical_formula_sum "Si O2"
_cell_formula_units_Z 64
_cell_length_a 14.998135
_cell_length_b 7.696073
_cell_length_c 26.962176
_cell_angle_alpha 90.000000
_cell_angle_beta 59.390794
_cell_angle_gamma 90.000000
_cell_volume 2678.508996
_symmetry_space_group_name_H-M "C 2/M"
_symmetry_group_IT_number 12
_symmetry_cell_setting 'monoclinic'
loop_
_space_group_symop_operation_xyz
x,y,z
-x,y,-z
-x,-y,-z
x,-y,z
1/2+x,1/2+y,z
1/2-x,1/2+y,-z
1/2-x,1/2-y,-z
1/2+x,1/2-y,z
loop_
_atom_site_type_symbol
_atom_site_label
_atom_site_fract_x
_atom_site_fract_y
_atom_site_fract_z
Si Si1 0.481108 0.195543 0.357224
Si Si2 0.586067 0.787854 0.910022
Si Si3 0.272825 0.796129 0.300804
Si Si4 0.493473 0.693526 0.756463
Si Si5 0.779299 0.213934 0.791600
Si Si6 0.061606 0.804363 0.533686
Si Si7 0.239059 0.207541 0.420090
Si Si8 0.639852 0.208244 0.006700
O O1 0.506763 0.314136 0.303796
O O2 0.515497 0.226914 0.403269
O O3 0.358273 0.215720 0.401720
O O4 0.500810 0.000000 0.334831
O O5 0.670979 0.731358 0.846335
O O6 0.466791 0.730840 0.936459
O O7 0.585763 0.000000 0.909248
O O8 0.625750 0.734151 0.953502
O O9 0.398506 0.783526 0.260563
O O10 0.221145 0.724635 0.265538
O O11 0.241647 0.721102 0.363087
O O12 0.247119 0.000000 0.309771
O O13 0.497541 0.500000 0.776431
O O14 0.378680 0.770999 0.796085
O O15 0.782143 0.000000 0.790755
O O16 0.165370 0.714650 0.482958
O O17 0.000000 0.814794 0.500000
O O18 0.083584 0.000000 0.545673
O O19 0.213098 0.000000 0.424610
O O20 0.634469 0.000000 0.007193
O O21 0.750000 0.250000 0.000000
#
# Coordination Sequence:
#
# PCOD9190478 Si02
#       8
#     8   8   8   8   8   8   8   8
#     4  10  20  35  52  68  96 131 163 203 255 316
#     4   8  16  32  50  76 108 144 182 214 255 312
#     4   9  18  34  54  74 100 134 170 210 259 316
#     4  10  20  34  54  78 101 130 173 219 260 309
#     4   9  18  32  55  78 103 140 180 217 256 308
#     4  10  20  31  49  74  97 120 158 210 253 305
#     4   8  16  31  49  68  91 121 156 197 250 304
#     4   9  17  31  54  78 109 145 181 219 258 305
#
# _framework density 23.893889999999999
#
# number of rings (size 3 to 8) (size 9 to 14) (size 15 to 20)
#    0.000    2.875    0.000    2.625    1.750    1.250 
#    0.000    5.000    0.000    3.000    0.000    0.000 
#    0.000    0.000    0.000    0.000    0.000    0.000 
#
# Total GULP energy -178396.378190 kJ/mol
# GULP energy per Si atom -5574.886818 kJ/mol
# Density = 2.383951 g / cm^3
# Si number density = 23.893890 Si / 1000 Ang^3
#
#
#
# Elastic Constant Matrix: (Units=GPa)
#
#
# Indices 1 2 3 4 5 6 
#
# 1 113.2867 -9.9514 -6.6101 0.0000 -12.8263 0.0000
# 2 -9.9514 49.2491 -8.7132 0.0000 1.2923 0.0001
# 3 -6.6101 -8.7132 24.2563 -0.0001 -12.8988 -0.0001
# 4 0.0000 0.0000 -0.0001 5.7134 0.0000 -4.9663
# 5 -12.8263 1.2923 -12.8988 0.0000 28.3468 0.0000
# 6 0.0000 0.0001 -0.0001 -4.9663 0.0000 16.7224
#
#
#
# Elastic Compliance Matrix: (Units=1/GPa)
#
#
# Indices 1 2 3 4 5 6 
#
# 1 0.010615 0.003461 0.008715 0.000000 0.008610 0.000000
# 2 0.003461 0.023058 0.012532 0.000000 0.006217 0.000000
# 3 0.008715 0.012532 0.065824 0.000001 0.033324 0.000001
# 4 0.000000 0.000000 0.000001 0.235936 0.000001 0.070070
# 5 0.008610 0.006217 0.033324 0.000001 0.054053 0.000000
# 6 0.000000 0.000000 0.000001 0.070070 0.000000 0.080610
#
#
# Mechanical properties :
#
#
# Convention : Reuss Voigt Hill
#
# Bulk Modulus (GPa) = 6.71542 15.13806 10.92674
# Shear Modulus (GPa) = 10.63110 24.29432 17.46271
#
# Velocity S-wave (km/s) = 2.11162 3.19212 2.70635
# Velocity P-wave (km/s) = 2.96005 4.46492 3.78797
#
# Compressibility (1/GPa) = 0.14891092
#
# Stress axis : x y z
#
# Youngs Moduli (GPa) = 94.21067 43.36844 15.19210
#
# Poissons Ratio (x) = -0.15008 -0.13239
# Poissons Ratio (y) = -0.32603 -0.19039
# Poissons Ratio (z) = -0.82100 -0.54350
#
# Static dielectric constant tensor:
#      x y z
#    x 2.084340 0.000000 0.064370 
#    y 0.000000 1.911100 0.000000 
#    z 0.064370 0.000000 2.094540 
# 
# From -- ./inp_files/359714.got.cif
#   From: 2010.05.17/outbox.cif.g08.bks.cpg/sg12_180_cif.got.tgz:359714.got - 2010.06.03 13:09:07.
