data_PCOD9190601
_publ_section_title
;
Structure prediction by ZEFSAII (Michael W. Deem and Ramdas Pophale) SiO2 
 PCOD9190601
Probable space group: C 2/M
;
_chemical_formula_sum "Si O2"
_cell_formula_units_Z 48
_cell_length_a 14.016640
_cell_length_b 7.485157
_cell_length_c 17.033400
_cell_angle_alpha 90.000000
_cell_angle_beta 86.637775
_cell_angle_gamma 90.000000
_cell_volume 1784.012891
_symmetry_space_group_name_H-M "C 2/M"
_symmetry_group_IT_number 12
_symmetry_cell_setting 'monoclinic'
loop_
_space_group_symop_operation_xyz
x,y,z
-x,y,-z
-x,-y,-z
x,-y,z
1/2+x,1/2+y,z
1/2-x,1/2+y,-z
1/2-x,1/2-y,-z
1/2+x,1/2-y,z
loop_
_atom_site_type_symbol
_atom_site_label
_atom_site_fract_x
_atom_site_fract_y
_atom_site_fract_z
Si Si1 0.447681 0.794706 0.740281
Si Si2 0.637314 0.213411 0.928733
Si Si3 0.829598 0.788542 0.244131
Si Si4 0.413444 0.781922 0.905945
Si Si5 0.975445 0.716161 0.413480
Si Si6 0.762650 0.193916 0.406834
O O1 0.563673 0.794874 0.751279
O O2 0.399902 0.711017 0.818649
O O3 0.445785 0.722401 0.652377
O O4 0.415314 0.000000 0.739107
O O5 0.693176 0.270852 0.847858
O O6 0.525129 0.257673 0.918203
O O7 0.644456 0.000000 0.930728
O O8 0.649627 0.282419 0.017660
O O9 0.757711 0.722719 0.317280
O O10 0.837423 0.000000 0.256138
O O11 0.406398 0.000000 0.904333
O O12 0.963752 0.500000 0.407863
O O13 0.877017 0.809281 0.400796
O O14 0.000000 0.759299 0.500000
O O15 0.750000 0.250000 0.500000
O O16 0.714383 0.000000 0.406229
#
# Coordination Sequence:
#
# PCOD9190601 Si02
#       6
#     8   8   8   8   8   8
#     4   8  13  23  37  51  73 106 137 164 197 239
#     4   8  12  19  31  46  67  98 132 161 192 236
#     4   9  16  24  34  52  76 100 129 166 207 246
#     4   7  10  17  30  47  67  96 133 163 188 229
#     4   9  17  29  46  67  89 114 145 179 214 254
#     4  10  20  32  46  63  85 114 146 180 216 256
#
# _framework density 26.905635
#
# number of rings (size 3 to 8) (size 9 to 14) (size 15 to 20)
#    0.000    3.500    0.000    3.000    0.000    2.333 
#    0.000    6.667    0.000    0.000    0.000    0.000 
#    0.000    1.333    0.000    2.667    0.000   12.167 
#
# Total GULP energy -133689.066848 kJ/mol
# GULP energy per Si atom -5570.377785 kJ/mol
# Density = 2.684440 g / cm^3
# Si number density = 26.905635 Si / 1000 Ang^3
#
#
#
# Elastic Constant Matrix: (Units=GPa)
#
#
# Indices 1 2 3 4 5 6 
#
# 1 72.3463 4.6182 34.1863 0.0000 -34.1200 0.0000
# 2 4.6182 77.1260 24.8910 0.0000 4.4323 0.0000
# 3 34.1863 24.8910 400.3629 0.0000 4.6397 0.0000
# 4 0.0000 0.0000 0.0000 17.8508 0.0000 -5.7306
# 5 -34.1200 4.4323 4.6397 0.0000 41.0252 0.0000
# 6 0.0000 0.0000 0.0000 -5.7306 0.0000 -2.9815
#
#
#
# Elastic Compliance Matrix: (Units=1/GPa)
#
#
# Indices 1 2 3 4 5 6 
#
# 1 0.025080 -0.001997 -0.002265 0.000000 0.021330 0.000000
# 2 -0.001997 0.013464 -0.000631 0.000000 -0.003044 0.000000
# 3 -0.002265 -0.000631 0.002755 0.000000 -0.002127 0.000000
# 4 0.000000 0.000000 0.000000 0.034644 0.000000 -0.066586
# 5 0.021330 -0.003044 -0.002127 0.000000 0.042685 0.000000
# 6 0.000000 0.000000 0.000000 -0.066586 0.000000 -0.207417
#
#
# Mechanical properties :
#
#
# Convention : Reuss Voigt Hill
#
# Bulk Modulus (GPa) = 31.73231 75.24737 53.48984
# Shear Modulus (GPa) = -72.99274 43.58821 -14.70227
#
# Velocity S-wave (km/s) = -5.21422 4.02934 -2.34014
# Velocity P-wave (km/s) = 4.94279 7.04807 3.55275
#
# Compressibility (1/GPa) = 0.03151362
#
# Stress axis : x y z
#
# Youngs Moduli (GPa) = 39.87279 74.27202 362.97684
#
# Poissons Ratio (x) = 0.14830 0.82199
# Poissons Ratio (y) = 0.07961 0.22915
# Poissons Ratio (z) = 0.09029 0.04689
#
# Static dielectric constant tensor:
#      x y z
#    x 2.250330 0.000000 0.140630 
#    y 0.000000 1.852350 0.000000 
#    z 0.140630 0.000000 2.313850 
# 
# From -- ./inp_files/280055.got.cif
#   From: 2010.05.17/outbox.cif.g08.bks.cpg/sg12_141_cif.got.tgz:280055.got - 2010.06.03 13:09:07.
