data_PCOD9190422
_publ_section_title
;
Structure prediction by ZEFSAII (Michael W. Deem and Ramdas Pophale) SiO2 
 PCOD9190422
Probable space group: C 2/M
;
_chemical_formula_sum "Si O2"
_cell_formula_units_Z 64
_cell_length_a 29.475564
_cell_length_b 8.959356
_cell_length_c 17.227617
_cell_angle_alpha 90.000000
_cell_angle_beta 65.539391
_cell_angle_gamma 90.000000
_cell_volume 4141.169248
_symmetry_space_group_name_H-M "C 2/M"
_symmetry_group_IT_number 12
_symmetry_cell_setting 'monoclinic'
loop_
_space_group_symop_operation_xyz
x,y,z
-x,y,-z
-x,-y,-z
x,-y,z
1/2+x,1/2+y,z
1/2-x,1/2+y,-z
1/2-x,1/2-y,-z
1/2+x,1/2-y,z
loop_
_atom_site_type_symbol
_atom_site_label
_atom_site_fract_x
_atom_site_fract_y
_atom_site_fract_z
Si Si1 0.773895 0.320403 0.598802
Si Si2 0.728221 0.177236 0.226934
Si Si3 0.385538 0.677583 0.966080
Si Si4 0.675536 0.819676 0.595258
Si Si5 0.205139 0.822636 0.082157
Si Si6 0.498263 0.678475 0.910800
Si Si7 0.166176 0.671772 0.853173
Si Si8 0.090880 0.673283 0.762315
O O1 0.767243 0.500000 0.602891
O O2 0.790292 0.277916 0.673970
O O3 0.721203 0.246665 0.612950
O O4 0.812104 0.281546 0.502685
O O5 0.705546 0.258483 0.168572
O O6 0.786387 0.221766 0.186141
O O7 0.722581 0.000000 0.221580
O O8 0.381966 0.500000 0.987654
O O9 0.347593 0.705965 0.922650
O O10 0.443775 0.711565 0.914395
O O11 0.365873 0.773995 0.051522
O O12 0.622137 0.769106 0.666033
O O13 0.677094 0.000000 0.602166
O O14 0.213469 0.000000 0.077576
O O15 0.250000 0.750000 0.000000
O O16 0.504482 0.500000 0.909008
O O17 0.542345 0.743990 0.827668
O O18 0.500000 0.731474 0.000000
O O19 0.182781 0.500000 0.851119
O O20 0.131598 0.680146 0.802376
O O21 0.077905 0.500000 0.758476
#
# Coordination Sequence:
#
# PCOD9190422 Si02
#       8
#     8   8   8   8   8   8   8   8
#     4   9  18  30  47  69  95 128 161 195 236 284
#     4  11  21  32  47  70  98 130 166 199 235 282
#     4  10  21  36  49  66  94 127 162 201 238 280
#     4   9  17  31  47  68  98 127 157 195 240 286
#     4  11  22  34  50  71  96 127 163 200 240 284
#     4  10  20  33  50  69  92 126 161 195 236 284
#     4  11  20  29  46  70  97 130 163 196 234 277
#     4  10  20  31  46  71  99 128 159 196 238 282
#
# _framework density 15.454573
#
# number of rings (size 3 to 8) (size 9 to 14) (size 15 to 20)
#    0.000    1.875    3.750    1.125    0.000    2.750 
#    0.000    0.000    0.000    0.000    0.000    0.875 
#    0.000    7.000    0.000    0.000    0.000    0.000 
#
# Total GULP energy -178427.133521 kJ/mol
# GULP energy per Si atom -5575.847923 kJ/mol
# Density = 1.541940 g / cm^3
# Si number density = 15.454573 Si / 1000 Ang^3
#
#
#
# Elastic Constant Matrix: (Units=GPa)
#
#
# Indices 1 2 3 4 5 6 
#
# 1 83.9302 30.8592 56.3011 0.0000 -8.4776 0.0000
# 2 30.8592 26.9197 38.9836 0.0000 0.4659 0.0000
# 3 56.3011 38.9836 138.7142 0.0000 -8.9503 0.0000
# 4 0.0000 0.0000 0.0000 19.8172 0.0000 -0.6787
# 5 -8.4776 0.4659 -8.9503 0.0000 21.3804 0.0000
# 6 0.0000 0.0000 0.0000 -0.6787 0.0000 22.7109
#
#
#
# Elastic Compliance Matrix: (Units=1/GPa)
#
#
# Indices 1 2 3 4 5 6 
#
# 1 0.022715 -0.022999 -0.002202 0.000000 0.008586 0.000000
# 2 -0.022999 0.087651 -0.016454 0.000000 -0.017918 0.000000
# 3 -0.002202 -0.016454 0.013046 0.000000 0.004947 0.000000
# 4 0.000000 0.000000 0.000000 0.050513 0.000000 0.001510
# 5 0.008586 -0.017918 0.004947 0.000000 0.052638 0.000000
# 6 0.000000 0.000000 0.000000 0.001510 0.000000 0.044077
#
#
# Mechanical properties :
#
#
# Convention : Reuss Voigt Hill
#
# Bulk Modulus (GPa) = 24.93684 55.76131 40.34907
# Shear Modulus (GPa) = 13.61217 21.00972 17.31095
#
# Velocity S-wave (km/s) = 2.97102 3.69107 3.35045
# Velocity P-wave (km/s) = 5.28582 7.37051 6.41344
#
# Compressibility (1/GPa) = 0.04010131
#
# Stress axis : x y z
#
# Youngs Moduli (GPa) = 44.02293 11.40890 76.65056
#
# Poissons Ratio (x) = 0.26240 0.16879
# Poissons Ratio (y) = 1.01250 1.26122
# Poissons Ratio (z) = 0.09694 0.18772
#
# Static dielectric constant tensor:
#      x y z
#    x 1.497950 0.000000 0.005660 
#    y 0.000000 1.522300 0.000000 
#    z 0.005660 0.000000 1.537750 
# 
# From -- ./inp_files/294561.got.cif
#   From: 2010.05.17/outbox.cif.g08.bks.cpg/sg12_148_cif.got.tgz:294561.got - 2010.06.03 13:09:07.
