data_PCOD9190901
_publ_section_title
;
Structure prediction by ZEFSAII (Michael W. Deem and Ramdas Pophale) SiO2 
 PCOD9190901
Probable space group: C 2/M
;
_chemical_formula_sum "Si O2"
_cell_formula_units_Z 64
_cell_length_a 13.105678
_cell_length_b 22.261863
_cell_length_c 18.621109
_cell_angle_alpha 90.000000
_cell_angle_beta 45.266586
_cell_angle_gamma 90.000000
_cell_volume 3859.427238
_symmetry_space_group_name_H-M "C 2/M"
_symmetry_group_IT_number 12
_symmetry_cell_setting 'monoclinic'
loop_
_space_group_symop_operation_xyz
x,y,z
-x,y,-z
-x,-y,-z
x,-y,z
1/2+x,1/2+y,z
1/2-x,1/2+y,-z
1/2-x,1/2-y,-z
1/2+x,1/2-y,z
loop_
_atom_site_type_symbol
_atom_site_label
_atom_site_fract_x
_atom_site_fract_y
_atom_site_fract_z
Si Si1 0.576846 0.853793 0.117785
Si Si2 0.263805 0.152853 0.615402
Si Si3 0.077293 0.071068 0.802961
Si Si4 0.812414 0.146208 0.882216
Si Si5 0.005390 0.347147 0.615402
Si Si6 0.377614 0.932488 0.122385
Si Si7 0.485483 0.250000 0.264517
Si Si8 0.316784 0.071068 0.802961
O O1 0.452572 0.897111 0.149614
O O2 0.503597 0.796159 0.189763
O O3 0.668627 0.889874 0.132240
O O4 0.682391 0.837539 0.000001
O O5 0.175762 0.095543 0.688689
O O6 0.345842 0.142879 0.500000
O O7 0.385054 0.165142 0.614946
O O8 0.155586 0.208792 0.666250
O O9 0.171132 0.081675 0.828868
O O10 0.933105 0.110126 0.867761
O O11 0.048801 0.000000 0.812021
O O12 0.751800 0.102890 0.850386
O O13 0.883122 0.203842 0.810239
O O14 0.011914 0.291208 0.666250
O O15 0.946859 0.404457 0.688689
O O16 0.337483 0.000000 0.162515
O O17 0.500000 0.935697 0.000000
O O18 0.327155 0.000000 0.812022
#
# Coordination Sequence:
#
# PCOD9190901 Si02
#       8
#     8   8   8   8   8   8   8   8
#     4  10  20  33  49  72 100 134 169 207 249 291
#     4   9  18  32  50  72  97 125 159 202 249 297
#     4   9  18  32  50  74 101 129 163 201 245 297
#     4  10  20  33  49  72 100 134 169 207 249 291
#     4   9  18  32  50  72  97 125 159 202 249 297
#     4   9  18  32  50  70  93 127 172 211 243 287
#     4  10  20  32  50  70 100 128 166 204 248 300
#     4   9  18  32  50  74 101 129 163 201 245 297
#
# _framework density 16.582771000000001
#
# number of rings (size 3 to 8) (size 9 to 14) (size 15 to 20)
#    0.000    2.625    0.000    1.500    1.750    2.500 
#    0.000    3.750    0.000    0.000    0.000    0.000 
#    0.000   10.500    0.000    0.000    0.000    0.000 
#
# Total GULP energy -178299.950692 kJ/mol
# GULP energy per Si atom -5571.873459 kJ/mol
# Density = 1.654503 g / cm^3
# Si number density = 16.582771 Si / 1000 Ang^3
#
#
#
# Elastic Constant Matrix: (Units=GPa)
#
#
# Indices 1 2 3 4 5 6 
#
# 1 38.3277 2.3379 -0.4811 0.0000 0.3393 0.0001
# 2 2.3379 37.1709 -15.1267 0.0000 0.2912 0.0001
# 3 -0.4811 -15.1267 45.1117 -0.0002 -0.4500 0.0001
# 4 0.0000 0.0000 -0.0002 9.6070 0.0000 0.2357
# 5 0.3393 0.2912 -0.4500 0.0000 9.2329 0.0000
# 6 0.0001 0.0001 0.0001 0.2357 0.0000 23.8031
#
#
#
# Elastic Compliance Matrix: (Units=1/GPa)
#
#
# Indices 1 2 3 4 5 6 
#
# 1 0.026203 -0.001773 -0.000324 0.000000 -0.000923 0.000000
# 2 -0.001773 0.031276 0.010464 0.000000 -0.000411 0.000000
# 3 -0.000324 0.010464 0.025682 0.000000 0.000934 0.000000
# 4 0.000000 0.000000 0.000000 0.104116 0.000001 -0.001031
# 5 -0.000923 -0.000411 0.000934 0.000001 0.108401 0.000000
# 6 0.000000 0.000000 0.000000 -0.001031 0.000000 0.042021
#
#
# Mechanical properties :
#
#
# Convention : Reuss Voigt Hill
#
# Bulk Modulus (GPa) = 10.01044 10.45227 10.23135
# Shear Modulus (GPa) = 14.11383 17.45397 15.78390
#
# Velocity S-wave (km/s) = 2.92055 3.24780 3.08851
# Velocity P-wave (km/s) = 4.17404 4.51454 4.34762
#
# Compressibility (1/GPa) = 0.09989572
#
# Stress axis : x y z
#
# Youngs Moduli (GPa) = 38.16358 31.97349 38.93786
#
# Poissons Ratio (x) = 0.05668 0.01262
# Poissons Ratio (y) = 0.06765 -0.40746
# Poissons Ratio (z) = 0.01237 -0.33458
#
# Static dielectric constant tensor:
#      x y z
#    x 1.562820 0.000000 0.000120 
#    y 0.000000 1.541720 0.000000 
#    z 0.000120 0.000000 1.555520 
# 
# From -- ./inp_files/265069.got.cif
#   From: 2010.05.17/outbox.cif.g08.bks.cpg/sg12_133_cif.got.tgz:265069.got - 2010.06.03 13:09:07.
