data_PCOD9190717
_publ_section_title
;
Structure prediction by ZEFSAII (Michael W. Deem and Ramdas Pophale) SiO2 
 PCOD9190717
Probable space group: C 2/M
;
_chemical_formula_sum "Si O2"
_cell_formula_units_Z 56
_cell_length_a 31.062410
_cell_length_b 8.720608
_cell_length_c 17.253287
_cell_angle_alpha 90.000000
_cell_angle_beta 134.106072
_cell_angle_gamma 90.000000
_cell_volume 3355.907519
_symmetry_space_group_name_H-M "C 2/M"
_symmetry_group_IT_number 12
_symmetry_cell_setting 'monoclinic'
loop_
_space_group_symop_operation_xyz
x,y,z
-x,y,-z
-x,-y,-z
x,-y,z
1/2+x,1/2+y,z
1/2-x,1/2+y,-z
1/2-x,1/2-y,-z
1/2+x,1/2-y,z
loop_
_atom_site_type_symbol
_atom_site_label
_atom_site_fract_x
_atom_site_fract_y
_atom_site_fract_z
Si Si1 0.193404 0.315144 0.105838
Si Si2 0.011460 0.316581 0.301457
Si Si3 0.556121 0.314928 0.516180
Si Si4 0.027134 0.184999 0.155322
Si Si5 0.406000 0.315443 0.913659
Si Si6 0.628156 0.185094 0.865034
Si Si7 0.827792 0.814663 0.241219
O O1 0.191738 0.500000 0.106233
O O2 0.154543 0.252070 0.127932
O O3 0.262587 0.266088 0.189771
O O4 0.161193 0.266236 0.985308
O O5 0.012766 0.500000 0.303875
O O6 0.941562 0.266784 0.220742
O O7 0.046530 0.252306 0.419188
O O8 0.035630 0.256215 0.249917
O O9 0.500000 0.268124 0.500000
O O10 0.555577 0.500000 0.510691
O O11 0.617652 0.266625 0.634728
O O12 0.075153 0.230528 0.149709
O O13 0.027729 0.000000 0.161649
O O14 0.961862 0.230243 0.039145
O O15 0.403269 0.500000 0.911724
O O16 0.659718 0.251707 0.828788
O O17 0.630043 0.000000 0.863880
O O18 0.828374 0.000000 0.238030
#
# Coordination Sequence:
#
# PCOD9190717 Si02
#       7
#     8   8   8   8   8   8   8
#     4  10  20  34  50  74 107 137 166 206 253 303
#     4  11  21  32  51  78 105 133 165 206 257 303
#     4  10  20  35  53  72  96 134 178 215 250 290
#     4   9  18  33  52  76 104 133 167 206 246 298
#     4   9  18  32  52  77 103 133 168 203 247 301
#     4  10  20  32  47  73 107 136 164 202 253 304
#     4  10  21  35  52  72  98 137 180 211 244 295
#
# _framework density 16.686993000000001
#
# number of rings (size 3 to 8) (size 9 to 14) (size 15 to 20)
#    0.000    2.143    2.857    1.714    0.000    3.143 
#    0.000    1.429    0.000    0.857    0.000    0.000 
#    0.000    0.000    0.000    0.000    0.000    0.000 
#
# Total GULP energy -156250.273422 kJ/mol
# GULP energy per Si atom -5580.366908 kJ/mol
# Density = 1.664901 g / cm^3
# Si number density = 16.686993 Si / 1000 Ang^3
#
#
#
# Elastic Constant Matrix: (Units=GPa)
#
#
# Indices 1 2 3 4 5 6 
#
# 1 161.3373 26.7390 76.6576 0.0000 -7.6443 0.0000
# 2 26.7390 6.3431 19.2305 0.0000 -2.0373 0.0000
# 3 76.6576 19.2305 85.6123 0.0000 -4.8382 0.0000
# 4 0.0000 0.0000 0.0000 12.8768 0.0000 -4.1920
# 5 -7.6443 -2.0373 -4.8382 0.0000 31.9659 0.0000
# 6 0.0000 0.0000 0.0000 -4.1920 0.0000 27.8868
#
#
#
# Elastic Compliance Matrix: (Units=1/GPa)
#
#
# Indices 1 2 3 4 5 6 
#
# 1 0.020891 -0.098651 0.003409 0.000000 -0.000775 0.000000
# 2 -0.098651 0.967093 -0.127843 -0.000001 0.018696 0.000000
# 3 0.003409 -0.127843 0.037249 0.000000 -0.001695 0.000000
# 4 0.000000 -0.000001 0.000000 0.081655 0.000000 0.012274
# 5 -0.000775 0.018696 -0.001695 0.000000 0.032033 0.000000
# 6 0.000000 0.000000 0.000000 0.012274 0.000000 0.037704
#
#
# Mechanical properties :
#
#
# Convention : Reuss Voigt Hill
#
# Bulk Modulus (GPa) = 1.72692 55.39411 28.56052
# Shear Modulus (GPa) = 2.75358 23.25694 13.00526
#
# Velocity S-wave (km/s) = 1.28597 3.73730 2.79474
# Velocity P-wave (km/s) = 1.80058 7.20356 5.25040
#
# Compressibility (1/GPa) = 0.57906412
#
# Stress axis : x y z
#
# Youngs Moduli (GPa) = 47.86674 1.03403 26.84665
#
# Poissons Ratio (x) = 0.10201 -0.09153
# Poissons Ratio (y) = 4.72210 3.43215
# Poissons Ratio (z) = -0.16319 0.13219
#
# Static dielectric constant tensor:
#      x y z
#    x 1.551710 0.000000 0.010890 
#    y 0.000000 1.561200 0.000000 
#    z 0.010890 0.000000 1.544320 
# 
# From -- ./inp_files/237784.got.cif
#   From: 2010.05.17/outbox.cif.g08.bks.cpg/sg12_119_cif.got.tgz:237784.got - 2010.06.03 13:09:07.
