data_PCOD9190764
_publ_section_title
;
Structure prediction by ZEFSAII (Michael W. Deem and Ramdas Pophale) SiO2 
 PCOD9190764
Probable space group: C 2/M
;
_chemical_formula_sum "Si O2"
_cell_formula_units_Z 64
_cell_length_a 29.092682
_cell_length_b 16.072853
_cell_length_c 8.021392
_cell_angle_alpha 90.000000
_cell_angle_beta 92.920089
_cell_angle_gamma 90.000000
_cell_volume 3745.951931
_symmetry_space_group_name_H-M "C 2/M"
_symmetry_group_IT_number 12
_symmetry_cell_setting 'monoclinic'
loop_
_space_group_symop_operation_xyz
x,y,z
-x,y,-z
-x,-y,-z
x,-y,z
1/2+x,1/2+y,z
1/2-x,1/2+y,-z
1/2-x,1/2-y,-z
1/2+x,1/2-y,z
loop_
_atom_site_type_symbol
_atom_site_label
_atom_site_fract_x
_atom_site_fract_y
_atom_site_fract_z
Si Si1 0.184850 0.777716 0.350641
Si Si2 0.733894 0.409245 0.913758
Si Si3 0.221081 0.650356 0.739653
Si Si4 0.805747 0.409328 0.621991
Si Si5 0.016656 0.899757 0.321848
Si Si6 0.337552 0.297253 0.274940
Si Si7 0.580614 0.595110 0.816604
Si Si8 0.386742 0.404550 0.798197
O O1 0.237372 0.785943 0.298839
O O2 0.170123 0.680636 0.346337
O O3 0.180152 0.809261 0.539601
O O4 0.154297 0.840776 0.238936
O O5 0.711598 0.500000 0.925700
O O6 0.767517 0.410281 0.760415
O O7 0.694496 0.344199 0.863867
O O8 0.762213 0.392076 0.087523
O O9 0.214925 0.597564 0.569495
O O10 0.173595 0.700445 0.759779
O O11 0.829872 0.500000 0.637996
O O12 0.973252 0.881628 0.195794
O O13 0.000000 0.872472 0.500000
O O14 0.067613 0.871160 0.287063
O O15 0.021050 0.000000 0.321756
O O16 0.387720 0.337833 0.270977
O O17 0.584684 0.500000 0.746347
O O18 0.598514 0.592060 0.007445
O O19 0.375430 0.500000 0.742883
#
# Coordination Sequence:
#
# PCOD9190764 Si02
#       8
#     8   8   8   8   8   8   8   8
#     4  11  21  35  51  72 100 137 173 213 264 298
#     4  11  21  32  50  70  94 135 175 207 256 303
#     4  11  21  36  50  70 101 134 169 220 264 303
#     4  10  21  37  51  70  98 131 174 218 255 303
#     4   9  17  32  50  70  99 134 168 206 249 298
#     4  11  20  33  48  70  98 131 172 212 252 301
#     4  10  20  32  48  72 103 137 171 207 250 302
#     4  10  21  33  50  75 104 137 171 208 253 306
#
# _framework density 17.08511
#
# number of rings (size 3 to 8) (size 9 to 14) (size 15 to 20)
#    0.000    1.625    2.500    3.750    1.750    5.500 
#    0.000    0.000    0.000    0.000    0.000    0.000 
#    0.000   15.500    0.000    0.000    0.000    0.500 
#
# Total GULP energy -178321.804823 kJ/mol
# GULP energy per Si atom -5572.556401 kJ/mol
# Density = 1.704622 g / cm^3
# Si number density = 17.085110 Si / 1000 Ang^3
#
#
#
# Elastic Constant Matrix: (Units=GPa)
#
#
# Indices 1 2 3 4 5 6 
#
# 1 50.0985 21.0579 1.4915 0.0000 -3.7833 0.0000
# 2 21.0579 81.0838 16.2353 0.0000 0.6651 0.0000
# 3 1.4915 16.2353 66.5210 0.0000 3.3942 0.0000
# 4 0.0000 0.0000 0.0000 3.2808 0.0000 -1.0850
# 5 -3.7833 0.6651 3.3942 0.0000 26.6689 0.0000
# 6 0.0000 0.0000 0.0000 -1.0850 0.0000 20.2895
#
#
#
# Elastic Compliance Matrix: (Units=1/GPa)
#
#
# Indices 1 2 3 4 5 6 
#
# 1 0.022747 -0.006097 0.000811 0.000000 0.003276 0.000000
# 2 -0.006097 0.014601 -0.003386 0.000000 -0.000798 0.000000
# 3 0.000811 -0.003386 0.015934 0.000000 -0.001829 0.000000
# 4 0.000000 0.000000 0.000000 0.310288 0.000000 0.016593
# 5 0.003276 -0.000798 -0.001829 0.000000 0.038214 0.000000
# 6 0.000000 0.000000 0.000000 0.016593 0.000000 0.050174
#
#
# Mechanical properties :
#
#
# Convention : Reuss Voigt Hill
#
# Bulk Modulus (GPa) = 27.82581 30.58587 29.20584
# Shear Modulus (GPa) = 10.38894 20.64242 15.51568
#
# Velocity S-wave (km/s) = 2.46858 3.47970 3.01681
# Velocity P-wave (km/s) = 4.94440 5.83827 5.40983
#
# Compressibility (1/GPa) = 0.03593786
#
# Stress axis : x y z
#
# Youngs Moduli (GPa) = 43.96278 68.48954 62.75740
#
# Poissons Ratio (x) = 0.41755 -0.05088
# Poissons Ratio (y) = 0.26802 0.21250
# Poissons Ratio (z) = -0.03564 0.23191
#
# Static dielectric constant tensor:
#      x y z
#    x 1.580030 0.000000 -0.006630 
#    y 0.000000 1.611300 0.000000 
#    z -0.006630 0.000000 1.630990 
# 
# From -- ./inp_files/111225.got.cif
#   From: 2010.05.17/outbox.cif.g08.bks.cpg/sg12_56_cif.got.tgz:111225.got - 2010.06.03 13:09:07.
