data_PCOD9190039
_publ_section_title
;
Structure prediction by ZEFSAII (Michael W. Deem and Ramdas Pophale) SiO2 
 PCOD9190039
Probable space group: C 2/M
;
_chemical_formula_sum "Si O2"
_cell_formula_units_Z 44
_cell_length_a 9.878328
_cell_length_b 24.557577
_cell_length_c 11.799737
_cell_angle_alpha 90.000000
_cell_angle_beta 144.201506
_cell_angle_gamma 90.000000
_cell_volume 1674.364085
_symmetry_space_group_name_H-M "C 2/M"
_symmetry_group_IT_number 12
_symmetry_cell_setting 'monoclinic'
loop_
_space_group_symop_operation_xyz
x,y,z
-x,y,-z
-x,-y,-z
x,-y,z
1/2+x,1/2+y,z
1/2-x,1/2+y,-z
1/2-x,1/2-y,-z
1/2+x,1/2-y,z
loop_
_atom_site_type_symbol
_atom_site_label
_atom_site_fract_x
_atom_site_fract_y
_atom_site_fract_z
Si Si1 0.994487 0.230137 0.360509
Si Si2 0.500000 0.212562 0.000000
Si Si3 0.566753 0.878437 0.852422
Si Si4 0.000000 0.094972 0.000000
Si Si5 0.455131 0.000000 0.157006
Si Si6 0.274863 0.000000 0.266561
Si Si7 0.437169 0.500000 0.589008
Si Si8 0.918363 0.114030 0.576343
O O1 0.250000 0.250000 0.500000
O O2 0.982669 0.168302 0.305496
O O3 0.000000 0.230866 0.500000
O O4 0.733932 0.248880 0.153853
O O5 0.495643 0.171106 0.105489
O O6 0.540391 0.939584 0.892537
O O7 0.357611 0.880503 0.618293
O O8 0.806203 0.875413 0.946080
O O9 0.847362 0.058760 0.806785
O O10 0.664328 0.000000 0.390129
O O11 0.257680 0.000000 0.115650
O O12 0.500000 0.000000 0.500000
O O13 0.500000 0.500000 0.500000
O O14 0.508135 0.557202 0.685956
O O15 0.000000 0.113270 0.500000
#
# Coordination Sequence:
#
# PCOD9190039 Si02
#       8
#     8   4   8   4   4   4   4   8
#     4  11  25  50  74 104 140 178 233 299 352 422
#     4  12  24  45  73 100 139 181 223 292 373 422
#     4  10  19  39  64  95 141 186 223 283 347 404
#     4   9  20  38  55  88 137 174 231 300 333 399
#     4   8  17  32  57  86 138 184 226 279 326 402
#     4   9  17  36  56  78 122 190 250 284 328 390
#     4   8  14  25  56  90 124 182 209 249 341 390
#     4   9  16  37  63  92 138 180 219 276 333 406
#
# _framework density 26.278631000000001
#
# number of rings (size 3 to 8) (size 9 to 14) (size 15 to 20)
#    0.000    2.364    3.636    0.545    0.000    1.091 
#   13.091    0.909    0.000    0.000    0.000    0.000 
#    0.000    0.000    0.000    0.000    0.000    0.000 
#
# Total GULP energy -122486.138983 kJ/mol
# GULP energy per Si atom -5567.551772 kJ/mol
# Density = 2.621882 g / cm^3
# Si number density = 26.278631 Si / 1000 Ang^3
#
#
#
# Elastic Constant Matrix: (Units=GPa)
#
#
# Indices 1 2 3 4 5 6 
#
# 1 142.1089 22.4769 23.5496 0.0000 15.7871 0.0000
# 2 22.4769 94.6427 18.8306 0.0000 10.2858 0.0000
# 3 23.5496 18.8306 167.8716 0.0000 33.4487 0.0000
# 4 0.0000 0.0000 0.0000 114.0157 0.0000 30.0764
# 5 15.7871 10.2858 33.4487 0.0000 46.3890 0.0000
# 6 0.0000 0.0000 0.0000 30.0764 0.0000 12.9203
#
#
#
# Elastic Compliance Matrix: (Units=1/GPa)
#
#
# Indices 1 2 3 4 5 6 
#
# 1 0.007567 -0.001490 -0.000522 0.000000 -0.001868 0.000000
# 2 -0.001490 0.011228 -0.000765 0.000000 -0.001431 0.000000
# 3 -0.000522 -0.000765 0.007061 0.000000 -0.004744 0.000000
# 4 0.000000 0.000000 0.000000 0.022726 0.000000 -0.052902
# 5 -0.001868 -0.001431 -0.004744 0.000000 0.025931 0.000000
# 6 0.000000 0.000000 0.000000 -0.052902 0.000000 0.200545
#
#
# Mechanical properties :
#
#
# Convention : Reuss Voigt Hill
#
# Bulk Modulus (GPa) = 49.25979 59.37083 54.31531
# Shear Modulus (GPa) = 17.39861 57.31607 37.35734
#
# Velocity S-wave (km/s) = 2.57589 4.67528 3.77448
# Velocity P-wave (km/s) = 5.25669 7.19626 6.30155
#
# Compressibility (1/GPa) = 0.02030053
#
# Stress axis : x y z
#
# Youngs Moduli (GPa) = 132.15977 89.06545 141.61685
#
# Poissons Ratio (x) = 0.13272 0.07393
# Poissons Ratio (y) = 0.19693 0.10839
# Poissons Ratio (z) = 0.06900 0.06817
#
# Static dielectric constant tensor:
#      x y z
#    x 2.076060 0.000000 -0.010740 
#    y 0.000000 2.277730 0.000000 
#    z -0.010740 0.000000 2.125600 
# 
# From -- ./inp_files/209259.got.cif
#   From: 2010.05.17/outbox.cif.g08.bks.cpg/sg12_105_cif.got.tgz:209259.got - 2010.06.03 13:09:07.
