data_PCOD9190083
_publ_section_title
;
Structure prediction by ZEFSAII (Michael W. Deem and Ramdas Pophale) SiO2 
 PCOD9190083
Probable space group: C 2/M
;
_chemical_formula_sum "Si O2"
_cell_formula_units_Z 42
_cell_length_a 16.321131
_cell_length_b 7.479269
_cell_length_c 15.964103
_cell_angle_alpha 90.000000
_cell_angle_beta 64.425674
_cell_angle_gamma 90.000000
_cell_volume 1757.814351
_symmetry_space_group_name_H-M "C 2/M"
_symmetry_group_IT_number 12
_symmetry_cell_setting 'monoclinic'
loop_
_space_group_symop_operation_xyz
x,y,z
-x,y,-z
-x,-y,-z
x,-y,z
1/2+x,1/2+y,z
1/2-x,1/2+y,-z
1/2-x,1/2-y,-z
1/2+x,1/2-y,z
loop_
_atom_site_type_symbol
_atom_site_label
_atom_site_fract_x
_atom_site_fract_y
_atom_site_fract_z
Si Si1 0.009213 0.281917 0.400143
Si Si2 0.844508 0.204480 0.202725
Si Si3 0.550116 0.708758 0.092248
Si Si4 0.335236 0.216865 0.793966
Si Si5 0.823739 0.287820 0.396475
Si Si6 0.000000 0.500000 0.000000
O O1 0.009226 0.500000 0.401369
O O2 0.920933 0.223961 0.387436
O O3 0.000000 0.222325 0.500000
O O4 0.098388 0.224655 0.310864
O O5 0.765953 0.284669 0.179732
O O6 0.804771 0.206553 0.314450
O O7 0.947506 0.276733 0.163415
O O8 0.856677 0.000000 0.170676
O O9 0.550158 0.500000 0.069717
O O10 0.617873 0.731143 0.139839
O O11 0.567133 0.841609 0.008783
O O12 0.332488 0.000000 0.793369
O O13 0.828695 0.500000 0.381837
O O14 0.750000 0.250000 0.500000
#
# Coordination Sequence:
#
# PCOD9190083 Si02
#       6
#     8   8   8   8   8   2
#     4   9  17  30  53  84 121 173 230 271 321 388
#     4  10  22  39  66  96 132 174 221 272 332 398
#     4  11  24  45  73 104 134 173 220 276 339 408
#     4  10  19  39  67  94 131 180 219 270 338 400
#     4  11  21  33  54  85 127 176 225 276 326 380
#     4  12  26  48  80  98 138 174 216 276 350 414
#
# _framework density 23.893305999999999
#
# number of rings (size 3 to 8) (size 9 to 14) (size 15 to 20)
#    0.000    1.714    2.857    2.000    1.333    3.810 
#    0.000    0.952    0.000    2.857    0.000    0.000 
#    0.000    0.000    0.000    0.000    0.000    0.000 
#
# Total GULP energy -117182.460229 kJ/mol
# GULP energy per Si atom -5580.117154 kJ/mol
# Density = 2.383892 g / cm^3
# Si number density = 23.893306 Si / 1000 Ang^3
#
#
#
# Elastic Constant Matrix: (Units=GPa)
#
#
# Indices 1 2 3 4 5 6 
#
# 1 206.1347 22.5918 53.9436 0.0000 12.9421 0.0000
# 2 22.5918 120.4793 4.7391 0.0000 3.7141 -0.0001
# 3 53.9436 4.7391 82.3275 0.0000 5.1689 0.0000
# 4 0.0000 0.0000 0.0000 -6.6000 0.0000 12.2447
# 5 12.9421 3.7141 5.1689 0.0000 47.6225 0.0000
# 6 0.0000 -0.0001 0.0000 12.2447 0.0000 8.6014
#
#
#
# Elastic Compliance Matrix: (Units=1/GPa)
#
#
# Indices 1 2 3 4 5 6 
#
# 1 0.006027 -0.000944 -0.003823 0.000000 -0.001149 0.000000
# 2 -0.000944 0.008484 0.000157 0.000000 -0.000422 0.000000
# 3 -0.003823 0.000157 0.014678 0.000000 -0.000566 0.000000
# 4 0.000000 0.000000 0.000000 -0.041613 0.000000 0.059238
# 5 -0.001149 -0.000422 -0.000566 0.000000 0.021405 0.000000
# 6 0.000000 0.000000 0.000000 0.059238 0.000000 0.031930
#
#
# Mechanical properties :
#
#
# Convention : Reuss Voigt Hill
#
# Bulk Modulus (GPa) = 50.07791 63.49893 56.78842
# Shear Modulus (GPa) = 88.04578 31.76925 59.90751
#
# Velocity S-wave (km/s) = 6.07697 3.65036 5.01272
# Velocity P-wave (km/s) = 8.38116 6.66338 7.57115
#
# Compressibility (1/GPa) = 0.01996889
#
# Stress axis : x y z
#
# Youngs Moduli (GPa) = 165.91352 117.86744 68.12958
#
# Poissons Ratio (x) = 0.11131 0.26044
# Poissons Ratio (y) = 0.15669 -0.01069
# Poissons Ratio (z) = 0.63424 -0.01850
#
# Static dielectric constant tensor:
#      x y z
#    x 1.885560 0.000000 -0.022940 
#    y 0.000000 1.908370 0.000000 
#    z -0.022940 0.000000 1.990270 
# 
# From -- ./inp_files/267509.got.cif
#   From: 2010.05.17/outbox.cif.g08.bks.cpg/sg12_134_cif.got.tgz:267509.got - 2010.06.03 13:09:07.
