data_PCOD9190329
_publ_section_title
;
Structure prediction by ZEFSAII (Michael W. Deem and Ramdas Pophale) SiO2 
 PCOD9190329
Probable space group: C 2/M
;
_chemical_formula_sum "Si O2"
_cell_formula_units_Z 64
_cell_length_a 20.158046
_cell_length_b 7.322672
_cell_length_c 24.516775
_cell_angle_alpha 90.000000
_cell_angle_beta 51.593836
_cell_angle_gamma 90.000000
_cell_volume 2835.897568
_symmetry_space_group_name_H-M "C 2/M"
_symmetry_group_IT_number 12
_symmetry_cell_setting 'monoclinic'
loop_
_space_group_symop_operation_xyz
x,y,z
-x,y,-z
-x,-y,-z
x,-y,z
1/2+x,1/2+y,z
1/2-x,1/2+y,-z
1/2-x,1/2-y,-z
1/2+x,1/2-y,z
loop_
_atom_site_type_symbol
_atom_site_label
_atom_site_fract_x
_atom_site_fract_y
_atom_site_fract_z
Si Si1 0.636397 0.222427 0.926193
Si Si2 0.665763 0.721374 0.651204
Si Si3 0.081406 0.221958 0.345524
Si Si4 0.173683 0.223064 0.191055
Si Si5 0.388453 0.278347 0.436640
Si Si6 0.989405 0.211142 0.790626
Si Si7 0.506423 0.779706 0.084394
Si Si8 0.649341 0.709401 0.423823
O O1 0.732824 0.284605 0.873152
O O2 0.578648 0.277817 0.904082
O O3 0.636751 0.000000 0.926106
O O4 0.585415 0.278668 0.006410
O O5 0.668208 0.500000 0.651718
O O6 0.665293 0.781778 0.588057
O O7 0.578309 0.786090 0.722946
O O8 0.750265 0.787591 0.637241
O O9 0.147517 0.278048 0.265567
O O10 0.102554 0.289095 0.395347
O O11 0.986460 0.270334 0.376794
O O12 0.084399 0.000000 0.345803
O O13 0.097149 0.285445 0.191011
O O14 0.176050 0.000000 0.188340
O O15 0.382642 0.500000 0.439956
O O16 0.364592 0.210329 0.508920
O O17 0.988241 0.218719 0.856337
O O18 0.990848 0.000000 0.771898
O O19 0.506360 0.000000 0.085105
O O20 0.619159 0.500000 0.443336
#
# Coordination Sequence:
#
# PCOD9190329 Si02
#       8
#     8   8   8   8   8   8   8   8
#     4   8  16  31  51  75 101 131 161 194 241 295
#     4  10  20  34  49  67 100 138 164 193 244 303
#     4   9  16  28  48  75 100 124 161 210 249 277
#     4   9  16  29  49  71  97 131 170 200 231 288
#     4   9  16  31  50  70  99 130 162 204 248 289
#     4  10  20  33  50  72  97 132 171 202 235 285
#     4   9  18  33  53  77 104 128 155 198 250 292
#     4  10  20  30  50  80  99 119 163 215 252 283
#
# _framework density 22.567812
#
# number of rings (size 3 to 8) (size 9 to 14) (size 15 to 20)
#    0.000    2.750    1.250    1.500    1.750    2.500 
#    0.000    1.250    0.000    3.750    0.000    0.000 
#    0.000    0.000    0.000    0.000    0.000    0.000 
#
# Total GULP energy -178757.420651 kJ/mol
# GULP energy per Si atom -5586.169395 kJ/mol
# Density = 2.251645 g / cm^3
# Si number density = 22.567812 Si / 1000 Ang^3
#
#
#
# Elastic Constant Matrix: (Units=GPa)
#
#
# Indices 1 2 3 4 5 6 
#
# 1 47.3128 -12.4242 6.6420 -0.0006 7.5632 -0.0032
# 2 -12.4242 87.5303 -10.4260 -0.0029 -1.1459 -0.0077
# 3 6.6420 -10.4260 83.8889 0.0004 -3.0475 -0.0003
# 4 -0.0006 -0.0029 0.0004 -0.5858 0.0000 -7.6002
# 5 7.5632 -1.1459 -3.0475 0.0000 42.4433 -0.0006
# 6 -0.0032 -0.0077 -0.0003 -7.6002 -0.0006 -11.9403
#
#
#
# Elastic Compliance Matrix: (Units=1/GPa)
#
#
# Indices 1 2 3 4 5 6 
#
# 1 0.022799 0.002994 -0.001582 -0.000009 -0.004095 -0.000002
# 2 0.002994 0.011997 0.001250 -0.000007 -0.000120 -0.000004
# 3 -0.001582 0.001250 0.012244 -0.000002 0.001195 0.000000
# 4 -0.000009 -0.000007 -0.000002 0.235187 -0.000001 -0.149701
# 5 -0.004095 -0.000120 0.001195 -0.000001 0.024373 0.000000
# 6 -0.000002 -0.000004 0.000000 -0.149701 0.000000 0.011538
#
#
# Mechanical properties :
#
#
# Convention : Reuss Voigt Hill
#
# Bulk Modulus (GPa) = 19.09710 20.70175 19.89943
# Shear Modulus (GPa) = 15.13917 21.64613 18.39265
#
# Velocity S-wave (km/s) = 2.59285 3.10039 2.85791
# Velocity P-wave (km/s) = 4.17664 4.69144 4.44150
#
# Compressibility (1/GPa) = 0.05236397
#
# Stress axis : x y z
#
# Youngs Moduli (GPa) = 43.86179 83.35506 81.66946
#
# Poissons Ratio (x) = -0.24957 0.12919
# Poissons Ratio (y) = -0.13133 -0.10205
# Poissons Ratio (z) = 0.06938 -0.10416
#
# Static dielectric constant tensor:
#      x y z
#    x 1.782670 0.000000 -0.006370 
#    y 0.000000 1.914770 0.000000 
#    z -0.006370 0.000000 1.805950 
# 
# From -- ./inp_files/343056.got.cif
#   From: 2010.05.17/outbox.cif.g08.bks.cpg/sg12_172_cif.got.tgz:343056.got - 2010.06.03 13:09:07.
