data_PCOD9190082
_publ_section_title
;
Structure prediction by ZEFSAII (Michael W. Deem and Ramdas Pophale) SiO2 
 PCOD9190082
Probable space group: C 2/M
;
_chemical_formula_sum "Si O2"
_cell_formula_units_Z 58
_cell_length_a 23.450417
_cell_length_b 7.742474
_cell_length_c 20.345439
_cell_angle_alpha 90.000000
_cell_angle_beta 45.029510
_cell_angle_gamma 90.000000
_cell_volume 2613.400438
_symmetry_space_group_name_H-M "C 2/M"
_symmetry_group_IT_number 12
_symmetry_cell_setting 'monoclinic'
loop_
_space_group_symop_operation_xyz
x,y,z
-x,y,-z
-x,-y,-z
x,-y,z
1/2+x,1/2+y,z
1/2-x,1/2+y,-z
1/2-x,1/2-y,-z
1/2+x,1/2-y,z
loop_
_atom_site_type_symbol
_atom_site_label
_atom_site_fract_x
_atom_site_fract_y
_atom_site_fract_z
Si Si1 0.331960 0.799838 0.786296
Si Si2 0.290852 0.790272 0.678109
Si Si3 0.500000 0.000000 0.000000
Si Si4 0.806977 0.706096 0.015211
Si Si5 0.444251 0.208713 0.483552
Si Si6 0.110962 0.801417 0.861159
Si Si7 0.509152 0.692452 0.287266
Si Si8 0.510074 0.803039 0.146043
O O1 0.334991 0.738220 0.709597
O O2 0.240743 0.782760 0.884573
O O3 0.394405 0.701648 0.780913
O O4 0.356523 0.000000 0.769296
O O5 0.351763 0.733721 0.571599
O O6 0.198034 0.741184 0.762336
O O7 0.289582 0.000000 0.677947
O O8 0.429194 0.156405 0.060022
O O9 0.809320 0.500000 0.018342
O O10 0.750000 0.750000 0.000000
O O11 0.898645 0.764269 0.932802
O O12 0.500000 0.266934 0.500000
O O13 0.474574 0.260549 0.386865
O O14 0.446659 0.000000 0.483383
O O15 0.051647 0.802590 0.846654
O O16 0.116002 0.000000 0.882835
O O17 0.483880 0.500000 0.290790
O O18 0.488718 0.805814 0.240469
O O19 0.506789 0.000000 0.119625
#
# Coordination Sequence:
#
# PCOD9190082 Si02
#       8
#     8   8   2   8   8   8   8   8
#     4  11  21  37  59  88 125 167 210 260 324 392
#     4   9  21  41  66  94 128 166 215 273 332 393
#     4  12  26  48  68 102 130 180 232 268 328 388
#     4  11  23  36  56  86 122 162 207 259 317 388
#     4  10  19  39  67  94 127 169 216 269 335 399
#     4  11  25  46  70 100 137 179 227 278 326 390
#     4  12  24  38  59  95 130 169 216 268 332 398
#     4  11  24  44  65  91 128 175 224 272 332 402
#
# _framework density 22.193307999999998
#
# number of rings (size 3 to 8) (size 9 to 14) (size 15 to 20)
#    0.000    1.241    3.448    2.690    1.931    1.931 
#    2.483    0.690    0.000    0.000    0.000    0.000 
#    0.000    0.000    0.000    0.000    0.000    0.000 
#
# Total GULP energy -161858.844428 kJ/mol
# GULP energy per Si atom -5581.339463 kJ/mol
# Density = 2.214280 g / cm^3
# Si number density = 22.193308 Si / 1000 Ang^3
#
#
#
# Elastic Constant Matrix: (Units=GPa)
#
#
# Indices 1 2 3 4 5 6 
#
# 1 63.9357 12.7484 21.5655 0.0023 -7.3291 -0.0022
# 2 12.7484 88.3405 22.1123 0.0079 -7.0395 0.0059
# 3 21.5655 22.1123 138.9252 0.0029 -8.4109 -0.0056
# 4 0.0023 0.0079 0.0029 25.9001 -0.0006 4.0565
# 5 -7.3291 -7.0395 -8.4109 -0.0006 34.4527 -0.0005
# 6 -0.0022 0.0059 -0.0056 4.0565 -0.0005 21.0806
#
#
#
# Elastic Compliance Matrix: (Units=1/GPa)
#
#
# Indices 1 2 3 4 5 6 
#
# 1 0.017037 -0.001687 -0.002210 -0.000001 0.002740 0.000002
# 2 -0.001687 0.012091 -0.001558 -0.000003 0.001731 -0.000003
# 3 -0.002210 -0.001558 0.007858 -0.000001 0.001130 0.000002
# 4 -0.000001 -0.000003 -0.000001 0.039810 0.000000 -0.007660
# 5 0.002740 0.001731 0.001130 0.000000 0.030238 0.000001
# 6 0.000002 -0.000003 0.000002 -0.007660 0.000001 0.048911
#
#
# Mechanical properties :
#
#
# Convention : Reuss Voigt Hill
#
# Bulk Modulus (GPa) = 38.35038 44.89487 41.62262
# Shear Modulus (GPa) = 28.48258 31.93835 30.21046
#
# Velocity S-wave (km/s) = 3.58632 3.79766 3.69350
# Velocity P-wave (km/s) = 5.87083 6.28511 6.08150
#
# Compressibility (1/GPa) = 0.02607536
#
# Stress axis : x y z
#
# Youngs Moduli (GPa) = 58.69684 82.70482 127.26585
#
# Poissons Ratio (x) = 0.13952 0.28129
# Poissons Ratio (y) = 0.09902 0.19826
# Poissons Ratio (z) = 0.12973 0.12884
#
# Static dielectric constant tensor:
#      x y z
#    x -0.279950 0.000010 -1.568350 
#    y 0.000010 1.814070 0.000010 
#    z -1.568350 0.000010 0.650340 
# 
# From -- ./inp_files/324537.got.cif
#   From: 2010.05.17/outbox.cif.g08.bks.cpg/sg12_163_cif.got.tgz:324537.got - 2010.06.03 13:09:07.
