data_PCOD9190151
_publ_section_title
;
Structure prediction by ZEFSAII (Michael W. Deem and Ramdas Pophale) SiO2 
 PCOD9190151
Probable space group: C 2/M
;
_chemical_formula_sum "Si O2"
_cell_formula_units_Z 52
_cell_length_a 9.651070
_cell_length_b 30.461908
_cell_length_c 17.329408
_cell_angle_alpha 90.000000
_cell_angle_beta 148.502493
_cell_angle_gamma 90.000000
_cell_volume 2661.770199
_symmetry_space_group_name_H-M "C 2/M"
_symmetry_group_IT_number 12
_symmetry_cell_setting 'monoclinic'
loop_
_space_group_symop_operation_xyz
x,y,z
-x,y,-z
-x,-y,-z
x,-y,z
1/2+x,1/2+y,z
1/2-x,1/2+y,-z
1/2-x,1/2-y,-z
1/2+x,1/2-y,z
loop_
_atom_site_type_symbol
_atom_site_label
_atom_site_fract_x
_atom_site_fract_y
_atom_site_fract_z
Si Si1 0.241368 0.587779 0.932149
Si Si2 0.938438 0.500000 0.359288
Si Si3 0.706254 0.263540 0.890668
Si Si4 0.306376 0.171150 0.175357
Si Si5 0.977047 0.000000 0.307997
Si Si6 0.460462 0.574583 0.773855
Si Si7 0.925040 0.500000 0.753870
Si Si8 0.254507 0.834436 0.332872
O O1 0.089849 0.630049 0.825371
O O2 0.075885 0.543642 0.851801
O O3 0.500000 0.581584 0.000000
O O4 0.346074 0.593285 0.068487
O O5 0.754276 0.542489 0.286771
O O6 0.050306 0.500000 0.326077
O O7 0.203521 0.500000 0.536108
O O8 0.593848 0.219883 0.795180
O O9 0.497727 0.302478 0.782903
O O10 0.750000 0.250000 0.000000
O O11 0.000000 0.275098 0.000000
O O12 0.322447 0.161698 0.273805
O O13 0.000000 0.173775 0.000000
O O14 0.901986 0.956757 0.223538
O O15 0.851873 0.000000 0.332834
O O16 0.319600 0.617044 0.672084
O O17 0.500000 0.817666 0.500000
#
# Coordination Sequence:
#
# PCOD9190151 Si02
#       8
#     8   4   8   8   4   8   4   8
#     4  11  19  36  66  87 108 162 218 248 284 371
#     4  11  20  39  65  75 116 180 208 230 304 398
#     4  11  21  42  68  92 125 168 210 252 313 380
#     4  10  19  40  64  89 121 162 214 246 300 378
#     4  11  26  38  49  90 135 154 189 266 327 352
#     4  11  21  40  64  87 116 163 213 250 302 372
#     4  12  22  36  58  91 124 153 206 264 304 357
#     4  12  23  39  67  99 127 160 211 269 310 364
#
# _framework density 19.535871
#
# number of rings (size 3 to 8) (size 9 to 14) (size 15 to 20)
#    0.000    0.923    7.692    3.231    0.000    1.846 
#    5.538    0.000    0.000    1.846    0.000    0.000 
#    0.000    0.000    0.000    0.000    0.000    0.000 
#
# Total GULP energy -145134.790966 kJ/mol
# GULP energy per Si atom -5582.107345 kJ/mol
# Density = 1.949141 g / cm^3
# Si number density = 19.535871 Si / 1000 Ang^3
#
#
#
# Elastic Constant Matrix: (Units=GPa)
#
#
# Indices 1 2 3 4 5 6 
#
# 1 85.6828 31.8324 23.2113 0.0000 -3.3613 0.0000
# 2 31.8324 142.8463 23.9820 0.0000 14.8651 0.0000
# 3 23.2113 23.9820 84.5776 0.0000 -7.0131 0.0000
# 4 0.0000 0.0000 0.0000 7.7438 0.0000 -17.5002
# 5 -3.3613 14.8651 -7.0131 0.0000 26.1380 0.0000
# 6 0.0000 0.0000 0.0000 -17.5002 0.0000 5.5072
#
#
#
# Elastic Compliance Matrix: (Units=1/GPa)
#
#
# Indices 1 2 3 4 5 6 
#
# 1 0.013561 -0.002844 -0.002697 0.000000 0.002638 0.000000
# 2 -0.002844 0.008601 -0.002142 0.000000 -0.005832 0.000000
# 3 -0.002697 -0.002142 0.013544 0.000000 0.004505 0.000000
# 4 0.000000 0.000000 0.000000 -0.020891 0.000000 -0.066386
# 5 0.002638 -0.005832 0.004505 0.000000 0.043123 0.000000
# 6 0.000000 0.000000 0.000000 -0.066386 0.000000 -0.029376
#
#
# Mechanical properties :
#
#
# Convention : Reuss Voigt Hill
#
# Bulk Modulus (GPa) = 49.15963 52.35089 50.75526
# Shear Modulus (GPa) = 98.60312 23.48319 61.04316
#
# Velocity S-wave (km/s) = 7.11213 3.47083 5.59594
# Velocity P-wave (km/s) = 9.62609 6.55116 8.23345
#
# Compressibility (1/GPa) = 0.02034189
#
# Stress axis : x y z
#
# Youngs Moduli (GPa) = 73.73816 116.26915 73.83109
#
# Poissons Ratio (x) = 0.33065 0.19910
# Poissons Ratio (y) = 0.20970 0.15813
# Poissons Ratio (z) = 0.19885 0.24903
#
# Static dielectric constant tensor:
#      x y z
#    x 1.717350 0.000000 -0.009380 
#    y 0.000000 1.729070 0.000000 
#    z -0.009380 0.000000 1.702860 
# 
# From -- ./inp_files/201400.got.cif
#   From: 2010.05.17/outbox.cif.g08.bks.cpg/sg12_101_cif.got.tgz:201400.got - 2010.06.03 13:09:07.
