data_PCOD9190146
_publ_section_title
;
Structure prediction by ZEFSAII (Michael W. Deem and Ramdas Pophale) SiO2 
 PCOD9190146
Probable space group: C 2/M
;
_chemical_formula_sum "Si O2"
_cell_formula_units_Z 60
_cell_length_a 15.699585
_cell_length_b 19.231164
_cell_length_c 14.344710
_cell_angle_alpha 90.000000
_cell_angle_beta 141.862188
_cell_angle_gamma 90.000000
_cell_volume 2674.614599
_symmetry_space_group_name_H-M "C 2/M"
_symmetry_group_IT_number 12
_symmetry_cell_setting 'monoclinic'
loop_
_space_group_symop_operation_xyz
x,y,z
-x,y,-z
-x,-y,-z
x,-y,z
1/2+x,1/2+y,z
1/2-x,1/2+y,-z
1/2-x,1/2-y,-z
1/2+x,1/2-y,z
loop_
_atom_site_type_symbol
_atom_site_label
_atom_site_fract_x
_atom_site_fract_y
_atom_site_fract_z
Si Si1 0.379695 0.803185 0.610589
Si Si2 0.172812 0.271840 0.785521
Si Si3 0.646007 0.114511 0.600830
Si Si4 0.571489 0.641625 0.966866
Si Si5 0.170313 0.000000 0.150332
Si Si6 0.364516 0.623929 0.317534
Si Si7 0.690926 0.922942 0.333621
Si Si8 0.457206 0.422176 0.695897
O O1 0.250000 0.750000 0.500000
O O2 0.527544 0.769188 0.714936
O O3 0.357220 0.855658 0.504635
O O4 0.391955 0.853388 0.711150
O O5 0.154191 0.320962 0.678861
O O6 0.201882 0.195668 0.772868
O O7 0.297572 0.310498 0.944842
O O8 0.500000 0.079713 0.500000
O O9 0.764018 0.060658 0.725924
O O10 0.475851 0.633080 0.794342
O O11 0.500000 0.669839 0.000000
O O12 0.615487 0.562619 0.032750
O O13 0.500000 0.638295 0.500000
O O14 0.257343 0.582685 0.288839
O O15 0.420119 0.586318 0.273524
O O16 0.820759 0.916663 0.515993
O O17 0.627422 0.000000 0.292681
O O18 0.458971 0.500000 0.735529
#
# Coordination Sequence:
#
# PCOD9190146 Si02
#       8
#     8   8   8   8   4   8   8   8
#     4  11  21  36  60  93 127 164 203 258 326 381
#     4  10  22  40  59  90 124 165 207 250 316 381
#     4   9  19  33  55  87 125 158 197 249 317 380
#     4  11  24  40  59  87 123 168 208 253 304 375
#     4  10  20  34  58  82 117 159 205 250 311 369
#     4  10  19  40  63  89 120 157 206 265 316 370
#     4  10  22  36  62  97 126 158 206 262 324 381
#     4  10  21  37  63  89 122 162 205 257 310 364
#
# _framework density 22.433139000000001
#
# number of rings (size 3 to 8) (size 9 to 14) (size 15 to 20)
#    0.000    1.867    0.667    4.400    4.667    2.133 
#    7.200    0.000    0.000    0.000    0.000    1.867 
#    0.000    0.000    0.000    0.000    0.000    0.000 
#
# Total GULP energy -167121.563484 kJ/mol
# GULP energy per Si atom -5570.718783 kJ/mol
# Density = 2.238208 g / cm^3
# Si number density = 22.433139 Si / 1000 Ang^3
#
#
#
# Elastic Constant Matrix: (Units=GPa)
#
#
# Indices 1 2 3 4 5 6 
#
# 1 119.5210 30.1114 15.2578 0.0000 3.7692 0.0000
# 2 30.1114 104.3482 4.5442 0.0000 13.4327 0.0000
# 3 15.2578 4.5442 47.2987 0.0000 1.5524 0.0000
# 4 0.0000 0.0000 0.0000 10.8412 0.0000 -3.2909
# 5 3.7692 13.4327 1.5524 0.0000 21.3849 0.0000
# 6 0.0000 0.0000 0.0000 -3.2909 0.0000 24.6002
#
#
#
# Elastic Compliance Matrix: (Units=1/GPa)
#
#
# Indices 1 2 3 4 5 6 
#
# 1 0.009373 -0.002608 -0.002779 0.000000 0.000188 0.000000
# 2 -0.002608 0.011181 -0.000018 0.000000 -0.006563 0.000000
# 3 -0.002779 -0.000018 0.022077 0.000000 -0.001102 0.000000
# 4 0.000000 0.000000 0.000000 0.096145 0.000000 0.012862
# 5 0.000188 -0.006563 -0.001102 0.000000 0.050931 0.000000
# 6 0.000000 0.000000 0.000000 0.012862 0.000000 0.042371
#
#
# Mechanical properties :
#
#
# Convention : Reuss Voigt Hill
#
# Bulk Modulus (GPa) = 31.42521 41.22162 36.32341
# Shear Modulus (GPa) = 19.72441 26.11557 22.91999
#
# Velocity S-wave (km/s) = 2.96844 3.41567 3.19988
# Velocity P-wave (km/s) = 5.07815 5.82846 5.46619
#
# Compressibility (1/GPa) = 0.03182159
#
# Stress axis : x y z
#
# Youngs Moduli (GPa) = 106.69451 89.43444 45.29692
#
# Poissons Ratio (x) = 0.23322 0.12588
# Poissons Ratio (y) = 0.27823 0.00080
# Poissons Ratio (z) = 0.29651 0.00158
#
# Static dielectric constant tensor:
#      x y z
#    x 1.895810 0.000000 0.021150 
#    y 0.000000 1.825980 0.000000 
#    z 0.021150 0.000000 1.871960 
# 
# From -- ./inp_files/217933.got.cif
#   From: 2010.05.17/outbox.cif.g08.bks.cpg/sg12_109_cif.got.tgz:217933.got - 2010.06.03 13:09:07.
