data_PCOD9190761
_publ_section_title
;
Structure prediction by ZEFSAII (Michael W. Deem and Ramdas Pophale) SiO2 
 PCOD9190761
Probable space group: C 2/M
;
_chemical_formula_sum "Si O2"
_cell_formula_units_Z 58
_cell_length_a 14.932357
_cell_length_b 7.443206
_cell_length_c 20.650506
_cell_angle_alpha 90.000000
_cell_angle_beta 87.724574
_cell_angle_gamma 90.000000
_cell_volume 2293.382696
_symmetry_space_group_name_H-M "C 2/M"
_symmetry_group_IT_number 12
_symmetry_cell_setting 'monoclinic'
loop_
_space_group_symop_operation_xyz
x,y,z
-x,y,-z
-x,-y,-z
x,-y,z
1/2+x,1/2+y,z
1/2-x,1/2+y,-z
1/2-x,1/2-y,-z
1/2+x,1/2-y,z
loop_
_atom_site_type_symbol
_atom_site_label
_atom_site_fract_x
_atom_site_fract_y
_atom_site_fract_z
Si Si1 0.645866 0.802885 0.508536
Si Si2 0.500000 0.500000 0.500000
Si Si3 0.917240 0.790321 0.351762
Si Si4 0.404320 0.216033 0.712353
Si Si5 0.581693 0.706080 0.958068
Si Si6 0.243580 0.719332 0.102966
Si Si7 0.451118 0.216851 0.856786
Si Si8 0.212149 0.218062 0.752427
O O1 0.750000 0.750000 0.500000
O O2 0.576721 0.656249 0.484968
O O3 0.621340 0.807729 0.585524
O O4 0.632419 0.000000 0.479175
O O5 0.873387 0.724305 0.285975
O O6 0.023461 0.780883 0.340493
O O7 0.893741 0.000000 0.362526
O O8 0.435535 0.273975 0.783545
O O9 0.301171 0.270985 0.710039
O O10 0.405939 0.000000 0.711722
O O11 0.590298 0.500000 0.979555
O O12 0.680707 0.786114 0.948843
O O13 0.539086 0.706015 0.887203
O O14 0.500000 0.794075 0.000000
O O15 0.246159 0.500000 0.101388
O O16 0.139274 0.769564 0.101010
O O17 0.274083 0.777916 0.174276
O O18 0.456607 0.000000 0.857616
O O19 0.210168 0.000000 0.756003
#
# Coordination Sequence:
#
# PCOD9190761 Si02
#       8
#     8   2   8   8   8   8   8   8
#     4  12  26  50  77 107 148 192 246 304 356 426
#     4  12  26  52  80 108 140 196 250 296 366 420
#     4  11  21  37  61  96 132 164 215 263 318 395
#     4   9  18  34  54  83 115 151 199 246 314 381
#     4  10  20  32  48  72 101 136 186 241 299 365
#     4   8  15  31  51  73 103 147 190 227 299 373
#     4   9  18  33  53  73 103 145 191 243 295 369
#     4   8  16  31  55  80 112 155 194 242 302 380
#
# _framework density 25.290154000000001
#
# number of rings (size 3 to 8) (size 9 to 14) (size 15 to 20)
#    0.000    2.345    1.379    3.103    0.000    3.586 
#    0.000    4.138    0.000    2.483    0.000    0.000 
#    0.000    0.000    0.000    0.000    0.000    0.000 
#
# Total GULP energy -161956.998315 kJ/mol
# GULP energy per Si atom -5584.724080 kJ/mol
# Density = 2.523259 g / cm^3
# Si number density = 25.290154 Si / 1000 Ang^3
#
#
#
# Elastic Constant Matrix: (Units=GPa)
#
#
# Indices 1 2 3 4 5 6 
#
# 1 173.9780 24.9737 41.3893 0.0000 -36.1835 0.0000
# 2 24.9737 134.7020 5.7704 0.0000 -0.2891 0.0000
# 3 41.3893 5.7704 59.0603 0.0000 -16.2085 0.0000
# 4 0.0000 0.0000 0.0000 13.7219 0.0000 2.3565
# 5 -36.1835 -0.2891 -16.2085 0.0000 44.0805 0.0000
# 6 0.0000 0.0000 0.0000 2.3565 0.0000 24.2786
#
#
#
# Elastic Compliance Matrix: (Units=1/GPa)
#
#
# Indices 1 2 3 4 5 6 
#
# 1 0.007943 -0.001288 -0.004064 0.000000 0.005017 0.000000
# 2 -0.001288 0.007666 -0.000137 0.000000 -0.001057 0.000000
# 3 -0.004064 -0.000137 0.020996 0.000000 0.004384 0.000000
# 4 0.000000 0.000000 0.000000 0.074112 0.000000 -0.007193
# 5 0.005017 -0.001057 0.004384 0.000000 0.028409 0.000000
# 6 0.000000 0.000000 0.000000 -0.007193 0.000000 0.041887
#
#
# Mechanical properties :
#
#
# Convention : Reuss Voigt Hill
#
# Bulk Modulus (GPa) = 39.01820 56.88967 47.95393
# Shear Modulus (GPa) = 24.93370 36.12333 30.52851
#
# Velocity S-wave (km/s) = 3.14332 3.78346 3.47815
# Velocity P-wave (km/s) = 5.35123 6.45211 5.92728
#
# Compressibility (1/GPa) = 0.02562907
#
# Stress axis : x y z
#
# Youngs Moduli (GPa) = 125.89819 130.44386 47.62804
#
# Poissons Ratio (x) = 0.16798 0.19354
# Poissons Ratio (y) = 0.16213 0.00651
# Poissons Ratio (z) = 0.51160 0.01782
#
# Static dielectric constant tensor:
#      x y z
#    x 1.948750 0.000000 0.016380 
#    y 0.000000 1.988080 0.000000 
#    z 0.016380 0.000000 2.048640 
# 
# From -- ./inp_files/337987.got.cif
#   From: 2010.05.17/outbox.cif.g08.bks.cpg/sg12_169_cif.got.tgz:337987.got - 2010.06.03 13:09:07.
