data_PCOD9190588
_publ_section_title
;
Structure prediction by ZEFSAII (Michael W. Deem and Ramdas Pophale) SiO2 
 PCOD9190588
Probable space group: C 2/M
;
_chemical_formula_sum "Si O2"
_cell_formula_units_Z 56
_cell_length_a 33.374172
_cell_length_b 9.977100
_cell_length_c 33.560417
_cell_angle_alpha 90.000000
_cell_angle_beta 160.843471
_cell_angle_gamma 90.000000
_cell_volume 3667.031479
_symmetry_space_group_name_H-M "C 2/M"
_symmetry_group_IT_number 12
_symmetry_cell_setting 'monoclinic'
loop_
_space_group_symop_operation_xyz
x,y,z
-x,y,-z
-x,-y,-z
x,-y,z
1/2+x,1/2+y,z
1/2-x,1/2+y,-z
1/2-x,1/2-y,-z
1/2+x,1/2-y,z
loop_
_atom_site_type_symbol
_atom_site_label
_atom_site_fract_x
_atom_site_fract_y
_atom_site_fract_z
Si Si1 0.294640 0.341534 0.101222
Si Si2 0.647681 0.154881 0.593808
Si Si3 0.213559 0.658128 0.428748
Si Si4 0.929291 0.344420 0.167295
Si Si5 0.851581 0.156979 0.243733
Si Si6 0.145116 0.842917 0.519140
Si Si7 0.149189 0.654841 0.684852
O O1 0.325823 0.500000 0.127992
O O2 0.391004 0.253556 0.167063
O O3 0.294172 0.305724 0.147263
O O4 0.165309 0.321206 0.957691
O O5 0.687264 0.252272 0.595677
O O6 0.687528 0.194008 0.675983
O O7 0.499253 0.158294 0.454569
O O8 0.682900 0.000000 0.619962
O O9 0.236596 0.500000 0.458814
O O10 0.250000 0.750000 0.500000
O O11 0.289272 0.694124 0.460388
O O12 0.068866 0.674401 0.285975
O O13 0.914139 0.500000 0.165606
O O14 0.810267 0.248232 0.241710
O O15 0.998599 0.171887 0.377242
O O16 0.827454 0.000000 0.229007
O O17 0.169759 0.000000 0.550096
O O18 0.184556 0.500000 0.724830
#
# Coordination Sequence:
#
# PCOD9190588 Si02
#       7
#     8   8   8   8   8   8   8
#     4   9  17  30  46  63  85 111 140 177 215 250
#     4   8  14  25  39  56  80 109 137 164 200 246
#     4  10  20  32  45  63  87 114 144 176 210 249
#     4   9  18  31  46  63  83 111 145 177 211 250
#     4   9  16  25  39  60  84 109 135 165 206 250
#     4   9  17  27  39  58  84 111 137 167 204 246
#     4   8  14  24  38  57  82 108 133 165 203 244
#
# _framework density 15.271207
#
# number of rings (size 3 to 8) (size 9 to 14) (size 15 to 20)
#    0.000    3.143    0.000    1.714    0.000    3.429 
#    0.000    5.714    0.000    0.000    0.000    1.000 
#    0.000    8.000    0.000    0.000    0.000    0.000 
#
# Total GULP energy -155880.080733 kJ/mol
# GULP energy per Si atom -5567.145740 kJ/mol
# Density = 1.523645 g / cm^3
# Si number density = 15.271207 Si / 1000 Ang^3
#
#
#
# Elastic Constant Matrix: (Units=GPa)
#
#
# Indices 1 2 3 4 5 6 
#
# 1 129.7679 76.5489 35.0570 0.0000 -32.3712 -0.0001
# 2 76.5489 62.3974 30.3248 0.0006 -22.9119 0.0003
# 3 35.0570 30.3248 28.0879 0.0044 -15.4668 0.0020
# 4 0.0000 0.0006 0.0044 16.4872 0.0018 -7.6240
# 5 -32.3712 -22.9119 -15.4668 0.0018 27.5851 0.0007
# 6 -0.0001 0.0003 0.0020 -7.6240 0.0007 32.0351
#
#
#
# Elastic Compliance Matrix: (Units=1/GPa)
#
#
# Indices 1 2 3 4 5 6 
#
# 1 0.029300 -0.036520 0.007362 -0.000002 0.008179 -0.000001
# 2 -0.036520 0.081708 -0.041754 0.000010 0.001598 0.000004
# 3 0.007362 -0.041754 0.082681 -0.000028 0.020318 -0.000012
# 4 -0.000002 0.000010 -0.000028 0.068153 -0.000015 0.016220
# 5 0.008179 0.001598 0.020318 -0.000015 0.058568 -0.000006
# 6 -0.000001 0.000004 -0.000012 0.016220 -0.000006 0.035076
#
#
# Mechanical properties :
#
#
# Convention : Reuss Voigt Hill
#
# Bulk Modulus (GPa) = 19.28064 56.01275 37.64669
# Shear Modulus (GPa) = 9.71630 20.44300 15.07965
#
# Velocity S-wave (km/s) = 2.52514 3.66274 3.14579
# Velocity P-wave (km/s) = 4.59942 7.39228 6.15632
#
# Compressibility (1/GPa) = 0.05186550
#
# Stress axis : x y z
#
# Youngs Moduli (GPa) = 34.12915 12.23868 12.09473
#
# Poissons Ratio (x) = 0.44696 -0.08904
# Poissons Ratio (y) = 1.24641 0.50500
# Poissons Ratio (z) = -0.25126 0.51101
#
# Static dielectric constant tensor:
#      x y z
#    x 1.491570 0.000000 -0.007010 
#    y 0.000000 1.511610 0.000000 
#    z -0.007010 0.000000 1.503640 
# 
# From -- ./inp_files/188002.got.cif
#   From: 2010.05.17/outbox.cif.g08.bks.cpg/sg12_95_cif.got.tgz:188002.got - 2010.06.03 13:09:07.
