data_PCOD9190522
_publ_section_title
;
Structure prediction by ZEFSAII (Michael W. Deem and Ramdas Pophale) SiO2 
 PCOD9190522
Probable space group: C 2/M
;
_chemical_formula_sum "Si O2"
_cell_formula_units_Z 44
_cell_length_a 21.595979
_cell_length_b 20.587924
_cell_length_c 17.968333
_cell_angle_alpha 90.000000
_cell_angle_beta 19.351158
_cell_angle_gamma 90.000000
_cell_volume 2647.215729
_symmetry_space_group_name_H-M "C 2/M"
_symmetry_group_IT_number 12
_symmetry_cell_setting 'monoclinic'
loop_
_space_group_symop_operation_xyz
x,y,z
-x,y,-z
-x,-y,-z
x,-y,z
1/2+x,1/2+y,z
1/2-x,1/2+y,-z
1/2-x,1/2-y,-z
1/2+x,1/2-y,z
loop_
_atom_site_type_symbol
_atom_site_label
_atom_site_fract_x
_atom_site_fract_y
_atom_site_fract_z
Si Si1 0.986134 0.000000 0.924152
Si Si2 0.358784 0.681228 0.872505
Si Si3 0.920442 0.235784 0.509936
Si Si4 0.495709 0.133616 0.338928
Si Si5 0.500000 0.274525 0.000000
Si Si6 0.089090 0.141639 0.756608
Si Si7 0.566548 0.000000 0.340658
O O1 0.074132 0.066300 0.794860
O O2 0.787312 0.000000 0.106416
O O3 0.000000 0.000000 0.000000
O O4 0.492428 0.687593 0.650059
O O5 0.483854 0.664283 0.802224
O O6 0.250000 0.750000 0.000000
O O7 0.181716 0.633470 0.077884
O O8 0.991937 0.308457 0.404930
O O9 0.695282 0.236642 0.770034
O O10 0.000000 0.220368 0.500000
O O11 0.311527 0.152505 0.501359
O O12 0.493972 0.064485 0.381819
O O13 0.497352 0.319575 0.929642
O O14 0.500000 0.000000 0.500000
#
# Coordination Sequence:
#
# PCOD9190522 Si02
#       7
#     4   8   8   8   4   8   4
#     4  12  22  34  54  83 119 149 180 222 267 337
#     4  10  21  36  52  74 107 149 189 232 273 323
#     4  10  21  34  53  74 105 139 186 229 275 318
#     4  10  21  35  53  78 110 149 182 220 275 332
#     4  10  20  31  52  76 106 141 184 220 274 322
#     4  11  21  35  53  80 112 147 185 222 272 335
#     4  12  22  32  54  81 119 148 185 217 271 335
#
# _framework density 16.621238000000002
#
# number of rings (size 3 to 8) (size 9 to 14) (size 15 to 20)
#    0.000    1.455    2.727    4.364    2.545    8.000 
#    0.000    0.000    0.000    0.000    0.000    2.545 
#    0.000    5.818    0.000    0.000    0.000    0.000 
#
# Total GULP energy -122550.242978 kJ/mol
# GULP energy per Si atom -5570.465590 kJ/mol
# Density = 1.658341 g / cm^3
# Si number density = 16.621238 Si / 1000 Ang^3
#
#
#
# Elastic Constant Matrix: (Units=GPa)
#
#
# Indices 1 2 3 4 5 6 
#
# 1 123.7002 41.6465 66.7432 -0.0439 -1.2281 0.0449
# 2 41.6465 51.5770 24.9194 0.0164 8.3988 -0.0227
# 3 66.7432 24.9194 143.8704 0.1195 5.2840 -0.1181
# 4 -0.0439 0.0164 0.1195 65.9052 -0.0391 -43.4326
# 5 -1.2281 8.3988 5.2840 -0.0391 25.9949 0.0388
# 6 0.0449 -0.0227 -0.1181 -43.4326 0.0388 63.0549
#
#
#
# Elastic Compliance Matrix: (Units=1/GPa)
#
#
# Indices 1 2 3 4 5 6 
#
# 1 0.014147 -0.009774 -0.005048 0.000012 0.004852 -0.000018
# 2 -0.009774 0.028931 -0.000117 -0.000007 -0.009785 0.000018
# 3 -0.005048 -0.000117 0.009390 -0.000012 -0.002109 0.000014
# 4 0.000012 -0.000007 -0.000012 0.027787 0.000019 0.019140
# 5 0.004852 -0.009785 -0.002109 0.000019 0.042289 -0.000024
# 6 -0.000018 0.000018 0.000014 0.019140 -0.000024 0.029043
#
#
# Mechanical properties :
#
#
# Convention : Reuss Voigt Hill
#
# Bulk Modulus (GPa) = 44.26955 65.08508 54.67731
# Shear Modulus (GPa) = 26.45578 43.38023 34.91800
#
# Velocity S-wave (km/s) = 3.99392 5.11429 4.58843
# Velocity P-wave (km/s) = 6.92537 8.60914 7.81275
#
# Compressibility (1/GPa) = 0.02258889
#
# Stress axis : x y z
#
# Youngs Moduli (GPa) = 70.68813 34.56522 106.49185
#
# Poissons Ratio (x) = 0.33784 0.53758
# Poissons Ratio (y) = 0.69091 0.01249
# Poissons Ratio (z) = 0.35684 0.00405
#
# Static dielectric constant tensor:
#      x y z
#    x 1.528590 0.000000 0.009640 
#    y 0.000000 1.579360 0.000060 
#    z 0.009640 0.000060 1.647300 
# 
# From -- ./inp_files/285746.got.cif
#   From: 2010.05.17/outbox.cif.g08.bks.cpg/sg12_143_cif.got.tgz:285746.got - 2010.06.03 13:09:07.
