data_PCOD9190851
_publ_section_title
;
Structure prediction by ZEFSAII (Michael W. Deem and Ramdas Pophale) SiO2 
 PCOD9190851
Probable space group: C 2/M
;
_chemical_formula_sum "Si O2"
_cell_formula_units_Z 48
_cell_length_a 23.304721
_cell_length_b 8.827960
_cell_length_c 26.873317
_cell_angle_alpha 90.000000
_cell_angle_beta 149.104845
_cell_angle_gamma 90.000000
_cell_volume 2838.830793
_symmetry_space_group_name_H-M "C 2/M"
_symmetry_group_IT_number 12
_symmetry_cell_setting 'monoclinic'
loop_
_space_group_symop_operation_xyz
x,y,z
-x,y,-z
-x,-y,-z
x,-y,z
1/2+x,1/2+y,z
1/2-x,1/2+y,-z
1/2-x,1/2-y,-z
1/2+x,1/2-y,z
loop_
_atom_site_type_symbol
_atom_site_label
_atom_site_fract_x
_atom_site_fract_y
_atom_site_fract_z
Si Si1 0.876755 0.167052 0.389337
Si Si2 0.791542 0.680798 0.607949
Si Si3 0.385471 0.816793 0.887140
Si Si4 0.851089 0.827804 0.252741
Si Si5 0.664893 0.325094 0.256902
Si Si6 0.917346 0.319319 0.598989
O O1 0.879314 0.164200 0.332142
O O2 0.797311 0.299840 0.347705
O O3 0.000000 0.183984 0.500000
O O4 0.832708 0.000000 0.373034
O O5 0.784497 0.500000 0.605876
O O6 0.850781 0.746034 0.701341
O O7 0.863551 0.720436 0.612495
O O8 0.666314 0.744644 0.504023
O O9 0.276718 0.767249 0.838797
O O10 0.382778 0.751666 0.828973
O O11 0.376661 0.000000 0.876836
O O12 0.500000 0.777800 0.000000
O O13 0.954538 0.736156 0.307260
O O14 0.849743 0.000000 0.231460
O O15 0.633498 0.500000 0.235381
O O16 0.913295 0.500000 0.589386
#
# Coordination Sequence:
#
# PCOD9190851 Si02
#       6
#     8   8   8   8   8   8
#     4   9  17  29  45  66  95 131 164 193 234 290
#     4  10  20  34  50  69 100 140 174 202 236 286
#     4   9  19  37  58  76  96 127 164 200 247 306
#     4   9  17  29  48  73  99 128 160 197 243 294
#     4  11  21  31  48  74 100 126 160 205 250 289
#     4  10  20  32  49  74 102 134 170 206 242 282
#
# _framework density 16.908369
#
# number of rings (size 3 to 8) (size 9 to 14) (size 15 to 20)
#    0.000    2.333    0.000    4.500    0.000    6.667 
#    0.000    0.000    0.000    1.000    0.000    0.000 
#    0.000    0.000    0.000    0.000    0.000    0.000 
#
# Total GULP energy -133660.109972 kJ/mol
# GULP energy per Si atom -5569.171249 kJ/mol
# Density = 1.686988 g / cm^3
# Si number density = 16.908369 Si / 1000 Ang^3
#
#
#
# Elastic Constant Matrix: (Units=GPa)
#
#
# Indices 1 2 3 4 5 6 
#
# 1 75.8893 24.7362 44.4968 0.0000 -0.0971 0.0000
# 2 24.7362 48.0323 29.1341 0.0000 -2.1125 0.0000
# 3 44.4968 29.1341 125.2939 0.0000 6.0022 0.0000
# 4 0.0000 0.0000 0.0000 51.3224 0.0000 37.0144
# 5 -0.0971 -2.1125 6.0022 0.0000 23.8144 0.0000
# 6 0.0000 0.0000 0.0000 37.0144 0.0000 60.2528
#
#
#
# Elastic Compliance Matrix: (Units=1/GPa)
#
#
# Indices 1 2 3 4 5 6 
#
# 1 0.018174 -0.006272 -0.005034 0.000000 0.000786 0.000000
# 2 -0.006272 0.026713 -0.004147 0.000000 0.003389 0.000000
# 3 -0.005034 -0.004147 0.010883 0.000000 -0.003131 0.000000
# 4 0.000000 0.000000 0.000000 0.034985 0.000000 -0.021492
# 5 0.000786 0.003389 -0.003131 0.000000 0.043085 0.000000
# 6 0.000000 0.000000 0.000000 -0.021492 0.000000 0.029800
#
#
# Mechanical properties :
#
#
# Convention : Reuss Voigt Hill
#
# Bulk Modulus (GPa) = 40.21466 49.54995 44.88230
# Shear Modulus (GPa) = 24.65103 37.13448 30.89276
#
# Velocity S-wave (km/s) = 3.82241 4.69147 4.27906
# Velocity P-wave (km/s) = 6.58154 7.66258 7.14254
#
# Compressibility (1/GPa) = 0.02486656
#
# Stress axis : x y z
#
# Youngs Moduli (GPa) = 55.02464 37.43451 91.88597
#
# Poissons Ratio (x) = 0.23477 0.46251
# Poissons Ratio (y) = 0.34509 0.38102
# Poissons Ratio (z) = 0.27697 0.15523
#
# Static dielectric constant tensor:
#      x y z
#    x 1.647300 0.000000 0.081460 
#    y 0.000000 1.604480 0.000000 
#    z 0.081460 0.000000 1.671760 
# 
# From -- ./inp_files/381791.got.cif
#   From: 2010.05.17/outbox.cif.g08.bks.cpg/sg12_191_cif.got.tgz:381791.got - 2010.06.03 13:09:07.
