data_PCOD9190807
_publ_section_title
;
Structure prediction by ZEFSAII (Michael W. Deem and Ramdas Pophale) SiO2 
 PCOD9190807
Probable space group: C 2/M
;
_chemical_formula_sum "Si O2"
_cell_formula_units_Z 56
_cell_length_a 19.136155
_cell_length_b 8.633149
_cell_length_c 30.143407
_cell_angle_alpha 90.000000
_cell_angle_beta 142.528573
_cell_angle_gamma 90.000000
_cell_volume 3029.569947
_symmetry_space_group_name_H-M "C 2/M"
_symmetry_group_IT_number 12
_symmetry_cell_setting 'monoclinic'
loop_
_space_group_symop_operation_xyz
x,y,z
-x,y,-z
-x,-y,-z
x,-y,z
1/2+x,1/2+y,z
1/2-x,1/2+y,-z
1/2-x,1/2-y,-z
1/2+x,1/2-y,z
loop_
_atom_site_type_symbol
_atom_site_label
_atom_site_fract_x
_atom_site_fract_y
_atom_site_fract_z
Si Si1 0.500496 0.813232 0.865809
Si Si2 0.660009 0.811538 0.865217
Si Si3 0.208732 0.313352 0.301560
Si Si4 0.536847 0.814681 0.568072
Si Si5 0.044604 0.312844 0.300756
Si Si6 0.421772 0.687223 0.001360
Si Si7 0.121177 0.815781 0.433155
O O1 0.598502 0.764738 0.880000
O O2 0.379350 0.770019 0.782173
O O3 0.503000 0.000000 0.869920
O O4 0.525843 0.742779 0.926037
O O5 0.575684 0.764910 0.782702
O O6 0.790612 0.757616 0.929344
O O7 0.660381 0.000000 0.864933
O O8 0.221050 0.500000 0.307259
O O9 0.331919 0.236607 0.358913
O O10 0.144640 0.272900 0.315560
O O11 0.500000 0.764354 0.500000
O O12 0.454033 0.744376 0.563578
O O13 0.528242 0.000000 0.566042
O O14 0.044715 0.500000 0.305094
O O15 0.066248 0.238869 0.359087
O O16 0.419755 0.500000 0.000423
O O17 0.500000 0.739567 0.000000
O O18 0.250000 0.750000 0.500000
O O19 0.126045 0.000000 0.437200
#
# Coordination Sequence:
#
# PCOD9190807 Si02
#       7
#     8   8   8   8   8   8   8
#     4   9  18  34  55  77 103 139 182 223 266 321
#     4   8  16  33  55  77 105 142 181 221 268 324
#     4   9  19  36  58  83 110 142 181 227 279 332
#     4  11  24  40  59  84 112 143 182 227 274 327
#     4   9  18  36  60  82 109 147 186 226 276 329
#     4  10  20  32  48  75 109 143 181 225 272 320
#     4  12  25  40  59  84 115 148 184 225 269 321
#
# _framework density 18.484470999999999
#
# number of rings (size 3 to 8) (size 9 to 14) (size 15 to 20)
#    0.000    2.286    0.000    4.714    0.000    6.000 
#    0.000    4.286    0.000    0.000    0.000    0.000 
#    0.000    0.000    0.000    0.000    0.000    0.000 
#
# Total GULP energy -156341.232780 kJ/mol
# GULP energy per Si atom -5583.615456 kJ/mol
# Density = 1.844240 g / cm^3
# Si number density = 18.484471 Si / 1000 Ang^3
#
#
#
# Elastic Constant Matrix: (Units=GPa)
#
#
# Indices 1 2 3 4 5 6 
#
# 1 173.3945 52.5117 139.3287 0.0000 -1.9008 0.0000
# 2 52.5117 39.3057 44.6909 0.0000 -1.3336 0.0001
# 3 139.3287 44.6909 167.5344 0.0000 -6.2984 0.0000
# 4 0.0000 0.0000 0.0000 27.6943 0.0000 5.1177
# 5 -1.9008 -1.3336 -6.2984 0.0000 35.5753 0.0000
# 6 0.0000 0.0001 0.0000 5.1177 0.0000 5.6755
#
#
#
# Elastic Compliance Matrix: (Units=1/GPa)
#
#
# Indices 1 2 3 4 5 6 
#
# 1 0.020557 -0.011496 -0.014098 0.000000 -0.001829 0.000000
# 2 -0.011496 0.042951 -0.001872 0.000000 0.000664 0.000000
# 3 -0.014098 -0.001872 0.018284 0.000000 0.002414 0.000000
# 4 0.000000 0.000000 0.000000 0.043328 0.000000 -0.039070
# 5 -0.001829 0.000664 0.002414 0.000000 0.028464 0.000000
# 6 0.000000 0.000000 0.000000 -0.039070 0.000000 0.211425
#
#
# Mechanical properties :
#
#
# Convention : Reuss Voigt Hill
#
# Bulk Modulus (GPa) = 37.23085 94.81081 66.02083
# Shear Modulus (GPa) = 11.65787 23.36924 17.51355
#
# Velocity S-wave (km/s) = 2.51407 3.55951 3.08145
# Velocity P-wave (km/s) = 5.34909 8.26420 6.96095
#
# Compressibility (1/GPa) = 0.02685945
#
# Stress axis : x y z
#
# Youngs Moduli (GPa) = 48.64477 23.28228 54.69352
#
# Poissons Ratio (x) = 0.26766 0.77108
# Poissons Ratio (y) = 0.55923 0.10237
# Poissons Ratio (z) = 0.68581 0.04358
#
# Static dielectric constant tensor:
#      x y z
#    x 1.611950 0.000000 0.007550 
#    y 0.000000 1.628450 0.000000 
#    z 0.007550 0.000000 1.624470 
# 
# From -- ./inp_files/363090.got.cif
#   From: 2010.05.17/outbox.cif.g08.bks.cpg/sg12_182_cif.got.tgz:363090.got - 2010.06.03 13:09:07.
