data_PCOD9190869
_publ_section_title
;
Structure prediction by ZEFSAII (Michael W. Deem and Ramdas Pophale) SiO2 
 PCOD9190869
Probable space group: C 2/M
;
_chemical_formula_sum "Si O2"
_cell_formula_units_Z 56
_cell_length_a 25.102693
_cell_length_b 9.115988
_cell_length_c 14.505598
_cell_angle_alpha 90.000000
_cell_angle_beta 103.207347
_cell_angle_gamma 90.000000
_cell_volume 3231.601387
_symmetry_space_group_name_H-M "C 2/M"
_symmetry_group_IT_number 12
_symmetry_cell_setting 'monoclinic'
loop_
_space_group_symop_operation_xyz
x,y,z
-x,y,-z
-x,-y,-z
x,-y,z
1/2+x,1/2+y,z
1/2-x,1/2+y,-z
1/2-x,1/2-y,-z
1/2+x,1/2-y,z
loop_
_atom_site_type_symbol
_atom_site_label
_atom_site_fract_x
_atom_site_fract_y
_atom_site_fract_z
Si Si1 0.083788 0.676746 0.713395
Si Si2 0.184789 0.676278 0.879856
Si Si3 0.801882 0.328418 0.564481
Si Si4 0.027043 0.825023 0.309263
Si Si5 0.585025 0.828129 0.499403
Si Si6 0.863003 0.823614 0.753243
Si Si7 0.811106 0.176196 0.923615
O O1 0.079378 0.500000 0.716459
O O2 0.139409 0.720588 0.787346
O O3 0.084427 0.716962 0.605524
O O4 0.030392 0.750147 0.736117
O O5 0.182582 0.500000 0.887591
O O6 0.247380 0.714298 0.878199
O O7 0.173555 0.747908 0.974553
O O8 0.790842 0.500000 0.574868
O O9 0.750000 0.250000 0.500000
O O10 0.853637 0.315924 0.516077
O O11 0.821187 0.252413 0.666370
O O12 0.046932 0.764903 0.416528
O O13 0.075951 0.786616 0.257551
O O14 0.021634 0.000000 0.309819
O O15 0.568674 0.000000 0.486560
O O16 0.848487 0.781629 0.851748
O O17 0.856805 0.000000 0.742904
O O18 0.814099 0.000000 0.935840
#
# Coordination Sequence:
#
# PCOD9190869 Si02
#       7
#     8   8   8   8   8   8   8
#     4  10  20  34  53  75 101 137 176 210 250 304
#     4   9  19  34  54  79 103 128 167 216 258 303
#     4  10  20  32  49  75 106 137 171 212 252 300
#     4  10  20  34  51  76 106 135 170 214 256 298
#     4   9  19  34  52  72 100 140 178 206 246 305
#     4   9  19  35  55  74 100 138 173 206 256 311
#     4   9  18  35  58  77 100 133 167 209 262 312
#
# _framework density 17.328869000000001
#
# number of rings (size 3 to 8) (size 9 to 14) (size 15 to 20)
#    0.000    2.571    0.000    1.286    2.000    4.571 
#    0.000    0.714    0.000    4.286    0.000    0.000 
#    0.000    0.000    0.000    0.000    0.000    0.000 
#
# Total GULP energy -156199.043218 kJ/mol
# GULP energy per Si atom -5578.537258 kJ/mol
# Density = 1.728943 g / cm^3
# Si number density = 17.328869 Si / 1000 Ang^3
#
#
#
# Elastic Constant Matrix: (Units=GPa)
#
#
# Indices 1 2 3 4 5 6 
#
# 1 65.2714 23.0623 58.2770 0.0000 -3.8281 0.0000
# 2 23.0623 16.3676 21.1658 0.0000 -1.8821 0.0000
# 3 58.2770 21.1658 85.2854 0.0000 -13.3688 0.0000
# 4 0.0000 0.0000 0.0000 29.3694 0.0000 2.6453
# 5 -3.8281 -1.8821 -13.3688 0.0000 28.4087 0.0000
# 6 0.0000 0.0000 0.0000 2.6453 0.0000 27.9863
#
#
#
# Elastic Compliance Matrix: (Units=1/GPa)
#
#
# Indices 1 2 3 4 5 6 
#
# 1 0.055180 -0.041547 -0.028783 0.000000 -0.008862 0.000000
# 2 -0.041547 0.121892 -0.001590 0.000000 0.001729 0.000000
# 3 -0.028783 -0.001590 0.033645 0.000000 0.011849 0.000000
# 4 0.000000 0.000000 0.000000 0.034341 0.000000 -0.003246
# 5 -0.008862 0.001729 0.011849 0.000000 0.039697 0.000000
# 6 0.000000 0.000000 0.000000 -0.003246 0.000000 0.036039
#
#
# Mechanical properties :
#
#
# Convention : Reuss Voigt Hill
#
# Bulk Modulus (GPa) = 14.95295 41.32606 28.13950
# Shear Modulus (GPa) = 10.26849 21.44749 15.85799
#
# Velocity S-wave (km/s) = 2.43691 3.52188 3.02838
# Velocity P-wave (km/s) = 4.07010 6.35909 5.33871
#
# Compressibility (1/GPa) = 0.06687643
#
# Stress axis : x y z
#
# Youngs Moduli (GPa) = 18.12261 8.20400 29.72170
#
# Poissons Ratio (x) = 0.34085 0.85549
# Poissons Ratio (y) = 0.75294 0.04725
# Poissons Ratio (z) = 0.52163 0.01304
#
# Static dielectric constant tensor:
#      x y z
#    x 1.596340 0.000000 -0.008080 
#    y 0.000000 1.579240 0.000000 
#    z -0.008080 0.000000 1.557750 
# 
# From -- ./inp_files/181019.got.cif
#   From: 2010.05.17/outbox.cif.g08.bks.cpg/sg12_91_cif.got.tgz:181019.got - 2010.06.03 13:09:07.
