data_PCOD9190275
_publ_section_title
;
Structure prediction by ZEFSAII (Michael W. Deem and Ramdas Pophale) SiO2 
 PCOD9190275
Probable space group: C 2/M
;
_chemical_formula_sum "Si O2"
_cell_formula_units_Z 52
_cell_length_a 17.362105
_cell_length_b 24.121063
_cell_length_c 14.834559
_cell_angle_alpha 90.000000
_cell_angle_beta 150.700413
_cell_angle_gamma 90.000000
_cell_volume 3040.298851
_symmetry_space_group_name_H-M "C 2/M"
_symmetry_group_IT_number 12
_symmetry_cell_setting 'monoclinic'
loop_
_space_group_symop_operation_xyz
x,y,z
-x,y,-z
-x,-y,-z
x,-y,z
1/2+x,1/2+y,z
1/2-x,1/2+y,-z
1/2-x,1/2-y,-z
1/2+x,1/2-y,z
loop_
_atom_site_type_symbol
_atom_site_label
_atom_site_fract_x
_atom_site_fract_y
_atom_site_fract_z
Si Si1 0.500000 0.223113 0.000000
Si Si2 0.511796 0.263485 0.303284
Si Si3 0.353971 0.437479 0.803753
Si Si4 0.856714 0.434037 0.572042
Si Si5 0.281902 0.287705 0.904017
Si Si6 0.327698 0.827830 0.652245
Si Si7 0.113309 0.601636 0.692752
O O1 0.363382 0.262268 0.899760
O O2 0.425335 0.187849 0.841688
O O3 0.375138 0.247527 0.233663
O O4 0.597454 0.207659 0.354443
O O5 0.647751 0.305553 0.474010
O O6 0.412142 0.284320 0.115587
O O7 0.403732 0.500000 0.830651
O O8 0.281317 0.414588 0.638055
O O9 0.217435 0.439596 0.739114
O O10 0.500000 0.407811 0.000000
O O11 0.842482 0.500000 0.576411
O O12 0.846811 0.392167 0.645292
O O13 0.013716 0.424478 0.671989
O O14 0.225603 0.350293 0.840684
O O15 0.000000 0.627123 0.500000
#
# Coordination Sequence:
#
# PCOD9190275 Si02
#       7
#     4   8   8   8   8   8   8
#     4  10  24  34  53  80 115 136 186 216 280 310
#     4   9  20  35  56  75 110 138 181 214 278 313
#     4   9  19  32  47  73 106 136 173 218 261 312
#     4  10  20  36  55  75 103 146 184 219 265 318
#     4  10  20  34  51  83 106 143 172 221 259 338
#     4  10  20  37  55  80 108 146 176 233 260 327
#     4  10  20  29  51  76 110 138 174 209 265 323
#
# _framework density 17.103580999999998
#
# number of rings (size 3 to 8) (size 9 to 14) (size 15 to 20)
#    0.000    2.308    1.538    0.462    5.385    4.308 
#    0.000    0.385    0.000    0.000    0.000    1.077 
#    0.000    0.000    0.000    0.000    0.000    0.000 
#
# Total GULP energy -144790.248850 kJ/mol
# GULP energy per Si atom -5568.855725 kJ/mol
# Density = 1.706465 g / cm^3
# Si number density = 17.103581 Si / 1000 Ang^3
#
#
#
# Elastic Constant Matrix: (Units=GPa)
#
#
# Indices 1 2 3 4 5 6 
#
# 1 64.6132 19.2578 21.6771 0.0000 5.3057 0.0000
# 2 19.2578 86.3729 30.3555 0.0000 -6.0216 0.0000
# 3 21.6771 30.3555 72.4936 0.0000 12.8122 0.0000
# 4 0.0000 0.0000 0.0000 14.8313 0.0000 1.8968
# 5 5.3057 -6.0216 12.8122 0.0000 17.6166 0.0000
# 6 0.0000 0.0000 0.0000 1.8968 0.0000 14.9200
#
#
#
# Elastic Compliance Matrix: (Units=1/GPa)
#
#
# Indices 1 2 3 4 5 6 
#
# 1 0.017844 -0.003085 -0.003337 0.000000 -0.004002 0.000000
# 2 -0.003085 0.015867 -0.007854 0.000000 0.012064 0.000000
# 3 -0.003337 -0.007854 0.021088 0.000000 -0.017017 0.000000
# 4 0.000000 0.000000 0.000000 0.068539 0.000000 -0.008713
# 5 -0.004002 0.012064 -0.017017 0.000000 0.074469 0.000000
# 6 0.000000 0.000000 0.000000 -0.008713 0.000000 0.068132
#
#
# Mechanical properties :
#
#
# Convention : Reuss Voigt Hill
#
# Bulk Modulus (GPa) = 38.09757 40.67339 39.38548
# Shear Modulus (GPa) = 16.48859 19.61953 18.05406
#
# Velocity S-wave (km/s) = 3.10827 3.39056 3.25248
# Velocity P-wave (km/s) = 5.93336 6.25781 6.09774
#
# Compressibility (1/GPa) = 0.02624839
#
# Stress axis : x y z
#
# Youngs Moduli (GPa) = 56.04054 63.02470 47.41992
#
# Poissons Ratio (x) = 0.19442 0.15823
# Poissons Ratio (y) = 0.17288 0.37242
# Poissons Ratio (z) = 0.18700 0.49498
#
# Static dielectric constant tensor:
#      x y z
#    x 1.586080 0.000000 0.015630 
#    y 0.000000 1.594170 0.000000 
#    z 0.015630 0.000000 1.630240 
# 
# From -- ./inp_files/227914.got.cif
#   From: 2010.05.17/outbox.cif.g08.bks.cpg/sg12_114_cif.got.tgz:227914.got - 2010.06.03 13:09:07.
