data_PCOD9190034
_publ_section_title
;
Structure prediction by ZEFSAII (Michael W. Deem and Ramdas Pophale) SiO2 
 PCOD9190034
Probable space group: C 2/M
;
_chemical_formula_sum "Si O2"
_cell_formula_units_Z 58
_cell_length_a 18.305027
_cell_length_b 14.321146
_cell_length_c 11.633600
_cell_angle_alpha 90.000000
_cell_angle_beta 102.007689
_cell_angle_gamma 90.000000
_cell_volume 2983.007018
_symmetry_space_group_name_H-M "C 2/M"
_symmetry_group_IT_number 12
_symmetry_cell_setting 'monoclinic'
loop_
_space_group_symop_operation_xyz
x,y,z
-x,y,-z
-x,-y,-z
x,-y,z
1/2+x,1/2+y,z
1/2-x,1/2+y,-z
1/2-x,1/2-y,-z
1/2+x,1/2-y,z
loop_
_atom_site_type_symbol
_atom_site_label
_atom_site_fract_x
_atom_site_fract_y
_atom_site_fract_z
Si Si1 0.418128 0.204543 0.215263
Si Si2 0.800610 0.242876 0.369749
Si Si3 0.180960 0.112714 0.414601
Si Si4 0.000000 0.000000 0.000000
Si Si5 0.052394 0.837721 0.189298
Si Si6 0.468546 0.892351 0.607458
Si Si7 0.167624 0.605257 0.280642
Si Si8 0.586654 0.166605 0.040647
O O1 0.357268 0.232350 0.288044
O O2 0.481884 0.284395 0.223559
O O3 0.465138 0.117659 0.279576
O O4 0.385471 0.181531 0.079372
O O5 0.837316 0.177145 0.480031
O O6 0.759286 0.337417 0.401164
O O7 0.734865 0.176662 0.302008
O O8 0.116056 0.130130 0.299161
O O9 0.187705 0.000000 0.434982
O O10 0.979252 0.920128 0.897459
O O11 0.086444 0.764094 0.109615
O O12 0.500000 0.847667 0.500000
O O13 0.394073 0.858470 0.647469
O O14 0.452078 0.000000 0.576390
O O15 0.190152 0.500000 0.320056
O O16 0.130847 0.602412 0.142791
O O17 0.500000 0.137285 0.000000
#
# Coordination Sequence:
#
# PCOD9190034 Si02
#       8
#     8   8   8   2   8   8   8   8
#     4  11  23  39  64  93 129 162 210 268 324 380
#     4  11  26  42  63  92 136 174 202 266 329 391
#     4  11  24  44  67  91 125 174 223 258 320 395
#     4  12  20  40  72  98 122 172 220 284 322 372
#     4  11  21  41  67  95 121 167 220 272 319 369
#     4  10  22  37  63  95 122 162 214 267 308 374
#     4  11  22  42  65  90 131 172 209 257 326 388
#     4  10  19  39  64  92 120 160 212 265 320 375
#
# _framework density 19.443467999999999
#
# number of rings (size 3 to 8) (size 9 to 14) (size 15 to 20)
#    0.000    1.241    6.897    0.414    5.793    1.931 
#    2.483    0.690    0.000    0.000    0.000    0.000 
#    0.000    0.000    0.000    0.000    0.000    0.000 
#
# Total GULP energy -161500.411695 kJ/mol
# GULP energy per Si atom -5568.979714 kJ/mol
# Density = 1.939921 g / cm^3
# Si number density = 19.443468 Si / 1000 Ang^3
#
#
#
# Elastic Constant Matrix: (Units=GPa)
#
#
# Indices 1 2 3 4 5 6 
#
# 1 57.5504 7.2420 38.1955 0.0000 -9.9565 0.0000
# 2 7.2420 72.6522 0.8281 0.0000 -1.8944 0.0000
# 3 38.1955 0.8281 119.8030 0.0000 -0.0411 0.0000
# 4 0.0000 0.0000 0.0000 28.7944 0.0000 1.0977
# 5 -9.9565 -1.8944 -0.0411 0.0000 41.3815 0.0000
# 6 0.0000 0.0000 0.0000 1.0977 0.0000 7.0239
#
#
#
# Elastic Compliance Matrix: (Units=1/GPa)
#
#
# Indices 1 2 3 4 5 6 
#
# 1 0.023586 -0.002120 -0.007503 0.000000 0.005570 0.000000
# 2 -0.002120 0.013972 0.000579 0.000000 0.000130 0.000000
# 3 -0.007503 0.000579 0.010735 0.000000 -0.001768 0.000000
# 4 0.000000 0.000000 0.000000 0.034937 0.000000 -0.005460
# 5 0.005570 0.000130 -0.001768 0.000000 0.025510 0.000000
# 6 0.000000 0.000000 0.000000 -0.005460 0.000000 0.143225
#
#
# Mechanical properties :
#
#
# Convention : Reuss Voigt Hill
#
# Bulk Modulus (GPa) = 33.10696 38.05967 35.58332
# Shear Modulus (GPa) = 17.84937 29.02263 23.43600
#
# Velocity S-wave (km/s) = 3.03316 3.86770 3.47557
# Velocity P-wave (km/s) = 5.41581 6.28987 5.86913
#
# Compressibility (1/GPa) = 0.03020513
#
# Stress axis : x y z
#
# Youngs Moduli (GPa) = 42.39736 71.56995 93.15677
#
# Poissons Ratio (x) = 0.15175 0.69898
# Poissons Ratio (y) = 0.08990 -0.05398
# Poissons Ratio (z) = 0.31812 -0.04147
#
# Static dielectric constant tensor:
#      x y z
#    x 1.692320 0.000000 0.006770 
#    y 0.000000 1.703420 0.000000 
#    z 0.006770 0.000000 1.720230 
# 
# From -- ./inp_files/156119.got.cif
#   From: 2010.05.17/outbox.cif.g08.bks.cpg/sg12_79_cif.got.tgz:156119.got - 2010.06.03 13:09:07.
