data_PCOD9190092
_publ_section_title
;
Structure prediction by ZEFSAII (Michael W. Deem and Ramdas Pophale) SiO2 
 PCOD9190092
Probable space group: C 2/M
;
_chemical_formula_sum "Si O2"
_cell_formula_units_Z 60
_cell_length_a 8.220963
_cell_length_b 28.624380
_cell_length_c 20.572100
_cell_angle_alpha 90.000000
_cell_angle_beta 27.357237
_cell_angle_gamma 90.000000
_cell_volume 2224.630684
_symmetry_space_group_name_H-M "C 2/M"
_symmetry_group_IT_number 12
_symmetry_cell_setting 'monoclinic'
loop_
_space_group_symop_operation_xyz
x,y,z
-x,y,-z
-x,-y,-z
x,-y,z
1/2+x,1/2+y,z
1/2-x,1/2+y,-z
1/2-x,1/2-y,-z
1/2+x,1/2-y,z
loop_
_atom_site_type_symbol
_atom_site_label
_atom_site_fract_x
_atom_site_fract_y
_atom_site_fract_z
Si Si1 0.436741 0.882384 0.342114
Si Si2 0.000000 0.192409 0.000000
Si Si3 0.372032 0.949690 0.119550
Si Si4 0.940736 0.192887 0.376470
Si Si5 0.533879 0.948390 0.198342
Si Si6 0.499223 0.784067 0.287736
Si Si7 0.088215 0.344554 0.893123
Si Si8 0.773143 0.414573 0.523415
O O1 0.614736 0.904844 0.215554
O O2 0.594098 0.831024 0.294001
O O3 0.497067 0.918416 0.378323
O O4 0.000000 0.880648 0.500000
O O5 0.808636 0.223552 0.123965
O O6 0.721377 0.163858 0.052366
O O7 0.653206 0.948826 0.080672
O O8 0.248391 0.896563 0.169202
O O9 0.187623 0.000000 0.194821
O O10 0.500000 0.951117 0.000000
O O11 0.202147 0.197408 0.343965
O O12 0.856146 0.247111 0.390641
O O13 0.105996 0.186120 0.246122
O O14 0.763672 0.142449 0.453567
O O15 0.105603 0.939362 0.345423
O O16 0.595179 0.000000 0.204292
O O17 0.000000 0.335535 0.000000
O O18 0.000000 0.434719 0.500000
#
# Coordination Sequence:
#
# PCOD9190092 Si02
#       8
#     8   4   8   8   8   8   8   8
#     4  10  21  42  62  86 122 164 212 259 306 381
#     4  10  24  40  59  92 128 162 207 278 314 376
#     4   9  17  34  64  94 122 162 204 250 315 389
#     4  11  24  40  59  89 123 163 211 261 319 378
#     4  10  19  39  68  91 121 163 206 256 320 380
#     4  11  24  40  62  88 125 162 214 262 315 381
#     4  10  21  38  62  88 125 166 207 255 329 382
#     4  11  24  40  60  91 128 160 211 268 315 376
#
# _framework density 26.970769000000001
#
# number of rings (size 3 to 8) (size 9 to 14) (size 15 to 20)
#    0.000    1.733    4.000    0.800    4.667    4.800 
#    0.000    0.333    0.000    0.800    0.000    0.000 
#    0.000    0.000    0.000    0.000    0.000    0.000 
#
# Total GULP energy -167035.309010 kJ/mol
# GULP energy per Si atom -5567.843634 kJ/mol
# Density = 2.690938 g / cm^3
# Si number density = 26.970769 Si / 1000 Ang^3
#
#
#
# Elastic Constant Matrix: (Units=GPa)
#
#
# Indices 1 2 3 4 5 6 
#
# 1 79.9824 -4.6692 14.4843 -0.0002 26.5926 -0.0014
# 2 -4.6692 121.1801 22.2962 -0.0012 6.7846 -0.0008
# 3 14.4843 22.2962 95.2109 0.0018 37.8228 -0.0019
# 4 -0.0002 -0.0012 0.0018 53.6538 -0.0016 2.0443
# 5 26.5926 6.7846 37.8228 -0.0016 50.2066 0.0010
# 6 -0.0014 -0.0008 -0.0019 2.0443 0.0010 23.3231
#
#
#
# Elastic Compliance Matrix: (Units=1/GPa)
#
#
# Indices 1 2 3 4 5 6 
#
# 1 0.015377 0.000907 0.001045 0.000000 -0.009055 0.000001
# 2 0.000907 0.008686 -0.002162 0.000000 -0.000026 0.000000
# 3 0.001045 -0.002162 0.015632 -0.000001 -0.012038 0.000002
# 4 0.000000 0.000000 -0.000001 0.018700 0.000001 -0.001639
# 5 -0.009055 -0.000026 -0.012038 0.000001 0.033786 -0.000003
# 6 0.000001 0.000000 0.000002 -0.001639 -0.000003 0.043020
#
#
# Mechanical properties :
#
#
# Convention : Reuss Voigt Hill
#
# Bulk Modulus (GPa) = 25.46048 40.06620 32.76334
# Shear Modulus (GPa) = 33.62181 43.05418 38.33799
#
# Velocity S-wave (km/s) = 3.53456 3.99974 3.77432
# Velocity P-wave (km/s) = 5.11057 6.01816 5.58284
#
# Compressibility (1/GPa) = 0.03927656
#
# Stress axis : x y z
#
# Youngs Moduli (GPa) = 65.03261 115.12308 63.96951
#
# Poissons Ratio (x) = -0.10443 -0.06687
# Poissons Ratio (y) = -0.05899 0.13830
# Poissons Ratio (z) = -0.06798 0.24889
#
# Static dielectric constant tensor:
#      x y z
#    x 3.923520 -0.000060 -0.273820 
#    y -0.000060 2.121070 0.000010 
#    z -0.273820 0.000010 2.217620 
# 
# From -- ./inp_files/302761.got.cif
#   From: 2010.05.17/outbox.cif.g08.bks.cpg/sg12_152_cif.got.tgz:302761.got - 2010.06.03 13:09:07.
