data_PCOD9190796
_publ_section_title
;
Structure prediction by ZEFSAII (Michael W. Deem and Ramdas Pophale) SiO2 
 PCOD9190796
Probable space group: C 2/M
;
_chemical_formula_sum "Si O2"
_cell_formula_units_Z 56
_cell_length_a 10.186142
_cell_length_b 14.274973
_cell_length_c 16.170803
_cell_angle_alpha 90.000000
_cell_angle_beta 106.577629
_cell_angle_gamma 90.000000
_cell_volume 2253.610417
_symmetry_space_group_name_H-M "C 2/M"
_symmetry_group_IT_number 12
_symmetry_cell_setting 'monoclinic'
loop_
_space_group_symop_operation_xyz
x,y,z
-x,y,-z
-x,-y,-z
x,-y,z
1/2+x,1/2+y,z
1/2-x,1/2+y,-z
1/2-x,1/2-y,-z
1/2+x,1/2-y,z
loop_
_atom_site_type_symbol
_atom_site_label
_atom_site_fract_x
_atom_site_fract_y
_atom_site_fract_z
Si Si1 0.989383 0.134595 0.622130
Si Si2 0.155437 0.631447 0.043819
Si Si3 0.190055 0.822873 0.250252
Si Si4 0.642277 0.642860 0.059620
Si Si5 0.957392 0.349896 0.379461
Si Si6 0.224396 0.362429 0.496605
Si Si7 0.778676 0.600785 0.756622
O O1 0.895691 0.140580 0.687641
O O2 0.877475 0.098508 0.534637
O O3 0.025749 0.239482 0.600794
O O4 0.134131 0.096801 0.680752
O O5 0.150500 0.744398 0.049811
O O6 0.224958 0.601507 0.142922
O O7 0.239141 0.605381 0.977346
O O8 0.000000 0.601258 0.000000
O O9 0.143799 0.868762 0.157474
O O10 0.351034 0.850373 0.285708
O O11 0.171500 0.708904 0.249863
O O12 0.500000 0.608455 0.000000
O O13 0.867315 0.387621 0.439687
O O14 0.113715 0.386164 0.405315
O O15 0.250000 0.250000 0.500000
O O16 0.850281 0.500000 0.751115
#
# Coordination Sequence:
#
# PCOD9190796 Si02
#       7
#     8   8   8   8   8   8   8
#     4   9  16  28  46  70  96 131 171 209 251 306
#     4   9  18  30  46  67  95 131 170 210 255 309
#     4   9  17  28  47  72  98 130 172 215 258 308
#     4   9  16  28  47  71  96 125 167 217 259 299
#     4   8  14  23  40  70  97 119 158 213 252 288
#     4   8  13  23  40  67  98 124 155 206 254 292
#     4  10  20  32  48  74 106 134 166 213 268 316
#
# _framework density 24.849015000000001
#
# number of rings (size 3 to 8) (size 9 to 14) (size 15 to 20)
#    0.000    3.143    0.000    0.857    0.000    7.143 
#    0.000    0.000    0.000    3.857    0.000  221.000 
#    0.000    0.000    0.000    0.000    0.000    0.000 
#
# Total GULP energy -155995.219609 kJ/mol
# GULP energy per Si atom -5571.257843 kJ/mol
# Density = 2.479246 g / cm^3
# Si number density = 24.849015 Si / 1000 Ang^3
#
#
#
# Elastic Constant Matrix: (Units=GPa)
#
#
# Indices 1 2 3 4 5 6 
#
# 1 119.4003 0.3195 37.1990 0.0000 14.7037 0.0000
# 2 0.3195 94.1454 9.4914 0.0000 5.3744 0.0000
# 3 37.1990 9.4914 131.8120 0.0000 25.1309 0.0000
# 4 0.0000 0.0000 0.0000 116.0762 0.0000 -48.0137
# 5 14.7037 5.3744 25.1309 0.0000 39.9515 0.0000
# 6 0.0000 0.0000 0.0000 -48.0137 0.0000 32.2223
#
#
#
# Elastic Compliance Matrix: (Units=1/GPa)
#
#
# Indices 1 2 3 4 5 6 
#
# 1 0.009333 0.000314 -0.002265 0.000000 -0.002052 0.000000
# 2 0.000314 0.010752 -0.000642 0.000000 -0.001158 0.000000
# 3 -0.002265 -0.000642 0.009200 0.000000 -0.004867 0.000000
# 4 0.000000 0.000000 0.000000 0.022456 0.000000 0.033461
# 5 -0.002052 -0.001158 -0.004867 0.000000 0.029003 0.000000
# 6 0.000000 0.000000 0.000000 0.033461 0.000000 0.080894
#
#
# Mechanical properties :
#
#
# Convention : Reuss Voigt Hill
#
# Bulk Modulus (GPa) = 41.49754 48.81972 45.15863
# Shear Modulus (GPa) = 28.59495 57.53986 43.06741
#
# Velocity S-wave (km/s) = 3.39595 4.81727 4.16764
# Velocity P-wave (km/s) = 5.66681 7.11552 6.43208
#
# Compressibility (1/GPa) = 0.02409781
#
# Stress axis : x y z
#
# Youngs Moduli (GPa) = 107.14930 93.00915 108.69576
#
# Poissons Ratio (x) = -0.02919 0.24621
# Poissons Ratio (y) = -0.03363 0.06978
# Poissons Ratio (z) = 0.24271 0.05971
#
# Static dielectric constant tensor:
#      x y z
#    x 1.930150 0.000000 0.030400 
#    y 0.000000 2.033490 0.000000 
#    z 0.030400 0.000000 1.976990 
# 
# From -- ./inp_files/263966.got.cif
#   From: 2010.05.17/outbox.cif.g08.bks.cpg/sg12_132_cif.got.tgz:263966.got - 2010.06.03 13:09:07.
