data_PCOD9190787
_publ_section_title
;
Structure prediction by ZEFSAII (Michael W. Deem and Ramdas Pophale) SiO2 
 PCOD9190787
Probable space group: C 2/M
;
_chemical_formula_sum "Si O2"
_cell_formula_units_Z 48
_cell_length_a 15.045521
_cell_length_b 7.517107
_cell_length_c 17.061173
_cell_angle_alpha 90.000000
_cell_angle_beta 103.253347
_cell_angle_gamma 90.000000
_cell_volume 1878.204874
_symmetry_space_group_name_H-M "C 2/M"
_symmetry_group_IT_number 12
_symmetry_cell_setting 'monoclinic'
loop_
_space_group_symop_operation_xyz
x,y,z
-x,y,-z
-x,-y,-z
x,-y,z
1/2+x,1/2+y,z
1/2-x,1/2+y,-z
1/2-x,1/2-y,-z
1/2+x,1/2-y,z
loop_
_atom_site_type_symbol
_atom_site_label
_atom_site_fract_x
_atom_site_fract_y
_atom_site_fract_z
Si Si1 0.462606 0.781957 0.872467
Si Si2 0.846176 0.300970 0.056579
Si Si3 0.741023 0.215823 0.181139
Si Si4 0.775021 0.288109 0.642050
Si Si5 0.525321 0.216666 0.305956
Si Si6 0.919436 0.286987 0.428187
O O1 0.554241 0.715323 0.933686
O O2 0.359230 0.730987 0.873261
O O3 0.474501 0.727315 0.783934
O O4 0.463342 0.000000 0.874473
O O5 0.860064 0.500000 0.031394
O O6 0.821195 0.291926 0.143980
O O7 0.750000 0.250000 0.000000
O O8 0.741900 0.275021 0.271689
O O9 0.746841 0.000000 0.179441
O O10 0.781428 0.500000 0.648259
O O11 0.876057 0.227902 0.638662
O O12 0.685584 0.248575 0.573966
O O13 0.445121 0.279666 0.346193
O O14 0.522160 0.000000 0.304033
O O15 0.927321 0.500000 0.429637
O O16 0.000000 0.218935 0.500000
#
# Coordination Sequence:
#
# PCOD9190787 Si02
#       6
#     8   8   8   8   8   8
#     4   8  16  32  54  73  93 130 172 203 243 306
#     4  11  22  35  52  76 105 137 168 201 246 297
#     4   9  18  35  56  76  96 124 168 214 251 294
#     4   9  18  33  54  75  96 127 167 211 254 297
#     4   8  15  31  52  72  96 129 168 206 249 302
#     4  10  20  32  48  73 105 138 170 206 248 296
#
# _framework density 25.556318999999998
#
# number of rings (size 3 to 8) (size 9 to 14) (size 15 to 20)
#    0.000    2.833    0.000    3.500    0.000    3.667 
#    0.000    5.833    0.000    3.000    0.000    0.000 
#    0.000    0.000    0.000    0.000    0.000    0.000 
#
# Total GULP energy -134038.863601 kJ/mol
# GULP energy per Si atom -5584.952650 kJ/mol
# Density = 2.549815 g / cm^3
# Si number density = 25.556319 Si / 1000 Ang^3
#
#
#
# Elastic Constant Matrix: (Units=GPa)
#
#
# Indices 1 2 3 4 5 6 
#
# 1 170.7805 -4.9142 36.6063 0.0000 37.0136 0.0000
# 2 -4.9142 57.0808 1.0323 0.0000 1.2854 0.0000
# 3 36.6063 1.0323 49.0428 0.0000 27.0335 0.0000
# 4 0.0000 0.0000 0.0000 9.4158 0.0000 3.3946
# 5 37.0136 1.2854 27.0335 0.0000 52.9627 0.0000
# 6 0.0000 0.0000 0.0000 3.3946 0.0000 5.6356
#
#
#
# Elastic Compliance Matrix: (Units=1/GPa)
#
#
# Indices 1 2 3 4 5 6 
#
# 1 0.007387 0.000777 -0.003721 0.000000 -0.003282 0.000000
# 2 0.000777 0.017612 -0.000579 0.000000 -0.000675 0.000000
# 3 -0.003721 -0.000579 0.030250 0.000000 -0.012826 0.000000
# 4 0.000000 0.000000 0.000000 0.135665 0.000000 -0.081716
# 5 -0.003282 -0.000675 -0.012826 0.000000 0.027738 0.000000
# 6 0.000000 0.000000 0.000000 -0.081716 0.000000 0.226663
#
#
# Mechanical properties :
#
#
# Convention : Reuss Voigt Hill
#
# Bulk Modulus (GPa) = 20.74539 38.03920 29.39230
# Shear Modulus (GPa) = 10.67404 29.88147 20.27775
#
# Velocity S-wave (km/s) = 2.04591 3.42312 2.81989
# Velocity P-wave (km/s) = 3.70353 5.52634 4.70407
#
# Compressibility (1/GPa) = 0.04820347
#
# Stress axis : x y z
#
# Youngs Moduli (GPa) = 135.37889 56.78080 33.05814
#
# Poissons Ratio (x) = -0.04413 0.12300
# Poissons Ratio (y) = -0.10521 0.01913
# Poissons Ratio (z) = 0.50372 0.03285
#
# Static dielectric constant tensor:
#      x y z
#    x 1.994400 0.000000 0.041770 
#    y 0.000000 1.984640 0.000000 
#    z 0.041770 0.000000 2.085990 
# 
# From -- ./inp_files/308281.got.cif
#   From: 2010.05.17/outbox.cif.g08.bks.cpg/sg12_155_cif.got.tgz:308281.got - 2010.06.03 13:09:07.
