data_PCOD9190086
_publ_section_title
;
Structure prediction by ZEFSAII (Michael W. Deem and Ramdas Pophale) SiO2 
 PCOD9190086
Probable space group: C 2/M
;
_chemical_formula_sum "Si O2"
_cell_formula_units_Z 32
_cell_length_a 9.239186
_cell_length_b 21.025713
_cell_length_c 14.571138
_cell_angle_alpha 90.000000
_cell_angle_beta 151.156433
_cell_angle_gamma 90.000000
_cell_volume 1365.535826
_symmetry_space_group_name_H-M "C 2/M"
_symmetry_group_IT_number 12
_symmetry_cell_setting 'monoclinic'
loop_
_space_group_symop_operation_xyz
x,y,z
-x,y,-z
-x,-y,-z
x,-y,z
1/2+x,1/2+y,z
1/2-x,1/2+y,-z
1/2-x,1/2-y,-z
1/2+x,1/2-y,z
loop_
_atom_site_type_symbol
_atom_site_label
_atom_site_fract_x
_atom_site_fract_y
_atom_site_fract_z
Si Si1 0.000000 0.301239 0.000000
Si Si2 0.500000 0.773930 0.500000
Si Si3 0.292550 0.103274 0.036203
Si Si4 0.855154 0.000000 0.708460
Si Si5 0.457074 0.805209 0.283033
Si Si6 0.288102 0.000000 0.791873
O O1 0.827747 0.343966 0.977092
O O2 0.233741 0.253905 0.175412
O O3 0.519877 0.821103 0.423124
O O4 0.770398 0.725296 0.623204
O O5 0.307831 0.139851 0.140371
O O6 0.597412 0.060916 0.199511
O O7 0.012723 0.059073 0.851232
O O8 0.500000 0.000000 0.500000
O O9 0.973529 0.000000 0.667789
O O10 0.500000 0.000000 0.000000
#
# Coordination Sequence:
#
# PCOD9190086 Si02
#       6
#     4   4   8   4   8   4
#     4  12  20  39  66 109 146 204 224 280 380 452
#     4  10  24  42  62 104 148 200 254 292 346 432
#     4  10  19  39  68 100 149 197 238 290 379 439
#     4  10  20  40  70 108 142 190 256 314 353 426
#     4  11  23  41  66 103 154 198 240 296 363 436
#     4   8  16  36  64  94 136 190 242 288 363 430
#
# _framework density 23.434025999999999
#
# number of rings (size 3 to 8) (size 9 to 14) (size 15 to 20)
#    0.000    2.000    6.250    0.750    0.000    0.000 
#    2.250    2.500    0.000    9.000    0.000    0.000 
#    0.000    2.250    0.000    0.000    0.000    0.000 
#
# Total GULP energy -89274.342382 kJ/mol
# GULP energy per Si atom -5579.646399 kJ/mol
# Density = 2.338069 g / cm^3
# Si number density = 23.434026 Si / 1000 Ang^3
#
#
#
# Elastic Constant Matrix: (Units=GPa)
#
#
# Indices 1 2 3 4 5 6 
#
# 1 176.6066 61.5559 76.6098 -0.0002 -8.9142 -0.0006
# 2 61.5559 114.7793 43.6540 0.0000 -7.6599 -0.0001
# 3 76.6098 43.6540 101.6940 -0.0008 22.8194 0.0020
# 4 -0.0002 0.0000 -0.0008 20.1708 0.0009 2.6413
# 5 -8.9142 -7.6599 22.8194 0.0009 50.0847 0.0008
# 6 -0.0006 -0.0001 0.0020 2.6413 0.0008 19.7060
#
#
#
# Elastic Compliance Matrix: (Units=1/GPa)
#
#
# Indices 1 2 3 4 5 6 
#
# 1 0.010011 -0.002079 -0.007772 -0.000001 0.005005 0.000001
# 2 -0.002079 0.011634 -0.004171 0.000000 0.003310 0.000000
# 3 -0.007772 -0.004171 0.019975 0.000001 -0.011122 -0.000002
# 4 -0.000001 0.000000 0.000001 0.050462 -0.000002 -0.006764
# 5 0.005005 0.003310 -0.011122 -0.000002 0.026431 0.000000
# 6 0.000001 0.000000 -0.000002 -0.006764 0.000000 0.051653
#
#
# Mechanical properties :
#
#
# Convention : Reuss Voigt Hill
#
# Bulk Modulus (GPa) = 73.65941 84.07992 78.86966
# Shear Modulus (GPa) = 24.66264 32.07631 28.36947
#
# Velocity S-wave (km/s) = 3.24763 3.70373 3.48316
# Velocity P-wave (km/s) = 6.75009 7.36529 7.06439
#
# Compressibility (1/GPa) = 0.01357600
#
# Stress axis : x y z
#
# Youngs Moduli (GPa) = 99.88897 85.95166 50.06277
#
# Poissons Ratio (x) = 0.17868 0.38911
# Poissons Ratio (y) = 0.20765 0.20881
# Poissons Ratio (z) = 0.77639 0.35850
#
# Static dielectric constant tensor:
#      x y z
#    x 1.985300 0.000000 -0.040190 
#    y 0.000000 1.892810 0.000000 
#    z -0.040190 0.000000 2.095150 
# 
# From -- ./inp_files/199042.got.cif
#   From: 2010.05.17/outbox.cif.g08.bks.cpg/sg12_100_cif.got.tgz:199042.got - 2010.06.03 13:09:07.
