data_PCOD9190450
_publ_section_title
;
Structure prediction by ZEFSAII (Michael W. Deem and Ramdas Pophale) SiO2 
 PCOD9190450
Probable space group: C 2/M
;
_chemical_formula_sum "Si O2"
_cell_formula_units_Z 64
_cell_length_a 23.148039
_cell_length_b 8.994939
_cell_length_c 20.359207
_cell_angle_alpha 90.000000
_cell_angle_beta 117.765016
_cell_angle_gamma 90.000000
_cell_volume 3751.030433
_symmetry_space_group_name_H-M "C 2/M"
_symmetry_group_IT_number 12
_symmetry_cell_setting 'monoclinic'
loop_
_space_group_symop_operation_xyz
x,y,z
-x,y,-z
-x,-y,-z
x,-y,z
1/2+x,1/2+y,z
1/2-x,1/2+y,-z
1/2-x,1/2-y,-z
1/2+x,1/2-y,z
loop_
_atom_site_type_symbol
_atom_site_label
_atom_site_fract_x
_atom_site_fract_y
_atom_site_fract_z
Si Si1 0.803612 0.176543 0.796696
Si Si2 0.196620 0.178628 0.519088
Si Si3 0.813094 0.822368 0.335969
Si Si4 0.074149 0.322656 0.386070
Si Si5 0.892707 0.326781 0.944392
Si Si6 0.533659 0.321649 0.588197
Si Si7 0.991319 0.325836 0.102629
Si Si8 0.416558 0.322863 0.750437
O O1 0.734374 0.244446 0.740462
O O2 0.833994 0.238191 0.880320
O O3 0.855466 0.214691 0.765811
O O4 0.799857 0.000000 0.797797
O O5 0.250000 0.250000 0.500000
O O6 0.209444 0.215407 0.601885
O O7 0.127523 0.245844 0.461200
O O8 0.195433 0.000000 0.511748
O O9 0.889675 0.784812 0.371720
O O10 0.807435 0.000000 0.325476
O O11 0.079569 0.500000 0.391433
O O12 0.087273 0.263426 0.319849
O O13 0.004793 0.266293 0.376170
O O14 0.875200 0.500000 0.942086
O O15 0.951486 0.319529 0.922127
O O16 0.925587 0.276204 0.030189
O O17 0.500000 0.287877 0.500000
O O18 0.526837 0.500000 0.594601
O O19 0.984767 0.500000 0.117816
O O20 0.018367 0.228546 0.176397
O O21 0.416594 0.500000 0.739551
#
# Coordination Sequence:
#
# PCOD9190450 Si02
#       8
#     8   8   8   8   8   8   8   8
#     4  10  20  31  47  74 107 137 170 212 251 293
#     4  11  22  37  54  76 103 135 170 206 252 309
#     4  10  21  36  55  73  96 132 169 206 257 309
#     4  12  24  36  53  77 102 133 170 214 259 304
#     4   8  14  26  45  68  99 137 171 202 247 302
#     4  10  20  40  61  75  94 127 169 217 264 309
#     4   8  14  26  45  70  99 133 171 210 247 295
#     4  10  20  33  49  72 105 143 174 209 254 303
#
# _framework density 17.061978
#
# number of rings (size 3 to 8) (size 9 to 14) (size 15 to 20)
#    0.000    2.125    1.250    3.750    0.000    5.750 
#    0.000    2.500    0.000    0.000    0.000    0.875 
#    0.000    0.000    0.000    0.000    0.000    0.000 
#
# Total GULP energy -178512.502653 kJ/mol
# GULP energy per Si atom -5578.515708 kJ/mol
# Density = 1.702314 g / cm^3
# Si number density = 17.061978 Si / 1000 Ang^3
#
#
#
# Elastic Constant Matrix: (Units=GPa)
#
#
# Indices 1 2 3 4 5 6 
#
# 1 44.4502 15.4837 9.2169 0.0000 20.8141 0.0000
# 2 15.4837 35.3961 24.1215 0.0000 12.8785 0.0000
# 3 9.2169 24.1215 89.1736 0.0000 35.3394 0.0000
# 4 0.0000 0.0000 0.0000 28.4563 0.0000 2.8972
# 5 20.8141 12.8785 35.3394 0.0000 23.7378 0.0000
# 6 0.0000 0.0000 0.0000 2.8972 0.0000 22.1282
#
#
#
# Elastic Compliance Matrix: (Units=1/GPa)
#
#
# Indices 1 2 3 4 5 6 
#
# 1 0.087713 -0.022571 0.055281 0.000000 -0.146963 0.000000
# 2 -0.022571 0.041858 -0.019105 0.000000 0.025523 0.000000
# 3 0.055281 -0.019105 0.062852 0.000000 -0.131677 0.000000
# 4 0.000000 0.000000 0.000000 0.035616 0.000000 -0.004663
# 5 -0.146963 0.025523 -0.131677 0.000000 0.353175 0.000000
# 6 0.000000 0.000000 0.000000 -0.004663 0.000000 0.045802
#
#
# Mechanical properties :
#
#
# Convention : Reuss Voigt Hill
#
# Bulk Modulus (GPa) = 4.55303 29.62934 17.09118
# Shear Modulus (GPa) = 7.42924 22.87764 15.15344
#
# Velocity S-wave (km/s) = 2.08895 3.66574 2.98340
# Velocity P-wave (km/s) = 2.91421 5.94309 4.68043
#
# Compressibility (1/GPa) = 0.21963393
#
# Stress axis : x y z
#
# Youngs Moduli (GPa) = 11.40079 23.89030 15.91049
#
# Poissons Ratio (x) = 0.53922 -0.87955
# Poissons Ratio (y) = 0.25733 0.30396
# Poissons Ratio (z) = -0.63025 0.45641
#
# Static dielectric constant tensor:
#      x y z
#    x 1.576000 0.000000 0.016990 
#    y 0.000000 1.561690 0.000000 
#    z 0.016990 0.000000 1.590420 
# 
# From -- ./inp_files/320006.got.cif
#   From: 2010.05.17/outbox.cif.g08.bks.cpg/sg12_161_cif.got.tgz:320006.got - 2010.06.03 13:09:07.
