data_PCOD9190250
_publ_section_title
;
Structure prediction by ZEFSAII (Michael W. Deem and Ramdas Pophale) SiO2 
 PCOD9190250
Probable space group: C 2/M
;
_chemical_formula_sum "Si O2"
_cell_formula_units_Z 40
_cell_length_a 13.760224
_cell_length_b 5.851563
_cell_length_c 18.393299
_cell_angle_alpha 90.000000
_cell_angle_beta 67.222847
_cell_angle_gamma 90.000000
_cell_volume 1365.514235
_symmetry_space_group_name_H-M "C 2/M"
_symmetry_group_IT_number 12
_symmetry_cell_setting 'monoclinic'
loop_
_space_group_symop_operation_xyz
x,y,z
-x,y,-z
-x,-y,-z
x,-y,z
1/2+x,1/2+y,z
1/2-x,1/2+y,-z
1/2-x,1/2-y,-z
1/2+x,1/2-y,z
loop_
_atom_site_type_symbol
_atom_site_label
_atom_site_fract_x
_atom_site_fract_y
_atom_site_fract_z
Si Si1 0.485775 0.500000 0.092886
Si Si2 0.535264 0.749262 0.303610
Si Si3 0.031397 0.500000 0.905422
Si Si4 0.329555 0.500000 0.840959
Si Si5 0.815598 0.750303 0.277356
Si Si6 0.336347 0.749762 0.539253
Si Si7 0.800155 0.500000 0.998728
O O1 0.434508 0.255609 0.124734
O O2 0.590836 0.500000 0.112093
O O3 0.500000 0.500000 0.000000
O O4 0.532557 0.500000 0.343704
O O5 0.632184 0.711884 0.219512
O O6 0.427842 0.751318 0.287579
O O7 0.541661 0.000000 0.336702
O O8 0.905087 0.500000 0.919923
O O9 0.000000 0.500000 0.000000
O O10 0.212535 0.500000 0.908709
O O11 0.805548 0.500000 0.244484
O O12 0.726960 0.748394 0.366522
O O13 0.804115 0.000000 0.246491
O O14 0.388770 0.500000 0.517437
O O15 0.250000 0.750000 0.500000
O O16 0.389025 0.000000 0.517047
O O17 0.750000 0.750000 0.000000
#
# Coordination Sequence:
#
# PCOD9190250 Si02
#       7
#     4   8   4   4   8   8   4
#     4  10  20  32  48  62  82 106 132 161 202 251
#     4   8  16  24  35  50  69  94 116 149 189 229
#     4  10  20  36  48  64  86 112 131 157 206 255
#     4  10  20  28  46  58  86  92 136 154 210 235
#     4   8  12  20  28  39  58  81 109 138 179 219
#     4   8  12  16  24  36  51  73 103 139 174 208
#     4  12  22  32  48  70  86 106 133 172 206 248
#
# _framework density 29.292995000000001
#
# number of rings (size 3 to 8) (size 9 to 14) (size 15 to 20)
#    0.600    2.400    2.000    0.000    2.800    0.000 
#    0.000    0.000    0.000    0.000    0.000    0.000 
#    0.000    0.000    0.000    0.000    0.000    0.000 
#
# Total GULP energy -111576.382163 kJ/mol
# GULP energy per Si atom -5578.819108 kJ/mol
# Density = 2.922632 g / cm^3
# Si number density = 29.292995 Si / 1000 Ang^3
#
#
#
# Elastic Constant Matrix: (Units=GPa)
#
#
# Indices 1 2 3 4 5 6 
#
# 1 91.6676 56.7123 2.0224 0.0000 7.7395 0.0001
# 2 56.7123 436.8238 84.3235 0.0001 0.8851 0.0002
# 3 2.0224 84.3235 119.1707 0.0000 -3.3504 0.0000
# 4 0.0000 0.0001 0.0000 5.2124 0.0000 12.2569
# 5 7.7395 0.8851 -3.3504 0.0000 32.4832 0.0000
# 6 0.0001 0.0002 0.0000 12.2569 0.0000 19.4802
#
#
#
# Elastic Compliance Matrix: (Units=1/GPa)
#
#
# Indices 1 2 3 4 5 6 
#
# 1 0.012214 -0.001766 0.000965 0.000000 -0.002762 0.000000
# 2 -0.001766 0.002909 -0.002025 0.000000 0.000133 0.000000
# 3 0.000965 -0.002025 0.009831 0.000000 0.000839 0.000000
# 4 0.000000 0.000000 0.000000 -0.400062 0.000000 0.251718
# 5 -0.002762 0.000133 0.000839 0.000000 0.031526 0.000000
# 6 0.000000 0.000000 0.000000 0.251718 0.000000 -0.107046
#
#
# Mechanical properties :
#
#
# Convention : Reuss Voigt Hill
#
# Bulk Modulus (GPa) = 51.80894 103.75317 77.78106
# Shear Modulus (GPa) = -11.40144 45.07540 16.83698
#
# Velocity S-wave (km/s) = -1.97501 3.92698 2.40005
# Velocity P-wave (km/s) = 3.53892 7.48716 5.85583
#
# Compressibility (1/GPa) = 0.01930169
#
# Stress axis : x y z
#
# Youngs Moduli (GPa) = 81.87510 343.74107 101.71649
#
# Poissons Ratio (x) = 0.60717 -0.09815
# Poissons Ratio (y) = 0.14462 0.20595
# Poissons Ratio (z) = -0.07900 0.69600
#
# Static dielectric constant tensor:
#      x y z
#    x 2.875920 0.000000 -0.173650 
#    y 0.000000 2.166210 0.000000 
#    z -0.173650 0.000000 2.193270 
# 
# From -- ./inp_files/313051.got.cif
#   From: 2010.05.17/outbox.cif.g08.bks.cpg/sg12_157_cif.got.tgz:313051.got - 2010.06.03 13:09:07.
