data_PCOD9190303
_publ_section_title
;
Structure prediction by ZEFSAII (Michael W. Deem and Ramdas Pophale) SiO2 
 PCOD9190303
Probable space group: C 2/M
;
_chemical_formula_sum "Si O2"
_cell_formula_units_Z 34
_cell_length_a 14.394073
_cell_length_b 15.043930
_cell_length_c 6.852179
_cell_angle_alpha 90.000000
_cell_angle_beta 55.363759
_cell_angle_gamma 90.000000
_cell_volume 1220.831882
_symmetry_space_group_name_H-M "C 2/M"
_symmetry_group_IT_number 12
_symmetry_cell_setting 'monoclinic'
loop_
_space_group_symop_operation_xyz
x,y,z
-x,y,-z
-x,-y,-z
x,-y,z
1/2+x,1/2+y,z
1/2-x,1/2+y,-z
1/2-x,1/2-y,-z
1/2+x,1/2-y,z
loop_
_atom_site_type_symbol
_atom_site_label
_atom_site_fract_x
_atom_site_fract_y
_atom_site_fract_z
Si Si1 0.331543 0.643485 0.264904
Si Si2 0.000000 0.000000 0.000000
Si Si3 0.097069 0.664082 0.675444
Si Si4 0.859475 0.398741 0.960567
Si Si5 0.877168 0.102942 0.652710
O O1 0.409296 0.579652 0.045532
O O2 0.196519 0.649209 0.399475
O O3 0.378319 0.741965 0.247022
O O4 0.347255 0.599849 0.459513
O O5 0.117256 0.597784 0.832333
O O6 0.969644 0.653148 0.756559
O O7 0.858305 0.500000 0.886422
O O8 0.732318 0.358690 0.106702
O O9 0.000000 0.148162 0.500000
O O10 0.890558 0.000000 0.693309
#
# Coordination Sequence:
#
# PCOD9190303 Si02
#       5
#     8   2   8   8   8
#     4  10  20  30  46  73 101 131 151 196 252 290
#     4  12  20  28  46  74 104 128 158 184 250 316
#     4   9  17  30  46  70 103 118 156 206 244 281
#     4   9  16  27  51  73  90 123 163 199 240 281
#     4   9  17  32  50  70  92 121 165 203 228 275
#
# _framework density 27.849862999999999
#
# number of rings (size 3 to 8) (size 9 to 14) (size 15 to 20)
#    0.000    2.588    1.176    2.824    3.294    0.000 
#    0.000    1.176    0.000    0.000    0.000    1.647 
#    0.000    0.000    0.000    0.000    0.000    0.000 
#
# Total GULP energy -94751.125000 kJ/mol
# GULP energy per Si atom -5573.595588 kJ/mol
# Density = 2.778648 g / cm^3
# Si number density = 27.849863 Si / 1000 Ang^3
#
#
#
# Elastic Constant Matrix: (Units=GPa)
#
#
# Indices 1 2 3 4 5 6 
#
# 1 101.3228 7.2903 73.9556 0.0000 -49.9881 0.0000
# 2 7.2903 173.6900 50.9569 0.0000 -23.3584 0.0000
# 3 73.9556 50.9569 197.3719 0.0000 -80.8768 0.0000
# 4 0.0000 0.0000 0.0000 39.8376 0.0000 -3.6951
# 5 -49.9881 -23.3584 -80.8768 0.0000 88.9263 0.0000
# 6 0.0000 0.0000 0.0000 -3.6951 0.0000 11.0951
#
#
#
# Elastic Compliance Matrix: (Units=1/GPa)
#
#
# Indices 1 2 3 4 5 6 
#
# 1 0.015229 0.001203 -0.003793 0.000000 0.005427 0.000000
# 2 0.001203 0.006329 -0.001796 0.000000 0.000706 0.000000
# 3 -0.003793 -0.001796 0.009380 0.000000 0.005927 0.000000
# 4 0.000000 0.000000 0.000000 0.025902 0.000000 0.008627
# 5 0.005427 0.000706 0.005927 0.000000 0.019872 0.000000
# 6 0.000000 0.000000 0.000000 0.008627 0.000000 0.093003
#
#
# Mechanical properties :
#
#
# Convention : Reuss Voigt Hill
#
# Bulk Modulus (GPa) = 45.11220 81.86558 63.48889
# Shear Modulus (GPa) = 26.89981 50.65058 38.77520
#
# Velocity S-wave (km/s) = 3.11124 4.26925 3.73539
# Velocity P-wave (km/s) = 5.39814 7.33220 6.43821
#
# Compressibility (1/GPa) = 0.02216695
#
# Stress axis : x y z
#
# Youngs Moduli (GPa) = 65.66454 158.01315 106.60620
#
# Poissons Ratio (x) = -0.19017 0.40439
# Poissons Ratio (y) = -0.07903 0.19143
# Poissons Ratio (z) = 0.24908 0.28374
#
# Static dielectric constant tensor:
#      x y z
#    x 2.276310 0.000000 0.040430 
#    y 0.000000 2.443150 0.000000 
#    z 0.040430 0.000000 2.385640 
# 
# From -- ./inp_files/128960.got.cif
#   From: 2010.05.17/outbox.cif.g08.bks.cpg/sg12_65_cif.got.tgz:128960.got - 2010.06.03 13:09:07.
