data_PCOD9190707
_publ_section_title
;
Structure prediction by ZEFSAII (Michael W. Deem and Ramdas Pophale) SiO2 
 PCOD9190707
Probable space group: C 2/M
;
_chemical_formula_sum "Si O2"
_cell_formula_units_Z 56
_cell_length_a 26.104100
_cell_length_b 7.603531
_cell_length_c 14.379803
_cell_angle_alpha 90.000000
_cell_angle_beta 105.034119
_cell_angle_gamma 90.000000
_cell_volume 2756.458009
_symmetry_space_group_name_H-M "C 2/M"
_symmetry_group_IT_number 12
_symmetry_cell_setting 'monoclinic'
loop_
_space_group_symop_operation_xyz
x,y,z
-x,y,-z
-x,-y,-z
x,-y,z
1/2+x,1/2+y,z
1/2-x,1/2+y,-z
1/2-x,1/2-y,-z
1/2+x,1/2-y,z
loop_
_atom_site_type_symbol
_atom_site_label
_atom_site_fract_x
_atom_site_fract_y
_atom_site_fract_z
Si Si1 0.413261 0.796143 0.492106
Si Si2 0.636422 0.291386 0.239160
Si Si3 0.033315 0.712172 0.293458
Si Si4 0.811094 0.209769 0.545944
Si Si5 0.684970 0.207350 0.867600
Si Si6 0.918926 0.283757 0.285806
Si Si7 0.304786 0.286274 0.915123
O O1 0.443381 0.720807 0.596355
O O2 0.351064 0.785849 0.488024
O O3 0.423252 0.722694 0.394733
O O4 0.429666 0.000000 0.494994
O O5 0.645936 0.500000 0.241760
O O6 0.574766 0.263870 0.233508
O O7 0.668763 0.222248 0.344127
O O8 0.658471 0.223325 0.151976
O O9 0.034406 0.500000 0.297278
O O10 0.972458 0.768010 0.257369
O O11 0.750000 0.250000 0.500000
O O12 0.818242 0.000000 0.547450
O O13 0.635252 0.279183 0.786986
O O14 0.743930 0.276901 0.873385
O O15 0.687154 0.000000 0.847773
O O16 0.676893 0.229577 0.974091
O O17 0.917542 0.500000 0.286085
O O18 0.304165 0.500000 0.916018
#
# Coordination Sequence:
#
# PCOD9190707 Si02
#       7
#     8   8   8   8   8   8   8
#     4   9  17  30  50  72 100 134 165 198 240 287
#     4   9  19  34  52  70  95 134 167 194 244 301
#     4   9  17  31  50  76 102 128 166 206 237 282
#     4  10  20  32  47  71 102 131 165 202 239 290
#     4   9  18  32  52  75  96 123 161 205 249 293
#     4   9  17  30  52  76 100 130 166 202 245 294
#     4   9  18  34  53  71  95 126 162 202 248 298
#
# _framework density 20.315926000000001
#
# number of rings (size 3 to 8) (size 9 to 14) (size 15 to 20)
#    0.000    2.857    0.000    0.857    2.000    2.857 
#    0.000    2.857    0.000    7.714    0.000    0.000 
#    0.000    0.000    0.000    0.000    0.000    0.000 
#
# Total GULP energy -156180.882983 kJ/mol
# GULP energy per Si atom -5577.888678 kJ/mol
# Density = 2.026969 g / cm^3
# Si number density = 20.315926 Si / 1000 Ang^3
#
#
#
# Elastic Constant Matrix: (Units=GPa)
#
#
# Indices 1 2 3 4 5 6 
#
# 1 102.4022 -11.5833 53.1795 0.0000 -16.1236 0.0000
# 2 -11.5833 40.1378 -4.2516 0.0000 2.3765 0.0000
# 3 53.1795 -4.2516 59.6046 0.0000 -16.3456 0.0000
# 4 0.0000 0.0000 0.0000 14.2133 0.0000 -2.4739
# 5 -16.1236 2.3765 -16.3456 0.0000 32.8494 0.0000
# 6 0.0000 0.0000 0.0000 -2.4739 0.0000 15.1998
#
#
#
# Elastic Compliance Matrix: (Units=1/GPa)
#
#
# Indices 1 2 3 4 5 6 
#
# 1 0.018736 0.003638 -0.016221 0.000000 0.000862 0.000000
# 2 0.003638 0.025843 -0.001651 0.000000 -0.000905 0.000000
# 3 -0.016221 -0.001651 0.033561 0.000000 0.008857 0.000000
# 4 0.000000 0.000000 0.000000 0.072408 0.000000 0.011785
# 5 0.000862 -0.000905 0.008857 0.000000 0.035338 0.000000
# 6 0.000000 0.000000 0.000000 0.011785 0.000000 0.067709
#
#
# Mechanical properties :
#
#
# Convention : Reuss Voigt Hill
#
# Bulk Modulus (GPa) = 20.13177 30.75930 25.44553
# Shear Modulus (GPa) = 16.74372 23.43916 20.09144
#
# Velocity S-wave (km/s) = 2.87395 3.40035 3.14817
# Velocity P-wave (km/s) = 4.57642 5.53081 5.07610
#
# Compressibility (1/GPa) = 0.04967273
#
# Stress axis : x y z
#
# Youngs Moduli (GPa) = 53.37182 38.69554 29.79661
#
# Poissons Ratio (x) = -0.14077 0.48333
# Poissons Ratio (y) = -0.19416 0.04918
# Poissons Ratio (z) = 0.86574 0.06387
#
# Static dielectric constant tensor:
#      x y z
#    x 1.717740 0.000000 -0.000240 
#    y 0.000000 1.780510 0.000000 
#    z -0.000240 0.000000 1.698990 
# 
# From -- ./inp_files/243272.got.cif
#   From: 2010.05.17/outbox.cif.g08.bks.cpg/sg12_122_cif.got.tgz:243272.got - 2010.06.03 13:09:07.
