data_PCOD9190271
_publ_section_title
;
Structure prediction by ZEFSAII (Michael W. Deem and Ramdas Pophale) SiO2 
 PCOD9190271
Probable space group: C 2/M
;
_chemical_formula_sum "Si O2"
_cell_formula_units_Z 64
_cell_length_a 23.956015
_cell_length_b 20.307358
_cell_length_c 7.863377
_cell_angle_alpha 90.000000
_cell_angle_beta 88.234051
_cell_angle_gamma 90.000000
_cell_volume 3823.585295
_symmetry_space_group_name_H-M "C 2/M"
_symmetry_group_IT_number 12
_symmetry_cell_setting 'monoclinic'
loop_
_space_group_symop_operation_xyz
x,y,z
-x,y,-z
-x,-y,-z
x,-y,z
1/2+x,1/2+y,z
1/2-x,1/2+y,-z
1/2-x,1/2-y,-z
1/2+x,1/2-y,z
loop_
_atom_site_type_symbol
_atom_site_label
_atom_site_fract_x
_atom_site_fract_y
_atom_site_fract_z
Si Si1 0.881530 0.162875 0.175321
Si Si2 0.239376 0.880975 0.678947
Si Si3 0.096950 0.927008 0.141222
Si Si4 0.477065 0.574860 0.312621
Si Si5 0.211696 0.574652 0.964179
Si Si6 0.833162 0.710561 0.083623
Si Si7 0.214261 0.752507 0.265197
Si Si8 0.301865 0.602384 0.661681
O O1 0.822475 0.140579 0.257629
O O2 0.931751 0.129475 0.272136
O O3 0.879572 0.242156 0.160765
O O4 0.884839 0.129487 0.989193
O O5 0.275723 0.815093 0.635163
O O6 0.229093 0.920438 0.506344
O O7 0.266975 0.913050 0.844111
O O8 0.136477 0.923425 0.303374
O O9 0.032052 0.919881 0.190484
O O10 0.105823 0.000000 0.064917
O O11 0.500000 0.581845 0.500000
O O12 0.454507 0.500000 0.296061
O O13 0.191955 0.500000 0.948987
O O14 0.166942 0.631526 0.921945
O O15 0.263828 0.585308 0.829530
O O16 0.774827 0.728506 0.182394
O O17 0.824380 0.734911 0.891307
O O18 0.193059 0.818224 0.355696
#
# Coordination Sequence:
#
# PCOD9190271 Si02
#       8
#     8   8   8   8   8   8   8   8
#     4  11  18  33  50  66  91 124 163 201 234 278
#     4  10  20  29  48  70  91 128 165 195 236 277
#     4  11  21  32  46  67  93 124 158 193 232 270
#     4  10  22  36  47  66  96 126 157 195 236 277
#     4  10  20  33  46  67 101 128 158 200 237 278
#     4   8  15  29  49  67  88 123 160 195 237 281
#     4   8  14  29  44  67  94 119 155 199 235 271
#     4  11  18  30  48  69  95 128 165 195 228 279
#
# _framework density 16.738216999999999
#
# number of rings (size 3 to 8) (size 9 to 14) (size 15 to 20)
#    0.000    2.125    2.500    3.750    0.000    2.500 
#    0.000    0.000    0.000    0.000    0.000    0.000 
#    0.000    2.500    0.000    0.000    0.000    0.125 
#
# Total GULP energy -178339.085475 kJ/mol
# GULP energy per Si atom -5573.096421 kJ/mol
# Density = 1.670012 g / cm^3
# Si number density = 16.738217 Si / 1000 Ang^3
#
#
#
# Elastic Constant Matrix: (Units=GPa)
#
#
# Indices 1 2 3 4 5 6 
#
# 1 50.1085 44.3293 8.3837 0.0000 13.6436 0.0000
# 2 44.3293 136.1150 20.9538 0.0000 13.1565 0.0000
# 3 8.3837 20.9538 52.8759 0.0000 14.1699 0.0000
# 4 0.0000 0.0000 0.0000 8.4082 0.0000 3.0579
# 5 13.6436 13.1565 14.1699 0.0000 21.2486 0.0000
# 6 0.0000 0.0000 0.0000 3.0579 0.0000 21.1086
#
#
#
# Elastic Compliance Matrix: (Units=1/GPa)
#
#
# Indices 1 2 3 4 5 6 
#
# 1 0.032380 -0.009380 0.003164 0.000000 -0.017093 0.000000
# 2 -0.009380 0.010746 -0.003168 0.000000 0.001482 0.000000
# 3 0.003164 -0.003168 0.023968 0.000000 -0.016053 0.000000
# 4 0.000000 0.000000 0.000000 0.125547 0.000000 -0.018187
# 5 -0.017093 0.001482 -0.016053 0.000000 0.067825 0.000000
# 6 0.000000 0.000000 0.000000 -0.018187 0.000000 0.050009
#
#
# Mechanical properties :
#
#
# Convention : Reuss Voigt Hill
#
# Bulk Modulus (GPa) = 20.69338 42.93700 31.81519
# Shear Modulus (GPa) = 14.47797 21.18189 17.82993
#
# Velocity S-wave (km/s) = 2.94422 3.56122 3.26732
# Velocity P-wave (km/s) = 4.89364 6.52821 5.76911
#
# Compressibility (1/GPa) = 0.04832464
#
# Stress axis : x y z
#
# Youngs Moduli (GPa) = 30.88343 93.05677 41.72191
#
# Poissons Ratio (x) = 0.87289 -0.13200
# Poissons Ratio (y) = 0.28969 0.13219
# Poissons Ratio (z) = -0.09771 0.29485
#
# Static dielectric constant tensor:
#      x y z
#    x 1.534340 0.000000 0.011820 
#    y 0.000000 1.609470 0.000000 
#    z 0.011820 0.000000 1.633100 
# 
# From -- ./inp_files/89164.got.cif
#   From: 2010.05.17/outbox.cif.g08.bks.cpg/sg12_45_cif.got.tgz:89164.got - 2010.06.03 13:09:07.
