data_PCOD9190975
_publ_section_title
;
Structure prediction by ZEFSAII (Michael W. Deem and Ramdas Pophale) SiO2 
 PCOD9190975
Probable space group: C 2/M
;
_chemical_formula_sum "Si O2"
_cell_formula_units_Z 28
_cell_length_a 11.742694
_cell_length_b 20.233669
_cell_length_c 10.867082
_cell_angle_alpha 90.000000
_cell_angle_beta 26.684181
_cell_angle_gamma 90.000000
_cell_volume 1159.502323
_symmetry_space_group_name_H-M "C 2/M"
_symmetry_group_IT_number 12
_symmetry_cell_setting 'monoclinic'
loop_
_space_group_symop_operation_xyz
x,y,z
-x,y,-z
-x,-y,-z
x,-y,z
1/2+x,1/2+y,z
1/2-x,1/2+y,-z
1/2-x,1/2-y,-z
1/2+x,1/2-y,z
loop_
_atom_site_type_symbol
_atom_site_label
_atom_site_fract_x
_atom_site_fract_y
_atom_site_fract_z
Si Si1 0.810652 0.347677 0.041760
Si Si2 0.692392 0.426714 0.471811
Si Si3 0.757199 0.301816 0.814380
Si Si4 0.237407 0.000000 0.676537
O O1 0.785742 0.331179 0.921287
O O2 0.089820 0.378112 0.785613
O O3 0.585396 0.398672 0.285472
O O4 0.762753 0.277749 0.152929
O O5 0.729107 0.500000 0.383427
O O6 0.722704 0.439762 0.590884
O O7 0.000000 0.318352 0.500000
O O8 0.500000 0.325272 0.000000
O O9 0.500000 0.000000 0.500000
O O10 0.000000 0.000000 0.000000
#
# Coordination Sequence:
#
# PCOD9190975 Si02
#       4
#     8   8   8   4
#     4  11  22  41  62  88 122 160 199 243 307 354
#     4  10  22  36  59  85 120 165 183 240 298 366
#     4  11  24  40  63  90 117 157 206 255 295 347
#     4  10  20  32  50  84 118 150 190 228 284 358
#
# _framework density 24.148292000000001
#
# number of rings (size 3 to 8) (size 9 to 14) (size 15 to 20)
#    0.857    0.571    0.000    6.000    0.000   11.429 
#    0.000    0.000    0.000   17.143    0.000    0.000 
#    0.000    0.000    0.000    0.000    0.000    0.000 
#
# Total GULP energy -78466.548284 kJ/mol
# GULP energy per Si atom -5604.753449 kJ/mol
# Density = 2.409333 g / cm^3
# Si number density = 24.148292 Si / 1000 Ang^3
#
#
#
# Elastic Constant Matrix: (Units=GPa)
#
#
# Indices 1 2 3 4 5 6 
#
# 1 103.2647 -2.8077 42.6967 0.0900 -8.1117 -0.0387
# 2 -2.8077 88.8728 22.6203 -0.2040 -3.5915 0.0877
# 3 42.6967 22.6203 173.8018 -1.0131 -17.7405 0.6088
# 4 0.0900 -0.2040 -1.0131 -4.3798 0.0178 16.5010
# 5 -8.1117 -3.5915 -17.7405 0.0178 53.4765 -0.0163
# 6 -0.0387 0.0877 0.6088 16.5010 -0.0163 36.3621
#
#
#
# Elastic Compliance Matrix: (Units=1/GPa)
#
#
# Indices 1 2 3 4 5 6 
#
# 1 0.010907 0.001074 -0.002733 0.000375 0.000820 -0.000115
# 2 0.001074 0.011748 -0.001755 -0.000040 0.000370 0.000021
# 3 -0.002733 -0.001755 0.006825 -0.000727 0.001732 0.000218
# 4 0.000375 -0.000040 -0.000727 -0.084178 -0.000147 0.038212
# 5 0.000820 0.000370 0.001732 -0.000147 0.019424 0.000046
# 6 -0.000115 0.000021 0.000218 0.038212 0.000046 0.010157
#
#
# Mechanical properties :
#
#
# Convention : Reuss Voigt Hill
#
# Bulk Modulus (GPa) = 44.14670 54.55087 49.34879
# Shear Modulus (GPa) = -465.61420 37.32043 -214.14689
#
# Velocity S-wave (km/s) = -13.90083 3.93551 -9.42722
# Velocity P-wave (km/s) = 15.47007 6.57951 9.90033
#
# Compressibility (1/GPa) = 0.02265175
#
# Stress axis : x y z
#
# Youngs Moduli (GPa) = 91.68337 85.12375 146.51244
#
# Poissons Ratio (x) = -0.09145 0.40042
# Poissons Ratio (y) = -0.09850 0.25719
# Poissons Ratio (z) = 0.25057 0.14943
#
# Static dielectric constant tensor:
#      x y z
#    x 1.966360 -0.000070 0.022150 
#    y -0.000070 1.898470 0.000210 
#    z 0.022150 0.000210 1.833630 
# 
# From -- ./inp_files/6152.got.cif
#   From: 2010.05.17/outbox.cif.g08.bks.cpg/sg12_4_cif.got.tgz:6152.got - 2010.06.03 13:09:07.
