data_PCOD9190592
_publ_section_title
;
Structure prediction by ZEFSAII (Michael W. Deem and Ramdas Pophale) SiO2 
 PCOD9190592
Probable space group: C 2/M
;
_chemical_formula_sum "Si O2"
_cell_formula_units_Z 40
_cell_length_a 24.352517
_cell_length_b 7.416431
_cell_length_c 7.974132
_cell_angle_alpha 90.000000
_cell_angle_beta 97.567223
_cell_angle_gamma 90.000000
_cell_volume 1427.655477
_symmetry_space_group_name_H-M "C 2/M"
_symmetry_group_IT_number 12
_symmetry_cell_setting 'monoclinic'
loop_
_space_group_symop_operation_xyz
x,y,z
-x,y,-z
-x,-y,-z
x,-y,z
1/2+x,1/2+y,z
1/2-x,1/2+y,-z
1/2-x,1/2-y,-z
1/2+x,1/2-y,z
loop_
_atom_site_type_symbol
_atom_site_label
_atom_site_fract_x
_atom_site_fract_y
_atom_site_fract_z
Si Si1 0.668829 0.713904 0.010529
Si Si2 0.260440 0.205628 0.284072
Si Si3 0.565450 0.216717 0.160145
Si Si4 0.865347 0.721331 0.488976
Si Si5 0.036860 0.711502 0.687322
O O1 0.678235 0.500000 0.005500
O O2 0.704898 0.788664 0.183566
O O3 0.603862 0.743459 0.016245
O O4 0.697501 0.795694 0.859689
O O5 0.302208 0.282251 0.440387
O O6 0.249068 0.000000 0.321235
O O7 0.604273 0.279207 0.329922
O O8 0.504067 0.284281 0.184634
O O9 0.560683 0.000000 0.164354
O O10 0.865625 0.500000 0.487761
O O11 0.904905 0.787326 0.353429
O O12 0.046188 0.500000 0.728451
O O13 0.000000 0.716852 0.500000
#
# Coordination Sequence:
#
# PCOD9190592 Si02
#       5
#     8   8   8   8   8
#     4  10  20  32  45  64  92 123 152 183 221 265
#     4   9  18  33  50  65  85 118 156 189 222 260
#     4   9  16  28  49  73  93 115 144 180 224 270
#     4   8  14  27  49  73  91 110 146 192 225 255
#     4   7  11  22  43  70  93 111 138 180 224 261
#
# _framework density 28.017963999999999
#
# number of rings (size 3 to 8) (size 9 to 14) (size 15 to 20)
#    0.000    3.400    0.000    3.000    0.000    1.600 
#    0.000    2.000    0.000   12.600    0.000    0.000 
#    0.000    0.000    0.000    0.000    0.000    0.000 
#
# Total GULP energy -111845.852929 kJ/mol
# GULP energy per Si atom -5592.292646 kJ/mol
# Density = 2.795419 g / cm^3
# Si number density = 28.017964 Si / 1000 Ang^3
#
#
#
# Elastic Constant Matrix: (Units=GPa)
#
#
# Indices 1 2 3 4 5 6 
#
# 1 221.6145 15.2534 19.8077 0.0000 -18.6428 0.0000
# 2 15.2534 123.8786 11.0526 0.0000 -9.7966 0.0000
# 3 19.8077 11.0526 89.5100 0.0000 -19.5631 0.0000
# 4 0.0000 0.0000 0.0000 6.3382 0.0000 -5.2169
# 5 -18.6428 -9.7966 -19.5631 0.0000 67.8287 0.0000
# 6 0.0000 0.0000 0.0000 -5.2169 0.0000 3.9108
#
#
#
# Elastic Compliance Matrix: (Units=1/GPa)
#
#
# Indices 1 2 3 4 5 6 
#
# 1 0.004695 -0.000430 -0.000766 0.000000 0.001008 0.000000
# 2 -0.000430 0.008259 -0.000736 0.000000 0.000862 0.000000
# 3 -0.000766 -0.000736 0.012128 0.000000 0.003181 0.000000
# 4 0.000000 0.000000 0.000000 -1.610493 0.000000 -2.148335
# 5 0.001008 0.000862 0.003181 0.000000 0.016062 0.000000
# 6 0.000000 0.000000 0.000000 -2.148335 0.000000 -2.610093
#
#
# Mechanical properties :
#
#
# Convention : Reuss Voigt Hill
#
# Bulk Modulus (GPa) = 47.12999 58.58117 52.85558
# Shear Modulus (GPa) = -1.19947 41.54151 20.17102
#
# Velocity S-wave (km/s) = -0.65501 3.85473 2.68606
# Velocity P-wave (km/s) = 4.03557 6.38480 5.34095
#
# Compressibility (1/GPa) = 0.02121791
#
# Stress axis : x y z
#
# Youngs Moduli (GPa) = 212.98641 121.07620 82.45707
#
# Poissons Ratio (x) = 0.05208 0.06314
# Poissons Ratio (y) = 0.09161 0.06070
# Poissons Ratio (z) = 0.16308 0.08914
#
# Static dielectric constant tensor:
#      x y z
#    x 2.162400 0.000000 0.031860 
#    y 0.000000 2.041000 0.000000 
#    z 0.031860 0.000000 2.350450 
# 
# From -- ./inp_files/93708.got.cif
#   From: 2010.05.17/outbox.cif.g08.bks.cpg/sg12_47_cif.got.tgz:93708.got - 2010.06.03 13:09:07.
