data_PCOD9190231
_publ_section_title
;
Structure prediction by ZEFSAII (Michael W. Deem and Ramdas Pophale) SiO2 
 PCOD9190231
Probable space group: C 2/M
;
_chemical_formula_sum "Si O2"
_cell_formula_units_Z 48
_cell_length_a 10.626291
_cell_length_b 27.911058
_cell_length_c 9.007903
_cell_angle_alpha 90.000000
_cell_angle_beta 87.067506
_cell_angle_gamma 90.000000
_cell_volume 2668.164646
_symmetry_space_group_name_H-M "C 2/M"
_symmetry_group_IT_number 12
_symmetry_cell_setting 'monoclinic'
loop_
_space_group_symop_operation_xyz
x,y,z
-x,y,-z
-x,-y,-z
x,-y,z
1/2+x,1/2+y,z
1/2-x,1/2+y,-z
1/2-x,1/2-y,-z
1/2+x,1/2-y,z
loop_
_atom_site_type_symbol
_atom_site_label
_atom_site_fract_x
_atom_site_fract_y
_atom_site_fract_z
Si Si1 0.612743 0.790609 0.616029
Si Si2 0.366893 0.317579 0.425624
Si Si3 0.378925 0.500000 0.803434
Si Si4 0.811922 0.445827 0.352530
Si Si5 0.982895 0.371121 0.175894
Si Si6 0.673452 0.500000 0.850938
Si Si7 0.266978 0.905023 0.682183
O O1 0.500000 0.795043 0.500000
O O2 0.626162 0.734467 0.652348
O O3 0.744330 0.810486 0.540357
O O4 0.575005 0.822166 0.758284
O O5 0.500000 0.323996 0.500000
O O6 0.338965 0.364180 0.328936
O O7 0.325050 0.455209 0.712757
O O8 0.526686 0.500000 0.814674
O O9 0.317968 0.500000 0.971035
O O10 0.865427 0.500000 0.361565
O O11 0.802067 0.422690 0.514399
O O12 0.893566 0.413652 0.239283
O O13 0.115023 0.379870 0.248712
O O14 0.000000 0.371636 0.000000
O O15 0.731164 0.451951 0.777796
#
# Coordination Sequence:
#
# PCOD9190231 Si02
#       7
#     8   8   4   8   8   4   8
#     4  10  19  42  64  90 123 162 207 265 310 370
#     4  10  22  36  68  93 120 155 213 264 314 360
#     4   9  23  42  55  84 131 173 198 254 313 374
#     4  10  22  38  60  86 122 158 213 254 297 363
#     4  12  24  39  63  91 129 166 208 262 328 378
#     4  11  23  38  61  86 135 165 206 248 317 384
#     4  12  23  38  63  95 119 164 216 258 309 371
#
# _framework density 17.989894
#
# number of rings (size 3 to 8) (size 9 to 14) (size 15 to 20)
#    0.500    0.833    4.167    1.500    3.500    1.667 
#    0.000    0.833    3.667    0.000    0.000    0.000 
#    0.000    0.000    0.000    0.000    0.000    0.000 
#
# Total GULP energy -133898.260448 kJ/mol
# GULP energy per Si atom -5579.094185 kJ/mol
# Density = 1.794895 g / cm^3
# Si number density = 17.989894 Si / 1000 Ang^3
#
#
#
# Elastic Constant Matrix: (Units=GPa)
#
#
# Indices 1 2 3 4 5 6 
#
# 1 81.8962 21.4826 23.9748 0.0000 4.7748 0.0000
# 2 21.4826 122.0003 39.7655 0.0000 -8.7178 0.0000
# 3 23.9748 39.7655 118.2062 0.0000 -4.9000 0.0000
# 4 0.0000 0.0000 0.0000 -1.8312 0.0000 -38.4656
# 5 4.7748 -8.7178 -4.9000 0.0000 24.8736 0.0000
# 6 0.0000 0.0000 0.0000 -38.4656 0.0000 -26.2713
#
#
#
# Elastic Compliance Matrix: (Units=1/GPa)
#
#
# Indices 1 2 3 4 5 6 
#
# 1 0.013595 -0.001922 -0.002265 0.000000 -0.003730 0.000000
# 2 -0.001922 0.009653 -0.002724 0.000000 0.003215 0.000000
# 3 -0.002265 -0.002724 0.009895 0.000000 0.001429 0.000000
# 4 0.000000 0.000000 0.000000 0.018352 0.000000 -0.026871
# 5 -0.003730 0.003215 0.001429 0.000000 0.042328 0.000000
# 6 0.000000 0.000000 0.000000 -0.026871 0.000000 0.001279
#
#
# Mechanical properties :
#
#
# Convention : Reuss Voigt Hill
#
# Bulk Modulus (GPa) = 51.76025 54.72761 53.24393
# Shear Modulus (GPa) = 43.34035 15.14620 29.24328
#
# Velocity S-wave (km/s) = 4.91363 2.90475 4.03617
# Velocity P-wave (km/s) = 7.81192 6.46045 7.16811
#
# Compressibility (1/GPa) = 0.01931985
#
# Stress axis : x y z
#
# Youngs Moduli (GPa) = 73.55413 103.59629 101.06147
#
# Poissons Ratio (x) = 0.19912 0.22895
# Poissons Ratio (y) = 0.14138 0.27531
# Poissons Ratio (z) = 0.16663 0.28221
#
# Static dielectric constant tensor:
#      x y z
#    x 1.634600 0.000000 0.006220 
#    y 0.000000 1.633070 0.000000 
#    z 0.006220 0.000000 1.579810 
# 
# From -- ./inp_files/42299.got.cif
#   From: 2010.05.17/outbox.cif.g08.bks.cpg/sg12_22_cif.got.tgz:42299.got - 2010.06.03 13:09:07.
