data_PCOD9190902
_publ_section_title
;
Structure prediction by ZEFSAII (Michael W. Deem and Ramdas Pophale) SiO2 
 PCOD9190902
Probable space group: C 2/M
;
_chemical_formula_sum "Si O2"
_cell_formula_units_Z 56
_cell_length_a 24.658117
_cell_length_b 15.049420
_cell_length_c 24.341328
_cell_angle_alpha 90.000000
_cell_angle_beta 16.461373
_cell_angle_gamma 90.000000
_cell_volume 2559.623478
_symmetry_space_group_name_H-M "C 2/M"
_symmetry_group_IT_number 12
_symmetry_cell_setting 'monoclinic'
loop_
_space_group_symop_operation_xyz
x,y,z
-x,y,-z
-x,-y,-z
x,-y,z
1/2+x,1/2+y,z
1/2-x,1/2+y,-z
1/2-x,1/2-y,-z
1/2+x,1/2-y,z
loop_
_atom_site_type_symbol
_atom_site_label
_atom_site_fract_x
_atom_site_fract_y
_atom_site_fract_z
Si Si1 0.976331 0.860485 0.727690
Si Si2 0.043353 0.595851 0.182110
Si Si3 0.429800 0.293421 0.254536
Si Si4 0.359052 0.164565 0.802945
Si Si5 0.837334 0.745359 0.231687
Si Si6 0.562651 0.400913 0.523364
Si Si7 0.282828 0.761518 0.768432
O O1 0.109062 0.849419 0.652567
O O2 0.936478 0.759829 0.747606
O O3 0.057389 0.904135 0.594648
O O4 0.768175 0.898784 0.945534
O O5 0.966952 0.500000 0.237368
O O6 0.957193 0.688519 0.242739
O O7 0.044684 0.599105 0.247351
O O8 0.301785 0.294110 0.324411
O O9 0.634899 0.331654 0.036599
O O10 0.365647 0.166139 0.730690
O O11 0.758141 0.645720 0.314747
O O12 0.731604 0.785790 0.281493
O O13 0.063512 0.744624 0.000413
O O14 0.534621 0.500000 0.529640
O O15 0.401013 0.329826 0.661666
#
# Coordination Sequence:
#
# PCOD9190902 Si02
#       7
#     8   8   8   8   8   8   8
#     4   8  15  28  44  63  93 126 152 185 230 272
#     4   9  14  23  45  73  97 122 150 186 235 278
#     4   8  15  28  44  66  93 120 155 191 222 274
#     4   7  13  27  45  64  89 122 157 190 223 270
#     4  10  20  32  50  70  87 121 163 191 228 272
#     4  11  22  33  47  70  97 123 156 194 229 274
#     4   9  19  36  50  64  93 125 157 196 231 264
#
# _framework density 21.878216999999999
#
# number of rings (size 3 to 8) (size 9 to 14) (size 15 to 20)
#    0.000    3.143    0.000    3.429    0.000    2.857 
#    0.000    1.429    0.000    0.000    0.000   19.000 
#    0.000   20.571    0.000    0.000    0.000    0.000 
#
# Total GULP energy -156095.773881 kJ/mol
# GULP energy per Si atom -5574.849067 kJ/mol
# Density = 2.182842 g / cm^3
# Si number density = 21.878217 Si / 1000 Ang^3
#
#
#
# Elastic Constant Matrix: (Units=GPa)
#
#
# Indices 1 2 3 4 5 6 
#
# 1 186.4157 8.2796 27.9075 0.0014 11.7742 0.0068
# 2 8.2796 27.8263 -8.5296 -0.0041 -1.5216 -0.0037
# 3 27.9075 -8.5296 67.2057 -0.0100 -10.1909 0.0104
# 4 0.0014 -0.0041 -0.0100 -2.3841 0.0044 -11.2622
# 5 11.7742 -1.5216 -10.1909 0.0044 24.9506 0.0068
# 6 0.0068 -0.0037 0.0104 -11.2622 0.0068 1.5928
#
#
#
# Elastic Compliance Matrix: (Units=1/GPa)
#
#
# Indices 1 2 3 4 5 6 
#
# 1 0.006381 -0.003322 -0.003793 -0.000001 -0.004763 0.000004
# 2 -0.003322 0.039601 0.007472 -0.000006 0.007034 -0.000017
# 3 -0.003793 0.007472 0.018915 0.000016 0.009972 -0.000019
# 4 -0.000001 -0.000006 0.000016 -0.012193 0.000032 -0.086211
# 5 -0.004763 0.007034 0.009972 0.000032 0.046829 0.000000
# 6 0.000004 -0.000017 -0.000019 -0.086211 0.000000 0.018250
#
#
# Mechanical properties :
#
#
# Convention : Reuss Voigt Hill
#
# Bulk Modulus (GPa) = 15.24149 37.41810 26.32980
# Shear Modulus (GPa) = 35.98691 21.75119 28.86905
#
# Velocity S-wave (km/s) = 4.06010 3.15650 3.63648
# Velocity P-wave (km/s) = 5.38153 5.51586 5.44911
#
# Compressibility (1/GPa) = 0.06561036
#
# Stress axis : x y z
#
# Youngs Moduli (GPa) = 156.72437 25.25212 52.86711
#
# Poissons Ratio (x) = 0.08388 0.20055
# Poissons Ratio (y) = 0.52060 -0.39503
# Poissons Ratio (z) = 0.59452 -0.18869
#
# Static dielectric constant tensor:
#      x y z
#    x 1.895090 -0.000010 0.009090 
#    y -0.000010 1.739870 0.000010 
#    z 0.009090 0.000010 1.863190 
# 
# From -- ./inp_files/97376.got.cif
#   From: 2010.05.17/outbox.cif.g08.bks.cpg/sg12_49_cif.got.tgz:97376.got - 2010.06.03 13:09:07.
