data_PCOD9190273
_publ_section_title
;
Structure prediction by ZEFSAII (Michael W. Deem and Ramdas Pophale) SiO2 
 PCOD9190273
Probable space group: C 2/M
;
_chemical_formula_sum "Si O2"
_cell_formula_units_Z 28
_cell_length_a 20.298908
_cell_length_b 5.628008
_cell_length_c 10.339220
_cell_angle_alpha 90.000000
_cell_angle_beta 60.247486
_cell_angle_gamma 90.000000
_cell_volume 1025.471168
_symmetry_space_group_name_H-M "C 2/M"
_symmetry_group_IT_number 12
_symmetry_cell_setting 'monoclinic'
loop_
_space_group_symop_operation_xyz
x,y,z
-x,y,-z
-x,-y,-z
x,-y,z
1/2+x,1/2+y,z
1/2-x,1/2+y,-z
1/2-x,1/2-y,-z
1/2+x,1/2-y,z
loop_
_atom_site_type_symbol
_atom_site_label
_atom_site_fract_x
_atom_site_fract_y
_atom_site_fract_z
Si Si1 0.884440 0.000000 0.556376
Si Si2 0.491132 0.251388 0.163221
Si Si3 0.618588 0.000000 0.496771
Si Si4 0.213522 0.500000 0.666062
Si Si5 0.725930 0.500000 0.790851
Si Si6 0.369656 0.500000 0.872474
O O1 0.923960 0.249699 0.485273
O O2 0.804249 0.000000 0.560691
O O3 0.860347 0.000000 0.729954
O O4 0.449741 0.500000 0.231276
O O5 0.574492 0.284172 0.140896
O O6 0.458169 0.000000 0.236525
O O7 0.500000 0.244795 0.000000
O O8 0.676834 0.000000 0.561255
O O9 0.683814 0.000000 0.318553
O O10 0.195477 0.749270 0.758376
O O11 0.701952 0.500000 0.964240
#
# Coordination Sequence:
#
# PCOD9190273 Si02
#       6
#     4   8   4   4   4   4
#     4  10  20  29  50  66  93 127 149 203 232 265
#     4   8  16  30  46  61  95 130 143 171 218 293
#     4  10  20  36  47  61  88 134 175 191 218 261
#     4  10  20  36  47  61  88 134 175 191 218 261
#     4  10  20  29  50  66  93 127 149 203 232 265
#     4  10  21  28  46  78 106 108 152 186 245 288
#
# _framework density 27.304525000000002
#
# number of rings (size 3 to 8) (size 9 to 14) (size 15 to 20)
#    0.857    1.714    0.000    4.286    4.000    4.571 
#    0.000    0.000    0.000    0.000    0.000    0.000 
#    0.000   50.286    0.000    0.000    0.000    0.000 
#
# Total GULP energy -78310.003672 kJ/mol
# GULP energy per Si atom -5593.571691 kJ/mol
# Density = 2.724238 g / cm^3
# Si number density = 27.304525 Si / 1000 Ang^3
#
#
#
# Elastic Constant Matrix: (Units=GPa)
#
#
# Indices 1 2 3 4 5 6 
#
# 1 65.0288 1.6836 -6.7362 0.0000 2.7127 0.0000
# 2 1.6836 313.1441 59.7330 0.0000 16.4967 0.0000
# 3 -6.7362 59.7330 64.0843 0.0000 17.6253 0.0000
# 4 0.0000 0.0000 0.0000 109.9065 0.0000 49.2029
# 5 2.7127 16.4967 17.6253 0.0000 27.0996 0.0000
# 6 0.0000 0.0000 0.0000 49.2029 0.0000 72.2913
#
#
#
# Elastic Compliance Matrix: (Units=1/GPa)
#
#
# Indices 1 2 3 4 5 6 
#
# 1 0.015838 -0.000489 0.003014 0.000000 -0.003248 0.000000
# 2 -0.000489 0.003899 -0.003710 0.000000 0.000088 0.000000
# 3 0.003014 -0.003710 0.022946 0.000000 -0.012967 0.000000
# 4 0.000000 0.000000 0.000000 0.013086 0.000000 -0.008907
# 5 -0.003248 0.000088 -0.012967 0.000000 0.045606 0.000000
# 6 0.000000 0.000000 0.000000 -0.008907 0.000000 0.019895
#
#
# Mechanical properties :
#
#
# Convention : Reuss Voigt Hill
#
# Bulk Modulus (GPa) = 24.80611 61.29091 43.04851
# Shear Modulus (GPa) = 36.47579 67.69794 52.08686
#
# Velocity S-wave (km/s) = 3.65895 4.98473 4.37238
# Velocity P-wave (km/s) = 5.19184 7.45828 6.42577
#
# Compressibility (1/GPa) = 0.04031265
#
# Stress axis : x y z
#
# Youngs Moduli (GPa) = 63.13870 256.46999 43.58117
#
# Poissons Ratio (x) = 0.12540 -0.13135
# Poissons Ratio (y) = 0.03087 0.16169
# Poissons Ratio (z) = -0.19029 0.95152
#
# Static dielectric constant tensor:
#      x y z
#    x 1.995050 0.000000 -0.048260 
#    y 0.000000 2.269840 0.000000 
#    z -0.048260 0.000000 2.263350 
# 
# From -- ./inp_files/107080.got.cif
#   From: 2010.05.17/outbox.cif.g08.bks.cpg/sg12_54_cif.got.tgz:107080.got - 2010.06.03 13:09:07.
