data_PCOD9190860
_publ_section_title
;
Structure prediction by ZEFSAII (Michael W. Deem and Ramdas Pophale) SiO2 
 PCOD9190860
Probable space group: C 2/M
;
_chemical_formula_sum "Si O2"
_cell_formula_units_Z 56
_cell_length_a 19.065599
_cell_length_b 7.486651
_cell_length_c 23.497826
_cell_angle_alpha 90.000000
_cell_angle_beta 52.881518
_cell_angle_gamma 90.000000
_cell_volume 2674.460175
_symmetry_space_group_name_H-M "C 2/M"
_symmetry_group_IT_number 12
_symmetry_cell_setting 'monoclinic'
loop_
_space_group_symop_operation_xyz
x,y,z
-x,y,-z
-x,-y,-z
x,-y,z
1/2+x,1/2+y,z
1/2-x,1/2+y,-z
1/2-x,1/2-y,-z
1/2+x,1/2-y,z
loop_
_atom_site_type_symbol
_atom_site_label
_atom_site_fract_x
_atom_site_fract_y
_atom_site_fract_z
Si Si1 0.022572 0.209916 0.366649
Si Si2 0.846872 0.713193 0.930572
Si Si3 0.623129 0.782504 0.773829
Si Si4 0.166575 0.785951 0.500977
Si Si5 0.813657 0.219172 0.638867
Si Si6 0.961051 0.715644 0.773151
Si Si7 0.495225 0.781749 0.066908
O O1 0.102664 0.281459 0.365499
O O2 0.041263 0.225914 0.290609
O O3 0.925806 0.283696 0.428652
O O4 0.018963 0.000000 0.382187
O O5 0.855769 0.500000 0.924110
O O6 0.879383 0.777089 0.852629
O O7 0.918504 0.777119 0.941037
O O8 0.750000 0.750000 0.000000
O O9 0.720689 0.722775 0.710812
O O10 0.550235 0.727921 0.762564
O O11 0.587034 0.727762 0.853463
O O12 0.623205 0.000000 0.773148
O O13 0.250000 0.750000 0.500000
O O14 0.179927 0.722950 0.429824
O O15 0.160192 0.000000 0.501101
O O16 0.813174 0.000000 0.639807
O O17 0.961677 0.500000 0.771916
O O18 0.494673 0.000000 0.065906
O O19 0.500000 0.719549 0.000000
#
# Coordination Sequence:
#
# PCOD9190860 Si02
#       7
#     8   8   8   8   8   8   8
#     4  10  20  32  49  75 100 122 156 201 244 285
#     4   9  18  31  48  71  98 128 161 198 240 285
#     4   8  14  26  45  66  88 121 161 192 228 283
#     4  10  20  34  52  73  98 128 161 198 240 287
#     4   9  17  30  48  70  97 126 156 197 246 288
#     4   9  18  33  50  69  97 131 162 193 237 291
#     4   8  14  25  42  66  93 118 152 199 237 269
#
# _framework density 20.938806
#
# number of rings (size 3 to 8) (size 9 to 14) (size 15 to 20)
#    0.000    3.000    0.000    3.000    0.000    5.143 
#    0.000    3.571    0.000    3.000    0.000    0.000 
#    0.000    0.000    0.000    0.000    0.000    0.000 
#
# Total GULP energy -156237.637287 kJ/mol
# GULP energy per Si atom -5579.915617 kJ/mol
# Density = 2.089115 g / cm^3
# Si number density = 20.938806 Si / 1000 Ang^3
#
#
#
# Elastic Constant Matrix: (Units=GPa)
#
#
# Indices 1 2 3 4 5 6 
#
# 1 164.4492 2.0940 144.7403 0.0000 0.7523 0.0002
# 2 2.0940 54.6403 0.8940 0.0000 -3.1057 0.0006
# 3 144.7403 0.8940 237.4128 0.0001 -5.0632 0.0000
# 4 0.0000 0.0000 0.0001 10.9122 0.0000 2.5997
# 5 0.7523 -3.1057 -5.0632 0.0000 42.1616 0.0000
# 6 0.0002 0.0006 0.0000 2.5997 0.0000 11.2784
#
#
#
# Elastic Compliance Matrix: (Units=1/GPa)
#
#
# Indices 1 2 3 4 5 6 
#
# 1 0.013193 -0.000444 -0.008068 0.000000 -0.001237 0.000000
# 2 -0.000444 0.018394 0.000231 0.000000 0.001391 -0.000001
# 3 -0.008068 0.000231 0.009157 0.000000 0.001261 0.000000
# 4 0.000000 0.000000 0.000000 0.096965 0.000000 -0.022351
# 5 -0.001237 0.001391 0.001261 0.000000 0.023994 0.000000
# 6 0.000000 -0.000001 0.000000 -0.022351 0.000000 0.093817
#
#
# Mechanical properties :
#
#
# Convention : Reuss Voigt Hill
#
# Bulk Modulus (GPa) = 41.35310 83.55100 62.45205
# Shear Modulus (GPa) = 17.84799 33.45537 25.65168
#
# Velocity S-wave (km/s) = 2.92274 4.00155 3.50391
# Velocity P-wave (km/s) = 5.58410 7.83192 6.80151
#
# Compressibility (1/GPa) = 0.02418199
#
# Stress axis : x y z
#
# Youngs Moduli (GPa) = 75.79525 54.36621 109.20725
#
# Poissons Ratio (x) = 0.02413 0.88110
# Poissons Ratio (y) = 0.03365 -0.02523
# Poissons Ratio (z) = 0.61153 -0.01256
#
# Static dielectric constant tensor:
#      x y z
#    x 1.712710 0.000000 -0.017450 
#    y 0.000000 1.838260 0.000000 
#    z -0.017450 0.000000 1.754370 
# 
# From -- ./inp_files/342321.got.cif
#   From: 2010.05.17/outbox.cif.g08.bks.cpg/sg12_172_cif.got.tgz:342321.got - 2010.06.03 13:09:07.
