data_PCOD9190102
_publ_section_title
;
Structure prediction by ZEFSAII (Michael W. Deem and Ramdas Pophale) SiO2 
 PCOD9190102
Probable space group: C 2/M
;
_chemical_formula_sum "Si O2"
_cell_formula_units_Z 64
_cell_length_a 25.747689
_cell_length_b 17.766297
_cell_length_c 15.453156
_cell_angle_alpha 90.000000
_cell_angle_beta 27.659257
_cell_angle_gamma 90.000000
_cell_volume 3281.474462
_symmetry_space_group_name_H-M "C 2/M"
_symmetry_group_IT_number 12
_symmetry_cell_setting 'monoclinic'
loop_
_space_group_symop_operation_xyz
x,y,z
-x,y,-z
-x,-y,-z
x,-y,z
1/2+x,1/2+y,z
1/2-x,1/2+y,-z
1/2-x,1/2-y,-z
1/2+x,1/2-y,z
loop_
_atom_site_type_symbol
_atom_site_label
_atom_site_fract_x
_atom_site_fract_y
_atom_site_fract_z
Si Si1 0.743228 0.335859 0.042618
Si Si2 0.763861 0.167520 0.251575
Si Si3 0.741296 0.590111 0.562592
Si Si4 0.011510 0.087150 0.125401
Si Si5 0.726467 0.659586 0.269175
Si Si6 0.874733 0.590065 0.196149
Si Si7 0.868288 0.412393 0.708021
Si Si8 0.508660 0.588521 0.338245
O O1 0.763017 0.341155 0.115472
O O2 0.621612 0.370874 0.201656
O O3 0.750000 0.250000 0.000000
O O4 0.831263 0.381996 0.855619
O O5 0.726349 0.131775 0.397489
O O6 0.741513 0.255849 0.281535
O O7 0.698208 0.131711 0.267733
O O8 0.893070 0.143241 0.047927
O O9 0.756289 0.500000 0.550872
O O10 0.610185 0.602228 0.734823
O O11 0.812973 0.616847 0.374307
O O12 0.002880 0.092126 0.242187
O O13 0.042954 0.000000 0.057403
O O14 0.801593 0.608632 0.220463
O O15 0.599562 0.630075 0.463929
O O16 0.881010 0.500000 0.195078
O O17 0.000000 0.620471 0.000000
O O18 0.838305 0.500000 0.745479
O O19 0.000000 0.403306 0.500000
O O20 0.509323 0.500000 0.361434
#
# Coordination Sequence:
#
# PCOD9190102 Si02
#       8
#     8   8   8   8   8   8   8   8
#     4  12  25  44  68  98 135 175 215 276 340 391
#     4  12  24  40  63  98 135 171 210 272 336 400
#     4  10  21  40  68  97 127 171 222 277 329 392
#     4  10  19  39  69  97 130 167 216 277 326 386
#     4  12  26  42  66  98 134 176 212 280 339 395
#     4  10  23  45  66  91 131 175 224 277 328 391
#     4  11  25  44  66  92 130 179 226 267 318 399
#     4  11  23  43  72  99 129 173 228 274 325 396
#
# _framework density 19.503426999999999
#
# number of rings (size 3 to 8) (size 9 to 14) (size 15 to 20)
#    0.000    1.000    3.750    2.625    1.750    6.000 
#    2.250    2.500    0.000    0.000    0.000    0.000 
#    0.000    0.000    0.000    0.000    0.000    0.000 
#
# Total GULP energy -178990.399953 kJ/mol
# GULP energy per Si atom -5593.449999 kJ/mol
# Density = 1.945904 g / cm^3
# Si number density = 19.503427 Si / 1000 Ang^3
#
#
#
# Elastic Constant Matrix: (Units=GPa)
#
#
# Indices 1 2 3 4 5 6 
#
# 1 72.3351 12.0581 3.2310 0.0005 36.6620 -0.0002
# 2 12.0581 55.4134 50.1769 -0.0017 -8.8038 0.0009
# 3 3.2310 50.1769 47.4759 -0.0013 21.2369 0.0007
# 4 0.0005 -0.0017 -0.0013 663.0384 -0.0001 -349.3447
# 5 36.6620 -8.8038 21.2369 -0.0001 25.8176 0.0001
# 6 -0.0002 0.0009 0.0007 -349.3447 0.0001 203.7119
#
#
#
# Elastic Compliance Matrix: (Units=1/GPa)
#
#
# Indices 1 2 3 4 5 6 
#
# 1 0.010325 0.013671 -0.016895 0.000000 0.003898 0.000000
# 2 0.013671 0.000699 0.010931 0.000000 -0.028167 0.000000
# 3 -0.016895 0.010931 -0.002751 0.000000 0.029982 0.000000
# 4 0.000000 0.000000 0.000000 0.015638 0.000000 0.026817
# 5 0.003898 -0.028167 0.029982 0.000000 -0.001069 0.000000
# 6 0.000000 0.000000 0.000000 0.026817 0.000000 0.050897
#
#
# Mechanical properties :
#
#
# Convention : Reuss Voigt Hill
#
# Bulk Modulus (GPa) = 42.21930 34.01739 38.11834
# Shear Modulus (GPa) = 75.50576 185.83080 130.66828
#
# Velocity S-wave (km/s) = 6.22882 9.77179 8.19409
# Velocity P-wave (km/s) = 8.56884 12.03316 10.44562
#
# Compressibility (1/GPa) = 0.02368585
#
# Stress axis : x y z
#
# Youngs Moduli (GPa) = 96.85489 1431.29997 -363.52611
#
# Poissons Ratio (x) = -19.56741 -6.14180
# Poissons Ratio (y) = -1.32411 3.97357
# Poissons Ratio (z) = 1.63637 -15.64502
#
# Static dielectric constant tensor:
#      x y z
#    x 1.669260 0.000000 0.010130 
#    y 0.000000 1.707510 0.000000 
#    z 0.010130 0.000000 1.681260 
# 
# From -- ./inp_files/241471.got.cif
#   From: 2010.05.17/outbox.cif.g08.bks.cpg/sg12_121_cif.got.tgz:241471.got - 2010.06.03 13:09:07.
