data_PCOD9190513
_publ_section_title
;
Structure prediction by ZEFSAII (Michael W. Deem and Ramdas Pophale) SiO2 
 PCOD9190513
Probable space group: C 2/M
;
_chemical_formula_sum "Si O2"
_cell_formula_units_Z 52
_cell_length_a 9.394180
_cell_length_b 26.388349
_cell_length_c 20.210345
_cell_angle_alpha 90.000000
_cell_angle_beta 151.637415
_cell_angle_gamma 90.000000
_cell_volume 2380.037815
_symmetry_space_group_name_H-M "C 2/M"
_symmetry_group_IT_number 12
_symmetry_cell_setting 'monoclinic'
loop_
_space_group_symop_operation_xyz
x,y,z
-x,y,-z
-x,-y,-z
x,-y,z
1/2+x,1/2+y,z
1/2-x,1/2+y,-z
1/2-x,1/2-y,-z
1/2+x,1/2-y,z
loop_
_atom_site_type_symbol
_atom_site_label
_atom_site_fract_x
_atom_site_fract_y
_atom_site_fract_z
Si Si1 0.712750 0.087883 0.148418
Si Si2 0.643094 0.000000 0.210592
Si Si3 0.720373 0.500000 0.149601
Si Si4 0.062834 0.816000 0.900748
Si Si5 0.285528 0.578177 0.742620
Si Si6 0.931639 0.263395 0.217700
Si Si7 0.259338 0.182897 0.762251
Si Si8 0.149647 0.500000 0.490455
O O1 0.852091 0.129545 0.254946
O O2 0.982507 0.061940 0.219360
O O3 0.546092 0.048441 0.127494
O O4 0.500000 0.106316 0.000000
O O5 0.535551 0.000000 0.241697
O O6 0.998620 0.000000 0.360191
O O7 0.660366 0.549274 0.167541
O O8 0.500000 0.500000 0.000000
O O9 0.879935 0.863540 0.794846
O O10 0.104283 0.775125 0.858811
O O11 0.851413 0.795612 0.872970
O O12 0.397439 0.821461 0.067369
O O13 0.971375 0.552061 0.593513
O O14 0.184017 0.301347 0.290905
O O15 0.949024 0.225300 0.287764
O O16 0.000000 0.500000 0.500000
#
# Coordination Sequence:
#
# PCOD9190513 Si02
#       8
#     8   4   4   8   8   8   8   4
#     4  12  21  37  58  92 123 163 197 250 313 383
#     4  12  26  42  70  85 121 160 210 258 304 368
#     4  11  26  42  60  97 129 159 189 255 330 382
#     4  11  19  33  51  84 122 164 196 251 301 367
#     4  11  23  39  61  86 127 161 209 256 303 359
#     4  10  20  31  51  80 125 166 200 243 303 385
#     4  11  19  31  51  83 123 164 204 231 312 375
#     4  11  23  47  66  88 112 164 226 260 295 359
#
# _framework density 21.848392
#
# number of rings (size 3 to 8) (size 9 to 14) (size 15 to 20)
#    0.000    0.923    4.615    5.308    2.154    1.231 
#    0.000    0.000    0.000    0.000    0.000   11.846 
#    0.000    0.000    0.000    0.000    0.000    0.000 
#
# Total GULP energy -144752.315664 kJ/mol
# GULP energy per Si atom -5567.396756 kJ/mol
# Density = 2.179866 g / cm^3
# Si number density = 21.848392 Si / 1000 Ang^3
#
#
#
# Elastic Constant Matrix: (Units=GPa)
#
#
# Indices 1 2 3 4 5 6 
#
# 1 170.0136 39.7835 17.1098 -0.0117 17.6816 0.0122
# 2 39.7835 102.2283 11.7083 -0.0063 -8.1951 0.0113
# 3 17.1098 11.7083 51.9924 -0.0706 5.1798 0.0318
# 4 -0.0117 -0.0063 -0.0706 16.6848 0.0184 5.0382
# 5 17.6816 -8.1951 5.1798 0.0184 22.0210 -0.0100
# 6 0.0122 0.0113 0.0318 5.0382 -0.0100 25.8102
#
#
#
# Elastic Compliance Matrix: (Units=1/GPa)
#
#
# Indices 1 2 3 4 5 6 
#
# 1 0.007504 -0.003369 -0.001009 0.000009 -0.007042 -0.000005
# 2 -0.003369 0.011982 -0.002359 -0.000018 0.007719 0.000006
# 3 -0.001009 -0.002359 0.020586 0.000105 -0.004910 -0.000046
# 4 0.000009 -0.000018 0.000105 0.063690 -0.000098 -0.012432
# 5 -0.007042 0.007719 -0.004910 -0.000098 0.055093 0.000046
# 6 -0.000005 0.000006 -0.000046 -0.012432 0.000046 0.041171
#
#
# Mechanical properties :
#
#
# Convention : Reuss Voigt Hill
#
# Bulk Modulus (GPa) = 37.59626 51.27083 44.43354
# Shear Modulus (GPa) = 22.48536 29.94538 26.21537
#
# Velocity S-wave (km/s) = 3.21152 3.70618 3.46768
# Velocity P-wave (km/s) = 5.56749 6.46776 6.03444
#
# Compressibility (1/GPa) = 0.02659839
#
# Stress axis : x y z
#
# Youngs Moduli (GPa) = 133.25783 83.45720 48.57638
#
# Poissons Ratio (x) = 0.28119 0.04902
# Poissons Ratio (y) = 0.44899 0.11457
# Poissons Ratio (z) = 0.13448 0.19684
#
# Static dielectric constant tensor:
#      x y z
#    x 1.641110 0.000430 -0.059700 
#    y 0.000430 1.962900 0.000120 
#    z -0.059700 0.000120 1.813250 
# 
# From -- ./inp_files/302963.got.cif
#   From: 2010.05.17/outbox.cif.g08.bks.cpg/sg12_152_cif.got.tgz:302963.got - 2010.06.03 13:09:07.
