data_PCOD9190651
_publ_section_title
;
Structure prediction by ZEFSAII (Michael W. Deem and Ramdas Pophale) SiO2 
 PCOD9190651
Probable space group: C 2/M
;
_chemical_formula_sum "Si O2"
_cell_formula_units_Z 64
_cell_length_a 29.639834
_cell_length_b 7.806324
_cell_length_c 14.498431
_cell_angle_alpha 90.000000
_cell_angle_beta 106.232515
_cell_angle_gamma 90.000000
_cell_volume 3220.888865
_symmetry_space_group_name_H-M "C 2/M"
_symmetry_group_IT_number 12
_symmetry_cell_setting 'monoclinic'
loop_
_space_group_symop_operation_xyz
x,y,z
-x,y,-z
-x,-y,-z
x,-y,z
1/2+x,1/2+y,z
1/2-x,1/2+y,-z
1/2-x,1/2-y,-z
1/2+x,1/2-y,z
loop_
_atom_site_type_symbol
_atom_site_label
_atom_site_fract_x
_atom_site_fract_y
_atom_site_fract_z
Si Si1 0.900368 0.197906 0.285409
Si Si2 0.998914 0.793709 0.392865
Si Si3 0.840649 0.797676 0.771445
Si Si4 0.703499 0.201327 0.072233
Si Si5 0.903359 0.296254 0.647028
Si Si6 0.851765 0.708317 0.436634
Si Si7 0.751333 0.205514 0.608253
Si Si8 0.807080 0.801333 0.140670
O O1 0.952689 0.273215 0.312663
O O2 0.887327 0.208293 0.385794
O O3 0.854692 0.278125 0.209606
O O4 0.903339 0.000000 0.255753
O O5 0.000000 0.729712 0.500000
O O6 0.046170 0.754645 0.364180
O O7 0.994209 0.000000 0.395591
O O8 0.834556 0.722589 0.869549
O O9 0.886993 0.767989 0.737320
O O10 0.796761 0.725326 0.686503
O O11 0.834636 0.000000 0.778239
O O12 0.755010 0.269375 0.134602
O O13 0.709507 0.000000 0.055160
O O14 0.690655 0.289632 0.968923
O O15 0.901473 0.500000 0.649309
O O16 0.865634 0.238449 0.547901
O O17 0.855124 0.500000 0.432847
O O18 0.798988 0.762612 0.381531
O O19 0.750000 0.250000 0.500000
O O20 0.752522 0.000000 0.615480
O O21 0.806815 0.000000 0.170332
#
# Coordination Sequence:
#
# PCOD9190651 Si02
#       8
#     8   8   8   8   8   8   8   8
#     4  10  20  34  55  79 105 140 178 222 269 316
#     4  10  20  35  54  77 107 141 183 227 268 318
#     4  11  22  35  54  77 106 146 185 222 268 321
#     4  10  20  35  57  83 112 143 177 221 269 321
#     4  11  22  35  52  74 106 144 183 224 267 316
#     4  10  20  32  47  72 106 140 176 218 261 311
#     4  10  20  32  46  69 102 140 177 213 254 305
#     4   9  19  36  57  83 111 141 179 220 268 323
#
# _framework density 19.870291000000002
#
# number of rings (size 3 to 8) (size 9 to 14) (size 15 to 20)
#    0.000    1.875    2.500    1.875    0.000    3.250 
#    0.000    0.000    0.000    0.750    0.000    5.250 
#    0.000    0.000    0.000    0.000    0.000    0.000 
#
# Total GULP energy -178574.448564 kJ/mol
# GULP energy per Si atom -5580.451518 kJ/mol
# Density = 1.982507 g / cm^3
# Si number density = 19.870291 Si / 1000 Ang^3
#
#
#
# Elastic Constant Matrix: (Units=GPa)
#
#
# Indices 1 2 3 4 5 6 
#
# 1 107.1905 0.4386 28.7860 0.0000 -7.6147 0.0000
# 2 0.4386 33.8877 -2.9819 0.0000 5.4823 0.0000
# 3 28.7860 -2.9819 61.7446 0.0000 -6.3411 0.0000
# 4 0.0000 0.0000 0.0000 19.4634 0.0000 -6.4806
# 5 -7.6147 5.4823 -6.3411 0.0000 32.6559 0.0000
# 6 0.0000 0.0000 0.0000 -6.4806 0.0000 17.0080
#
#
#
# Elastic Compliance Matrix: (Units=1/GPa)
#
#
# Indices 1 2 3 4 5 6 
#
# 1 0.010765 -0.000845 -0.004885 0.000000 0.001704 0.000000
# 2 -0.000845 0.030455 0.001346 0.000000 -0.005048 0.000000
# 3 -0.004885 0.001346 0.018772 0.000000 0.002280 0.000000
# 4 0.000000 0.000000 0.000000 0.058844 0.000000 0.022421
# 5 0.001704 -0.005048 0.002280 0.000000 0.032310 0.000000
# 6 0.000000 0.000000 0.000000 0.022421 0.000000 0.067339
#
#
# Mechanical properties :
#
#
# Convention : Reuss Voigt Hill
#
# Bulk Modulus (GPa) = 19.52122 28.36758 23.94440
# Shear Modulus (GPa) = 20.46426 25.59747 23.03087
#
# Velocity S-wave (km/s) = 3.21268 3.59308 3.40819
# Velocity P-wave (km/s) = 4.85874 5.61436 5.25016
#
# Compressibility (1/GPa) = 0.05122629
#
# Stress axis : x y z
#
# Youngs Moduli (GPa) = 92.88950 32.83494 53.27000
#
# Poissons Ratio (x) = 0.02774 0.26021
# Poissons Ratio (y) = 0.07847 -0.07171
# Poissons Ratio (z) = 0.45375 -0.04420
#
# Static dielectric constant tensor:
#      x y z
#    x 1.742690 0.000000 0.022960 
#    y 0.000000 1.728630 0.000000 
#    z 0.022960 0.000000 1.704550 
# 
# From -- ./inp_files/244109.got.cif
#   From: 2010.05.17/outbox.cif.g08.bks.cpg/sg12_123_cif.got.tgz:244109.got - 2010.06.03 13:09:07.
