data_PCOD9190681
_publ_section_title
;
Structure prediction by ZEFSAII (Michael W. Deem and Ramdas Pophale) SiO2 
 PCOD9190681
Probable space group: C 2/M
;
_chemical_formula_sum "Si O2"
_cell_formula_units_Z 64
_cell_length_a 27.327036
_cell_length_b 9.035813
_cell_length_c 15.193406
_cell_angle_alpha 90.000000
_cell_angle_beta 70.151639
_cell_angle_gamma 90.000000
_cell_volume 3528.721231
_symmetry_space_group_name_H-M "C 2/M"
_symmetry_group_IT_number 12
_symmetry_cell_setting 'monoclinic'
loop_
_space_group_symop_operation_xyz
x,y,z
-x,y,-z
-x,-y,-z
x,-y,z
1/2+x,1/2+y,z
1/2-x,1/2+y,-z
1/2-x,1/2-y,-z
1/2+x,1/2-y,z
loop_
_atom_site_type_symbol
_atom_site_label
_atom_site_fract_x
_atom_site_fract_y
_atom_site_fract_z
Si Si1 0.573123 0.675996 0.624167
Si Si2 0.437269 0.167293 0.549644
Si Si3 0.222723 0.672663 0.385609
Si Si4 0.123633 0.825507 0.118251
Si Si5 0.037516 0.676960 0.273191
Si Si6 0.675836 0.173366 0.610040
Si Si7 0.215258 0.822209 0.944084
Si Si8 0.207113 0.825042 0.224106
O O1 0.572143 0.500000 0.630062
O O2 0.580425 0.727374 0.517894
O O3 0.518322 0.744544 0.688877
O O4 0.620980 0.744318 0.648816
O O5 0.500000 0.157173 0.500000
O O6 0.432455 0.216041 0.653586
O O7 0.415844 0.000000 0.550528
O O8 0.229019 0.500000 0.362063
O O9 0.278571 0.751136 0.362021
O O10 0.194689 0.686230 0.496796
O O11 0.192355 0.751502 0.325339
O O12 0.073162 0.730815 0.171507
O O13 0.164312 0.801895 0.174077
O O14 0.110736 0.000000 0.125230
O O15 0.156111 0.790093 0.009960
O O16 0.030662 0.500000 0.278246
O O17 0.671141 0.000000 0.633719
O O18 0.239600 0.751990 0.842027
O O19 0.221665 0.000000 0.940333
O O20 0.250000 0.750000 0.000000
O O21 0.214502 0.000000 0.229486
#
# Coordination Sequence:
#
# PCOD9190681 Si02
#       8
#     8   8   8   8   8   8   8   8
#     4  11  21  32  49  69  94 129 166 205 249 294
#     4   8  16  30  43  60  88 122 161 201 237 280
#     4  10  21  36  54  76  99 128 167 208 251 298
#     4   9  19  32  47  72 104 134 166 205 245 290
#     4  10  20  32  47  68  96 130 168 205 243 293
#     4  10  21  37  54  72  99 130 165 210 254 294
#     4   9  17  31  49  71 100 133 166 204 248 297
#     4  10  20  33  51  75 103 134 167 205 249 299
#
# _framework density 18.136882
#
# number of rings (size 3 to 8) (size 9 to 14) (size 15 to 20)
#    0.000    2.375    0.000    4.500    1.750    7.250 
#    0.000    0.000    0.000    0.000    0.000    0.875 
#    0.000    7.000    0.000    0.000    0.000    0.000 
#
# Total GULP energy -178526.815956 kJ/mol
# GULP energy per Si atom -5578.962999 kJ/mol
# Density = 1.809560 g / cm^3
# Si number density = 18.136882 Si / 1000 Ang^3
#
#
#
# Elastic Constant Matrix: (Units=GPa)
#
#
# Indices 1 2 3 4 5 6 
#
# 1 69.0044 46.5445 -0.0940 0.0000 -16.1583 0.0000
# 2 46.5445 91.3785 19.5635 0.0000 -15.4630 0.0000
# 3 -0.0940 19.5635 36.5522 0.0000 -14.9168 0.0000
# 4 0.0000 0.0000 0.0000 26.5282 0.0000 -2.0058
# 5 -16.1583 -15.4630 -14.9168 0.0000 25.3390 0.0000
# 6 0.0000 0.0000 0.0000 -2.0058 0.0000 25.0792
#
#
#
# Elastic Compliance Matrix: (Units=1/GPa)
#
#
# Indices 1 2 3 4 5 6 
#
# 1 0.028940 -0.014953 0.015643 0.000000 0.018539 0.000000
# 2 -0.014953 0.020546 -0.012912 0.000000 -0.004598 0.000000
# 3 0.015643 -0.012912 0.046284 0.000000 0.029343 0.000000
# 4 0.000000 0.000000 0.000000 0.037925 0.000000 0.003033
# 5 0.018539 -0.004598 0.029343 0.000000 0.065755 0.000000
# 6 0.000000 0.000000 0.000000 0.003033 0.000000 0.040116
#
#
# Mechanical properties :
#
#
# Convention : Reuss Voigt Hill
#
# Bulk Modulus (GPa) = 14.01986 36.55145 25.28565
# Shear Modulus (GPa) = 17.37409 24.11737 20.74573
#
# Velocity S-wave (km/s) = 3.09842 3.65052 3.38574
# Velocity P-wave (km/s) = 4.53289 6.16159 5.40890
#
# Compressibility (1/GPa) = 0.07132740
#
# Stress axis : x y z
#
# Youngs Moduli (GPa) = 34.55388 48.67096 21.60587
#
# Poissons Ratio (x) = 0.72778 -0.33799
# Poissons Ratio (y) = 0.51668 0.27897
# Poissons Ratio (z) = -0.54054 0.62842
#
# Static dielectric constant tensor:
#      x y z
#    x 1.637200 0.000000 -0.014710 
#    y 0.000000 1.600830 0.000000 
#    z -0.014710 0.000000 1.662760 
# 
# From -- ./inp_files/243753.got.cif
#   From: 2010.05.17/outbox.cif.g08.bks.cpg/sg12_122_cif.got.tgz:243753.got - 2010.06.03 13:09:07.
