data_PCOD9190666
_publ_section_title
;
Structure prediction by ZEFSAII (Michael W. Deem and Ramdas Pophale) SiO2 
 PCOD9190666
Probable space group: C 2/M
;
_chemical_formula_sum "Si O2"
_cell_formula_units_Z 56
_cell_length_a 14.403699
_cell_length_b 9.293421
_cell_length_c 27.338652
_cell_angle_alpha 90.000000
_cell_angle_beta 135.024681
_cell_angle_gamma 90.000000
_cell_volume 2586.572097
_symmetry_space_group_name_H-M "C 2/M"
_symmetry_group_IT_number 12
_symmetry_cell_setting 'monoclinic'
loop_
_space_group_symop_operation_xyz
x,y,z
-x,y,-z
-x,-y,-z
x,-y,z
1/2+x,1/2+y,z
1/2-x,1/2+y,-z
1/2-x,1/2-y,-z
1/2+x,1/2-y,z
loop_
_atom_site_type_symbol
_atom_site_label
_atom_site_fract_x
_atom_site_fract_y
_atom_site_fract_z
Si Si1 0.625973 0.164449 0.509883
Si Si2 0.631134 0.667746 0.931317
Si Si3 0.939036 0.172967 0.781003
Si Si4 0.559867 0.836658 0.076508
Si Si5 0.785136 0.665956 0.645783
Si Si6 0.030750 0.835123 0.624522
Si Si7 0.731628 0.670436 0.773789
O O1 0.500000 0.164886 0.500000
O O2 0.736330 0.254531 0.579117
O O3 0.575448 0.236151 0.441274
O O4 0.665466 0.000000 0.517444
O O5 0.660303 0.500000 0.940569
O O6 0.577754 0.711465 0.858015
O O7 0.512596 0.708596 0.922928
O O8 0.750000 0.750000 0.000000
O O9 0.899877 0.249485 0.716483
O O10 0.830889 0.233473 0.778862
O O11 0.931570 0.000000 0.774000
O O12 0.712879 0.821015 0.149945
O O13 0.524630 0.000000 0.081488
O O14 0.500000 0.832860 0.000000
O O15 0.818444 0.500000 0.649592
O O16 0.658565 0.668301 0.635729
O O17 0.088591 0.791339 0.699108
O O18 0.984770 0.000000 0.609138
O O19 0.744844 0.500000 0.765582
#
# Coordination Sequence:
#
# PCOD9190666 Si02
#       7
#     8   8   8   8   8   8   8
#     4   9  15  20  27  41  62  89 123 162 199 236
#     4  10  20  32  47  66  89 117 149 186 225 266
#     4   9  16  25  37  54  74  98 131 170 209 248
#     4   9  17  30  48  68  90 117 149 184 223 268
#     4   9  15  22  32  45  64  93 126 160 199 244
#     4   8  13  20  29  42  63  92 126 161 196 238
#     4   8  14  24  37  53  74 102 134 167 205 250
#
# _framework density 21.650276000000002
#
# number of rings (size 3 to 8) (size 9 to 14) (size 15 to 20)
#    0.000    3.143    0.000    2.571    0.000    7.143 
#    0.000    0.000    0.000    0.000    0.000    0.000 
#    0.000    0.000    0.000    1.286    0.000   15.429 
#
# Total GULP energy -155982.760630 kJ/mol
# GULP energy per Si atom -5570.812880 kJ/mol
# Density = 2.160100 g / cm^3
# Si number density = 21.650276 Si / 1000 Ang^3
#
#
#
# Elastic Constant Matrix: (Units=GPa)
#
#
# Indices 1 2 3 4 5 6 
#
# 1 46.0997 10.5949 21.9511 0.0000 -7.8327 0.0000
# 2 10.5949 97.1882 112.2424 0.0000 3.0362 0.0000
# 3 21.9511 112.2424 282.3306 0.0000 -4.6287 0.0000
# 4 0.0000 0.0000 0.0000 41.6000 0.0000 1.3522
# 5 -7.8327 3.0362 -4.6287 0.0000 7.8420 0.0000
# 6 0.0000 0.0000 0.0000 1.3522 0.0000 -0.2390
#
#
#
# Elastic Compliance Matrix: (Units=1/GPa)
#
#
# Indices 1 2 3 4 5 6 
#
# 1 0.027523 -0.003647 -0.000218 0.000000 0.028774 0.000000
# 2 -0.003647 0.020684 -0.008210 0.000000 -0.016497 0.000000
# 3 -0.000218 -0.008210 0.006938 0.000000 0.007056 0.000000
# 4 0.000000 0.000000 0.000000 0.020305 0.000000 0.114864
# 5 0.028774 -0.016497 0.007056 0.000000 0.166810 0.000000
# 6 0.000000 0.000000 0.000000 0.114864 0.000000 -3.533888
#
#
# Mechanical properties :
#
#
# Convention : Reuss Voigt Hill
#
# Bulk Modulus (GPa) = 32.26361 79.46614 55.86488
# Shear Modulus (GPa) = -1.53509 28.56260 13.51376
#
# Velocity S-wave (km/s) = -0.84296 3.63612 2.50108
# Velocity P-wave (km/s) = 3.73993 7.37649 5.84806
#
# Compressibility (1/GPa) = 0.03099467
#
# Stress axis : x y z
#
# Youngs Moduli (GPa) = 36.33314 48.34680 144.12357
#
# Poissons Ratio (x) = 0.17634 0.03144
# Poissons Ratio (y) = 0.13252 1.18324
# Poissons Ratio (z) = 0.00793 0.39692
#
# Static dielectric constant tensor:
#      x y z
#    x 2.049590 0.000000 0.037400 
#    y 0.000000 1.721100 0.000000 
#    z 0.037400 0.000000 1.852570 
# 
# From -- ./inp_files/318841.got.cif
#   From: 2010.05.17/outbox.cif.g08.bks.cpg/sg12_160_cif.got.tgz:318841.got - 2010.06.03 13:09:07.
