data_PCOD9190442
_publ_section_title
;
Structure prediction by ZEFSAII (Michael W. Deem and Ramdas Pophale) SiO2 
 PCOD9190442
Probable space group: C 2/M
;
_chemical_formula_sum "Si O2"
_cell_formula_units_Z 56
_cell_length_a 20.723230
_cell_length_b 7.880822
_cell_length_c 19.000279
_cell_angle_alpha 90.000000
_cell_angle_beta 131.734288
_cell_angle_gamma 90.000000
_cell_volume 2315.620782
_symmetry_space_group_name_H-M "C 2/M"
_symmetry_group_IT_number 12
_symmetry_cell_setting 'monoclinic'
loop_
_space_group_symop_operation_xyz
x,y,z
-x,y,-z
-x,-y,-z
x,-y,z
1/2+x,1/2+y,z
1/2-x,1/2+y,-z
1/2-x,1/2-y,-z
1/2+x,1/2-y,z
loop_
_atom_site_type_symbol
_atom_site_label
_atom_site_fract_x
_atom_site_fract_y
_atom_site_fract_z
Si Si1 0.738355 0.299253 0.572111
Si Si2 0.376361 0.693414 0.392292
Si Si3 0.787482 0.300936 0.102455
Si Si4 0.281240 0.691079 0.804334
Si Si5 0.542528 0.299497 0.688206
Si Si6 0.068506 0.793950 0.267584
Si Si7 0.978813 0.805231 0.910442
O O1 0.726392 0.500000 0.566157
O O2 0.750000 0.250000 0.500000
O O3 0.657999 0.226339 0.559561
O O4 0.832174 0.253972 0.670824
O O5 0.404237 0.500000 0.426456
O O6 0.285837 0.689373 0.283147
O O7 0.439983 0.769288 0.378310
O O8 0.805960 0.500000 0.112377
O O9 0.715315 0.269925 0.110306
O O10 0.872765 0.218954 0.199818
O O11 0.750000 0.250000 0.000000
O O12 0.243911 0.500000 0.770355
O O13 0.375483 0.685603 0.841539
O O14 0.527639 0.500000 0.667353
O O15 0.466019 0.231587 0.682027
O O16 0.008723 0.733424 0.158718
O O17 0.063169 0.000000 0.263202
O O18 0.015008 0.000000 0.938248
O O19 0.000000 0.718849 0.000000
#
# Coordination Sequence:
#
# PCOD9190442 Si02
#       7
#     8   8   8   8   8   8   8
#     4  11  23  39  62  87 114 145 182 228 281 341
#     4   9  18  35  56  79 109 141 175 221 275 328
#     4  10  20  31  47  72 105 147 192 237 278 323
#     4   9  17  30  50  73 100 138 186 229 268 320
#     4   9  19  35  56  80 108 145 185 226 280 337
#     4  10  20  36  60  85 113 148 188 234 280 330
#     4   9  17  28  48  77 108 142 183 228 269 317
#
# _framework density 24.183578000000001
#
# number of rings (size 3 to 8) (size 9 to 14) (size 15 to 20)
#    0.000    2.429    1.429    0.857    2.000    1.714 
#    0.000    0.714    0.000    5.143    0.000    0.000 
#    0.000    0.000    0.000    0.000    0.000    0.000 
#
# Total GULP energy -156075.821660 kJ/mol
# GULP energy per Si atom -5574.136488 kJ/mol
# Density = 2.412854 g / cm^3
# Si number density = 24.183578 Si / 1000 Ang^3
#
#
#
# Elastic Constant Matrix: (Units=GPa)
#
#
# Indices 1 2 3 4 5 6 
#
# 1 152.1279 8.6686 41.3298 0.0000 -46.5424 0.0000
# 2 8.6686 34.2306 12.9444 0.0000 -5.2480 0.0000
# 3 41.3298 12.9444 117.9293 0.0000 -42.5907 0.0000
# 4 0.0000 0.0000 0.0000 12.7475 0.0000 -0.0224
# 5 -46.5424 -5.2480 -42.5907 0.0000 47.9183 0.0000
# 6 0.0000 0.0000 0.0000 -0.0224 0.0000 4.9705
#
#
#
# Elastic Compliance Matrix: (Units=1/GPa)
#
#
# Indices 1 2 3 4 5 6 
#
# 1 0.009387 -0.001023 0.000110 0.000000 0.009103 0.000000
# 2 -0.001023 0.030600 -0.003165 0.000000 -0.000455 0.000000
# 3 0.000110 -0.003165 0.012816 0.000000 0.011151 0.000000
# 4 0.000000 0.000000 0.000000 0.078447 0.000000 0.000353
# 5 0.009103 -0.000455 0.011151 0.000000 0.039572 0.000000
# 6 0.000000 0.000000 0.000000 0.000353 0.000000 0.201190
#
#
# Mechanical properties :
#
#
# Convention : Reuss Voigt Hill
#
# Bulk Modulus (GPa) = 22.39781 47.79703 35.09742
# Shear Modulus (GPa) = 12.65664 29.21691 20.93678
#
# Velocity S-wave (km/s) = 2.29018 3.47959 2.94554
# Velocity P-wave (km/s) = 4.03422 5.99588 5.11006
#
# Compressibility (1/GPa) = 0.04464722
#
# Stress axis : x y z
#
# Youngs Moduli (GPa) = 106.53205 32.68012 78.02904
#
# Poissons Ratio (x) = 0.03344 -0.00860
# Poissons Ratio (y) = 0.10900 0.24693
# Poissons Ratio (z) = -0.01174 0.10342
#
# Static dielectric constant tensor:
#      x y z
#    x 1.986320 0.000000 -0.062630 
#    y 0.000000 1.960030 0.000000 
#    z -0.062630 0.000000 2.017480 
# 
# From -- ./inp_files/280915.got.cif
#   From: 2010.05.17/outbox.cif.g08.bks.cpg/sg12_141_cif.got.tgz:280915.got - 2010.06.03 13:09:07.
