data_PCOD9190721
_publ_section_title
;
Structure prediction by ZEFSAII (Michael W. Deem and Ramdas Pophale) SiO2 
 PCOD9190721
Probable space group: C 2/M
;
_chemical_formula_sum "Si O2"
_cell_formula_units_Z 56
_cell_length_a 22.664648
_cell_length_b 16.749292
_cell_length_c 14.867484
_cell_angle_alpha 90.000000
_cell_angle_beta 143.233392
_cell_angle_gamma 90.000000
_cell_volume 3378.222913
_symmetry_space_group_name_H-M "C 2/M"
_symmetry_group_IT_number 12
_symmetry_cell_setting 'monoclinic'
loop_
_space_group_symop_operation_xyz
x,y,z
-x,y,-z
-x,-y,-z
x,-y,z
1/2+x,1/2+y,z
1/2-x,1/2+y,-z
1/2-x,1/2-y,-z
1/2+x,1/2-y,z
loop_
_atom_site_type_symbol
_atom_site_label
_atom_site_fract_x
_atom_site_fract_y
_atom_site_fract_z
Si Si1 0.913704 0.000000 0.757521
Si Si2 0.611199 0.672622 0.330465
Si Si3 0.421077 0.906008 0.323291
Si Si4 0.744883 0.335808 0.195776
Si Si5 0.189831 0.694081 0.530264
Si Si6 0.980823 0.406242 0.753339
Si Si7 0.946527 0.730127 0.032588
Si Si8 0.137241 0.000000 0.101123
O O1 0.892494 0.078261 0.674541
O O2 0.854464 0.000000 0.779688
O O3 0.025298 0.000000 0.930158
O O4 0.698502 0.696853 0.368414
O O5 0.639190 0.720074 0.454249
O O6 0.510136 0.706569 0.167877
O O7 0.500000 0.891897 0.500000
O O8 0.327474 0.847602 0.220435
O O9 0.468884 0.896864 0.283391
O O10 0.391269 0.000000 0.296188
O O11 0.806384 0.331730 0.363107
O O12 0.685387 0.418698 0.126138
O O13 0.665092 0.264051 0.101701
O O14 0.127158 0.632969 0.392552
O O15 0.975769 0.500000 0.768557
O O16 0.037788 0.354021 0.897478
O O17 0.000000 0.727872 0.000000
#
# Coordination Sequence:
#
# PCOD9190721 Si02
#       8
#     4   8   8   8   8   8   8   4
#     4  11  18  30  48  70 108 136 176 202 268 316
#     4  10  20  32  47  75 109 139 169 216 261 318
#     4  10  20  34  53  81 109 134 171 222 267 310
#     4  12  20  33  55  78 107 136 171 212 271 316
#     4  10  20  32  50  75 106 135 172 215 267 304
#     4  10  23  38  54  77 107 143 183 218 255 311
#     4  11  21  37  54  77 113 143 172 218 264 310
#     4  11  20  26  47  82 100 132 164 218 263 330
#
# _framework density 16.576761999999999
#
# number of rings (size 3 to 8) (size 9 to 14) (size 15 to 20)
#    0.000    1.429    6.429    0.000    2.000    0.857 
#    0.000    0.000    1.571    0.000    0.000    0.000 
#    0.000    3.143    0.000    0.000    0.000    0.000 
#
# Total GULP energy -156038.322804 kJ/mol
# GULP energy per Si atom -5572.797243 kJ/mol
# Density = 1.653903 g / cm^3
# Si number density = 16.576762 Si / 1000 Ang^3
#
#
#
# Elastic Constant Matrix: (Units=GPa)
#
#
# Indices 1 2 3 4 5 6 
#
# 1 39.8682 2.9461 7.7848 0.0000 12.6210 0.0000
# 2 2.9461 102.2740 32.1573 0.0000 5.1944 0.0000
# 3 7.7848 32.1573 55.9500 0.0000 9.0045 0.0000
# 4 0.0000 0.0000 0.0000 19.6898 0.0000 -3.4501
# 5 12.6210 5.1944 9.0045 0.0000 15.6550 0.0000
# 6 0.0000 0.0000 0.0000 -3.4501 0.0000 15.8524
#
#
#
# Elastic Compliance Matrix: (Units=1/GPa)
#
#
# Indices 1 2 3 4 5 6 
#
# 1 0.033716 0.000621 -0.000706 0.000000 -0.026982 0.000000
# 2 0.000621 0.011946 -0.006870 0.000000 -0.000513 0.000000
# 3 -0.000706 -0.006870 0.023651 0.000000 -0.010755 0.000000
# 4 0.000000 0.000000 0.000000 0.052801 0.000000 0.011491
# 5 -0.026982 -0.000513 -0.010755 0.000000 0.091986 0.000000
# 6 0.000000 0.000000 0.000000 0.011491 0.000000 0.065583
#
#
# Mechanical properties :
#
#
# Convention : Reuss Voigt Hill
#
# Bulk Modulus (GPa) = 18.04932 31.54097 24.79514
# Shear Modulus (GPa) = 16.02257 20.58638 18.30448
#
# Velocity S-wave (km/s) = 3.11234 3.52786 3.32659
# Velocity P-wave (km/s) = 4.88134 5.97184 5.45392
#
# Compressibility (1/GPa) = 0.05540375
#
# Stress axis : x y z
#
# Youngs Moduli (GPa) = 29.65930 83.71131 42.28227
#
# Poissons Ratio (x) = -0.05199 0.02984
# Poissons Ratio (y) = -0.01842 0.29047
# Poissons Ratio (z) = 0.02093 0.57507
#
# Static dielectric constant tensor:
#      x y z
#    x 1.573800 0.000000 0.016260 
#    y 0.000000 1.566120 0.000000 
#    z 0.016260 0.000000 1.557100 
# 
# From -- ./inp_files/240478.got.cif
#   From: 2010.05.17/outbox.cif.g08.bks.cpg/sg12_121_cif.got.tgz:240478.got - 2010.06.03 13:09:07.
