data_PCOD9190955
_publ_section_title
;
Structure prediction by ZEFSAII (Michael W. Deem and Ramdas Pophale) SiO2 
 PCOD9190955
Probable space group: C 2/M
;
_chemical_formula_sum "Si O2"
_cell_formula_units_Z 58
_cell_length_a 29.534632
_cell_length_b 9.698594
_cell_length_c 9.595546
_cell_angle_alpha 90.000000
_cell_angle_beta 93.769562
_cell_angle_gamma 90.000000
_cell_volume 2742.643983
_symmetry_space_group_name_H-M "C 2/M"
_symmetry_group_IT_number 12
_symmetry_cell_setting 'monoclinic'
loop_
_space_group_symop_operation_xyz
x,y,z
-x,y,-z
-x,-y,-z
x,-y,z
1/2+x,1/2+y,z
1/2-x,1/2+y,-z
1/2-x,1/2-y,-z
1/2+x,1/2-y,z
loop_
_atom_site_type_symbol
_atom_site_label
_atom_site_fract_x
_atom_site_fract_y
_atom_site_fract_z
Si Si1 0.792290 0.340505 0.846471
Si Si2 0.698949 0.334230 0.724296
Si Si3 0.902954 0.158701 0.220655
Si Si4 0.915771 0.336247 0.661940
Si Si5 0.500000 0.000000 0.000000
Si Si6 0.623186 0.339905 0.094135
Si Si7 0.320940 0.844415 0.526518
Si Si8 0.015565 0.649768 0.711888
O O1 0.796891 0.500000 0.896498
O O2 0.739942 0.294167 0.835080
O O3 0.828838 0.237658 0.918272
O O4 0.804946 0.341521 0.683483
O O5 0.701339 0.500000 0.715057
O O6 0.648364 0.293937 0.758837
O O7 0.703883 0.264250 0.575321
O O8 0.943129 0.247303 0.290989
O O9 0.906371 0.000000 0.266746
O O10 0.905115 0.164308 0.053395
O O11 0.914030 0.500000 0.700346
O O12 0.902219 0.243487 0.790810
O O13 0.875140 0.315241 0.544617
O O14 0.967692 0.306093 0.635995
O O15 0.494472 0.117132 0.125216
O O16 0.630946 0.500000 0.132978
O O17 0.313857 0.000000 0.472072
O O18 0.029125 0.500000 0.655213
#
# Coordination Sequence:
#
# PCOD9190955 Si02
#       8
#     8   8   8   8   2   8   8   8
#     4   9  19  36  56  77 101 134 172 222 269 308
#     4  10  21  37  54  72 103 144 180 211 259 317
#     4  10  22  36  49  74 112 145 172 211 258 315
#     4   9  18  34  55  78 107 133 167 221 265 307
#     4   8  16  28  54  80  98 128 178 212 244 302
#     4  10  20  32  50  78 108 135 168 213 264 315
#     4   9  18  33  54  80 102 126 170 226 271 302
#     4   9  18  32  54  78 102 136 178 215 251 307
#
# _framework density 21.147478
#
# number of rings (size 3 to 8) (size 9 to 14) (size 15 to 20)
#    0.414    2.207    0.000    2.483    0.000    4.966 
#    0.000    2.414    0.000    4.138    0.000    0.000 
#    0.000    0.000    0.000    0.000    0.000    0.000 
#
# Total GULP energy -161553.900736 kJ/mol
# GULP energy per Si atom -5570.824163 kJ/mol
# Density = 2.109934 g / cm^3
# Si number density = 21.147478 Si / 1000 Ang^3
#
#
#
# Elastic Constant Matrix: (Units=GPa)
#
#
# Indices 1 2 3 4 5 6 
#
# 1 157.8210 66.9367 6.7496 0.0000 17.2965 0.0000
# 2 66.9367 50.0486 14.2644 0.0000 11.6027 0.0000
# 3 6.7496 14.2644 38.0902 0.0000 1.4009 0.0000
# 4 0.0000 0.0000 0.0000 12.1680 0.0000 7.0724
# 5 17.2965 11.6027 1.4009 0.0000 20.9127 0.0000
# 6 0.0000 0.0000 0.0000 7.0724 0.0000 30.9902
#
#
#
# Elastic Compliance Matrix: (Units=1/GPa)
#
#
# Indices 1 2 3 4 5 6 
#
# 1 0.015682 -0.022360 0.005629 0.000000 -0.000942 0.000000
# 2 -0.022360 0.057639 -0.017169 0.000000 -0.012335 0.000000
# 3 0.005629 -0.017169 0.031584 0.000000 0.002754 0.000000
# 4 0.000000 0.000000 0.000000 0.094751 0.000000 -0.021624
# 5 -0.000942 -0.012335 0.002754 0.000000 0.055256 0.000000
# 6 0.000000 0.000000 0.000000 -0.021624 0.000000 0.037203
#
#
# Mechanical properties :
#
#
# Convention : Reuss Voigt Hill
#
# Bulk Modulus (GPa) = 26.95015 46.87345 36.91180
# Shear Modulus (GPa) = 13.43054 23.34811 18.38933
#
# Velocity S-wave (km/s) = 2.52283 3.32635 2.95206
# Velocity P-wave (km/s) = 4.61062 6.07996 5.39554
#
# Compressibility (1/GPa) = 0.03710554
#
# Stress axis : x y z
#
# Youngs Moduli (GPa) = 63.76541 17.34929 31.66125
#
# Poissons Ratio (x) = 0.38794 -0.17823
# Poissons Ratio (y) = 1.42582 0.54360
# Poissons Ratio (z) = -0.35896 0.29788
#
# Static dielectric constant tensor:
#      x y z
#    x 1.807770 0.000000 -0.035960 
#    y 0.000000 1.721700 0.000000 
#    z -0.035960 0.000000 1.786890 
# 
# From -- ./inp_files/180918.got.cif
#   From: 2010.05.17/outbox.cif.g08.bks.cpg/sg12_91_cif.got.tgz:180918.got - 2010.06.03 13:09:07.
