data_PCOD9190826
_publ_section_title
;
Structure prediction by ZEFSAII (Michael W. Deem and Ramdas Pophale) SiO2 
 PCOD9190826
Probable space group: C 2/M
;
_chemical_formula_sum "Si O2"
_cell_formula_units_Z 56
_cell_length_a 34.484727
_cell_length_b 7.653831
_cell_length_c 12.829036
_cell_angle_alpha 90.000000
_cell_angle_beta 118.837753
_cell_angle_gamma 90.000000
_cell_volume 2966.185891
_symmetry_space_group_name_H-M "C 2/M"
_symmetry_group_IT_number 12
_symmetry_cell_setting 'monoclinic'
loop_
_space_group_symop_operation_xyz
x,y,z
-x,y,-z
-x,-y,-z
x,-y,z
1/2+x,1/2+y,z
1/2-x,1/2+y,-z
1/2-x,1/2-y,-z
1/2+x,1/2-y,z
loop_
_atom_site_type_symbol
_atom_site_label
_atom_site_fract_x
_atom_site_fract_y
_atom_site_fract_z
Si Si1 0.956894 0.792251 0.884240
Si Si2 0.392150 0.211188 0.981749
Si Si3 0.042440 0.211811 0.351021
Si Si4 0.798962 0.788200 0.184252
Si Si5 0.799460 0.291337 0.940958
Si Si6 0.441268 0.792933 0.255217
Si Si7 0.111528 0.796595 0.608027
O O1 0.952571 0.724125 0.761305
O O2 0.963723 0.000000 0.882505
O O3 0.915146 0.764033 0.904524
O O4 0.000000 0.719271 0.000000
O O5 0.421667 0.270844 0.119070
O O6 0.391760 0.000000 0.984188
O O7 0.342076 0.275547 0.934239
O O8 0.080645 0.279278 0.477405
O O9 0.993506 0.259517 0.326687
O O10 0.044560 0.000000 0.354490
O O11 0.749697 0.723963 0.148955
O O12 0.839893 0.721132 0.305598
O O13 0.798713 0.000000 0.188928
O O14 0.806839 0.741440 0.073467
O O15 0.798247 0.500000 0.924409
O O16 0.415755 0.712054 0.319556
O O17 0.433317 0.000000 0.250382
O O18 0.118494 0.000000 0.590666
#
# Coordination Sequence:
#
# PCOD9190826 Si02
#       7
#     8   8   8   8   8   8   8
#     4  10  20  34  52  70  90 124 167 207 239 274
#     4  10  20  32  49  72 100 128 154 195 245 287
#     4  10  21  36  50  68  97 130 165 203 240 280
#     4   9  17  29  49  73  96 125 160 193 233 287
#     4   9  17  31  48  71 100 126 154 194 241 283
#     4  11  21  32  48  73 102 131 160 193 238 291
#     4  10  20  33  50  72  99 131 162 195 238 288
#
# _framework density 18.879463999999999
#
# number of rings (size 3 to 8) (size 9 to 14) (size 15 to 20)
#    0.000    2.143    2.857    0.857    0.000    4.286 
#    0.000    0.000    0.000    0.857    0.000    0.000 
#    0.000    0.000    0.000    0.000    0.000    0.000 
#
# Total GULP energy -156263.353352 kJ/mol
# GULP energy per Si atom -5580.834048 kJ/mol
# Density = 1.883649 g / cm^3
# Si number density = 18.879464 Si / 1000 Ang^3
#
#
#
# Elastic Constant Matrix: (Units=GPa)
#
#
# Indices 1 2 3 4 5 6 
#
# 1 119.3852 -6.1435 51.4419 0.0000 31.6201 0.0000
# 2 -6.1435 32.9524 -0.3780 0.0000 1.7654 0.0000
# 3 51.4419 -0.3780 104.0332 0.0000 25.5644 0.0000
# 4 0.0000 0.0000 0.0000 9.7528 0.0000 -1.5949
# 5 31.6201 1.7654 25.5644 0.0000 28.9029 0.0000
# 6 0.0000 0.0000 0.0000 -1.5949 0.0000 11.5576
#
#
#
# Elastic Compliance Matrix: (Units=1/GPa)
#
#
# Indices 1 2 3 4 5 6 
#
# 1 0.013106 0.003003 -0.003707 0.000000 -0.011243 0.000000
# 2 0.003003 0.031178 -0.000123 0.000000 -0.005081 0.000000
# 3 -0.003707 -0.000123 0.013348 0.000000 -0.007743 0.000000
# 4 0.000000 0.000000 0.000000 0.104901 0.000000 0.014476
# 5 -0.011243 -0.005081 -0.007743 0.000000 0.054057 0.000000
# 6 0.000000 0.000000 0.000000 0.014476 0.000000 0.088520
#
#
# Mechanical properties :
#
#
# Convention : Reuss Voigt Hill
#
# Bulk Modulus (GPa) = 17.86447 38.46795 28.16621
# Shear Modulus (GPa) = 15.36465 24.13937 19.75201
#
# Velocity S-wave (km/s) = 2.85586 3.57964 3.23804
# Velocity P-wave (km/s) = 4.51193 6.12412 5.37877
#
# Compressibility (1/GPa) = 0.05597702
#
# Stress axis : x y z
#
# Youngs Moduli (GPa) = 76.30254 32.07441 74.92022
#
# Poissons Ratio (x) = -0.09633 0.27772
# Poissons Ratio (y) = -0.22915 0.00923
# Poissons Ratio (z) = 0.28285 0.00395
#
# Static dielectric constant tensor:
#      x y z
#    x 1.650830 0.000000 0.035320 
#    y 0.000000 1.700110 0.000000 
#    z 0.035320 0.000000 1.656060 
# 
# From -- ./inp_files/186835.got.cif
#   From: 2010.05.17/outbox.cif.g08.bks.cpg/sg12_94_cif.got.tgz:186835.got - 2010.06.03 13:09:07.
