data_PCOD9190458
_publ_section_title
;
Structure prediction by ZEFSAII (Michael W. Deem and Ramdas Pophale) SiO2 
 PCOD9190458
Probable space group: C 2/M
;
_chemical_formula_sum "Si O2"
_cell_formula_units_Z 56
_cell_length_a 19.895861
_cell_length_b 7.536134
_cell_length_c 28.690896
_cell_angle_alpha 90.000000
_cell_angle_beta 39.864084
_cell_angle_gamma 90.000000
_cell_volume 2757.352058
_symmetry_space_group_name_H-M "C 2/M"
_symmetry_group_IT_number 12
_symmetry_cell_setting 'monoclinic'
loop_
_space_group_symop_operation_xyz
x,y,z
-x,y,-z
-x,-y,-z
x,-y,z
1/2+x,1/2+y,z
1/2-x,1/2+y,-z
1/2-x,1/2-y,-z
1/2+x,1/2-y,z
loop_
_atom_site_type_symbol
_atom_site_label
_atom_site_fract_x
_atom_site_fract_y
_atom_site_fract_z
Si Si1 0.869416 0.714430 0.689540
Si Si2 0.364308 0.206042 0.193088
Si Si3 0.389820 0.703530 0.073839
Si Si4 0.160387 0.283484 0.187020
Si Si5 0.688880 0.210803 0.601759
Si Si6 0.402907 0.786389 0.448262
Si Si7 0.039678 0.282408 0.763369
O O1 0.865090 0.500000 0.690051
O O2 0.759132 0.781453 0.728849
O O3 0.872724 0.765570 0.742636
O O4 0.977795 0.774392 0.608419
O O5 0.381320 0.297211 0.134408
O O6 0.431519 0.277273 0.200248
O O7 0.390402 0.000000 0.171878
O O8 0.391366 0.500000 0.055812
O O9 0.278924 0.781534 0.115916
O O10 0.500000 0.786359 0.000000
O O11 0.162783 0.500000 0.185470
O O12 0.072704 0.227638 0.197079
O O13 0.639178 0.280578 0.579733
O O14 0.813171 0.240875 0.533008
O O15 0.627632 0.277375 0.679430
O O16 0.671235 0.000000 0.610290
O O17 0.406374 0.000000 0.444015
O O18 0.041462 0.500000 0.763477
#
# Coordination Sequence:
#
# PCOD9190458 Si02
#       7
#     8   8   8   8   8   8   8
#     4   9  16  30  50  68  90 126 167 201 234 280
#     4  10  20  31  48  73  99 124 153 194 240 281
#     4   9  18  34  56  77  95 122 158 190 225 278
#     4   8  13  26  50  71  88 119 163 195 217 268
#     4   9  16  27  45  67  92 122 159 201 239 279
#     4   9  16  27  45  69  92 119 161 206 244 275
#     4   9  16  29  47  69  95 127 162 191 232 288
#
# _framework density 20.309339000000001
#
# number of rings (size 3 to 8) (size 9 to 14) (size 15 to 20)
#    0.000    3.000    1.429    1.286    0.000    0.857 
#    0.000    2.857    0.000   11.143    0.000    0.000 
#    0.000    0.000    0.000    0.000    0.000    0.000 
#
# Total GULP energy -156101.141486 kJ/mol
# GULP energy per Si atom -5575.040767 kJ/mol
# Density = 2.026311 g / cm^3
# Si number density = 20.309339 Si / 1000 Ang^3
#
#
#
# Elastic Constant Matrix: (Units=GPa)
#
#
# Indices 1 2 3 4 5 6 
#
# 1 118.5756 -4.3712 49.0845 0.0003 -25.4029 0.0005
# 2 -4.3712 48.2864 -6.3272 -0.0015 1.0310 0.0088
# 3 49.0845 -6.3272 133.7108 0.0004 -35.2578 -0.0001
# 4 0.0003 -0.0015 0.0004 10.7971 -0.0006 -0.1251
# 5 -25.4029 1.0310 -35.2578 -0.0006 22.9970 0.0003
# 6 0.0005 0.0088 -0.0001 -0.1251 0.0003 9.3748
#
#
#
# Elastic Compliance Matrix: (Units=1/GPa)
#
#
# Indices 1 2 3 4 5 6 
#
# 1 0.011226 0.000615 -0.001392 0.000000 0.010238 -0.000002
# 2 0.000615 0.020886 0.001166 0.000003 0.001531 -0.000020
# 3 -0.001392 0.001166 0.012801 0.000001 0.018035 -0.000001
# 4 0.000000 0.000003 0.000001 0.092632 0.000004 0.001236
# 5 0.010238 0.001531 0.018035 0.000004 0.082376 -0.000005
# 6 -0.000002 -0.000020 -0.000001 0.001236 -0.000005 0.106685
#
#
# Mechanical properties :
#
#
# Convention : Reuss Voigt Hill
#
# Bulk Modulus (GPa) = 21.88623 41.92723 31.90673
# Shear Modulus (GPa) = 14.66034 26.11289 20.38661
#
# Velocity S-wave (km/s) = 2.68964 3.58964 3.17172
# Velocity P-wave (km/s) = 4.52166 6.15384 5.39978
#
# Compressibility (1/GPa) = 0.04569084
#
# Stress axis : x y z
#
# Youngs Moduli (GPa) = 89.08073 47.87995 78.12031
#
# Poissons Ratio (x) = -0.02946 0.10875
# Poissons Ratio (y) = -0.05480 -0.09111
# Poissons Ratio (z) = 0.12401 -0.05584
#
# Static dielectric constant tensor:
#      x y z
#    x 1.702830 0.000000 -0.030750 
#    y 0.000000 1.805400 0.000000 
#    z -0.030750 0.000000 1.728460 
# 
# From -- ./inp_files/377649.got.cif
#   From: 2010.05.17/outbox.cif.g08.bks.cpg/sg12_189_cif.got.tgz:377649.got - 2010.06.03 13:09:07.
