data_PCOD9190797
_publ_section_title
;
Structure prediction by ZEFSAII (Michael W. Deem and Ramdas Pophale) SiO2 
 PCOD9190797
Probable space group: C 2/M
;
_chemical_formula_sum "Si O2"
_cell_formula_units_Z 56
_cell_length_a 25.733743
_cell_length_b 9.387271
_cell_length_c 11.187199
_cell_angle_alpha 90.000000
_cell_angle_beta 113.911412
_cell_angle_gamma 90.000000
_cell_volume 2470.541673
_symmetry_space_group_name_H-M "C 2/M"
_symmetry_group_IT_number 12
_symmetry_cell_setting 'monoclinic'
loop_
_space_group_symop_operation_xyz
x,y,z
-x,y,-z
-x,-y,-z
x,-y,z
1/2+x,1/2+y,z
1/2-x,1/2+y,-z
1/2-x,1/2-y,-z
1/2+x,1/2-y,z
loop_
_atom_site_type_symbol
_atom_site_label
_atom_site_fract_x
_atom_site_fract_y
_atom_site_fract_z
Si Si1 0.297770 0.848973 0.096697
Si Si2 0.039234 0.838067 0.773424
Si Si3 0.456747 0.844035 0.848805
Si Si4 0.896155 0.670456 0.369910
Si Si5 0.866589 0.250107 0.953877
Si Si6 0.836387 0.166999 0.513153
Si Si7 0.208584 0.331128 0.299049
O O1 0.344915 0.855860 0.035305
O O2 0.270294 0.000000 0.091220
O O3 0.250000 0.750000 0.000000
O O4 0.335823 0.810646 0.244829
O O5 0.059104 0.742114 0.679768
O O6 0.984322 0.768682 0.785129
O O7 0.029681 0.000000 0.727016
O O8 0.089386 0.839980 0.923591
O O9 0.401604 0.802736 0.872106
O O10 0.451299 0.000000 0.786585
O O11 0.500000 0.855189 0.000000
O O12 0.905816 0.500000 0.394650
O O13 0.885825 0.758980 0.481148
O O14 0.807859 0.225098 0.825917
O O15 0.822371 0.265960 0.613629
O O16 0.775899 0.168051 0.387315
O O17 0.848923 0.000000 0.553186
O O18 0.194572 0.500000 0.263806
#
# Coordination Sequence:
#
# PCOD9190797 Si02
#       7
#     8   8   8   8   8   8   8
#     4  10  20  32  48  74 106 137 170 210 256 306
#     4  10  21  35  53  80 111 139 170 214 268 319
#     4   9  17  31  52  76 104 138 175 213 256 311
#     4  10  20  35  54  74 100 137 179 216 257 314
#     4  10  20  33  54  79 107 141 178 214 255 309
#     4  10  21  36  54  77 106 140 178 221 266 308
#     4  10  20  35  55  78 106 141 181 220 258 307
#
# _framework density 22.667093999999999
#
# number of rings (size 3 to 8) (size 9 to 14) (size 15 to 20)
#    0.000    2.143    0.000    3.429    0.000   12.286 
#    0.000    0.000    0.000    0.857    0.000    5.000 
#    0.000    0.000    0.000    0.000    0.000    0.000 
#
# Total GULP energy -155897.114491 kJ/mol
# GULP energy per Si atom -5567.754089 kJ/mol
# Density = 2.261550 g / cm^3
# Si number density = 22.667094 Si / 1000 Ang^3
#
#
#
# Elastic Constant Matrix: (Units=GPa)
#
#
# Indices 1 2 3 4 5 6 
#
# 1 81.2379 66.7574 20.6500 0.0000 -36.8634 0.0000
# 2 66.7574 119.6805 18.9507 0.0000 -33.6094 0.0000
# 3 20.6500 18.9507 50.5713 0.0000 -15.9542 0.0000
# 4 0.0000 0.0000 0.0000 3.5850 0.0000 -16.4429
# 5 -36.8634 -33.6094 -15.9542 0.0000 39.4746 0.0000
# 6 0.0000 0.0000 0.0000 -16.4429 0.0000 10.3271
#
#
#
# Elastic Compliance Matrix: (Units=1/GPa)
#
#
# Indices 1 2 3 4 5 6 
#
# 1 0.030518 -0.011703 -0.002554 0.000000 0.017503 0.000000
# 2 -0.011703 0.015549 -0.000366 0.000000 0.002161 0.000000
# 3 -0.002554 -0.000366 0.023041 0.000000 0.006616 0.000000
# 4 0.000000 0.000000 0.000000 -0.044257 0.000000 -0.070466
# 5 0.017503 0.002161 0.006616 0.000000 0.046192 0.000000
# 6 0.000000 0.000000 0.000000 -0.070466 0.000000 -0.015363
#
#
# Mechanical properties :
#
#
# Convention : Reuss Voigt Hill
#
# Bulk Modulus (GPa) = 25.08707 51.57843 38.33275
# Shear Modulus (GPa) = 50.90939 20.35278 35.63108
#
# Velocity S-wave (km/s) = 4.74430 2.99975 3.96906
# Velocity P-wave (km/s) = 6.41115 5.89933 6.16056
#
# Compressibility (1/GPa) = 0.03986118
#
# Stress axis : x y z
#
# Youngs Moduli (GPa) = 32.76719 64.31476 43.40039
#
# Poissons Ratio (x) = 0.75270 0.11086
# Poissons Ratio (y) = 0.38348 0.01588
# Poissons Ratio (z) = 0.08370 0.02353
#
# Static dielectric constant tensor:
#      x y z
#    x 1.945330 0.000000 0.059600 
#    y 0.000000 1.830070 0.000000 
#    z 0.059600 0.000000 1.881690 
# 
# From -- ./inp_files/181052.got.cif
#   From: 2010.05.17/outbox.cif.g08.bks.cpg/sg12_91_cif.got.tgz:181052.got - 2010.06.03 13:09:07.
