data_PCOD9190731
_publ_section_title
;
Structure prediction by ZEFSAII (Michael W. Deem and Ramdas Pophale) SiO2 
 PCOD9190731
Probable space group: C 2/M
;
_chemical_formula_sum "Si O2"
_cell_formula_units_Z 64
_cell_length_a 25.568528
_cell_length_b 7.791402
_cell_length_c 17.546144
_cell_angle_alpha 90.000000
_cell_angle_beta 102.851154
_cell_angle_gamma 90.000000
_cell_volume 3407.892532
_symmetry_space_group_name_H-M "C 2/M"
_symmetry_group_IT_number 12
_symmetry_cell_setting 'monoclinic'
loop_
_space_group_symop_operation_xyz
x,y,z
-x,y,-z
-x,-y,-z
x,-y,z
1/2+x,1/2+y,z
1/2-x,1/2+y,-z
1/2-x,1/2-y,-z
1/2+x,1/2-y,z
loop_
_atom_site_type_symbol
_atom_site_label
_atom_site_fract_x
_atom_site_fract_y
_atom_site_fract_z
Si Si1 0.807564 0.295438 0.051050
Si Si2 0.409340 0.795381 0.987696
Si Si3 0.969024 0.792232 0.157594
Si Si4 0.184244 0.208059 0.314727
Si Si5 0.309895 0.293384 0.349324
Si Si6 0.585724 0.298397 0.184954
Si Si7 0.687104 0.294205 0.483141
Si Si8 0.866586 0.797898 0.217536
O O1 0.812365 0.500000 0.059017
O O2 0.821171 0.220660 0.138051
O O3 0.750000 0.250000 0.000000
O O4 0.853850 0.234542 0.008364
O O5 0.415222 0.718202 0.906408
O O6 0.407736 0.000000 0.977874
O O7 0.453813 0.753465 0.065617
O O8 0.921204 0.726914 0.196948
O O9 0.028614 0.727205 0.195177
O O10 0.968975 0.000000 0.161604
O O11 0.246035 0.259556 0.320245
O O12 0.140332 0.271613 0.239816
O O13 0.166456 0.266388 0.394176
O O14 0.185137 0.000000 0.314576
O O15 0.315166 0.500000 0.351483
O O16 0.329669 0.228777 0.438793
O O17 0.343978 0.224845 0.289151
O O18 0.585502 0.500000 0.204066
O O19 0.680375 0.500000 0.481917
O O20 0.750000 0.250000 0.500000
O O21 0.876273 0.000000 0.232795
#
# Coordination Sequence:
#
# PCOD9190731 Si02
#       8
#     8   8   8   8   8   8   8   8
#     4  10  21  34  47  65  93 125 153 186 230 276
#     4  10  21  34  48  68  91 118 155 196 234 270
#     4   9  18  34  51  65  88 123 160 193 228 272
#     4   9  18  30  45  69  97 122 150 185 230 278
#     4   9  17  29  48  71  94 120 152 188 228 276
#     4  10  20  32  48  69  92 122 157 192 230 275
#     4   8  14  27  45  65  92 122 148 181 225 273
#     4   9  18  32  49  68  90 120 157 193 227 269
#
# _framework density 18.779934000000001
#
# number of rings (size 3 to 8) (size 9 to 14) (size 15 to 20)
#    0.000    2.750    0.000    1.125    1.750    4.500 
#    0.000    0.000    0.000    0.750    0.000    5.250 
#    0.000    0.000    0.000   25.750    0.000   20.500 
#
# Total GULP energy -178284.300457 kJ/mol
# GULP energy per Si atom -5571.384389 kJ/mol
# Density = 1.873719 g / cm^3
# Si number density = 18.779934 Si / 1000 Ang^3
#
#
#
# Elastic Constant Matrix: (Units=GPa)
#
#
# Indices 1 2 3 4 5 6 
#
# 1 57.4204 0.2968 50.3928 0.0000 -8.4334 0.0000
# 2 0.2968 22.3456 -2.2685 0.0000 1.7808 0.0000
# 3 50.3928 -2.2685 100.1154 0.0000 -24.2657 0.0000
# 4 0.0000 0.0000 0.0000 9.2604 0.0000 0.9767
# 5 -8.4334 1.7808 -24.2657 0.0000 26.8390 0.0000
# 6 0.0000 0.0000 0.0000 0.9767 0.0000 13.1644
#
#
#
# Elastic Compliance Matrix: (Units=1/GPa)
#
#
# Indices 1 2 3 4 5 6 
#
# 1 0.031942 -0.001749 -0.017489 0.000000 -0.005660 0.000000
# 2 -0.001749 0.045096 0.001336 0.000000 -0.002333 0.000000
# 3 -0.017489 0.001336 0.022371 0.000000 0.014642 0.000000
# 4 0.000000 0.000000 0.000000 0.108838 0.000000 -0.008075
# 5 -0.005660 -0.002333 0.014642 0.000000 0.048873 0.000000
# 6 0.000000 0.000000 0.000000 -0.008075 0.000000 0.076561
#
#
# Mechanical properties :
#
#
# Convention : Reuss Voigt Hill
#
# Bulk Modulus (GPa) = 15.72172 30.74706 23.23439
# Shear Modulus (GPa) = 12.79797 18.61680 15.70739
#
# Velocity S-wave (km/s) = 2.61333 3.15193 2.89518
# Velocity P-wave (km/s) = 4.18279 5.44555 4.85540
#
# Compressibility (1/GPa) = 0.06360626
#
# Stress axis : x y z
#
# Youngs Moduli (GPa) = 31.30666 22.17468 44.70124
#
# Poissons Ratio (x) = 0.03878 0.78179
# Poissons Ratio (y) = 0.05475 -0.05974
# Poissons Ratio (z) = 0.54753 -0.02964
#
# Static dielectric constant tensor:
#      x y z
#    x 1.668490 0.000000 -0.019750 
#    y 0.000000 1.697410 0.000000 
#    z -0.019750 0.000000 1.669760 
# 
# From -- ./inp_files/244246.got.cif
#   From: 2010.05.17/outbox.cif.g08.bks.cpg/sg12_123_cif.got.tgz:244246.got - 2010.06.03 13:09:07.
