data_PCOD9190377
_publ_section_title
;
Structure prediction by ZEFSAII (Michael W. Deem and Ramdas Pophale) SiO2 
 PCOD9190377
Probable space group: C 2/M
;
_chemical_formula_sum "Si O2"
_cell_formula_units_Z 56
_cell_length_a 33.376772
_cell_length_b 8.753006
_cell_length_c 16.783626
_cell_angle_alpha 90.000000
_cell_angle_beta 49.415882
_cell_angle_gamma 90.000000
_cell_volume 3723.809812
_symmetry_space_group_name_H-M "C 2/M"
_symmetry_group_IT_number 12
_symmetry_cell_setting 'monoclinic'
loop_
_space_group_symop_operation_xyz
x,y,z
-x,y,-z
-x,-y,-z
x,-y,z
1/2+x,1/2+y,z
1/2-x,1/2+y,-z
1/2-x,1/2-y,-z
1/2+x,1/2-y,z
loop_
_atom_site_type_symbol
_atom_site_label
_atom_site_fract_x
_atom_site_fract_y
_atom_site_fract_z
Si Si1 0.987050 0.684010 0.888374
Si Si2 0.557840 0.677253 0.383495
Si Si3 0.306469 0.817277 0.521939
Si Si4 0.605431 0.685276 0.480824
Si Si5 0.994161 0.815042 0.704635
Si Si6 0.314943 0.682538 0.337599
Si Si7 0.085193 0.684137 0.872429
O O1 0.986728 0.500000 0.882786
O O2 0.983259 0.754932 0.806420
O O3 0.041838 0.727091 0.861349
O O4 0.940379 0.728107 0.009764
O O5 0.500000 0.676395 0.500000
O O6 0.573257 0.500000 0.352499
O O7 0.596163 0.741838 0.401944
O O8 0.546890 0.742577 0.310024
O O9 0.343410 0.748915 0.542147
O O10 0.324134 0.754255 0.412957
O O11 0.244709 0.775273 0.610525
O O12 0.310697 0.000000 0.516119
O O13 0.607080 0.500000 0.477113
O O14 0.553105 0.728415 0.599132
O O15 0.992419 0.000000 0.706310
O O16 0.317622 0.500000 0.340834
O O17 0.359354 0.742102 0.220576
O O18 0.089773 0.500000 0.865162
#
# Coordination Sequence:
#
# PCOD9190377 Si02
#       7
#     8   8   8   8   8   8   8
#     4   9  18  30  43  62  87 114 141 169 209 255
#     4   7  12  24  40  59  85 113 139 170 207 244
#     4  10  20  31  43  62  88 114 139 171 212 251
#     4   9  16  27  44  64  86 114 146 174 202 245
#     4   9  16  26  42  64  88 114 143 174 206 242
#     4  10  20  32  45  62  84 111 144 177 207 244
#     4   9  18  32  46  60  84 115 142 172 210 249
#
# _framework density 15.038361
#
# number of rings (size 3 to 8) (size 9 to 14) (size 15 to 20)
#    0.000    3.000    0.000    4.286    0.000    5.714 
#    0.000    2.143    0.000    2.571    0.000    1.000 
#    0.000    0.000    0.000    0.000    0.000    0.000 
#
# Total GULP energy -155919.115564 kJ/mol
# GULP energy per Si atom -5568.539842 kJ/mol
# Density = 1.500413 g / cm^3
# Si number density = 15.038361 Si / 1000 Ang^3
#
#
#
# Elastic Constant Matrix: (Units=GPa)
#
#
# Indices 1 2 3 4 5 6 
#
# 1 124.7178 26.4090 58.9886 0.0000 22.2778 -0.0001
# 2 26.4090 13.9834 22.8139 -0.0003 2.4041 -0.0003
# 3 58.9886 22.8139 94.5288 0.0001 13.8803 0.0000
# 4 0.0000 -0.0003 0.0001 -0.7701 0.0000 -7.1557
# 5 22.2778 2.4041 13.8803 0.0000 26.1176 0.0000
# 6 -0.0001 -0.0003 0.0000 -7.1557 0.0000 19.7919
#
#
#
# Elastic Compliance Matrix: (Units=1/GPa)
#
#
# Indices 1 2 3 4 5 6 
#
# 1 0.016373 -0.024650 -0.002766 0.000002 -0.010226 0.000001
# 2 -0.024650 0.155592 -0.025113 -0.000017 0.020050 -0.000004
# 3 -0.002766 -0.025113 0.019176 0.000003 -0.005520 0.000001
# 4 0.000002 -0.000017 0.000003 -0.297873 -0.000002 -0.107694
# 5 -0.010226 0.020050 -0.005520 -0.000002 0.048099 -0.000001
# 6 0.000001 -0.000004 0.000001 -0.107694 -0.000001 0.011589
#
#
# Mechanical properties :
#
#
# Convention : Reuss Voigt Hill
#
# Bulk Modulus (GPa) = 11.61678 49.96146 30.78912
# Shear Modulus (GPa) = 57.66360 17.36247 37.51304
#
# Velocity S-wave (km/s) = 6.19900 3.40155 4.99990
# Velocity P-wave (km/s) = 7.67973 6.98013 7.33827
#
# Compressibility (1/GPa) = 0.08608234
#
# Stress axis : x y z
#
# Youngs Moduli (GPa) = 61.07632 6.42708 52.14752
#
# Poissons Ratio (x) = 0.15843 0.14426
# Poissons Ratio (y) = 1.50555 1.30956
# Poissons Ratio (z) = 0.16896 0.16140
#
# Static dielectric constant tensor:
#      x y z
#    x 1.511630 0.000000 0.009390 
#    y 0.000000 1.509490 0.000000 
#    z 0.009390 0.000000 1.483710 
# 
# From -- ./inp_files/248923.got.cif
#   From: 2010.05.17/outbox.cif.g08.bks.cpg/sg12_125_cif.got.tgz:248923.got - 2010.06.03 13:09:07.
