data_PCOD9190108
_publ_section_title
;
Structure prediction by ZEFSAII (Michael W. Deem and Ramdas Pophale) SiO2 
 PCOD9190108
Probable space group: C 2/M
;
_chemical_formula_sum "Si O2"
_cell_formula_units_Z 28
_cell_length_a 7.378298
_cell_length_b 15.714771
_cell_length_c 8.802816
_cell_angle_alpha 90.000000
_cell_angle_beta 84.510686
_cell_angle_gamma 90.000000
_cell_volume 1015.990488
_symmetry_space_group_name_H-M "C 2/M"
_symmetry_group_IT_number 12
_symmetry_cell_setting 'monoclinic'
loop_
_space_group_symop_operation_xyz
x,y,z
-x,y,-z
-x,-y,-z
x,-y,z
1/2+x,1/2+y,z
1/2-x,1/2+y,-z
1/2-x,1/2-y,-z
1/2+x,1/2-y,z
loop_
_atom_site_type_symbol
_atom_site_label
_atom_site_fract_x
_atom_site_fract_y
_atom_site_fract_z
Si Si1 0.278617 0.165633 0.596852
Si Si2 0.958104 0.666812 0.159060
Si Si3 0.000000 0.500000 0.500000
Si Si4 0.553723 0.600134 0.173627
Si Si5 0.000000 0.500000 0.000000
O O1 0.250000 0.250000 0.500000
O O2 0.562925 0.192704 0.298307
O O3 0.103189 0.139821 0.710871
O O4 0.343982 0.077523 0.512938
O O5 0.245624 0.852631 0.182682
O O6 0.047649 0.574224 0.118145
O O7 0.000000 0.717249 0.000000
O O8 0.586880 0.500000 0.206319
O O9 0.500000 0.600965 0.000000
#
# Coordination Sequence:
#
# PCOD9190108 Si02
#       5
#     8   8   2   8   2
#     4  12  28  53  87 140 198 262 329 403 518 614
#     4  10  19  39  80 139 184 238 315 423 487 570
#     4  12  30  62  90 124 214 276 310 430 498 604
#     4  11  20  39  86 147 188 244 339 417 495 590
#     4   8  14  30  70 136 180 222 308 398 490 548
#
# _framework density 27.559313
#
# number of rings (size 3 to 8) (size 9 to 14) (size 15 to 20)
#    0.857    0.286    5.714    0.857    4.000    1.143 
#    5.143    1.429    0.000    6.857    0.000    3.000 
#    0.000    0.000    0.000    0.000    0.000    0.000 
#
# Total GULP energy -78017.701659 kJ/mol
# GULP energy per Si atom -5572.692976 kJ/mol
# Density = 2.749659 g / cm^3
# Si number density = 27.559313 Si / 1000 Ang^3
#
#
#
# Elastic Constant Matrix: (Units=GPa)
#
#
# Indices 1 2 3 4 5 6 
#
# 1 241.5571 86.6594 123.1609 0.0000 -4.3381 0.0000
# 2 86.6594 261.5207 103.7623 0.0000 0.3810 0.0000
# 3 123.1609 103.7623 163.8105 0.0000 7.2097 0.0000
# 4 0.0000 0.0000 0.0000 25.0472 0.0000 38.4474
# 5 -4.3381 0.3810 7.2097 0.0000 75.4704 0.0000
# 6 0.0000 0.0000 0.0000 38.4474 0.0000 -9.9489
#
#
#
# Elastic Compliance Matrix: (Units=1/GPa)
#
#
# Indices 1 2 3 4 5 6 
#
# 1 0.006786 -0.000281 -0.004962 0.000000 0.000866 0.000000
# 2 -0.000281 0.005125 -0.003046 0.000000 0.000249 0.000000
# 3 -0.004962 -0.003046 0.011827 0.000000 -0.001400 0.000000
# 4 0.000000 0.000000 0.000000 0.005759 0.000000 0.022257
# 5 0.000866 0.000249 -0.001400 0.000000 0.013432 0.000000
# 6 0.000000 0.000000 0.000000 0.022257 0.000000 -0.014500
#
#
# Mechanical properties :
#
#
# Convention : Reuss Voigt Hill
#
# Bulk Modulus (GPa) = 139.68198 143.78373 141.73286
# Shear Modulus (GPa) = 105.49627 41.66746 73.58187
#
# Velocity S-wave (km/s) = 6.19377 3.89256 5.17276
# Velocity P-wave (km/s) = 10.09676 8.51401 9.33898
#
# Compressibility (1/GPa) = 0.00715912
#
# Stress axis : x y z
#
# Youngs Moduli (GPa) = 147.35578 195.11705 84.55583
#
# Poissons Ratio (x) = 0.05486 0.41959
# Poissons Ratio (y) = 0.04143 0.25755
# Poissons Ratio (z) = 0.73122 0.59432
#
# Static dielectric constant tensor:
#      x y z
#    x 2.179750 0.000000 -0.050220 
#    y 0.000000 2.167580 0.000000 
#    z -0.050220 0.000000 2.536880 
# 
# From -- ./inp_files/44879.got.cif
#   From: 2010.05.17/outbox.cif.g08.bks.cpg/sg12_23_cif.got.tgz:44879.got - 2010.06.03 13:09:07.
