data_PCOD9190894
_publ_section_title
;
Structure prediction by ZEFSAII (Michael W. Deem and Ramdas Pophale) SiO2 
 PCOD9190894
Probable space group: C 2/M
;
_chemical_formula_sum "Si O2"
_cell_formula_units_Z 56
_cell_length_a 14.909512
_cell_length_b 13.326409
_cell_length_c 21.179074
_cell_angle_alpha 90.000000
_cell_angle_beta 139.249980
_cell_angle_gamma 90.000000
_cell_volume 2746.863507
_symmetry_space_group_name_H-M "C 2/M"
_symmetry_group_IT_number 12
_symmetry_cell_setting 'monoclinic'
loop_
_space_group_symop_operation_xyz
x,y,z
-x,y,-z
-x,-y,-z
x,-y,z
1/2+x,1/2+y,z
1/2-x,1/2+y,-z
1/2-x,1/2-y,-z
1/2+x,1/2-y,z
loop_
_atom_site_type_symbol
_atom_site_label
_atom_site_fract_x
_atom_site_fract_y
_atom_site_fract_z
Si Si1 0.419301 0.616122 0.186385
Si Si2 0.462878 0.320049 0.622525
Si Si3 0.826435 0.611839 0.544879
Si Si4 0.352179 0.887029 0.410172
Si Si5 0.146949 0.116084 0.612444
Si Si6 0.858232 0.616975 0.885982
Si Si7 0.365002 0.747942 0.764635
O O1 0.422405 0.500000 0.165100
O O2 0.513339 0.625291 0.298911
O O3 0.267487 0.639692 0.132658
O O4 0.490439 0.697303 0.178029
O O5 0.327707 0.362784 0.515004
O O6 0.430360 0.202280 0.614101
O O7 0.598072 0.343348 0.654901
O O8 0.868497 0.500000 0.586416
O O9 0.804150 0.611953 0.456915
O O10 0.500000 0.835035 0.500000
O O11 0.247236 0.840577 0.304869
O O12 0.379269 0.000000 0.402818
O O13 0.288985 0.174916 0.675007
O O14 0.000000 0.125619 0.500000
O O15 0.180204 0.000000 0.630890
O O16 0.837199 0.500000 0.853447
O O17 0.872050 0.693799 0.834650
O O18 0.000000 0.620201 0.000000
#
# Coordination Sequence:
#
# PCOD9190894 Si02
#       7
#     8   8   8   8   8   8   8
#     4  11  23  41  66  94 124 164 211 261 324 398
#     4  11  20  35  56  81 121 170 218 262 313 370
#     4  10  20  32  49  79 121 167 217 263 302 357
#     4  10  20  33  50  80 126 172 209 245 297 365
#     4  11  23  36  53  84 128 172 215 261 310 365
#     4  10  24  47  72  96 124 160 206 264 333 405
#     4  12  21  36  65  94 124 161 216 264 313 372
#
# _framework density 20.386887999999999
#
# number of rings (size 3 to 8) (size 9 to 14) (size 15 to 20)
#    0.000    1.286    2.857    4.286    2.000    0.571 
#    0.000    1.429    0.000    5.143    0.000    0.000 
#    0.000    0.000    0.000    0.000    0.000    0.000 
#
# Total GULP energy -156062.809233 kJ/mol
# GULP energy per Si atom -5573.671758 kJ/mol
# Density = 2.034049 g / cm^3
# Si number density = 20.386888 Si / 1000 Ang^3
#
#
#
# Elastic Constant Matrix: (Units=GPa)
#
#
# Indices 1 2 3 4 5 6 
#
# 1 118.6379 48.8307 36.7973 0.0000 21.0744 0.0000
# 2 48.8307 156.1411 30.9729 0.0000 12.7382 0.0000
# 3 36.7973 30.9729 79.2773 0.0000 15.9252 0.0000
# 4 0.0000 0.0000 0.0000 25.3986 0.0000 -0.2600
# 5 21.0744 12.7382 15.9252 0.0000 30.5235 0.0000
# 6 0.0000 0.0000 0.0000 -0.2600 0.0000 25.9007
#
#
#
# Elastic Compliance Matrix: (Units=1/GPa)
#
#
# Indices 1 2 3 4 5 6 
#
# 1 0.011379 -0.002491 -0.003283 0.000000 -0.005104 0.000000
# 2 -0.002491 0.007564 -0.001687 0.000000 -0.000556 0.000000
# 3 -0.003283 -0.001687 0.015863 0.000000 -0.005305 0.000000
# 4 0.000000 0.000000 0.000000 0.039376 0.000000 0.000395
# 5 -0.005104 -0.000556 -0.005305 0.000000 0.039286 0.000000
# 6 0.000000 0.000000 0.000000 0.000395 0.000000 0.038613
#
#
# Mechanical properties :
#
#
# Convention : Reuss Voigt Hill
#
# Bulk Modulus (GPa) = 50.29431 65.25090 57.77261
# Shear Modulus (GPa) = 28.79671 32.19492 30.49581
#
# Velocity S-wave (km/s) = 3.76242 3.97822 3.87182
# Velocity P-wave (km/s) = 6.60287 7.29229 6.95612
#
# Compressibility (1/GPa) = 0.01988296
#
# Stress axis : x y z
#
# Youngs Moduli (GPa) = 87.87866 132.21350 63.04082
#
# Poissons Ratio (x) = 0.32935 0.20698
# Poissons Ratio (y) = 0.21891 0.10635
# Poissons Ratio (z) = 0.28853 0.22304
#
# Static dielectric constant tensor:
#      x y z
#    x 1.888690 0.000000 -0.005820 
#    y 0.000000 1.778550 0.000000 
#    z -0.005820 0.000000 1.710530 
# 
# From -- ./inp_files/310864.got.cif
#   From: 2010.05.17/outbox.cif.g08.bks.cpg/sg12_156_cif.got.tgz:310864.got - 2010.06.03 13:09:07.
