data_PCOD9190011
_publ_section_title
;
Structure prediction by ZEFSAII (Michael W. Deem and Ramdas Pophale) SiO2 
 PCOD9190011
Probable space group: C 2/M
;
_chemical_formula_sum "Si O2"
_cell_formula_units_Z 56
_cell_length_a 11.084921
_cell_length_b 25.616995
_cell_length_c 9.224125
_cell_angle_alpha 90.000000
_cell_angle_beta 108.550236
_cell_angle_gamma 90.000000
_cell_volume 2483.218618
_symmetry_space_group_name_H-M "C 2/M"
_symmetry_group_IT_number 12
_symmetry_cell_setting 'monoclinic'
loop_
_space_group_symop_operation_xyz
x,y,z
-x,y,-z
-x,-y,-z
x,-y,z
1/2+x,1/2+y,z
1/2-x,1/2+y,-z
1/2-x,1/2-y,-z
1/2+x,1/2-y,z
loop_
_atom_site_type_symbol
_atom_site_label
_atom_site_fract_x
_atom_site_fract_y
_atom_site_fract_z
Si Si1 0.692033 0.059828 0.444947
Si Si2 0.417158 0.443526 0.296825
Si Si3 0.954026 0.440276 0.149307
Si Si4 0.202656 0.783887 0.846675
Si Si5 0.305077 0.606373 0.995337
Si Si6 0.437792 0.261071 0.811847
Si Si7 0.640310 0.625441 0.297808
O O1 0.806671 0.060417 0.372269
O O2 0.565482 0.071948 0.305386
O O3 0.734253 0.100837 0.582645
O O4 0.681006 0.000000 0.496773
O O5 0.482131 0.500000 0.333194
O O6 0.521651 0.398316 0.340390
O O7 0.345854 0.439397 0.116611
O O8 0.911550 0.500000 0.163574
O O9 0.840164 0.399708 0.108557
O O10 0.000000 0.439697 0.000000
O O11 0.322936 0.780878 0.782868
O O12 0.064429 0.758541 0.759509
O O13 0.250000 0.750000 0.000000
O O14 0.180602 0.841611 0.901991
O O15 0.378527 0.605722 0.873239
O O16 0.366666 0.312884 0.727658
O O17 0.500000 0.266714 0.000000
#
# Coordination Sequence:
#
# PCOD9190011 Si02
#       7
#     8   8   8   8   8   8   8
#     4  10  23  42  62  91 133 179 218 259 327 400
#     4  11  22  39  62  92 132 173 214 258 319 396
#     4  10  21  40  62  89 127 167 217 271 314 390
#     4  10  20  38  63  97 130 168 219 277 334 386
#     4  12  22  37  65  98 121 165 223 268 323 382
#     4  10  19  39  62  98 132 168 219 277 331 394
#     4  12  22  37  61  96 132 164 211 270 326 389
#
# _framework density 22.551376999999999
#
# number of rings (size 3 to 8) (size 9 to 14) (size 15 to 20)
#    0.000    1.286    5.714    1.714    0.000    6.286 
#    0.000    1.429    0.000    0.857    3.714    0.000 
#    0.000    0.000    0.000    0.000    0.000    0.000 
#
# Total GULP energy -156225.635463 kJ/mol
# GULP energy per Si atom -5579.486981 kJ/mol
# Density = 2.250005 g / cm^3
# Si number density = 22.551377 Si / 1000 Ang^3
#
#
#
# Elastic Constant Matrix: (Units=GPa)
#
#
# Indices 1 2 3 4 5 6 
#
# 1 100.2628 4.1612 23.4844 0.0000 9.6486 0.0000
# 2 4.1612 33.2646 19.9063 0.0000 -2.3606 0.0000
# 3 23.4844 19.9063 87.9704 0.0000 20.8835 0.0000
# 4 0.0000 0.0000 0.0000 92.2025 0.0000 93.7786
# 5 9.6486 -2.3606 20.8835 0.0000 36.3220 0.0000
# 6 0.0000 0.0000 0.0000 93.7786 0.0000 139.2846
#
#
#
# Elastic Compliance Matrix: (Units=1/GPa)
#
#
# Indices 1 2 3 4 5 6 
#
# 1 0.010699 0.000092 -0.002552 0.000000 -0.001369 0.000000
# 2 0.000092 0.036821 -0.010329 0.000000 0.008307 0.000000
# 3 -0.002552 -0.010329 0.016658 0.000000 -0.009571 0.000000
# 4 0.000000 0.000000 0.000000 0.034409 0.000000 -0.023167
# 5 -0.001369 0.008307 -0.009571 0.000000 0.033938 0.000000
# 6 0.000000 0.000000 0.000000 -0.023167 0.000000 0.022778
#
#
# Mechanical properties :
#
#
# Convention : Reuss Voigt Hill
#
# Bulk Modulus (GPa) = 25.90642 35.17798 30.54220
# Shear Modulus (GPa) = 25.80681 65.15820 45.48251
#
# Velocity S-wave (km/s) = 3.38650 5.38107 4.49580
# Velocity P-wave (km/s) = 5.17725 7.36484 6.36572
#
# Compressibility (1/GPa) = 0.03860046
#
# Stress axis : x y z
#
# Youngs Moduli (GPa) = 93.46242 27.15850 60.03120
#
# Poissons Ratio (x) = -0.00249 0.15320
# Poissons Ratio (y) = -0.00856 0.62003
# Poissons Ratio (z) = 0.23852 0.28051
#
# Static dielectric constant tensor:
#      x y z
#    x 1.935810 0.000000 -0.002840 
#    y 0.000000 1.865080 0.000000 
#    z -0.002840 0.000000 1.841760 
# 
# From -- ./inp_files/53277.got.cif
#   From: 2010.05.17/outbox.cif.g08.bks.cpg/sg12_27_cif.got.tgz:53277.got - 2010.06.03 13:09:07.
