data_PCOD9190116
_publ_section_title
;
Structure prediction by ZEFSAII (Michael W. Deem and Ramdas Pophale) SiO2 
 PCOD9190116
Probable space group: C 2/M
;
_chemical_formula_sum "Si O2"
_cell_formula_units_Z 52
_cell_length_a 15.131921
_cell_length_b 13.073083
_cell_length_c 18.544615
_cell_angle_alpha 90.000000
_cell_angle_beta 138.445747
_cell_angle_gamma 90.000000
_cell_volume 2433.429931
_symmetry_space_group_name_H-M "C 2/M"
_symmetry_group_IT_number 12
_symmetry_cell_setting 'monoclinic'
loop_
_space_group_symop_operation_xyz
x,y,z
-x,y,-z
-x,-y,-z
x,-y,z
1/2+x,1/2+y,z
1/2-x,1/2+y,-z
1/2-x,1/2-y,-z
1/2+x,1/2-y,z
loop_
_atom_site_type_symbol
_atom_site_label
_atom_site_fract_x
_atom_site_fract_y
_atom_site_fract_z
Si Si1 0.746106 0.111530 0.257339
Si Si2 0.313121 0.333661 0.738572
Si Si3 0.325123 0.184858 0.486542
Si Si4 0.418754 0.887918 0.287455
Si Si5 0.388226 0.616943 0.045571
Si Si6 0.285402 0.285324 0.129430
Si Si7 0.000000 0.161262 0.500000
O O1 0.676344 0.209724 0.250748
O O2 0.758599 0.142094 0.181076
O O3 0.892633 0.107194 0.383442
O O4 0.682580 0.000000 0.227815
O O5 0.272042 0.363626 0.632377
O O6 0.192172 0.365864 0.718021
O O7 0.452980 0.377372 0.848981
O O8 0.250000 0.250000 0.500000
O O9 0.434510 0.113203 0.589381
O O10 0.413292 0.266105 0.497051
O O11 0.403540 0.793224 0.223629
O O12 0.393718 0.000000 0.240904
O O13 0.353500 0.500000 0.005249
O O14 0.322192 0.650032 0.081567
O O15 0.334566 0.704934 0.958994
#
# Coordination Sequence:
#
# PCOD9190116 Si02
#       7
#     8   8   8   8   8   8   4
#     4  10  20  38  62  87 120 166 206 253 320 371
#     4  10  22  38  60  92 127 160 212 271 310 381
#     4  11  20  38  60  86 131 168 206 272 323 374
#     4  11  21  38  61  87 124 165 205 262 332 384
#     4  11  23  41  64  91 123 166 213 261 323 380
#     4  10  22  41  61  91 126 158 211 270 305 379
#     4  10  19  40  59  92 124 168 215 266 311 382
#
# _framework density 21.369015000000001
#
# number of rings (size 3 to 8) (size 9 to 14) (size 15 to 20)
#    0.000    1.538    4.615    2.538    0.000    4.308 
#    0.000   16.154    0.000    0.000    0.000    0.000 
#    0.000    0.000    0.000    0.000    0.000    0.000 
#
# Total GULP energy -145167.378493 kJ/mol
# GULP energy per Si atom -5583.360711 kJ/mol
# Density = 2.132038 g / cm^3
# Si number density = 21.369015 Si / 1000 Ang^3
#
#
#
# Elastic Constant Matrix: (Units=GPa)
#
#
# Indices 1 2 3 4 5 6 
#
# 1 64.0968 2.9037 21.1448 0.0000 11.5574 0.0000
# 2 2.9037 118.7981 28.0433 0.0000 14.2284 0.0000
# 3 21.1448 28.0433 125.2817 0.0000 4.9486 0.0000
# 4 0.0000 0.0000 0.0000 -139.8125 0.0000 14.3095
# 5 11.5574 14.2284 4.9486 0.0000 20.8573 0.0000
# 6 0.0000 0.0000 0.0000 14.3095 0.0000 -2.4718
#
#
#
# Elastic Compliance Matrix: (Units=1/GPa)
#
#
# Indices 1 2 3 4 5 6 
#
# 1 0.018434 0.001528 -0.003037 0.000000 -0.010537 0.000000
# 2 0.001528 0.009725 -0.002159 0.000000 -0.006968 0.000000
# 3 -0.003037 -0.002159 0.008937 0.000000 0.001036 0.000000
# 4 0.000000 0.000000 0.000000 -0.017552 0.000000 -0.101611
# 5 -0.010537 -0.006968 0.001036 0.000000 0.058291 0.000001
# 6 0.000000 0.000000 0.000000 -0.101611 0.000001 -0.992798
#
#
# Mechanical properties :
#
#
# Convention : Reuss Voigt Hill
#
# Bulk Modulus (GPa) = 33.60320 45.81780 39.71050
# Shear Modulus (GPa) = -5.56975 -7.21308 -6.39142
#
# Velocity S-wave (km/s) = -1.61621 -1.83924 -1.73132
# Velocity P-wave (km/s) = 3.50379 4.12036 3.82452
#
# Compressibility (1/GPa) = 0.02975907
#
# Stress axis : x y z
#
# Youngs Moduli (GPa) = 54.24777 102.83138 111.89327
#
# Poissons Ratio (x) = -0.15716 0.33984
# Poissons Ratio (y) = -0.08291 0.24163
# Poissons Ratio (z) = 0.16476 0.22206
#
# Static dielectric constant tensor:
#      x y z
#    x 1.731810 0.000000 -0.015850 
#    y 0.000000 1.754330 0.000000 
#    z -0.015850 0.000000 1.838270 
# 
# From -- ./inp_files/270748.got.cif
#   From: 2010.05.17/outbox.cif.g08.bks.cpg/sg12_136_cif.got.tgz:270748.got - 2010.06.03 13:09:07.
