data_PCOD9190448
_publ_section_title
;
Structure prediction by ZEFSAII (Michael W. Deem and Ramdas Pophale) SiO2 
 PCOD9190448
Probable space group: C 2/M
;
_chemical_formula_sum "Si O2"
_cell_formula_units_Z 56
_cell_length_a 20.022044
_cell_length_b 7.605994
_cell_length_c 20.719189
_cell_angle_alpha 90.000000
_cell_angle_beta 118.581608
_cell_angle_gamma 90.000000
_cell_volume 2770.761956
_symmetry_space_group_name_H-M "C 2/M"
_symmetry_group_IT_number 12
_symmetry_cell_setting 'monoclinic'
loop_
_space_group_symop_operation_xyz
x,y,z
-x,y,-z
-x,-y,-z
x,-y,z
1/2+x,1/2+y,z
1/2-x,1/2+y,-z
1/2-x,1/2-y,-z
1/2+x,1/2-y,z
loop_
_atom_site_type_symbol
_atom_site_label
_atom_site_fract_x
_atom_site_fract_y
_atom_site_fract_z
Si Si1 0.743177 0.785349 0.132201
Si Si2 0.481319 0.711882 0.288127
Si Si3 0.080328 0.293778 0.012467
Si Si4 0.707781 0.294288 0.580409
Si Si5 0.163445 0.785057 0.699932
Si Si6 0.642801 0.793294 0.420879
Si Si7 0.609870 0.287040 0.878727
O O1 0.658660 0.719864 0.078320
O O2 0.775187 0.734657 0.217181
O O3 0.806757 0.731244 0.108813
O O4 0.742334 0.000000 0.129868
O O5 0.479921 0.500000 0.286726
O O6 0.418455 0.771698 0.311003
O O7 0.564769 0.766724 0.347422
O O8 0.450730 0.769189 0.203933
O O9 0.079636 0.500000 0.030136
O O10 0.088994 0.279033 0.939533
O O11 0.000000 0.218250 0.000000
O O12 0.722728 0.500000 0.599319
O O13 0.682415 0.220126 0.637304
O O14 0.646118 0.281668 0.494761
O O15 0.785696 0.218677 0.586457
O O16 0.161873 0.000000 0.698453
O O17 0.655632 0.000000 0.434936
O O18 0.610027 0.500000 0.880973
#
# Coordination Sequence:
#
# PCOD9190448 Si02
#       7
#     8   8   8   8   8   8   8
#     4   8  15  30  50  71  95 123 159 200 239 282
#     4   9  18  33  52  72  93 121 161 204 240 279
#     4  10  20  31  47  74 103 128 156 196 242 283
#     4   9  18  33  52  71  93 127 166 197 230 281
#     4   8  15  30  52  72  89 120 167 205 231 274
#     4  10  20  32  48  72 101 130 157 193 242 288
#     4   9  18  33  52  70  92 127 164 197 236 283
#
# _framework density 20.211047000000001
#
# number of rings (size 3 to 8) (size 9 to 14) (size 15 to 20)
#    0.000    3.000    0.000    2.571    0.000    3.143 
#    0.000    6.429    0.000    2.571    0.000    0.000 
#    0.000    0.000    0.000    0.000    0.000    0.000 
#
# Total GULP energy -156162.132742 kJ/mol
# GULP energy per Si atom -5577.219027 kJ/mol
# Density = 2.016505 g / cm^3
# Si number density = 20.211047 Si / 1000 Ang^3
#
#
#
# Elastic Constant Matrix: (Units=GPa)
#
#
# Indices 1 2 3 4 5 6 
#
# 1 -35.8882 8.9673 -73.5790 0.0000 73.1239 0.0000
# 2 8.9673 37.4353 0.1887 0.0000 -3.7314 0.0000
# 3 -73.5790 0.1887 -57.9538 0.0000 64.5572 0.0000
# 4 0.0000 0.0000 0.0000 18.1079 0.0000 -1.1836
# 5 73.1239 -3.7314 64.5572 0.0000 17.7661 0.0000
# 6 0.0000 0.0000 0.0000 -1.1836 0.0000 1.1849
#
#
#
# Elastic Compliance Matrix: (Units=1/GPa)
#
#
# Indices 1 2 3 4 5 6 
#
# 1 0.018257 -0.004102 -0.021367 0.000000 0.001638 0.000000
# 2 -0.004102 0.027733 0.006061 0.000000 0.000685 0.000001
# 3 -0.021367 0.006061 0.021649 0.000000 0.010553 0.000000
# 4 0.000000 0.000000 0.000000 0.059082 0.000000 0.059017
# 5 0.001638 0.000685 0.010553 0.000000 0.011339 0.000000
# 6 0.000000 0.000001 0.000000 0.059017 0.000000 0.902913
#
#
# Mechanical properties :
#
#
# Convention : Reuss Voigt Hill
#
# Bulk Modulus (GPa) = 34.69596 -20.58362 7.05617
# Shear Modulus (GPa) = 4.58969 7.94619 6.26794
#
# Velocity S-wave (km/s) = 1.50858 1.98498 1.76295
# Velocity P-wave (km/s) = 4.49872 2.22552 2.76456
#
# Compressibility (1/GPa) = 0.02882180
#
# Stress axis : x y z
#
# Youngs Moduli (GPa) = 54.77451 36.05800 46.19199
#
# Poissons Ratio (x) = 0.14792 0.98700
# Poissons Ratio (y) = 0.22470 -0.27998
# Poissons Ratio (z) = 1.17038 -0.21855
#
# Static dielectric constant tensor:
#      x y z
#    x 1.714690 0.000000 0.002170 
#    y 0.000000 1.773440 0.000000 
#    z 0.002170 0.000000 1.691260 
# 
# From -- ./inp_files/275640.got.cif
#   From: 2010.05.17/outbox.cif.g08.bks.cpg/sg12_138_cif.got.tgz:275640.got - 2010.06.03 13:09:07.
