data_PCOD9190672
_publ_section_title
;
Structure prediction by ZEFSAII (Michael W. Deem and Ramdas Pophale) SiO2 
 PCOD9190672
Probable space group: C 2/M
;
_chemical_formula_sum "Si O2"
_cell_formula_units_Z 56
_cell_length_a 16.005719
_cell_length_b 9.396847
_cell_length_c 17.305771
_cell_angle_alpha 90.000000
_cell_angle_beta 105.809086
_cell_angle_gamma 90.000000
_cell_volume 2504.391816
_symmetry_space_group_name_H-M "C 2/M"
_symmetry_group_IT_number 12
_symmetry_cell_setting 'monoclinic'
loop_
_space_group_symop_operation_xyz
x,y,z
-x,y,-z
-x,-y,-z
x,-y,z
1/2+x,1/2+y,z
1/2-x,1/2+y,-z
1/2-x,1/2-y,-z
1/2+x,1/2-y,z
loop_
_atom_site_type_symbol
_atom_site_label
_atom_site_fract_x
_atom_site_fract_y
_atom_site_fract_z
Si Si1 0.236423 0.167743 0.115256
Si Si2 0.054283 0.836357 0.684069
Si Si3 0.201111 0.168479 0.267484
Si Si4 0.149925 0.165341 0.418442
Si Si5 0.997640 0.832586 0.837648
Si Si6 0.112608 0.665426 0.974571
Si Si7 0.101608 0.663722 0.551445
O O1 0.254694 0.221419 0.206956
O O2 0.316924 0.177021 0.077481
O O3 0.213056 0.000000 0.114306
O O4 0.158363 0.253555 0.056258
O O5 0.049484 0.792287 0.772267
O O6 0.104086 0.739488 0.635091
O O7 0.952458 0.836253 0.631918
O O8 0.084374 0.000000 0.686481
O O9 0.199285 0.223788 0.354710
O O10 0.102625 0.183707 0.210568
O O11 0.217938 0.000000 0.280606
O O12 0.153239 0.257997 0.496344
O O13 0.172693 0.000000 0.439117
O O14 0.028774 0.740695 0.917528
O O15 0.013952 0.000000 0.856754
O O16 0.098807 0.500000 0.988319
O O17 0.126804 0.500000 0.563935
O O18 0.000000 0.667877 0.500000
#
# Coordination Sequence:
#
# PCOD9190672 Si02
#       7
#     8   8   8   8   8   8   8
#     4   9  18  34  52  66  85 116 153 186 215 259
#     4   8  14  24  38  57  81 111 145 178 212 250
#     4   8  15  29  49  69  86 113 154 190 218 254
#     4   8  13  23  39  58  81 108 142 182 216 249
#     4   9  17  30  48  68  90 116 148 186 224 262
#     4  10  20  32  47  68  92 117 145 180 224 269
#     4   9  15  21  32  54  85 118 145 169 207 258
#
# _framework density 22.360717999999999
#
# number of rings (size 3 to 8) (size 9 to 14) (size 15 to 20)
#    0.000    3.286    0.000    2.571    0.000    3.429 
#    0.000    6.429    0.000    0.000    0.000    1.000 
#    0.000    0.000    0.000    0.000    0.000    0.000 
#
# Total GULP energy -156392.192720 kJ/mol
# GULP energy per Si atom -5585.435454 kJ/mol
# Density = 2.230982 g / cm^3
# Si number density = 22.360718 Si / 1000 Ang^3
#
#
#
# Elastic Constant Matrix: (Units=GPa)
#
#
# Indices 1 2 3 4 5 6 
#
# 1 78.2122 15.6402 33.1580 0.0000 -14.0512 0.0000
# 2 15.6402 54.8027 54.3146 0.0000 -5.8282 0.0000
# 3 33.1580 54.3146 153.9411 0.0000 -11.7780 0.0000
# 4 0.0000 0.0000 0.0000 25.1399 0.0000 -5.4543
# 5 -14.0512 -5.8282 -11.7780 0.0000 51.2587 0.0000
# 6 0.0000 0.0000 0.0000 -5.4543 0.0000 6.3081
#
#
#
# Elastic Compliance Matrix: (Units=1/GPa)
#
#
# Indices 1 2 3 4 5 6 
#
# 1 0.014688 -0.001469 -0.002392 0.000000 0.003310 0.000000
# 2 -0.001469 0.028250 -0.009605 0.000000 0.000602 0.000000
# 3 -0.002392 -0.009605 0.010450 0.000000 0.000653 0.000000
# 4 0.000000 0.000000 0.000000 0.048962 0.000000 0.042335
# 5 0.003310 0.000602 0.000653 0.000000 0.020635 0.000000
# 6 0.000000 0.000000 0.000000 0.042335 0.000000 0.195131
#
#
# Mechanical properties :
#
#
# Convention : Reuss Voigt Hill
#
# Bulk Modulus (GPa) = 37.79841 54.79795 46.29818
# Shear Modulus (GPa) = 14.12958 28.79755 21.46357
#
# Velocity S-wave (km/s) = 2.51648 3.59257 3.10155
# Velocity P-wave (km/s) = 5.03827 6.46284 5.79450
#
# Compressibility (1/GPa) = 0.02645614
#
# Stress axis : x y z
#
# Youngs Moduli (GPa) = 68.08148 35.39846 95.69290
#
# Poissons Ratio (x) = 0.05200 0.22892
# Poissons Ratio (y) = 0.10001 0.91911
# Poissons Ratio (z) = 0.16287 0.34000
#
# Static dielectric constant tensor:
#      x y z
#    x 1.916550 0.000000 -0.022490 
#    y 0.000000 1.740370 0.000000 
#    z -0.022490 0.000000 1.802360 
# 
# From -- ./inp_files/280449.got.cif
#   From: 2010.05.17/outbox.cif.g08.bks.cpg/sg12_141_cif.got.tgz:280449.got - 2010.06.03 13:09:07.
