data_PCOD9190299
_publ_section_title
;
Structure prediction by ZEFSAII (Michael W. Deem and Ramdas Pophale) SiO2 
 PCOD9190299
Probable space group: C 2/M
;
_chemical_formula_sum "Si O2"
_cell_formula_units_Z 56
_cell_length_a 27.781058
_cell_length_b 15.986409
_cell_length_c 18.944103
_cell_angle_alpha 90.000000
_cell_angle_beta 159.784790
_cell_angle_gamma 90.000000
_cell_volume 2907.242647
_symmetry_space_group_name_H-M "C 2/M"
_symmetry_group_IT_number 12
_symmetry_cell_setting 'monoclinic'
loop_
_space_group_symop_operation_xyz
x,y,z
-x,y,-z
-x,-y,-z
x,-y,z
1/2+x,1/2+y,z
1/2-x,1/2+y,-z
1/2-x,1/2-y,-z
1/2+x,1/2-y,z
loop_
_atom_site_type_symbol
_atom_site_label
_atom_site_fract_x
_atom_site_fract_y
_atom_site_fract_z
Si Si1 0.774833 0.400428 0.288411
Si Si2 0.198805 0.600405 0.507857
Si Si3 0.614285 0.630177 0.877844
Si Si4 0.578208 0.848365 0.691057
Si Si5 0.982390 0.094780 0.832222
Si Si6 0.415013 0.171357 0.135482
Si Si7 0.110537 0.850941 0.710141
O O1 0.773769 0.500000 0.276939
O O2 0.778411 0.383928 0.377262
O O3 0.919623 0.370856 0.451768
O O4 0.627206 0.364719 0.058128
O O5 0.182008 0.500000 0.475090
O O6 0.336152 0.631067 0.655934
O O7 0.055538 0.645700 0.289954
O O8 0.502205 0.591130 0.775658
O O9 0.597809 0.729630 0.868746
O O10 0.595983 0.613100 0.769582
O O11 0.772580 0.608690 0.120292
O O12 0.575284 0.864457 0.771725
O O13 0.592784 0.749449 0.696715
O O14 0.981533 0.000000 0.860612
O O15 0.269994 0.138316 0.904870
O O16 0.000000 0.879618 0.500000
#
# Coordination Sequence:
#
# PCOD9190299 Si02
#       7
#     8   8   8   8   8   8   8
#     4   9  17  28  45  71 100 129 159 181 211 277
#     4   9  17  32  50  67  94 129 161 190 226 276
#     4   9  18  31  45  69  99 122 156 193 231 281
#     4   8  16  28  45  68  97 126 149 182 232 279
#     4  10  20  30  45  69  99 133 157 186 230 272
#     4   8  16  31  48  71  91 120 160 193 231 275
#     4   9  17  30  51  69  88 119 154 197 243 280
#
# _framework density 19.262238
#
# number of rings (size 3 to 8) (size 9 to 14) (size 15 to 20)
#    0.000    3.143    0.000    2.143    4.000    2.857 
#    0.000    3.571    0.000    2.571    0.000    2.000 
#    0.000    0.000    0.000    0.000    0.000    0.000 
#
# Total GULP energy -155882.289386 kJ/mol
# GULP energy per Si atom -5567.224621 kJ/mol
# Density = 1.921840 g / cm^3
# Si number density = 19.262238 Si / 1000 Ang^3
#
#
#
# Elastic Constant Matrix: (Units=GPa)
#
#
# Indices 1 2 3 4 5 6 
#
# 1 78.6259 12.7009 76.6940 0.0000 19.9551 0.0000
# 2 12.7009 9.9101 21.8040 0.0000 6.6000 0.0000
# 3 76.6940 21.8040 197.5985 0.0000 23.5402 0.0000
# 4 0.0000 0.0000 0.0000 3.3822 0.0000 8.3704
# 5 19.9551 6.6000 23.5402 0.0000 48.7176 0.0000
# 6 0.0000 0.0000 0.0000 8.3704 0.0000 15.3379
#
#
#
# Elastic Compliance Matrix: (Units=1/GPa)
#
#
# Indices 1 2 3 4 5 6 
#
# 1 0.022325 -0.010281 -0.007011 0.000000 -0.004364 0.000000
# 2 -0.010281 0.144493 -0.010742 0.000001 -0.010174 -0.000001
# 3 -0.007011 -0.010742 0.008968 0.000000 -0.000006 0.000000
# 4 0.000000 0.000001 0.000000 -0.843327 0.000000 0.460229
# 5 -0.004364 -0.010174 -0.000006 0.000000 0.023695 0.000000
# 6 0.000000 -0.000001 0.000000 0.460229 0.000000 -0.185963
#
#
# Mechanical properties :
#
#
# Convention : Reuss Voigt Hill
#
# Bulk Modulus (GPa) = 8.35286 56.50360 32.42823
# Shear Modulus (GPa) = -6.81353 25.14990 9.16819
#
# Velocity S-wave (km/s) = -1.88280 3.61731 2.18403
# Velocity P-wave (km/s) = 0.61706 6.84428 4.81993
#
# Compressibility (1/GPa) = 0.11971950
#
# Stress axis : x y z
#
# Youngs Moduli (GPa) = 44.79214 6.92074 111.50838
#
# Poissons Ratio (x) = 0.07115 0.78176
# Poissons Ratio (y) = 0.46050 1.19780
# Poissons Ratio (z) = 0.31403 0.07434
#
# Static dielectric constant tensor:
#      x y z
#    x 1.717310 0.000000 -0.008420 
#    y 0.000000 1.699330 0.000000 
#    z -0.008420 0.000000 1.731980 
# 
# From -- ./inp_files/147159.got.cif
#   From: 2010.05.17/outbox.cif.g08.bks.cpg/sg12_74_cif.got.tgz:147159.got - 2010.06.03 13:09:07.
