data_PCOD9190193
_publ_section_title
;
Structure prediction by ZEFSAII (Michael W. Deem and Ramdas Pophale) SiO2 
 PCOD9190193
Probable space group: C 2/M
;
_chemical_formula_sum "Si O2"
_cell_formula_units_Z 38
_cell_length_a 10.161533
_cell_length_b 29.835873
_cell_length_c 7.891982
_cell_angle_alpha 90.000000
_cell_angle_beta 136.549517
_cell_angle_gamma 90.000000
_cell_volume 1645.509565
_symmetry_space_group_name_H-M "C 2/M"
_symmetry_group_IT_number 12
_symmetry_cell_setting 'monoclinic'
loop_
_space_group_symop_operation_xyz
x,y,z
-x,y,-z
-x,-y,-z
x,-y,z
1/2+x,1/2+y,z
1/2-x,1/2+y,-z
1/2-x,1/2-y,-z
1/2+x,1/2-y,z
loop_
_atom_site_type_symbol
_atom_site_label
_atom_site_fract_x
_atom_site_fract_y
_atom_site_fract_z
Si Si1 0.495840 0.070531 0.303759
Si Si2 0.862117 0.870172 0.036855
Si Si3 0.731469 0.345540 0.504782
Si Si4 0.000000 0.707614 0.000000
Si Si5 0.713519 0.782208 0.752981
Si Si6 0.000000 0.500000 0.000000
O O1 0.500000 0.051545 0.500000
O O2 0.643022 0.112618 0.445589
O O3 0.281757 0.089400 0.074569
O O4 0.537221 0.038676 0.183982
O O5 0.016189 0.862340 0.326936
O O6 0.730852 0.826153 0.886613
O O7 0.000000 0.876327 0.000000
O O8 0.856106 0.324276 0.767393
O O9 0.710980 0.304350 0.352442
O O10 0.146985 0.743387 0.055006
O O11 0.500000 0.767951 0.500000
#
# Coordination Sequence:
#
# PCOD9190193 Si02
#       6
#     8   8   8   4   8   2
#     4  12  23  52  81 104 151 198 238 307 387 464
#     4  10  19  40  76  98 129 205 257 279 361 455
#     4  11  22  41  67 101 142 206 252 296 374 437
#     4  12  25  34  56 105 166 181 258 336 331 400
#     4  11  20  36  61  96 136 201 258 297 351 422
#     4  12  32  48  80 128 144 170 250 316 392 466
#
# _framework density 23.093149
#
# number of rings (size 3 to 8) (size 9 to 14) (size 15 to 20)
#    0.000    0.842    9.474    1.579    0.000    2.526 
#    0.000    5.789    0.000    0.000    0.000    0.000 
#    0.000    0.000    0.000    0.000    0.000    0.000 
#
# Total GULP energy -105866.826701 kJ/mol
# GULP energy per Si atom -5571.938247 kJ/mol
# Density = 2.304059 g / cm^3
# Si number density = 23.093149 Si / 1000 Ang^3
#
#
#
# Elastic Constant Matrix: (Units=GPa)
#
#
# Indices 1 2 3 4 5 6 
#
# 1 57.1805 33.4383 50.4312 0.0000 0.8160 0.0000
# 2 33.4383 98.8847 43.8233 0.0000 -0.1572 0.0000
# 3 50.4312 43.8233 169.5869 0.0000 14.6556 0.0000
# 4 0.0000 0.0000 0.0000 15.9017 0.0000 -21.4433
# 5 0.8160 -0.1572 14.6556 0.0000 57.4976 0.0000
# 6 0.0000 0.0000 0.0000 -21.4433 0.0000 -0.9406
#
#
#
# Elastic Compliance Matrix: (Units=1/GPa)
#
#
# Indices 1 2 3 4 5 6 
#
# 1 0.026806 -0.006191 -0.006480 0.000000 0.001254 0.000000
# 2 -0.006191 0.012887 -0.001533 0.000000 0.000514 0.000000
# 3 -0.006480 -0.001533 0.008397 0.000000 -0.002053 0.000000
# 4 0.000000 0.000000 0.000000 0.001981 0.000000 -0.045165
# 5 0.001254 0.000514 -0.002053 0.000000 0.017899 0.000000
# 6 0.000000 0.000000 0.000000 -0.045165 0.000000 -0.033493
#
#
# Mechanical properties :
#
#
# Convention : Reuss Voigt Hill
#
# Bulk Modulus (GPa) = 50.80956 64.55976 57.68466
# Shear Modulus (GPa) = 71.99819 27.68902 49.84360
#
# Velocity S-wave (km/s) = 5.58972 3.46644 4.65087
# Velocity P-wave (km/s) = 7.98184 6.63615 7.33990
#
# Compressibility (1/GPa) = 0.01968133
#
# Stress axis : x y z
#
# Youngs Moduli (GPa) = 37.30497 77.59972 119.08466
#
# Poissons Ratio (x) = 0.48040 0.77169
# Poissons Ratio (y) = 0.23095 0.18262
# Poissons Ratio (z) = 0.24174 0.11900
#
# Static dielectric constant tensor:
#      x y z
#    x 2.035100 0.000000 -0.100860 
#    y 0.000000 1.745400 0.000000 
#    z -0.100860 0.000000 1.928500 
# 
# From -- ./inp_files/54486.got.cif
#   From: 2010.05.17/outbox.cif.g08.bks.cpg/sg12_28_cif.got.tgz:54486.got - 2010.06.03 13:09:07.
