data_PCOD9190332
_publ_section_title
;
Structure prediction by ZEFSAII (Michael W. Deem and Ramdas Pophale) SiO2 
 PCOD9190332
Probable space group: C 2/M
;
_chemical_formula_sum "Si O2"
_cell_formula_units_Z 52
_cell_length_a 14.177531
_cell_length_b 33.215488
_cell_length_c 9.243620
_cell_angle_alpha 90.000000
_cell_angle_beta 27.005323
_cell_angle_gamma 90.000000
_cell_volume 1976.556663
_symmetry_space_group_name_H-M "C 2/M"
_symmetry_group_IT_number 12
_symmetry_cell_setting 'monoclinic'
loop_
_space_group_symop_operation_xyz
x,y,z
-x,y,-z
-x,-y,-z
x,-y,z
1/2+x,1/2+y,z
1/2-x,1/2+y,-z
1/2-x,1/2-y,-z
1/2+x,1/2-y,z
loop_
_atom_site_type_symbol
_atom_site_label
_atom_site_fract_x
_atom_site_fract_y
_atom_site_fract_z
Si Si1 0.259727 0.629911 0.016778
Si Si2 0.500000 0.321742 0.500000
Si Si3 0.347768 0.381915 0.339287
Si Si4 0.531864 0.260552 0.719962
Si Si5 0.299825 0.543853 0.563026
Si Si6 0.694540 0.808905 0.361524
Si Si7 0.713768 0.955983 0.021580
O O1 0.294935 0.651899 0.817106
O O2 0.500666 0.624178 0.732516
O O3 0.138644 0.588021 0.174816
O O4 0.189858 0.658978 0.239098
O O5 0.543239 0.293251 0.578017
O O6 0.220946 0.420420 0.567429
O O7 0.256051 0.339321 0.409785
O O8 0.500000 0.394946 0.000000
O O9 0.750000 0.250000 0.500000
O O10 0.500953 0.218283 0.677232
O O11 0.636456 0.277107 0.935994
O O12 0.232489 0.500000 0.600145
O O13 0.552209 0.542935 0.230080
O O14 0.235306 0.547166 0.818622
O O15 0.619221 0.000000 0.184793
#
# Coordination Sequence:
#
# PCOD9190332 Si02
#       7
#     8   4   8   8   8   8   8
#     4   9  15  26  41  63  89 121 162 197 232 293
#     4  10  20  30  51  72  94 130 169 204 252 296
#     4   9  15  25  39  58  88 124 159 193 239 291
#     4  11  21  36  52  71  97 127 169 215 255 300
#     4   8  13  20  33  55  84 120 158 189 224 283
#     4  10  21  34  50  69  95 132 169 207 253 296
#     4   8  13  21  35  56  85 122 157 189 227 282
#
# _framework density 26.308378000000001
#
# number of rings (size 3 to 8) (size 9 to 14) (size 15 to 20)
#    0.000    2.769    0.000    6.923    0.000    2.769 
#    0.000    2.308    0.000    0.000    0.000    0.000 
#    0.000    0.000    0.000   26.308    0.000  519.231 
#
# Total GULP energy -145077.683875 kJ/mol
# GULP energy per Si atom -5579.910918 kJ/mol
# Density = 2.624850 g / cm^3
# Si number density = 26.308378 Si / 1000 Ang^3
#
#
#
# Elastic Constant Matrix: (Units=GPa)
#
#
# Indices 1 2 3 4 5 6 
#
# 1 70.8117 42.1701 35.3310 0.0000 5.2989 0.0000
# 2 42.1701 270.0584 69.7638 0.0000 17.1012 0.0000
# 3 35.3310 69.7638 69.8317 0.0000 16.8294 0.0000
# 4 0.0000 0.0000 0.0000 23.3450 0.0000 21.8244
# 5 5.2989 17.1012 16.8294 0.0000 32.1242 0.0000
# 6 0.0000 0.0000 0.0000 21.8244 0.0000 24.1866
#
#
#
# Elastic Compliance Matrix: (Units=1/GPa)
#
#
# Indices 1 2 3 4 5 6 
#
# 1 0.019110 -0.000659 -0.009540 0.000000 0.002196 0.000000
# 2 -0.000659 0.005014 -0.004645 0.000000 -0.000127 0.000000
# 3 -0.009540 -0.004645 0.026108 0.000000 -0.009631 0.000000
# 4 0.000000 0.000000 0.000000 0.273823 0.000000 -0.247081
# 5 0.002196 -0.000127 -0.009631 0.000000 0.035880 0.000000
# 6 0.000000 0.000000 0.000000 -0.247081 0.000000 0.264295
#
#
# Mechanical properties :
#
#
# Convention : Reuss Voigt Hill
#
# Bulk Modulus (GPa) = 48.67360 78.35906 63.51633
# Shear Modulus (GPa) = 7.56699 33.49361 20.53030
#
# Velocity S-wave (km/s) = 1.69780 3.57195 2.79654
# Velocity P-wave (km/s) = 4.73125 6.84553 5.88413
#
# Compressibility (1/GPa) = 0.02054502
#
# Stress axis : x y z
#
# Youngs Moduli (GPa) = 52.32968 199.45205 38.30199
#
# Poissons Ratio (x) = 0.13138 0.36539
# Poissons Ratio (y) = 0.03447 0.17791
# Poissons Ratio (z) = 0.49920 0.92645
#
# Static dielectric constant tensor:
#      x y z
#    x 2.398530 0.000000 -0.054260 
#    y 0.000000 2.234160 0.000000 
#    z -0.054260 0.000000 2.132640 
# 
# From -- ./inp_files/80224.got.cif
#   From: 2010.05.17/outbox.cif.g08.bks.cpg/sg12_41_cif.got.tgz:80224.got - 2010.06.03 13:09:07.
