data_PCOD9190553
_publ_section_title
;
Structure prediction by ZEFSAII (Michael W. Deem and Ramdas Pophale) SiO2 
 PCOD9190553
Probable space group: C 2/M
;
_chemical_formula_sum "Si O2"
_cell_formula_units_Z 44
_cell_length_a 10.692561
_cell_length_b 20.302696
_cell_length_c 15.904681
_cell_angle_alpha 90.000000
_cell_angle_beta 130.117011
_cell_angle_gamma 90.000000
_cell_volume 2640.393237
_symmetry_space_group_name_H-M "C 2/M"
_symmetry_group_IT_number 12
_symmetry_cell_setting 'monoclinic'
loop_
_space_group_symop_operation_xyz
x,y,z
-x,y,-z
-x,-y,-z
x,-y,z
1/2+x,1/2+y,z
1/2-x,1/2+y,-z
1/2-x,1/2-y,-z
1/2+x,1/2-y,z
loop_
_atom_site_type_symbol
_atom_site_label
_atom_site_fract_x
_atom_site_fract_y
_atom_site_fract_z
Si Si1 0.538583 0.000000 0.377469
Si Si2 0.928853 0.255840 0.126302
Si Si3 0.884683 0.384337 0.213894
Si Si4 0.733981 0.071344 0.016657
Si Si5 0.500000 0.827129 0.000000
Si Si6 0.421098 0.615746 0.792667
Si Si7 0.727886 0.500000 0.370496
O O1 0.517031 0.067245 0.314468
O O2 0.382425 0.000000 0.373176
O O3 0.698678 0.000000 0.504592
O O4 0.926425 0.311458 0.197213
O O5 0.004468 0.188036 0.192565
O O6 0.750000 0.250000 0.000000
O O7 0.040072 0.282310 0.097444
O O8 0.733243 0.378657 0.212368
O O9 0.831861 0.420695 0.105618
O O10 0.648074 0.126028 0.036650
O O11 0.927334 0.080730 0.096151
O O12 0.694474 0.000000 0.034466
O O13 0.370703 0.566633 0.695342
#
# Coordination Sequence:
#
# PCOD9190553 Si02
#       7
#     4   8   8   8   4   8   4
#     4   9  18  37  55  75  98 127 180 216 270 292
#     4  11  20  32  49  76 113 140 168 197 257 312
#     4  10  20  31  54  77 104 137 165 218 252 308
#     4  11  20  31  49  77 107 136 172 202 259 309
#     4  10  21  32  44  71 114 146 158 202 242 323
#     4  11  20  32  51  78 108 131 171 211 264 302
#     4   9  20  35  55  75  98 131 168 234 258 294
#
# _framework density 16.664183999999999
#
# number of rings (size 3 to 8) (size 9 to 14) (size 15 to 20)
#    0.000    1.636    5.455    1.909    0.000    0.727 
#    0.000    0.909    0.000    0.000    0.000    8.909 
#    0.000    0.000    0.000    0.000    0.000    0.000 
#
# Total GULP energy -122481.721657 kJ/mol
# GULP energy per Si atom -5567.350984 kJ/mol
# Density = 1.662626 g / cm^3
# Si number density = 16.664184 Si / 1000 Ang^3
#
#
#
# Elastic Constant Matrix: (Units=GPa)
#
#
# Indices 1 2 3 4 5 6 
#
# 1 39.9506 35.4029 30.1152 0.0000 -4.5369 0.0000
# 2 35.4029 164.6924 68.7057 0.0000 0.0344 0.0000
# 3 30.1152 68.7057 109.7212 0.0000 -8.9758 0.0000
# 4 0.0000 0.0000 0.0000 9.4002 0.0000 0.5950
# 5 -4.5369 0.0344 -8.9758 0.0000 9.7137 0.0000
# 6 0.0000 0.0000 0.0000 0.5950 0.0000 16.5886
#
#
#
# Elastic Compliance Matrix: (Units=1/GPa)
#
#
# Indices 1 2 3 4 5 6 
#
# 1 0.035078 -0.005302 -0.005372 0.000000 0.011438 0.000000
# 2 -0.005302 0.009268 -0.004926 0.000000 -0.007061 0.000000
# 3 -0.005372 -0.004926 0.014571 0.000000 0.010972 0.000000
# 4 0.000000 0.000000 0.000000 0.106623 0.000000 -0.003824
# 5 0.011438 -0.007061 0.010972 0.000000 0.118453 0.000000
# 6 0.000000 0.000000 0.000000 -0.003824 0.000000 0.060419
#
#
# Mechanical properties :
#
#
# Convention : Reuss Voigt Hill
#
# Bulk Modulus (GPa) = 36.07940 64.75686 50.41813
# Shear Modulus (GPa) = 12.99208 19.14987 16.07098
#
# Velocity S-wave (km/s) = 2.79523 3.39361 3.10885
# Velocity P-wave (km/s) = 5.66707 7.36883 6.57325
#
# Compressibility (1/GPa) = 0.02771665
#
# Stress axis : x y z
#
# Youngs Moduli (GPa) = 28.50814 107.89728 68.63085
#
# Poissons Ratio (x) = 0.57203 0.36870
# Poissons Ratio (y) = 0.15114 0.33808
# Poissons Ratio (z) = 0.15315 0.53150
#
# Static dielectric constant tensor:
#      x y z
#    x 1.579680 0.000000 0.014100 
#    y 0.000000 1.631220 0.000000 
#    z 0.014100 0.000000 1.538040 
# 
# From -- ./inp_files/207841.got.cif
#   From: 2010.05.17/outbox.cif.g08.bks.cpg/sg12_104_cif.got.tgz:207841.got - 2010.06.03 13:09:07.
