data_PCOD9190324
_publ_section_title
;
Structure prediction by ZEFSAII (Michael W. Deem and Ramdas Pophale) SiO2 
 PCOD9190324
Probable space group: C 2/M
;
_chemical_formula_sum "Si O2"
_cell_formula_units_Z 48
_cell_length_a 11.063269
_cell_length_b 15.282212
_cell_length_c 12.807082
_cell_angle_alpha 90.000000
_cell_angle_beta 108.276284
_cell_angle_gamma 90.000000
_cell_volume 2056.080784
_symmetry_space_group_name_H-M "C 2/M"
_symmetry_group_IT_number 12
_symmetry_cell_setting 'monoclinic'
loop_
_space_group_symop_operation_xyz
x,y,z
-x,y,-z
-x,-y,-z
x,-y,z
1/2+x,1/2+y,z
1/2-x,1/2+y,-z
1/2-x,1/2-y,-z
1/2+x,1/2-y,z
loop_
_atom_site_type_symbol
_atom_site_label
_atom_site_fract_x
_atom_site_fract_y
_atom_site_fract_z
Si Si1 0.353153 0.160755 0.926687
Si Si2 0.470856 0.598459 0.879329
Si Si3 0.000313 0.892755 0.664825
Si Si4 0.440998 0.102134 0.731427
Si Si5 0.706647 0.393320 0.546923
Si Si6 0.784947 0.654104 0.133966
O O1 0.364629 0.109604 0.821040
O O2 0.275583 0.249403 0.885896
O O3 0.500000 0.175857 0.000000
O O4 0.293537 0.119988 0.015918
O O5 0.521531 0.500000 0.896536
O O6 0.520092 0.641203 0.787073
O O7 0.318295 0.598754 0.831004
O O8 0.500000 0.638280 0.000000
O O9 0.864823 0.866412 0.578055
O O10 0.110673 0.868074 0.614541
O O11 0.999971 0.000000 0.669549
O O12 0.347443 0.136399 0.615713
O O13 0.575062 0.149793 0.780658
O O14 0.468713 0.000000 0.721206
O O15 0.710774 0.500000 0.547901
#
# Coordination Sequence:
#
# PCOD9190324 Si02
#       6
#     8   8   8   8   8   8
#     4   9  20  36  53  74 107 155 194 219 267 344
#     4  10  20  30  48  80 114 145 180 228 282 332
#     4   8  15  30  49  76 110 145 183 227 273 328
#     4  10  20  34  57  86 108 137 190 245 279 313
#     4   8  15  30  53  77 105 141 188 233 271 319
#     4  10  20  35  51  75 112 149 179 223 281 346
#
# _framework density 23.345386999999999
#
# number of rings (size 3 to 8) (size 9 to 14) (size 15 to 20)
#    0.000    2.833    0.000    2.000    2.333    3.667 
#    0.000    0.833    0.000    5.000    0.000    0.000 
#    0.000    0.000    0.000    0.000    0.000    0.000 
#
# Total GULP energy -133987.245183 kJ/mol
# GULP energy per Si atom -5582.801883 kJ/mol
# Density = 2.329225 g / cm^3
# Si number density = 23.345387 Si / 1000 Ang^3
#
#
#
# Elastic Constant Matrix: (Units=GPa)
#
#
# Indices 1 2 3 4 5 6 
#
# 1 70.0072 13.8454 26.7728 0.0000 19.1999 0.0000
# 2 13.8454 46.1652 7.5677 0.0000 8.2424 0.0000
# 3 26.7728 7.5677 128.1110 0.0000 18.4731 0.0000
# 4 0.0000 0.0000 0.0000 4.6297 0.0000 5.9183
# 5 19.1999 8.2424 18.4731 0.0000 45.3445 0.0000
# 6 0.0000 0.0000 0.0000 5.9183 0.0000 24.7146
#
#
#
# Elastic Compliance Matrix: (Units=1/GPa)
#
#
# Indices 1 2 3 4 5 6 
#
# 1 0.017609 -0.003834 -0.002634 0.000000 -0.005686 0.000000
# 2 -0.003834 0.023297 -0.000211 0.000000 -0.002525 0.000000
# 3 -0.002634 -0.000211 0.008714 0.000000 -0.002397 0.000000
# 4 0.000000 0.000000 0.000000 0.311282 0.000000 -0.074541
# 5 -0.005686 -0.002525 -0.002397 0.000000 0.025897 0.000000
# 6 0.000000 0.000000 0.000000 -0.074541 0.000000 0.058312
#
#
# Mechanical properties :
#
#
# Convention : Reuss Voigt Hill
#
# Bulk Modulus (GPa) = 27.57635 37.85060 32.71347
# Shear Modulus (GPa) = 10.62574 28.01093 19.31834
#
# Velocity S-wave (km/s) = 2.13575 3.46764 2.87975
# Velocity P-wave (km/s) = 4.23319 5.68166 5.01004
#
# Compressibility (1/GPa) = 0.03626296
#
# Stress axis : x y z
#
# Youngs Moduli (GPa) = 56.78854 42.92456 114.75612
#
# Poissons Ratio (x) = 0.16458 0.30222
# Poissons Ratio (y) = 0.21774 0.02418
# Poissons Ratio (z) = 0.14956 0.00905
#
# Static dielectric constant tensor:
#      x y z
#    x 1.906320 0.000000 0.007940 
#    y 0.000000 1.849850 0.000000 
#    z 0.007940 0.000000 1.926640 
# 
# From -- ./inp_files/131749.got.cif
#   From: 2010.05.17/outbox.cif.g08.bks.cpg/sg12_66_cif.got.tgz:131749.got - 2010.06.03 13:09:07.
