data_PCOD9190615
_publ_section_title
;
Structure prediction by ZEFSAII (Michael W. Deem and Ramdas Pophale) SiO2 
 PCOD9190615
Probable space group: C 2/M
;
_chemical_formula_sum "Si O2"
_cell_formula_units_Z 56
_cell_length_a 28.597395
_cell_length_b 8.906717
_cell_length_c 18.639560
_cell_angle_alpha 90.000000
_cell_angle_beta 130.676868
_cell_angle_gamma 90.000000
_cell_volume 3600.615135
_symmetry_space_group_name_H-M "C 2/M"
_symmetry_group_IT_number 12
_symmetry_cell_setting 'monoclinic'
loop_
_space_group_symop_operation_xyz
x,y,z
-x,y,-z
-x,-y,-z
x,-y,z
1/2+x,1/2+y,z
1/2-x,1/2+y,-z
1/2-x,1/2-y,-z
1/2+x,1/2-y,z
loop_
_atom_site_type_symbol
_atom_site_label
_atom_site_fract_x
_atom_site_fract_y
_atom_site_fract_z
Si Si1 0.121881 0.318176 0.718782
Si Si2 0.936486 0.672454 0.482657
Si Si3 0.063514 0.172454 0.109685
Si Si4 0.378119 0.318176 0.975019
Si Si5 0.750000 0.819256 0.921131
Si Si6 0.002184 0.321586 0.829588
Si Si7 0.997816 0.178414 0.325220
O O1 0.114346 0.500000 0.715503
O O2 0.113346 0.277918 0.626299
O O3 0.187887 0.276470 0.816878
O O4 0.066907 0.243292 0.708992
O O5 0.924655 0.500000 0.492614
O O6 0.000000 0.672372 0.500000
O O7 0.950339 0.772254 0.565431
O O8 0.113346 0.222081 0.100392
O O9 0.049661 0.272254 0.164754
O O10 0.075345 0.000000 0.143305
O O11 0.000000 0.172371 0.000000
O O12 0.385654 0.500000 0.986812
O O13 0.312113 0.276469 0.941104
O O14 0.433093 0.243292 0.075178
O O15 0.750000 0.000000 0.927177
O O16 0.750000 0.750000 0.000000
O O17 0.005960 0.500000 0.828293
O O18 0.990643 0.250000 0.740643
O O19 0.994040 0.000000 0.316373
#
# Coordination Sequence:
#
# PCOD9190615 Si02
#       7
#     8   8   8   8   8   8   8
#     4   9  18  32  47  64  90 121 151 182 217 259
#     4   8  15  29  46  63  86 115 145 180 222 265
#     4   8  15  29  46  63  86 115 145 180 222 265
#     4   9  18  32  47  64  90 121 151 182 217 259
#     4  10  20  32  46  66  91 122 155 182 211 250
#     4  11  20  29  44  66  91 117 147 183 224 266
#     4  11  20  29  44  66  91 117 147 183 224 266
#
# _framework density 15.552898000000001
#
# number of rings (size 3 to 8) (size 9 to 14) (size 15 to 20)
#    0.000    2.571    0.000    5.143    0.000    8.571 
#    0.000    0.000    0.000    0.000    0.000    1.000 
#    0.000    0.000    0.000    0.000    0.000    0.000 
#
# Total GULP energy -156047.765419 kJ/mol
# GULP energy per Si atom -5573.134479 kJ/mol
# Density = 1.551750 g / cm^3
# Si number density = 15.552898 Si / 1000 Ang^3
#
#
#
# Elastic Constant Matrix: (Units=GPa)
#
#
# Indices 1 2 3 4 5 6 
#
# 1 113.1019 43.2404 64.5890 0.0000 -16.9771 0.0000
# 2 43.2404 64.2306 48.3898 0.0000 -17.8115 0.0000
# 3 64.5890 48.3898 122.6553 0.0000 -16.0676 0.0000
# 4 0.0000 0.0000 0.0000 21.2630 0.0000 -8.4688
# 5 -16.9771 -17.8115 -16.0676 0.0000 23.5643 0.0000
# 6 0.0000 0.0000 0.0000 -8.4688 0.0000 18.8148
#
#
#
# Elastic Compliance Matrix: (Units=1/GPa)
#
#
# Indices 1 2 3 4 5 6 
#
# 1 0.014037 -0.004752 -0.005120 0.000000 0.003030 0.000000
# 2 -0.004752 0.027246 -0.006585 0.000000 0.012680 0.000000
# 3 -0.005120 -0.006585 0.013519 0.000000 0.000552 0.000000
# 4 0.000000 0.000000 0.000000 0.057303 0.000000 0.025793
# 5 0.003030 0.012680 0.000552 0.000000 0.054581 0.000000
# 6 0.000000 0.000000 0.000000 0.025793 0.000000 0.064760
#
#
# Mechanical properties :
#
#
# Convention : Reuss Voigt Hill
#
# Bulk Modulus (GPa) = 45.68971 68.04737 56.86854
# Shear Modulus (GPa) = 18.40562 22.31300 20.35931
#
# Velocity S-wave (km/s) = 3.44382 3.79179 3.62199
# Velocity P-wave (km/s) = 6.72711 7.93835 7.35770
#
# Compressibility (1/GPa) = 0.02188677
#
# Stress axis : x y z
#
# Youngs Moduli (GPa) = 71.23946 36.70314 73.96778
#
# Poissons Ratio (x) = 0.17443 0.37871
# Poissons Ratio (y) = 0.33856 0.48710
# Poissons Ratio (z) = 0.36475 0.24170
#
# Static dielectric constant tensor:
#      x y z
#    x 1.519650 0.000000 -0.005090 
#    y 0.000000 1.522190 0.000000 
#    z -0.005090 0.000000 1.521120 
# 
# From -- ./inp_files/291944.got.cif
#   From: 2010.05.17/outbox.cif.g08.bks.cpg/sg12_146_cif.got.tgz:291944.got - 2010.06.03 13:09:07.
