data_PCOD9190121
_publ_section_title
;
Structure prediction by ZEFSAII (Michael W. Deem and Ramdas Pophale) SiO2 
 PCOD9190121
Probable space group: C 2/M
;
_chemical_formula_sum "Si O2"
_cell_formula_units_Z 48
_cell_length_a 5.451082
_cell_length_b 14.425245
_cell_length_c 30.581137
_cell_angle_alpha 90.000000
_cell_angle_beta 75.349393
_cell_angle_gamma 90.000000
_cell_volume 2326.506650
_symmetry_space_group_name_H-M "C 2/M"
_symmetry_group_IT_number 12
_symmetry_cell_setting 'monoclinic'
loop_
_space_group_symop_operation_xyz
x,y,z
-x,y,-z
-x,-y,-z
x,-y,z
1/2+x,1/2+y,z
1/2-x,1/2+y,-z
1/2-x,1/2-y,-z
1/2+x,1/2-y,z
loop_
_atom_site_type_symbol
_atom_site_label
_atom_site_fract_x
_atom_site_fract_y
_atom_site_fract_z
Si Si1 0.846838 0.000000 0.604108
Si Si2 0.523671 0.195996 0.113952
Si Si3 0.115430 0.653010 0.780260
Si Si4 0.422613 0.696367 0.554573
Si Si5 0.668347 0.363342 0.742873
Si Si6 0.235343 0.500000 0.338039
Si Si7 0.219404 0.608608 0.021444
O O1 0.892728 0.093447 0.574569
O O2 0.553760 0.000000 0.632448
O O3 0.050400 0.000000 0.634340
O O4 0.253576 0.230155 0.107410
O O5 0.472492 0.168257 0.166293
O O6 0.633529 0.122050 0.075154
O O7 0.386909 0.605579 0.768002
O O8 0.158718 0.752045 0.752882
O O9 0.892680 0.604218 0.764199
O O10 0.500000 0.691749 0.500000
O O11 0.653525 0.749640 0.568388
O O12 0.724826 0.407603 0.693376
O O13 0.235432 0.500000 0.010607
O O14 0.500000 0.647333 0.000000
O O15 0.000000 0.647577 0.000000
#
# Coordination Sequence:
#
# PCOD9190121 Si02
#       7
#     4   8   8   8   8   4   8
#     4  12  25  46  64 106 150 176 236 301 332 408
#     4  12  21  37  63  90 114 143 203 253 294 362
#     4  10  19  40  61  83 114 157 206 260 309 366
#     4  10  22  44  73 104 139 189 240 286 354 411
#     4  10  20  40  59  81 117 165 198 256 312 380
#     4  12  26  42  61  98 134 174 224 263 340 410
#     4  10  23  42  58  82 123 156 182 226 305 385
#
# _framework density 20.631792999999998
#
# number of rings (size 3 to 8) (size 9 to 14) (size 15 to 20)
#    0.000    1.333    3.333    3.250    0.000    2.000 
#   21.000    3.333    0.000    0.000    0.000    0.000 
#    0.000    0.000    0.000    0.000    0.000    0.000 
#
# Total GULP energy -133883.094262 kJ/mol
# GULP energy per Si atom -5578.462261 kJ/mol
# Density = 2.058483 g / cm^3
# Si number density = 20.631793 Si / 1000 Ang^3
#
#
#
# Elastic Constant Matrix: (Units=GPa)
#
#
# Indices 1 2 3 4 5 6 
#
# 1 227.1677 58.3691 59.8814 0.0000 -17.0297 0.0000
# 2 58.3691 125.5816 48.3864 0.0000 -2.4546 0.0000
# 3 59.8814 48.3864 65.1797 0.0000 -6.9621 0.0000
# 4 0.0000 0.0000 0.0000 14.9571 0.0000 1.1662
# 5 -17.0297 -2.4546 -6.9621 0.0000 30.4486 0.0000
# 6 0.0000 0.0000 0.0000 1.1662 0.0000 2.8093
#
#
#
# Elastic Compliance Matrix: (Units=1/GPa)
#
#
# Indices 1 2 3 4 5 6 
#
# 1 0.006029 -0.001004 -0.004553 0.000000 0.002250 0.000000
# 2 -0.001004 0.011351 -0.007653 0.000000 -0.001396 0.000000
# 3 -0.004553 -0.007653 0.025492 0.000000 0.002665 0.000000
# 4 0.000000 0.000000 0.000000 0.069094 0.000000 -0.028682
# 5 0.002250 -0.001396 0.002665 0.000000 0.034597 0.000000
# 6 0.000000 0.000000 0.000000 -0.028682 0.000000 0.367862
#
#
# Mechanical properties :
#
#
# Convention : Reuss Voigt Hill
#
# Bulk Modulus (GPa) = 60.78871 83.46699 72.12785
# Shear Modulus (GPa) = 9.15198 26.39581 17.77390
#
# Velocity S-wave (km/s) = 2.10843 3.58072 2.93828
# Velocity P-wave (km/s) = 5.95440 7.59202 6.82252
#
# Compressibility (1/GPa) = 0.01645042
#
# Stress axis : x y z
#
# Youngs Moduli (GPa) = 165.86872 88.09730 39.22861
#
# Poissons Ratio (x) = 0.08843 0.17862
# Poissons Ratio (y) = 0.16650 0.30023
# Poissons Ratio (z) = 0.75525 0.67425
#
# Static dielectric constant tensor:
#      x y z
#    x 1.686400 0.000000 0.026520 
#    y 0.000000 1.740130 0.000000 
#    z 0.026520 0.000000 1.692750 
# 
# From -- ./inp_files/371436.got.cif
#   From: 2010.05.17/outbox.cif.g08.bks.cpg/sg12_186_cif.got.tgz:371436.got - 2010.06.03 13:09:07.
