data_PCOD9190995
_publ_section_title
;
Structure prediction by ZEFSAII (Michael W. Deem and Ramdas Pophale) SiO2 
 PCOD9190995
Probable space group: C 2/M
;
_chemical_formula_sum "Si O2"
_cell_formula_units_Z 64
_cell_length_a 24.917781
_cell_length_b 8.911302
_cell_length_c 20.711835
_cell_angle_alpha 90.000000
_cell_angle_beta 52.419666
_cell_angle_gamma 90.000000
_cell_volume 3644.750787
_symmetry_space_group_name_H-M "C 2/M"
_symmetry_group_IT_number 12
_symmetry_cell_setting 'monoclinic'
loop_
_space_group_symop_operation_xyz
x,y,z
-x,y,-z
-x,-y,-z
x,-y,z
1/2+x,1/2+y,z
1/2-x,1/2+y,-z
1/2-x,1/2-y,-z
1/2+x,1/2-y,z
loop_
_atom_site_type_symbol
_atom_site_label
_atom_site_fract_x
_atom_site_fract_y
_atom_site_fract_z
Si Si1 0.729710 0.179916 0.614369
Si Si2 0.141956 0.178913 0.048787
Si Si3 0.350549 0.179837 0.458181
Si Si4 0.985351 0.177850 0.163569
Si Si5 0.857013 0.680691 0.198316
Si Si6 0.989135 0.319392 0.302342
Si Si7 0.276604 0.179796 0.128088
Si Si8 0.142975 0.679723 0.189933
O O1 0.683641 0.219592 0.585925
O O2 0.803529 0.247301 0.546863
O O3 0.691899 0.229583 0.706904
O O4 0.734831 0.000000 0.612301
O O5 0.151670 0.256785 0.110927
O O6 0.063415 0.205495 0.087133
O O7 0.152739 0.000000 0.046958
O O8 0.190448 0.248599 0.959775
O O9 0.428915 0.225750 0.394665
O O10 0.347265 0.000000 0.467304
O O11 0.930296 0.248858 0.156718
O O12 0.976632 0.248245 0.241238
O O13 0.975308 0.000000 0.174800
O O14 0.863209 0.500000 0.197239
O O15 0.822590 0.719589 0.155876
O O16 0.985165 0.500000 0.297479
O O17 0.065778 0.282424 0.266397
O O18 0.201101 0.244730 0.189615
O O19 0.274242 0.000000 0.123857
O O20 0.150373 0.500000 0.184139
#
# Coordination Sequence:
#
# PCOD9190995 Si02
#       8
#     8   8   8   8   8   8   8   8
#     4   9  17  30  48  72 103 134 164 202 245 294
#     4  10  21  37  55  77 105 131 164 213 262 303
#     4   9  16  28  49  76 104 130 162 203 246 296
#     4  10  20  32  51  78 104 132 166 209 255 298
#     4  10  21  37  53  70 102 143 174 204 247 307
#     4   9  17  32  53  76 104 136 166 203 254 306
#     4  11  23  37  54  74  98 135 178 213 252 301
#     4  10  20  35  57  79 101 131 170 215 258 298
#
# _framework density 17.559498000000001
#
# number of rings (size 3 to 8) (size 9 to 14) (size 15 to 20)
#    0.000    2.250    1.250    1.875    0.000    4.500 
#    0.000    2.500    0.000    0.750    0.000    5.250 
#    0.000    0.000    0.000    0.000    0.000    0.000 
#
# Total GULP energy -178547.685962 kJ/mol
# GULP energy per Si atom -5579.615186 kJ/mol
# Density = 1.751953 g / cm^3
# Si number density = 17.559498 Si / 1000 Ang^3
#
#
#
# Elastic Constant Matrix: (Units=GPa)
#
#
# Indices 1 2 3 4 5 6 
#
# 1 92.9565 29.4033 11.0754 0.0002 -25.5212 0.0000
# 2 29.4033 25.1433 13.0407 0.0003 -12.0816 0.0000
# 3 11.0754 13.0407 44.2818 0.0001 -22.8694 -0.0001
# 4 0.0002 0.0003 0.0001 22.3730 0.0000 -6.4107
# 5 -25.5212 -12.0816 -22.8694 0.0000 22.9663 0.0000
# 6 0.0000 0.0000 -0.0001 -6.4107 0.0000 27.0452
#
#
#
# Elastic Compliance Matrix: (Units=1/GPa)
#
#
# Indices 1 2 3 4 5 6 
#
# 1 0.024849 -0.022079 0.017602 0.000000 0.033526 0.000000
# 2 -0.022079 0.072978 -0.018145 -0.000001 -0.004213 0.000000
# 3 0.017602 -0.018145 0.059078 0.000000 0.068843 0.000000
# 4 0.000000 -0.000001 0.000000 0.047954 0.000000 0.011367
# 5 0.033526 -0.004213 0.068843 0.000000 0.147134 0.000000
# 6 0.000000 0.000000 0.000000 0.011367 0.000000 0.039670
#
#
# Mechanical properties :
#
#
# Convention : Reuss Voigt Hill
#
# Bulk Modulus (GPa) = 8.95570 29.93560 19.44565
# Shear Modulus (GPa) = 10.54568 21.73437 16.14002
#
# Velocity S-wave (km/s) = 2.45331 3.52199 3.03506
# Velocity P-wave (km/s) = 3.62439 5.79865 4.83532
#
# Compressibility (1/GPa) = 0.11166076
#
# Stress axis : x y z
#
# Youngs Moduli (GPa) = 40.24331 13.70269 16.92672
#
# Poissons Ratio (x) = 0.30254 -0.29794
# Poissons Ratio (y) = 0.88852 0.30714
# Poissons Ratio (z) = -0.70834 0.24864
#
# Static dielectric constant tensor:
#      x y z
#    x 1.601140 0.000000 -0.031550 
#    y 0.000000 1.587300 0.000000 
#    z -0.031550 0.000000 1.593410 
# 
# From -- ./inp_files/295505.got.cif
#   From: 2010.05.17/outbox.cif.g08.bks.cpg/sg12_148_cif.got.tgz:295505.got - 2010.06.03 13:09:07.
