data_PCOD9190849
_publ_section_title
;
Structure prediction by ZEFSAII (Michael W. Deem and Ramdas Pophale) SiO2 
 PCOD9190849
Probable space group: C 2/M
;
_chemical_formula_sum "Si O2"
_cell_formula_units_Z 64
_cell_length_a 21.268939
_cell_length_b 9.586193
_cell_length_c 20.195621
_cell_angle_alpha 90.000000
_cell_angle_beta 58.065649
_cell_angle_gamma 90.000000
_cell_volume 3494.461300
_symmetry_space_group_name_H-M "C 2/M"
_symmetry_group_IT_number 12
_symmetry_cell_setting 'monoclinic'
loop_
_space_group_symop_operation_xyz
x,y,z
-x,y,-z
-x,-y,-z
x,-y,z
1/2+x,1/2+y,z
1/2-x,1/2+y,-z
1/2-x,1/2-y,-z
1/2+x,1/2-y,z
loop_
_atom_site_type_symbol
_atom_site_label
_atom_site_fract_x
_atom_site_fract_y
_atom_site_fract_z
Si Si1 0.055313 0.335102 0.908738
Si Si2 0.720559 0.154972 0.930320
Si Si3 0.470823 0.841231 0.815760
Si Si4 0.290513 0.334020 0.180734
Si Si5 0.137889 0.153288 0.060236
Si Si6 0.499944 0.838382 0.648366
Si Si7 0.076822 0.840638 0.498911
Si Si8 0.650743 0.164883 0.346990
O O1 0.069783 0.500000 0.911452
O O2 0.130835 0.245418 0.861678
O O3 0.018981 0.325786 0.855671
O O4 0.000000 0.290713 0.000000
O O5 0.748066 0.266733 0.862115
O O6 0.781169 0.139179 0.953443
O O7 0.708841 0.000000 0.909616
O O8 0.646810 0.225021 0.001281
O O9 0.413057 0.716134 0.854849
O O10 0.507223 0.826899 0.723405
O O11 0.438639 0.000000 0.835191
O O12 0.300657 0.500000 0.168352
O O13 0.232088 0.307603 0.271963
O O14 0.114334 0.000000 0.049175
O O15 0.555525 0.739504 0.577696
O O16 0.415483 0.807953 0.669916
O O17 0.513955 0.000000 0.622107
O O18 0.133002 0.756046 0.421191
O O19 0.000000 0.842221 0.500000
O O20 0.099896 0.000000 0.497179
O O21 0.646050 0.000000 0.364974
#
# Coordination Sequence:
#
# PCOD9190849 Si02
#       8
#     8   8   8   8   8   8   8   8
#     4  10  22  39  56  74 100 138 181 223 269 317
#     4  10  20  33  49  71 102 136 166 203 257 317
#     4  10  20  34  53  75 101 136 176 216 261 315
#     4  11  22  35  54  78 102 132 175 223 264 307
#     4  10  20  32  49  74 102 132 166 208 258 310
#     4   9  17  31  52  77 107 141 172 205 251 311
#     4   9  17  29  48  77 110 140 169 203 248 305
#     4   9  18  32  51  77 108 139 169 205 255 313
#
# _framework density 18.314696999999999
#
# number of rings (size 3 to 8) (size 9 to 14) (size 15 to 20)
#    0.000    2.250    0.000    3.000    0.000    7.250 
#    0.000    2.500    0.000    0.750    0.000    0.000 
#    0.000    0.000    0.000    0.000    0.000    0.000 
#
# Total GULP energy -178208.662927 kJ/mol
# GULP energy per Si atom -5569.020716 kJ/mol
# Density = 1.827301 g / cm^3
# Si number density = 18.314697 Si / 1000 Ang^3
#
#
#
# Elastic Constant Matrix: (Units=GPa)
#
#
# Indices 1 2 3 4 5 6 
#
# 1 48.8821 23.9870 27.2882 0.0000 -0.5429 0.0001
# 2 23.9870 105.1277 83.8967 0.0000 -14.2455 0.0001
# 3 27.2882 83.8967 136.5926 0.0000 -6.3347 0.0000
# 4 0.0000 0.0000 0.0000 24.3080 0.0000 1.0078
# 5 -0.5429 -14.2455 -6.3347 0.0000 20.8102 0.0000
# 6 0.0001 0.0001 0.0000 1.0078 0.0000 17.3293
#
#
#
# Elastic Compliance Matrix: (Units=1/GPa)
#
#
# Indices 1 2 3 4 5 6 
#
# 1 0.023689 -0.003718 -0.002575 0.000000 -0.002711 0.000000
# 2 -0.003718 0.021257 -0.011810 0.000000 0.010859 0.000000
# 3 -0.002575 -0.011810 0.014922 0.000000 -0.003609 0.000000
# 4 0.000000 0.000000 0.000000 0.041238 0.000000 -0.002398
# 5 -0.002711 0.010859 -0.003609 0.000000 0.054318 0.000000
# 6 0.000000 0.000000 0.000000 -0.002398 0.000000 0.057845
#
#
# Mechanical properties :
#
#
# Convention : Reuss Voigt Hill
#
# Bulk Modulus (GPa) = 42.26016 62.32737 52.29376
# Shear Modulus (GPa) = 19.42798 22.85154 21.13976
#
# Velocity S-wave (km/s) = 3.26050 3.53613 3.40111
# Velocity P-wave (km/s) = 6.10730 7.12584 6.63614
#
# Compressibility (1/GPa) = 0.02366295
#
# Stress axis : x y z
#
# Youngs Moduli (GPa) = 42.21379 47.04379 67.01602
#
# Poissons Ratio (x) = 0.17489 0.17256
# Poissons Ratio (y) = 0.15693 0.79145
# Poissons Ratio (z) = 0.10869 0.55558
#
# Static dielectric constant tensor:
#      x y z
#    x 1.669050 0.000000 0.013230 
#    y 0.000000 1.652410 0.000000 
#    z 0.013230 0.000000 1.645570 
# 
# From -- ./inp_files/324185.got.cif
#   From: 2010.05.17/outbox.cif.g08.bks.cpg/sg12_163_cif.got.tgz:324185.got - 2010.06.03 13:09:07.
