data_PCOD9190400
_publ_section_title
;
Structure prediction by ZEFSAII (Michael W. Deem and Ramdas Pophale) SiO2 
 PCOD9190400
Probable space group: C 2/M
;
_chemical_formula_sum "Si O2"
_cell_formula_units_Z 64
_cell_length_a 25.737536
_cell_length_b 7.562806
_cell_length_c 17.346045
_cell_angle_alpha 90.000000
_cell_angle_beta 75.594409
_cell_angle_gamma 90.000000
_cell_volume 3270.215910
_symmetry_space_group_name_H-M "C 2/M"
_symmetry_group_IT_number 12
_symmetry_cell_setting 'monoclinic'
loop_
_space_group_symop_operation_xyz
x,y,z
-x,y,-z
-x,-y,-z
x,-y,z
1/2+x,1/2+y,z
1/2-x,1/2+y,-z
1/2-x,1/2-y,-z
1/2+x,1/2-y,z
loop_
_atom_site_type_symbol
_atom_site_label
_atom_site_fract_x
_atom_site_fract_y
_atom_site_fract_z
Si Si1 0.532757 0.213456 0.672805
Si Si2 0.361908 0.708886 0.281791
Si Si3 0.815565 0.704843 0.805734
Si Si4 0.192615 0.217443 0.853379
Si Si5 0.584751 0.796085 0.495498
Si Si6 0.688711 0.289177 0.540736
Si Si7 0.186444 0.790202 0.023762
Si Si8 0.582519 0.217462 0.323210
O O1 0.575610 0.267292 0.721316
O O2 0.554818 0.280211 0.581460
O O3 0.471151 0.268225 0.702950
O O4 0.534381 0.000000 0.669848
O O5 0.350927 0.500000 0.283630
O O6 0.329576 0.779237 0.368268
O O7 0.341035 0.777950 0.207939
O O8 0.810098 0.500000 0.785404
O O9 0.754892 0.777805 0.823033
O O10 0.862308 0.781251 0.735228
O O11 0.833853 0.712699 0.888372
O O12 0.169078 0.272838 0.945286
O O13 0.193513 0.000000 0.855559
O O14 0.250000 0.250000 0.000000
O O15 0.647517 0.788718 0.493891
O O16 0.576331 0.721171 0.413816
O O17 0.567123 0.000000 0.497387
O O18 0.680850 0.500000 0.542430
O O19 0.750000 0.250000 0.500000
O O20 0.178331 0.000000 0.031372
O O21 0.584305 0.000000 0.323324
#
# Coordination Sequence:
#
# PCOD9190400 Si02
#       8
#     8   8   8   8   8   8   8   8
#     4   9  17  31  48  70  95 120 159 204 237 269
#     4   9  18  32  49  67  88 122 161 191 225 278
#     4   9  17  29  47  71  96 122 153 188 232 283
#     4   8  15  28  48  69  89 117 154 187 220 278
#     4   9  17  30  49  68  90 123 163 199 234 273
#     4  10  20  31  45  65  95 127 156 191 234 279
#     4   9  16  29  48  69  95 122 149 187 233 280
#     4   9  17  29  50  72  93 125 161 195 234 283
#
# _framework density 19.570571999999999
#
# number of rings (size 3 to 8) (size 9 to 14) (size 15 to 20)
#    0.000    3.000    0.000    1.875    1.750    2.000 
#    0.000    5.000    0.000    3.750    0.000    5.250 
#    0.000    0.000    0.000    0.000    0.000    0.000 
#
# Total GULP energy -178321.067641 kJ/mol
# GULP energy per Si atom -5572.533364 kJ/mol
# Density = 1.952603 g / cm^3
# Si number density = 19.570572 Si / 1000 Ang^3
#
#
#
# Elastic Constant Matrix: (Units=GPa)
#
#
# Indices 1 2 3 4 5 6 
#
# 1 81.7868 -7.4180 44.6219 0.0000 19.6042 0.0000
# 2 -7.4180 44.4621 -3.2506 0.0000 -0.9053 0.0000
# 3 44.6219 -3.2506 84.7052 0.0000 32.0193 0.0000
# 4 0.0000 0.0000 0.0000 11.3717 0.0000 3.8439
# 5 19.6042 -0.9053 32.0193 0.0000 28.3698 0.0000
# 6 0.0000 0.0000 0.0000 3.8439 0.0000 14.4591
#
#
#
# Elastic Compliance Matrix: (Units=1/GPa)
#
#
# Indices 1 2 3 4 5 6 
#
# 1 0.017522 0.002277 -0.008012 0.000000 -0.002993 0.000000
# 2 0.002277 0.022853 -0.000006 0.000000 -0.000837 0.000000
# 3 -0.008012 -0.000006 0.024301 0.000000 -0.021891 0.000000
# 4 0.000000 0.000000 0.000000 0.096620 0.000000 -0.025686
# 5 -0.002993 -0.000837 -0.021891 0.000000 0.061997 0.000000
# 6 0.000000 0.000000 0.000000 -0.025686 0.000000 0.075989
#
#
# Mechanical properties :
#
#
# Convention : Reuss Voigt Hill
#
# Bulk Modulus (GPa) = 18.79879 30.98451 24.89165
# Shear Modulus (GPa) = 15.22090 22.64017 18.93054
#
# Velocity S-wave (km/s) = 2.79183 3.40494 3.11351
# Velocity P-wave (km/s) = 4.47425 5.59685 5.06674
#
# Compressibility (1/GPa) = 0.05319492
#
# Stress axis : x y z
#
# Youngs Moduli (GPa) = 57.07147 43.75712 41.15087
#
# Poissons Ratio (x) = -0.09962 0.32968
# Poissons Ratio (y) = -0.12993 0.00024
# Poissons Ratio (z) = 0.45723 0.00025
#
# Static dielectric constant tensor:
#      x y z
#    x 1.668240 0.000000 0.010470 
#    y 0.000000 1.761200 0.000000 
#    z 0.010470 0.000000 1.704710 
# 
# From -- ./inp_files/243986.got.cif
#   From: 2010.05.17/outbox.cif.g08.bks.cpg/sg12_122_cif.got.tgz:243986.got - 2010.06.03 13:09:07.
