data_PCOD9190692
_publ_section_title
;
Structure prediction by ZEFSAII (Michael W. Deem and Ramdas Pophale) SiO2 
 PCOD9190692
Probable space group: C 2/M
;
_chemical_formula_sum "Si O2"
_cell_formula_units_Z 40
_cell_length_a 11.831327
_cell_length_b 27.677168
_cell_length_c 12.912010
_cell_angle_alpha 90.000000
_cell_angle_beta 156.836509
_cell_angle_gamma 90.000000
_cell_volume 1663.163369
_symmetry_space_group_name_H-M "C 2/M"
_symmetry_group_IT_number 12
_symmetry_cell_setting 'monoclinic'
loop_
_space_group_symop_operation_xyz
x,y,z
-x,y,-z
-x,-y,-z
x,-y,z
1/2+x,1/2+y,z
1/2-x,1/2+y,-z
1/2-x,1/2-y,-z
1/2+x,1/2-y,z
loop_
_atom_site_type_symbol
_atom_site_label
_atom_site_fract_x
_atom_site_fract_y
_atom_site_fract_z
Si Si1 0.465954 0.656237 0.139010
Si Si2 0.678513 0.444397 0.955303
Si Si3 0.186731 0.945310 0.562049
Si Si4 0.527489 0.781480 0.383409
Si Si5 0.682736 0.320803 0.753253
O O1 0.755878 0.686824 0.363452
O O2 0.434237 0.658646 0.237592
O O3 0.471739 0.600105 0.111229
O O4 0.187320 0.683233 0.858724
O O5 0.683387 0.500000 0.002164
O O6 0.002766 0.425255 0.207608
O O7 0.511596 0.447412 0.705933
O O8 0.000000 0.926665 0.500000
O O9 0.266781 0.000000 0.662119
O O10 0.750000 0.750000 0.500000
O O11 0.328807 0.737640 0.254238
O O12 0.500000 0.332384 0.500000
O O13 0.000000 0.338551 0.000000
#
# Coordination Sequence:
#
# PCOD9190692 Si02
#       5
#     8   8   8   8   8
#     4  11  21  35  53  74 105 143 170 202 259 308
#     4  10  20  32  47  69  97 131 174 212 234 280
#     4   9  17  29  42  58  87 128 167 206 248 275
#     4  10  20  37  54  72 102 137 168 206 265 314
#     4  11  21  34  53  78 103 129 170 216 251 300
#
# _framework density 24.050553000000001
#
# number of rings (size 3 to 8) (size 9 to 14) (size 15 to 20)
#    0.000    1.800    0.000    7.800    0.000    4.800 
#    0.000    0.000    0.000    0.000    0.000    0.000 
#    0.000   16.000    0.000    0.000    0.000    0.000 
#
# Total GULP energy -111706.555435 kJ/mol
# GULP energy per Si atom -5585.327772 kJ/mol
# Density = 2.399581 g / cm^3
# Si number density = 24.050553 Si / 1000 Ang^3
#
#
#
# Elastic Constant Matrix: (Units=GPa)
#
#
# Indices 1 2 3 4 5 6 
#
# 1 35.7441 8.6493 9.6349 -0.0007 6.8554 0.0012
# 2 8.6493 196.0281 13.6983 0.0006 -1.6721 -0.0010
# 3 9.6349 13.6983 150.7880 -0.0006 7.3639 0.0009
# 4 -0.0007 0.0006 -0.0006 15.2521 -0.0007 15.5017
# 5 6.8554 -1.6721 7.3639 -0.0007 34.1422 0.0011
# 6 0.0012 -0.0010 0.0009 15.5017 0.0011 15.5839
#
#
#
# Elastic Compliance Matrix: (Units=1/GPa)
#
#
# Indices 1 2 3 4 5 6 
#
# 1 0.029784 -0.001257 -0.001510 -0.000288 -0.005716 0.000284
# 2 -0.001257 0.005191 -0.000420 0.000063 0.000597 -0.000062
# 3 -0.001510 -0.000420 0.006825 -0.000036 -0.001189 0.000035
# 4 -0.000288 0.000063 -0.000036 -5.956568 -0.000249 5.925149
# 5 -0.005716 0.000597 -0.001189 -0.000249 0.030723 0.000246
# 6 0.000284 -0.000062 0.000035 5.925149 0.000246 -5.829727
#
#
# Mechanical properties :
#
#
# Convention : Reuss Voigt Hill
#
# Bulk Modulus (GPa) = 28.22877 49.61391 38.92134
# Shear Modulus (GPa) = -0.42751 36.36748 17.96998
#
# Velocity S-wave (km/s) = -0.42207 3.89283 2.73642
# Velocity P-wave (km/s) = 3.39488 6.39369 5.11881
#
# Compressibility (1/GPa) = 0.03542485
#
# Stress axis : x y z
#
# Youngs Moduli (GPa) = 33.57488 192.63125 146.52924
#
# Poissons Ratio (x) = 0.24222 0.22122
# Poissons Ratio (y) = 0.04222 0.06161
# Poissons Ratio (z) = 0.05069 0.08099
#
# Static dielectric constant tensor:
#      x y z
#    x 1.946910 0.000000 0.001620 
#    y 0.000000 2.019040 0.000000 
#    z 0.001620 0.000000 1.869220 
# 
# From -- ./inp_files/17255.got.cif
#   From: 2010.05.17/outbox.cif.g08.bks.cpg/sg12_9_cif.got.tgz:17255.got - 2010.06.03 13:09:07.
