data_PCOD9190713
_publ_section_title
;
Structure prediction by ZEFSAII (Michael W. Deem and Ramdas Pophale) SiO2 
 PCOD9190713
Probable space group: C 2/M
;
_chemical_formula_sum "Si O2"
_cell_formula_units_Z 48
_cell_length_a 18.514453
_cell_length_b 17.009201
_cell_length_c 9.736296
_cell_angle_alpha 90.000000
_cell_angle_beta 56.985581
_cell_angle_gamma 90.000000
_cell_volume 2571.040832
_symmetry_space_group_name_H-M "C 2/M"
_symmetry_group_IT_number 12
_symmetry_cell_setting 'monoclinic'
loop_
_space_group_symop_operation_xyz
x,y,z
-x,y,-z
-x,-y,-z
x,-y,z
1/2+x,1/2+y,z
1/2-x,1/2+y,-z
1/2-x,1/2-y,-z
1/2+x,1/2-y,z
loop_
_atom_site_type_symbol
_atom_site_label
_atom_site_fract_x
_atom_site_fract_y
_atom_site_fract_z
Si Si1 0.944129 0.665806 0.684287
Si Si2 0.366104 0.323524 0.630735
Si Si3 0.094585 0.088456 0.150218
Si Si4 0.281473 0.265208 0.312618
Si Si5 0.957085 0.216481 0.251520
Si Si6 0.226293 0.410487 0.193923
O O1 0.905510 0.747549 0.665941
O O2 0.861579 0.611841 0.794407
O O3 0.000000 0.631740 0.500000
O O4 0.003744 0.698917 0.744246
O O5 0.393683 0.394210 0.699549
O O6 0.264406 0.304680 0.724982
O O7 0.408284 0.320490 0.436580
O O8 0.031835 0.153270 0.149049
O O9 0.063174 0.000000 0.158665
O O10 0.189622 0.096663 0.987994
O O11 0.250000 0.250000 0.500000
O O12 0.384187 0.271340 0.212730
O O13 0.241411 0.346406 0.297718
O O14 0.221141 0.500000 0.249887
#
# Coordination Sequence:
#
# PCOD9190713 Si02
#       6
#     8   8   8   8   8   8
#     4   8  15  30  50  70  90 118 164 208 240 283
#     4   8  16  31  51  72  97 131 167 203 238 282
#     4  10  20  32  47  72 104 134 165 201 244 295
#     4   9  18  34  52  71  98 127 162 205 247 294
#     4   9  17  30  51  76  98 127 165 206 244 285
#     4  10  21  34  49  72 102 132 161 201 252 298
#
# _framework density 18.669481999999999
#
# number of rings (size 3 to 8) (size 9 to 14) (size 15 to 20)
#    0.000    3.000    0.000    2.500    0.000    9.000 
#    0.000    4.167    0.000    1.000    0.000    2.333 
#    0.000    0.000    0.000    1.000    0.000    0.000 
#
# Total GULP energy -133601.601680 kJ/mol
# GULP energy per Si atom -5566.733403 kJ/mol
# Density = 1.862699 g / cm^3
# Si number density = 18.669482 Si / 1000 Ang^3
#
#
#
# Elastic Constant Matrix: (Units=GPa)
#
#
# Indices 1 2 3 4 5 6 
#
# 1 110.7949 28.2137 18.9338 0.0000 -32.3556 0.0000
# 2 28.2137 56.4088 25.6456 0.0000 -15.7262 0.0000
# 3 18.9338 25.6456 39.1990 0.0000 -13.0066 0.0000
# 4 0.0000 0.0000 0.0000 21.7125 0.0000 1.3529
# 5 -32.3556 -15.7262 -13.0066 0.0000 31.5929 0.0000
# 6 0.0000 0.0000 0.0000 1.3529 0.0000 5.8738
#
#
#
# Elastic Compliance Matrix: (Units=1/GPa)
#
#
# Indices 1 2 3 4 5 6 
#
# 1 0.013402 -0.003172 -0.000426 0.000000 0.011971 0.000000
# 2 -0.003172 0.027261 -0.014916 0.000000 0.004180 0.000000
# 3 -0.000426 -0.014916 0.038067 0.000000 0.007811 0.000000
# 4 0.000000 0.000000 0.000000 0.046727 0.000000 -0.010763
# 5 0.011971 0.004180 0.007811 0.000000 0.049210 0.000000
# 6 0.000000 0.000000 0.000000 -0.010763 0.000000 0.172726
#
#
# Mechanical properties :
#
#
# Convention : Reuss Voigt Hill
#
# Bulk Modulus (GPa) = 23.97961 39.10986 31.54473
# Shear Modulus (GPa) = 12.55265 20.74316 16.64790
#
# Velocity S-wave (km/s) = 2.59581 3.33689 2.98940
# Velocity P-wave (km/s) = 4.67509 5.98669 5.37108
#
# Compressibility (1/GPa) = 0.04170210
#
# Stress axis : x y z
#
# Youngs Moduli (GPa) = 74.61396 36.68216 26.26943
#
# Poissons Ratio (x) = 0.11636 0.01119
# Poissons Ratio (y) = 0.23669 0.39184
# Poissons Ratio (z) = 0.03178 0.54716
#
# Static dielectric constant tensor:
#      x y z
#    x 1.710270 0.000000 -0.030030 
#    y 0.000000 1.624560 0.000000 
#    z -0.030030 0.000000 1.704130 
# 
# From -- ./inp_files/157649.got.cif
#   From: 2010.05.17/outbox.cif.g08.bks.cpg/sg12_79_cif.got.tgz:157649.got - 2010.06.03 13:09:07.
