data_PCOD9190566
_publ_section_title
;
Structure prediction by ZEFSAII (Michael W. Deem and Ramdas Pophale) SiO2 
 PCOD9190566
Probable space group: C 2/M
;
_chemical_formula_sum "Si O2"
_cell_formula_units_Z 64
_cell_length_a 27.996767
_cell_length_b 18.734058
_cell_length_c 11.421578
_cell_angle_alpha 90.000000
_cell_angle_beta 30.286325
_cell_angle_gamma 90.000000
_cell_volume 3021.157528
_symmetry_space_group_name_H-M "C 2/M"
_symmetry_group_IT_number 12
_symmetry_cell_setting 'monoclinic'
loop_
_space_group_symop_operation_xyz
x,y,z
-x,y,-z
-x,-y,-z
x,-y,z
1/2+x,1/2+y,z
1/2-x,1/2+y,-z
1/2-x,1/2-y,-z
1/2+x,1/2-y,z
loop_
_atom_site_type_symbol
_atom_site_label
_atom_site_fract_x
_atom_site_fract_y
_atom_site_fract_z
Si Si1 0.758749 0.078178 0.101275
Si Si2 0.314124 0.844127 0.944796
Si Si3 0.608535 0.860427 0.595070
Si Si4 0.563103 0.663462 0.985993
Si Si5 0.627466 0.736011 0.382775
Si Si6 0.405383 0.827908 0.987279
Si Si7 0.461250 0.629894 0.703517
Si Si8 0.762044 0.664503 0.468682
O O1 0.711678 0.085558 0.073441
O O2 0.676031 0.092681 0.369481
O O3 0.800745 0.000000 0.030705
O O4 0.847268 0.133056 0.926626
O O5 0.345184 0.790781 0.776249
O O6 0.393534 0.838719 0.874395
O O7 0.214659 0.817494 0.207548
O O8 0.618634 0.780767 0.519654
O O9 0.496993 0.872767 0.831121
O O10 0.653749 0.859046 0.625169
O O11 0.664074 0.635097 0.725361
O O12 0.500000 0.666399 0.000000
O O13 0.579495 0.745144 0.001428
O O14 0.531817 0.616913 0.167589
O O15 0.530907 0.697537 0.554295
O O16 0.305153 0.853104 0.252147
O O17 0.500000 0.590894 0.500000
O O18 0.750000 0.750000 0.500000
#
# Coordination Sequence:
#
# PCOD9190566 Si02
#       8
#     8   8   8   8   8   8   8   8
#     4  11  26  45  63  86 124 180 229 268 316 378
#     4  10  22  36  57  90 126 165 205 270 319 387
#     4  11  21  37  58  89 127 168 211 262 323 392
#     4  11  22  35  56  98 142 170 194 253 338 414
#     4  10  20  31  57  88 129 153 199 255 341 390
#     4  11  21  32  57  90 128 161 203 254 327 400
#     4  12  22  38  64  95 125 169 217 268 325 393
#     4  10  20  33  55  89 132 168 198 247 325 404
#
# _framework density 21.183934000000001
#
# number of rings (size 3 to 8) (size 9 to 14) (size 15 to 20)
#    0.000    1.250    3.750    4.125    3.500    1.750 
#    0.000    1.250    0.000    2.625    0.000    0.000 
#    0.000    0.000    0.000    0.000    0.000    0.000 
#
# Total GULP energy -178147.951727 kJ/mol
# GULP energy per Si atom -5567.123491 kJ/mol
# Density = 2.113572 g / cm^3
# Si number density = 21.183934 Si / 1000 Ang^3
#
#
#
# Elastic Constant Matrix: (Units=GPa)
#
#
# Indices 1 2 3 4 5 6 
#
# 1 146.2961 3.2961 19.5072 0.0000 -2.0676 0.0000
# 2 3.2961 29.1330 8.8395 0.0000 -6.3229 0.0000
# 3 19.5072 8.8395 127.5573 0.0000 6.2443 0.0000
# 4 0.0000 0.0000 0.0000 4.2681 0.0000 -0.2325
# 5 -2.0676 -6.3229 6.2443 0.0000 38.7767 0.0000
# 6 0.0000 0.0000 0.0000 -0.2325 0.0000 3.1081
#
#
#
# Elastic Compliance Matrix: (Units=1/GPa)
#
#
# Indices 1 2 3 4 5 6 
#
# 1 0.006993 -0.000362 -0.001068 0.000000 0.000486 0.000000
# 2 -0.000362 0.036603 -0.002794 0.000000 0.006399 0.000000
# 3 -0.001068 -0.002794 0.008287 0.000000 -0.001847 0.000000
# 4 0.000000 0.000000 0.000000 0.235257 0.000000 0.017596
# 5 0.000486 0.006399 -0.001847 0.000000 0.027155 0.000000
# 6 0.000000 0.000000 0.000000 0.017596 0.000000 0.323060
#
#
# Mechanical properties :
#
#
# Convention : Reuss Voigt Hill
#
# Bulk Modulus (GPa) = 23.02321 40.69689 31.86005
# Shear Modulus (GPa) = 7.57253 27.32015 17.44634
#
# Velocity S-wave (km/s) = 1.89273 3.59508 2.87290
# Velocity P-wave (km/s) = 3.95833 6.04034 5.10657
#
# Compressibility (1/GPa) = 0.04343443
#
# Stress axis : x y z
#
# Youngs Moduli (GPa) = 143.00233 27.32018 120.67041
#
# Poissons Ratio (x) = 0.00988 0.12889
# Poissons Ratio (y) = 0.05171 0.33721
# Poissons Ratio (z) = 0.15275 0.07635
#
# Static dielectric constant tensor:
#      x y z
#    x 1.801500 0.000000 0.033050 
#    y 0.000000 1.757900 0.000000 
#    z 0.033050 0.000000 1.818470 
# 
# From -- ./inp_files/184699.got.cif
#   From: 2010.05.17/outbox.cif.g08.bks.cpg/sg12_93_cif.got.tgz:184699.got - 2010.06.03 13:09:07.
