data_PCOD9190693
_publ_section_title
;
Structure prediction by ZEFSAII (Michael W. Deem and Ramdas Pophale) SiO2 
 PCOD9190693
Probable space group: C 2/M
;
_chemical_formula_sum "Si O2"
_cell_formula_units_Z 64
_cell_length_a 25.547395
_cell_length_b 9.450918
_cell_length_c 16.593020
_cell_angle_alpha 90.000000
_cell_angle_beta 73.958960
_cell_angle_gamma 90.000000
_cell_volume 3850.333704
_symmetry_space_group_name_H-M "C 2/M"
_symmetry_group_IT_number 12
_symmetry_cell_setting 'monoclinic'
loop_
_space_group_symop_operation_xyz
x,y,z
-x,y,-z
-x,-y,-z
x,-y,z
1/2+x,1/2+y,z
1/2-x,1/2+y,-z
1/2-x,1/2-y,-z
1/2+x,1/2-y,z
loop_
_atom_site_type_symbol
_atom_site_label
_atom_site_fract_x
_atom_site_fract_y
_atom_site_fract_z
Si Si1 0.931883 0.668196 0.183961
Si Si2 0.875148 0.668065 0.727565
Si Si3 0.436066 0.833452 0.534335
Si Si4 0.065996 0.162120 0.976810
Si Si5 0.718506 0.333227 0.313478
Si Si6 0.843176 0.167369 0.491474
Si Si7 0.940427 0.669703 0.859941
Si Si8 0.330040 0.168750 0.336190
O O1 0.928805 0.500000 0.167722
O O2 0.916477 0.755592 0.110911
O O3 0.888967 0.698491 0.272735
O O4 0.994869 0.699194 0.179407
O O5 0.865372 0.500000 0.735371
O O6 0.914607 0.693373 0.634014
O O7 0.819036 0.747104 0.731746
O O8 0.905768 0.710394 0.796244
O O9 0.500000 0.807375 0.500000
O O10 0.400914 0.736804 0.490214
O O11 0.426049 0.000000 0.520386
O O12 0.085094 0.000000 0.970929
O O13 0.078894 0.247594 0.052546
O O14 0.000000 0.159914 0.000000
O O15 0.713300 0.500000 0.298390
O O16 0.694242 0.309167 0.413792
O O17 0.782026 0.296220 0.293496
O O18 0.821969 0.245547 0.421441
O O19 0.847325 0.000000 0.476451
O O20 0.935626 0.500000 0.873951
O O21 0.326068 0.000000 0.354196
#
# Coordination Sequence:
#
# PCOD9190693 Si02
#       8
#     8   8   8   8   8   8   8   8
#     4   9  18  31  50  74  99 125 155 197 244 285
#     4   9  18  31  49  73  95 124 164 203 239 283
#     4   9  18  31  49  68  95 131 165 202 241 284
#     4   9  17  30  48  71 101 130 155 185 233 294
#     4   9  19  35  50  68  96 130 167 205 245 286
#     4  10  20  32  47  69  98 130 165 204 247 289
#     4   9  17  30  50  74  99 124 158 196 234 287
#     4  10  20  33  52  73  95 127 167 207 243 286
#
# _framework density 16.621936000000002
#
# number of rings (size 3 to 8) (size 9 to 14) (size 15 to 20)
#    0.000    2.750    0.000    1.125    1.750    3.750 
#    0.000    0.000    0.000    0.750    0.000    0.000 
#    0.000    0.000    0.000    0.000    0.000    0.000 
#
# Total GULP energy -178368.727271 kJ/mol
# GULP energy per Si atom -5574.022727 kJ/mol
# Density = 1.658410 g / cm^3
# Si number density = 16.621936 Si / 1000 Ang^3
#
#
#
# Elastic Constant Matrix: (Units=GPa)
#
#
# Indices 1 2 3 4 5 6 
#
# 1 67.6154 34.6169 33.4795 0.0000 25.5396 0.0000
# 2 34.6169 40.6708 38.2997 0.0000 17.0006 0.0000
# 3 33.4795 38.2997 58.9452 0.0000 29.7178 0.0000
# 4 0.0000 0.0000 0.0000 20.7689 0.0000 7.3079
# 5 25.5396 17.0006 29.7178 0.0000 26.0114 0.0000
# 6 0.0000 0.0000 0.0000 7.3079 0.0000 22.7451
#
#
#
# Elastic Compliance Matrix: (Units=1/GPa)
#
#
# Indices 1 2 3 4 5 6 
#
# 1 0.036072 -0.034597 0.019923 0.000000 -0.035568 0.000000
# 2 -0.034597 0.098532 -0.068466 0.000000 0.047793 0.000000
# 3 0.019923 -0.068466 0.088295 0.000000 -0.075689 0.000000
# 4 0.000000 0.000000 0.000000 0.054286 0.000000 -0.017442
# 5 -0.035568 0.047793 -0.075689 0.000000 0.128605 0.000000
# 6 0.000000 0.000000 0.000000 -0.017442 0.000000 0.049569
#
#
# Mechanical properties :
#
#
# Convention : Reuss Voigt Hill
#
# Bulk Modulus (GPa) = 17.66197 42.22485 29.94341
# Shear Modulus (GPa) = 7.80625 17.96077 12.88351
#
# Velocity S-wave (km/s) = 2.16946 3.29073 2.78707
# Velocity P-wave (km/s) = 4.11390 6.31639 5.33015
#
# Compressibility (1/GPa) = 0.05661881
#
# Stress axis : x y z
#
# Youngs Moduli (GPa) = 27.72261 10.14898 11.32569
#
# Poissons Ratio (x) = 0.35112 -0.22564
# Poissons Ratio (y) = 0.95911 0.77543
# Poissons Ratio (z) = -0.55232 0.69486
#
# Static dielectric constant tensor:
#      x y z
#    x 1.553460 0.000000 -0.002930 
#    y 0.000000 1.554930 0.000000 
#    z -0.002930 0.000000 1.543810 
# 
# From -- ./inp_files/244008.got.cif
#   From: 2010.05.17/outbox.cif.g08.bks.cpg/sg12_123_cif.got.tgz:244008.got - 2010.06.03 13:09:07.
