data_PCOD9190447
_publ_section_title
;
Structure prediction by ZEFSAII (Michael W. Deem and Ramdas Pophale) SiO2 
 PCOD9190447
Probable space group: C 2/M
;
_chemical_formula_sum "Si O2"
_cell_formula_units_Z 64
_cell_length_a 39.396084
_cell_length_b 7.388985
_cell_length_c 20.188745
_cell_angle_alpha 90.000000
_cell_angle_beta 155.938173
_cell_angle_gamma 90.000000
_cell_volume 2396.136309
_symmetry_space_group_name_H-M "C 2/M"
_symmetry_group_IT_number 12
_symmetry_cell_setting 'monoclinic'
loop_
_space_group_symop_operation_xyz
x,y,z
-x,y,-z
-x,-y,-z
x,-y,z
1/2+x,1/2+y,z
1/2-x,1/2+y,-z
1/2-x,1/2-y,-z
1/2+x,1/2-y,z
loop_
_atom_site_type_symbol
_atom_site_label
_atom_site_fract_x
_atom_site_fract_y
_atom_site_fract_z
Si Si1 0.998115 0.215968 0.785057
Si Si2 0.372500 0.215537 0.084775
Si Si3 0.811298 0.781146 0.205871
Si Si4 0.364001 0.279920 0.438726
Si Si5 0.056588 0.707843 0.658386
Si Si6 0.083757 0.707508 0.120288
Si Si7 0.228876 0.720497 0.297397
Si Si8 0.633861 0.718087 0.348434
O O1 0.089149 0.258746 0.919618
O O2 0.935768 0.283745 0.615897
O O3 0.954424 0.276502 0.775196
O O4 0.992223 0.000000 0.776182
O O5 0.433657 0.289809 0.251376
O O6 0.368748 0.000000 0.087158
O O7 0.280523 0.282113 0.937598
O O8 0.868270 0.726003 0.370269
O O9 0.851223 0.709538 0.210002
O O10 0.811145 0.000000 0.201592
O O11 0.365157 0.500000 0.442161
O O12 0.275544 0.225145 0.313600
O O13 0.029593 0.500000 0.617526
O O14 0.000000 0.794193 0.500000
O O15 0.064665 0.500000 0.069145
O O16 0.138274 0.788291 0.158140
O O17 0.141791 0.706516 0.289255
O O18 0.000000 0.795614 0.000000
O O19 0.223769 0.500000 0.287414
O O20 0.294402 0.770011 0.472216
O O21 0.634925 0.500000 0.345782
#
# Coordination Sequence:
#
# PCOD9190447 Si02
#       8
#     8   8   8   8   8   8   8   8
#     4   9  18  33  53  74  94 124 166 203 240 290
#     4  10  21  34  49  74 104 131 161 200 248 295
#     4  10  20  33  52  77 100 126 163 203 244 292
#     4   8  15  30  51  72  94 123 162 205 243 284
#     4  10  21  36  52  71 100 136 168 202 247 292
#     4  10  20  31  47  74 102 129 163 201 245 294
#     4   8  15  30  50  70  95 127 162 200 242 290
#     4   9  18  33  52  71  94 128 166 202 241 287
#
# _framework density 26.709665999999999
#
# number of rings (size 3 to 8) (size 9 to 14) (size 15 to 20)
#    0.000    2.750    0.000    3.000    0.000    3.000 
#    0.000    2.500    0.000    2.250    0.000    0.000 
#    0.000    0.000    0.000    0.000    0.000    0.000 
#
# Total GULP energy -178970.847513 kJ/mol
# GULP energy per Si atom -5592.838985 kJ/mol
# Density = 2.664887 g / cm^3
# Si number density = 26.709666 Si / 1000 Ang^3
#
#
#
# Elastic Constant Matrix: (Units=GPa)
#
#
# Indices 1 2 3 4 5 6 
#
# 1 161.0734 -0.3635 19.6201 0.0000 24.3041 0.0000
# 2 -0.3635 108.4267 6.4938 0.0000 -1.9703 0.0000
# 3 19.6201 6.4938 67.6622 0.0000 22.6184 0.0000
# 4 0.0000 0.0000 0.0000 -4.9948 0.0000 -1.2631
# 5 24.3041 -1.9703 22.6184 0.0000 59.2459 0.0000
# 6 0.0000 0.0000 0.0000 -1.2631 0.0000 14.8129
#
#
#
# Elastic Compliance Matrix: (Units=1/GPa)
#
#
# Indices 1 2 3 4 5 6 
#
# 1 0.006699 0.000051 -0.001180 0.000000 -0.002296 0.000000
# 2 0.000051 0.009305 -0.001151 0.000000 0.000728 0.000000
# 3 -0.001180 -0.001151 0.017289 0.000000 -0.006155 0.000000
# 4 0.000000 0.000000 0.000000 -0.195983 0.000000 -0.016711
# 5 -0.002296 0.000728 -0.006155 0.000000 0.020195 0.000000
# 6 0.000000 0.000000 0.000000 -0.016711 0.000000 0.066084
#
#
# Mechanical properties :
#
#
# Convention : Reuss Voigt Hill
#
# Bulk Modulus (GPa) = 34.80241 43.18477 38.99359
# Shear Modulus (GPa) = -80.29078 34.57359 -22.85859
#
# Velocity S-wave (km/s) = -5.48870 3.60171 -2.92861
# Velocity P-wave (km/s) = 5.20669 5.78790 1.78748
#
# Compressibility (1/GPa) = 0.02873364
#
# Stress axis : x y z
#
# Youngs Moduli (GPa) = 149.28510 107.46714 57.83886
#
# Poissons Ratio (x) = -0.00552 0.06824
# Poissons Ratio (y) = -0.00767 0.06659
# Poissons Ratio (z) = 0.17614 0.12372
#
# Static dielectric constant tensor:
#      x y z
#    x 2.023900 0.000000 0.018640 
#    y 0.000000 1.998440 0.000000 
#    z 0.018640 0.000000 2.196110 
# 
# From -- ./inp_files/296488.got.cif
#   From: 2010.05.17/outbox.cif.g08.bks.cpg/sg12_149_cif.got.tgz:296488.got - 2010.06.03 13:09:07.
