data_PCOD9190179
_publ_section_title
;
Structure prediction by ZEFSAII (Michael W. Deem and Ramdas Pophale) SiO2 
 PCOD9190179
Probable space group: C 2/M
;
_chemical_formula_sum "Si O2"
_cell_formula_units_Z 36
_cell_length_a 11.181329
_cell_length_b 22.851306
_cell_length_c 5.722047
_cell_angle_alpha 90.000000
_cell_angle_beta 88.983085
_cell_angle_gamma 90.000000
_cell_volume 1461.798345
_symmetry_space_group_name_H-M "C 2/M"
_symmetry_group_IT_number 12
_symmetry_cell_setting 'monoclinic'
loop_
_space_group_symop_operation_xyz
x,y,z
-x,y,-z
-x,-y,-z
x,-y,z
1/2+x,1/2+y,z
1/2-x,1/2+y,-z
1/2-x,1/2-y,-z
1/2+x,1/2-y,z
loop_
_atom_site_type_symbol
_atom_site_label
_atom_site_fract_x
_atom_site_fract_y
_atom_site_fract_z
Si Si1 0.728617 0.500000 0.247308
Si Si2 0.500000 0.214139 0.000000
Si Si3 0.139559 0.119230 0.042856
Si Si4 0.200915 0.294153 0.689253
Si Si5 0.366064 0.000000 0.746890
Si Si6 0.642768 0.122785 0.303111
O O1 0.657857 0.560801 0.201814
O O2 0.782796 0.500000 0.509409
O O3 0.816508 0.500000 0.016093
O O4 0.405000 0.240885 0.178569
O O5 0.585651 0.172484 0.147156
O O6 0.193744 0.176839 0.165243
O O7 0.224183 0.111495 0.809399
O O8 0.000000 0.125478 0.000000
O O9 0.250000 0.250000 0.500000
O O10 0.146517 0.350755 0.560115
O O11 0.427705 0.062483 0.722723
#
# Coordination Sequence:
#
# PCOD9190179 Si02
#       6
#     4   4   8   8   4   8
#     4  10  19  40  68 103 149 191 233 298 369 438
#     4  10  24  45  72  98 136 181 240 296 360 426
#     4  10  22  41  68 105 141 183 237 293 362 439
#     4  11  24  47  70  96 139 184 238 297 360 427
#     4  10  20  39  74 100 148 188 234 300 362 440
#     4  10  22  44  66 103 138 182 236 291 360 431
#
# _framework density 24.627202
#
# number of rings (size 3 to 8) (size 9 to 14) (size 15 to 20)
#    0.000    1.778    2.222    1.000    0.000    4.889 
#   12.000    5.556    0.000    0.000    0.000    0.000 
#    0.000    0.000    0.000    0.000    0.000    0.000 
#
# Total GULP energy -100576.998371 kJ/mol
# GULP energy per Si atom -5587.611021 kJ/mol
# Density = 2.457115 g / cm^3
# Si number density = 24.627202 Si / 1000 Ang^3
#
#
#
# Elastic Constant Matrix: (Units=GPa)
#
#
# Indices 1 2 3 4 5 6 
#
# 1 119.5933 15.2304 53.7724 0.0000 -24.7593 0.0000
# 2 15.2304 97.5575 22.2146 0.0000 -20.5831 0.0000
# 3 53.7724 22.2146 114.5779 0.0000 -12.9122 0.0000
# 4 0.0000 0.0000 0.0000 5.9098 0.0000 -18.4929
# 5 -24.7593 -20.5831 -12.9122 0.0000 45.6544 0.0000
# 6 0.0000 0.0000 0.0000 -18.4929 0.0000 9.1588
#
#
#
# Elastic Compliance Matrix: (Units=1/GPa)
#
#
# Indices 1 2 3 4 5 6 
#
# 1 0.011581 0.000384 -0.004939 0.000000 0.005056 0.000000
# 2 0.000384 0.011660 -0.001885 0.000000 0.004932 0.000000
# 3 -0.004939 -0.001885 0.011376 0.000000 -0.000311 0.000000
# 4 0.000000 0.000000 0.000000 -0.031817 0.000000 -0.064243
# 5 0.005056 0.004932 -0.000311 0.000000 0.026781 0.000000
# 6 0.000000 0.000000 0.000000 -0.064243 0.000000 -0.020530
#
#
# Mechanical properties :
#
#
# Convention : Reuss Voigt Hill
#
# Bulk Modulus (GPa) = 46.00768 57.12929 51.56849
# Shear Modulus (GPa) = 171.36257 28.17868 99.77063
#
# Velocity S-wave (km/s) = 8.35067 3.38629 6.37184
# Velocity P-wave (km/s) = 10.56884 6.20784 8.66711
#
# Compressibility (1/GPa) = 0.02173550
#
# Stress axis : x y z
#
# Youngs Moduli (GPa) = 86.35195 85.76146 87.90284
#
# Poissons Ratio (x) = -0.03290 0.43419
# Poissons Ratio (y) = -0.03313 0.16569
# Poissons Ratio (z) = 0.42653 0.16166
#
# Static dielectric constant tensor:
#      x y z
#    x 1.997520 0.000000 -0.006420 
#    y 0.000000 2.027490 0.000000 
#    z -0.006420 0.000000 2.005300 
# 
# From -- ./inp_files/7038.got.cif
#   From: 2010.05.17/outbox.cif.g08.bks.cpg/sg12_4_cif.got.tgz:7038.got - 2010.06.03 13:09:07.
