data_PCOD9190213
_publ_section_title
;
Structure prediction by ZEFSAII (Michael W. Deem and Ramdas Pophale) SiO2 
 PCOD9190213
Probable space group: C 2/M
;
_chemical_formula_sum "Si O2"
_cell_formula_units_Z 48
_cell_length_a 18.982567
_cell_length_b 27.064979
_cell_length_c 8.846790
_cell_angle_alpha 90.000000
_cell_angle_beta 32.451819
_cell_angle_gamma 90.000000
_cell_volume 2438.883681
_symmetry_space_group_name_H-M "C 2/M"
_symmetry_group_IT_number 12
_symmetry_cell_setting 'monoclinic'
loop_
_space_group_symop_operation_xyz
x,y,z
-x,y,-z
-x,-y,-z
x,-y,z
1/2+x,1/2+y,z
1/2-x,1/2+y,-z
1/2-x,1/2-y,-z
1/2+x,1/2-y,z
loop_
_atom_site_type_symbol
_atom_site_label
_atom_site_fract_x
_atom_site_fract_y
_atom_site_fract_z
Si Si1 0.035956 0.146852 0.257909
Si Si2 0.084082 0.238304 0.996368
Si Si3 0.976980 0.667634 0.716297
Si Si4 0.250386 0.672572 0.676592
Si Si5 0.113581 0.943511 0.920133
Si Si6 0.119897 0.597648 0.681444
O O1 0.898892 0.157818 0.421058
O O2 0.000000 0.147623 0.500000
O O3 0.119387 0.192917 0.041647
O O4 0.094168 0.096050 0.088993
O O5 0.001745 0.279839 0.238538
O O6 0.213169 0.270284 0.723081
O O7 0.000000 0.224996 0.000000
O O8 0.059010 0.624184 0.645387
O O9 0.000000 0.671791 0.500000
O O10 0.824373 0.657672 0.033201
O O11 0.178998 0.641988 0.675547
O O12 0.257131 0.935950 0.585768
O O13 0.099484 0.000000 0.997441
O O14 0.000000 0.934431 0.000000
O O15 0.000000 0.575963 0.000000
#
# Coordination Sequence:
#
# PCOD9190213 Si02
#       6
#     8   8   8   8   8   8
#     4  12  26  39  60  92 126 169 207 257 315 368
#     4  10  20  37  56  91 123 166 208 246 297 369
#     4   9  18  35  59  91 127 161 199 251 300 369
#     4   9  20  39  57  88 127 167 205 245 306 366
#     4  11  25  44  68  92 118 161 217 266 312 372
#     4  10  19  41  67  94 123 164 203 255 315 367
#
# _framework density 19.681135000000001
#
# number of rings (size 3 to 8) (size 9 to 14) (size 15 to 20)
#    1.000    0.833    3.333    1.000    2.333    3.333 
#    0.000    0.000    0.000    0.500    0.000    0.000 
#    0.000    0.000    0.000    0.000    0.000    0.000 
#
# Total GULP energy -133808.996151 kJ/mol
# GULP energy per Si atom -5575.374840 kJ/mol
# Density = 1.963634 g / cm^3
# Si number density = 19.681135 Si / 1000 Ang^3
#
#
#
# Elastic Constant Matrix: (Units=GPa)
#
#
# Indices 1 2 3 4 5 6 
#
# 1 46.9288 8.7696 39.5265 0.0009 11.3296 -0.0003
# 2 8.7696 88.2439 31.4439 0.0008 3.1393 -0.0003
# 3 39.5265 31.4439 93.7976 0.0035 3.1439 -0.0013
# 4 0.0009 0.0008 0.0035 21.2279 -0.0017 -1.0618
# 5 11.3296 3.1393 3.1439 -0.0017 35.4779 0.0006
# 6 -0.0003 -0.0003 -0.0013 -1.0618 0.0006 13.0603
#
#
#
# Elastic Compliance Matrix: (Units=1/GPa)
#
#
# Indices 1 2 3 4 5 6 
#
# 1 0.036885 0.002411 -0.015997 0.000000 -0.010575 0.000000
# 2 0.002411 0.013048 -0.005341 0.000000 -0.001451 0.000000
# 3 -0.015997 -0.005341 0.019063 -0.000002 0.003892 0.000001
# 4 0.000000 0.000000 -0.000002 0.047300 0.000002 0.003845
# 5 -0.010575 -0.001451 0.003892 0.000002 0.031347 -0.000001
# 6 0.000000 0.000000 0.000001 0.003845 -0.000001 0.076881
#
#
# Mechanical properties :
#
#
# Convention : Reuss Voigt Hill
#
# Bulk Modulus (GPa) = 32.11290 43.16116 37.63703
# Shear Modulus (GPa) = 18.33122 23.90190 21.11656
#
# Velocity S-wave (km/s) = 3.05521 3.48869 3.27912
# Velocity P-wave (km/s) = 5.36636 6.18108 5.78807
#
# Compressibility (1/GPa) = 0.03114013
#
# Stress axis : x y z
#
# Youngs Moduli (GPa) = 27.11103 76.64301 52.45856
#
# Poissons Ratio (x) = -0.18478 0.83920
# Poissons Ratio (y) = -0.06536 0.28019
# Poissons Ratio (z) = 0.43370 0.40937
#
# Static dielectric constant tensor:
#      x y z
#    x 1.663560 0.000000 -0.021370 
#    y 0.000000 1.682360 0.000000 
#    z -0.021370 0.000000 1.772790 
# 
# From -- ./inp_files/91201.got.cif
#   From: 2010.05.17/outbox.cif.g08.bks.cpg/sg12_46_cif.got.tgz:91201.got - 2010.06.03 13:09:07.
