data_PCOD9190084
_publ_section_title
;
Structure prediction by ZEFSAII (Michael W. Deem and Ramdas Pophale) SiO2 
 PCOD9190084
Probable space group: C 2/M
;
_chemical_formula_sum "Si O2"
_cell_formula_units_Z 52
_cell_length_a 15.916803
_cell_length_b 8.626424
_cell_length_c 21.975656
_cell_angle_alpha 90.000000
_cell_angle_beta 122.227436
_cell_angle_gamma 90.000000
_cell_volume 2552.507187
_symmetry_space_group_name_H-M "C 2/M"
_symmetry_group_IT_number 12
_symmetry_cell_setting 'monoclinic'
loop_
_space_group_symop_operation_xyz
x,y,z
-x,y,-z
-x,-y,-z
x,-y,z
1/2+x,1/2+y,z
1/2-x,1/2+y,-z
1/2-x,1/2-y,-z
1/2+x,1/2-y,z
loop_
_atom_site_type_symbol
_atom_site_label
_atom_site_fract_x
_atom_site_fract_y
_atom_site_fract_z
Si Si1 0.161611 0.264578 0.666295
Si Si2 0.643619 0.323241 0.330733
Si Si3 0.884076 0.000000 0.446047
Si Si4 0.542482 0.686270 0.829075
Si Si5 0.948071 0.187154 0.917784
Si Si6 0.187262 0.500000 0.421112
Si Si7 0.995684 0.500000 0.571226
Si Si8 0.727602 0.316932 0.826549
O O1 0.264658 0.336340 0.681480
O O2 0.142604 0.140998 0.607059
O O3 0.181767 0.205596 0.741607
O O4 0.060179 0.361103 0.624153
O O5 0.634866 0.500000 0.355008
O O6 0.543980 0.290860 0.253924
O O7 0.661063 0.165857 0.377576
O O8 0.806965 0.000000 0.472204
O O9 0.000000 0.000000 0.500000
O O10 0.553336 0.500000 0.838882
O O11 0.505462 0.746177 0.879881
O O12 0.646888 0.745798 0.843536
O O13 0.833779 0.236650 0.871261
O O14 0.951607 0.000000 0.917893
O O15 0.000000 0.240322 0.000000
O O16 0.118621 0.500000 0.453744
O O17 0.000000 0.500000 0.500000
O O18 0.741604 0.500000 0.841719
#
# Coordination Sequence:
#
# PCOD9190084 Si02
#       8
#     8   8   4   8   8   4   4   8
#     4  11  21  39  68  93 127 168 216 270 323 389
#     4  10  19  39  67  96 126 169 219 277 327 382
#     4  10  22  44  68  94 128 172 212 263 333 398
#     4   9  19  36  59  88 128 164 212 263 320 383
#     4  10  22  40  62  89 127 171 211 258 322 392
#     4  10  24  42  68  96 134 171 221 277 324 394
#     4  12  26  44  62 100 139 169 214 276 330 392
#     4  11  22  38  63  94 122 164 216 268 321 382
#
# _framework density 20.372126999999999
#
# number of rings (size 3 to 8) (size 9 to 14) (size 15 to 20)
#    0.000    1.692    3.077    1.385    1.077    0.923 
#    2.769    8.462    0.000    0.000    0.000    0.000 
#    0.000    0.000    0.000    0.000    0.000    0.000 
#
# Total GULP energy -144929.653850 kJ/mol
# GULP energy per Si atom -5574.217456 kJ/mol
# Density = 2.032576 g / cm^3
# Si number density = 20.372127 Si / 1000 Ang^3
#
#
#
# Elastic Constant Matrix: (Units=GPa)
#
#
# Indices 1 2 3 4 5 6 
#
# 1 186.0157 9.0217 59.6373 0.0000 -6.4000 0.0000
# 2 9.0217 48.5871 -1.3794 0.0000 -9.6158 0.0000
# 3 59.6373 -1.3794 85.1237 0.0000 0.5083 0.0000
# 4 0.0000 0.0000 0.0000 -155.1855 0.0000 31.5812
# 5 -6.4000 -9.6158 0.5083 0.0000 17.9547 0.0000
# 6 0.0000 0.0000 0.0000 31.5812 0.0000 17.8030
#
#
#
# Elastic Compliance Matrix: (Units=1/GPa)
#
#
# Indices 1 2 3 4 5 6 
#
# 1 0.007104 -0.001043 -0.005007 0.000000 0.002116 0.000000
# 2 -0.001043 0.023182 0.001034 0.000000 0.012015 0.000000
# 3 -0.005007 0.001034 0.015282 0.000000 -0.001663 0.000000
# 4 0.000000 0.000000 0.000000 -0.004735 0.000000 0.008399
# 5 0.002116 0.012015 -0.001663 0.000000 0.062931 0.000000
# 6 0.000000 0.000000 0.000000 0.008399 0.000000 0.041271
#
#
# Mechanical properties :
#
#
# Convention : Reuss Voigt Hill
#
# Bulk Modulus (GPa) = 28.13834 50.47619 39.30727
# Shear Modulus (GPa) = 29.95565 -7.05576 11.44995
#
# Velocity S-wave (km/s) = 3.83877 -1.86305 2.37331
# Velocity P-wave (km/s) = 5.78709 4.49477 5.18138
#
# Compressibility (1/GPa) = 0.03553870
#
# Stress axis : x y z
#
# Youngs Moduli (GPa) = 140.75618 43.13624 65.43598
#
# Poissons Ratio (x) = 0.04497 0.32763
# Poissons Ratio (y) = 0.14675 -0.06768
# Poissons Ratio (z) = 0.70475 -0.04462
#
# Static dielectric constant tensor:
#      x y z
#    x 1.757410 0.000000 -0.006400 
#    y 0.000000 1.658330 0.000000 
#    z -0.006400 0.000000 1.683660 
# 
# From -- ./inp_files/338276.got.cif
#   From: 2010.05.17/outbox.cif.g08.bks.cpg/sg12_170_cif.got.tgz:338276.got - 2010.06.03 13:09:07.
