data_PCOD9190227
_publ_section_title
;
Structure prediction by ZEFSAII (Michael W. Deem and Ramdas Pophale) SiO2 
 PCOD9190227
Probable space group: C 2/M
;
_chemical_formula_sum "Si O2"
_cell_formula_units_Z 44
_cell_length_a 16.604648
_cell_length_b 25.992398
_cell_length_c 6.669522
_cell_angle_alpha 90.000000
_cell_angle_beta 130.565559
_cell_angle_gamma 90.000000
_cell_volume 2186.710738
_symmetry_space_group_name_H-M "C 2/M"
_symmetry_group_IT_number 12
_symmetry_cell_setting 'monoclinic'
loop_
_space_group_symop_operation_xyz
x,y,z
-x,y,-z
-x,-y,-z
x,-y,z
1/2+x,1/2+y,z
1/2-x,1/2+y,-z
1/2-x,1/2-y,-z
1/2+x,1/2-y,z
loop_
_atom_site_type_symbol
_atom_site_label
_atom_site_fract_x
_atom_site_fract_y
_atom_site_fract_z
Si Si1 0.000000 0.388339 0.000000
Si Si2 0.282003 0.643792 0.993400
Si Si3 0.710492 0.058794 0.194117
Si Si4 0.889718 0.094031 0.786392
Si Si5 0.149052 0.807428 0.506380
Si Si6 0.358869 0.192373 0.566574
O O1 0.904107 0.424069 0.913705
O O2 0.949509 0.348879 0.757759
O O3 0.347352 0.614346 0.929110
O O4 0.197148 0.676689 0.731234
O O5 0.236932 0.599301 0.063258
O O6 0.342192 0.681597 0.243647
O O7 0.797827 0.065808 0.512352
O O8 0.711636 0.000000 0.127539
O O9 0.912888 0.145434 0.692997
O O10 0.000000 0.065296 0.000000
O O11 0.267189 0.810588 0.592546
O O12 0.105170 0.751316 0.385946
#
# Coordination Sequence:
#
# PCOD9190227 Si02
#       6
#     4   8   8   8   8   8
#     4  12  21  44  60  94 132 166 207 256 308 382
#     4  10  19  42  61  92 122 165 215 258 308 377
#     4  11  25  44  64  89 123 167 216 268 320 371
#     4  10  22  42  65  91 127 159 209 267 318 374
#     4   9  19  37  60  92 127 169 205 247 303 375
#     4  10  20  36  61  89 133 168 204 251 304 367
#
# _framework density 20.121545999999999
#
# number of rings (size 3 to 8) (size 9 to 14) (size 15 to 20)
#    0.000    1.818    5.455    0.818    1.273    4.727 
#    0.000    3.636    0.000    0.000    0.000    0.000 
#    0.000    0.000    0.000    0.000    0.000    0.000 
#
# Total GULP energy -122785.637622 kJ/mol
# GULP energy per Si atom -5581.165346 kJ/mol
# Density = 2.007575 g / cm^3
# Si number density = 20.121546 Si / 1000 Ang^3
#
#
#
# Elastic Constant Matrix: (Units=GPa)
#
#
# Indices 1 2 3 4 5 6 
#
# 1 30.4546 -8.6971 24.4563 0.0000 2.9454 0.0000
# 2 -8.6971 61.2976 -28.6296 0.0000 -0.7187 0.0000
# 3 24.4563 -28.6296 63.9987 0.0000 -12.0803 0.0000
# 4 0.0000 0.0000 0.0000 8.2483 0.0000 -2.7001
# 5 2.9454 -0.7187 -12.0803 0.0000 34.7194 0.0000
# 6 0.0000 0.0000 0.0000 -2.7001 0.0000 -7.2064
#
#
#
# Elastic Compliance Matrix: (Units=1/GPa)
#
#
# Indices 1 2 3 4 5 6 
#
# 1 0.052462 -0.004068 -0.024321 0.000000 -0.012997 0.000000
# 2 -0.004068 0.021442 0.012089 0.000000 0.004995 0.000000
# 3 -0.024321 0.012089 0.032927 0.000000 0.013770 0.000000
# 4 0.000000 0.000000 0.000000 0.107992 0.000000 -0.040463
# 5 -0.012997 0.004995 0.013770 0.000000 0.034799 0.000000
# 6 0.000000 0.000000 0.000000 -0.040463 0.000000 -0.123604
#
#
# Mechanical properties :
#
#
# Convention : Reuss Voigt Hill
#
# Bulk Modulus (GPa) = 13.47151 14.44556 13.95854
# Shear Modulus (GPa) = 27.26879 18.39367 22.83123
#
# Velocity S-wave (km/s) = 3.68530 3.02673 3.37213
# Velocity P-wave (km/s) = 4.98179 4.40563 4.70254
#
# Compressibility (1/GPa) = 0.07423072
#
# Stress axis : x y z
#
# Youngs Moduli (GPa) = 19.06157 46.63815 30.37065
#
# Poissons Ratio (x) = 0.18973 0.73864
# Poissons Ratio (y) = 0.07755 -0.36716
# Poissons Ratio (z) = 0.46359 -0.56383
#
# Static dielectric constant tensor:
#      x y z
#    x 1.741730 0.000000 0.021950 
#    y 0.000000 1.683480 0.000000 
#    z 0.021950 0.000000 1.729700 
# 
# From -- ./inp_files/17817.got.cif
#   From: 2010.05.17/outbox.cif.g08.bks.cpg/sg12_9_cif.got.tgz:17817.got - 2010.06.03 13:09:07.
