data_PCOD9190609
_publ_section_title
;
Structure prediction by ZEFSAII (Michael W. Deem and Ramdas Pophale) SiO2 
 PCOD9190609
Probable space group: C 2/M
;
_chemical_formula_sum "Si O2"
_cell_formula_units_Z 56
_cell_length_a 27.848191
_cell_length_b 8.132791
_cell_length_c 15.098480
_cell_angle_alpha 90.000000
_cell_angle_beta 77.092227
_cell_angle_gamma 90.000000
_cell_volume 3333.147723
_symmetry_space_group_name_H-M "C 2/M"
_symmetry_group_IT_number 12
_symmetry_cell_setting 'monoclinic'
loop_
_space_group_symop_operation_xyz
x,y,z
-x,y,-z
-x,-y,-z
x,-y,z
1/2+x,1/2+y,z
1/2-x,1/2+y,-z
1/2-x,1/2-y,-z
1/2+x,1/2-y,z
loop_
_atom_site_type_symbol
_atom_site_label
_atom_site_fract_x
_atom_site_fract_y
_atom_site_fract_z
Si Si1 0.682747 0.698551 0.095775
Si Si2 0.356971 0.693285 0.444813
Si Si3 0.868977 0.199300 0.711275
Si Si4 0.179731 0.310047 0.717019
Si Si5 0.707418 0.197047 0.896083
Si Si6 0.555409 0.299620 0.463853
Si Si7 0.217127 0.689351 0.384164
O O1 0.684130 0.500000 0.091595
O O2 0.641064 0.747969 0.183354
O O3 0.736230 0.755959 0.111290
O O4 0.678630 0.761989 0.997741
O O5 0.352231 0.500000 0.464911
O O6 0.354322 0.724008 0.341671
O O7 0.406581 0.750819 0.474105
O O8 0.310436 0.776588 0.512259
O O9 0.918724 0.247974 0.639639
O O10 0.824246 0.270498 0.671846
O O11 0.865613 0.000000 0.708174
O O12 0.164835 0.500000 0.727711
O O13 0.183712 0.239416 0.814891
O O14 0.235358 0.296819 0.656558
O O15 0.710566 0.000000 0.885132
O O16 0.500000 0.239035 0.500000
O O17 0.553668 0.500000 0.466060
O O18 0.232626 0.500000 0.373653
#
# Coordination Sequence:
#
# PCOD9190609 Si02
#       7
#     8   8   8   8   8   8   8
#     4   9  16  28  43  62  88 119 152 185 222 258
#     4  10  20  32  46  65  90 117 150 186 223 268
#     4   9  16  29  47  67  93 121 150 186 226 267
#     4  11  20  32  45  61  90 123 155 185 222 263
#     4   9  18  29  42  60  87 121 153 186 220 255
#     4   8  15  29  50  72  91 113 143 182 228 274
#     4  11  20  29  43  64  90 122 157 185 217 260
#
# _framework density 16.800934000000002
#
# number of rings (size 3 to 8) (size 9 to 14) (size 15 to 20)
#    0.000    2.429    1.429    3.429    0.000    1.714 
#    0.000    0.000    0.000   10.714    0.000    1.000 
#    0.000    8.000    0.000    0.000    0.000    0.000 
#
# Total GULP energy -156072.412522 kJ/mol
# GULP energy per Si atom -5574.014733 kJ/mol
# Density = 1.676269 g / cm^3
# Si number density = 16.800934 Si / 1000 Ang^3
#
#
#
# Elastic Constant Matrix: (Units=GPa)
#
#
# Indices 1 2 3 4 5 6 
#
# 1 62.3617 -2.3722 51.8481 0.0000 -6.4191 0.0000
# 2 -2.3722 14.2189 2.2379 0.0000 -0.6164 0.0000
# 3 51.8481 2.2379 152.1479 0.0000 6.2325 0.0000
# 4 0.0000 0.0000 0.0000 21.9513 0.0000 2.1183
# 5 -6.4191 -0.6164 6.2325 0.0000 16.2390 0.0000
# 6 0.0000 0.0000 0.0000 2.1183 0.0000 9.2383
#
#
#
# Elastic Compliance Matrix: (Units=1/GPa)
#
#
# Indices 1 2 3 4 5 6 
#
# 1 0.025474 0.006323 -0.009343 0.000000 0.013896 0.000000
# 2 0.006323 0.072218 -0.003486 0.000000 0.006579 0.000000
# 3 -0.009343 -0.003486 0.010124 0.000000 -0.007711 0.000000
# 4 0.000000 0.000000 0.000000 0.046586 0.000000 -0.010682
# 5 0.013896 0.006579 -0.007711 0.000000 0.070282 0.000000
# 6 0.000000 0.000000 0.000000 -0.010682 0.000000 0.110694
#
#
# Mechanical properties :
#
#
# Convention : Reuss Voigt Hill
#
# Bulk Modulus (GPa) = 10.54828 36.90625 23.72726
# Shear Modulus (GPa) = 13.15816 21.28671 17.22243
#
# Velocity S-wave (km/s) = 2.80157 3.56335 3.20517
# Velocity P-wave (km/s) = 4.09354 6.24055 5.27738
#
# Compressibility (1/GPa) = 0.09480221
#
# Stress axis : x y z
#
# Youngs Moduli (GPa) = 39.25523 13.84700 98.77886
#
# Poissons Ratio (x) = -0.08755 0.92291
# Poissons Ratio (y) = -0.24820 0.34438
# Poissons Ratio (z) = 0.36677 0.04828
#
# Static dielectric constant tensor:
#      x y z
#    x 1.545040 0.000000 0.010640 
#    y 0.000000 1.617580 0.000000 
#    z 0.010640 0.000000 1.606650 
# 
# From -- ./inp_files/243011.got.cif
#   From: 2010.05.17/outbox.cif.g08.bks.cpg/sg12_122_cif.got.tgz:243011.got - 2010.06.03 13:09:07.
