data_PCOD9190262
_publ_section_title
;
Structure prediction by ZEFSAII (Michael W. Deem and Ramdas Pophale) SiO2 
 PCOD9190262
Probable space group: C 2/M
;
_chemical_formula_sum "Si O2"
_cell_formula_units_Z 64
_cell_length_a 20.899239
_cell_length_b 25.448208
_cell_length_c 8.195827
_cell_angle_alpha 90.000000
_cell_angle_beta 90.295938
_cell_angle_gamma 90.000000
_cell_volume 4358.877539
_symmetry_space_group_name_H-M "C 2/M"
_symmetry_group_IT_number 12
_symmetry_cell_setting 'monoclinic'
loop_
_space_group_symop_operation_xyz
x,y,z
-x,y,-z
-x,-y,-z
x,-y,z
1/2+x,1/2+y,z
1/2-x,1/2+y,-z
1/2-x,1/2-y,-z
1/2+x,1/2-y,z
loop_
_atom_site_type_symbol
_atom_site_label
_atom_site_fract_x
_atom_site_fract_y
_atom_site_fract_z
Si Si1 0.803170 0.239369 0.865041
Si Si2 0.883767 0.558527 0.794718
Si Si3 0.480189 0.805891 0.763219
Si Si4 0.842326 0.442324 0.169281
Si Si5 0.647291 0.171015 0.365704
Si Si6 0.593970 0.775777 0.929180
Si Si7 0.979889 0.419991 0.313055
Si Si8 0.204202 0.665803 0.723543
O O1 0.814054 0.291958 0.758752
O O2 0.772240 0.193297 0.757973
O O3 0.750000 0.250000 0.000000
O O4 0.869685 0.231353 0.964574
O O5 0.864276 0.500000 0.732451
O O6 0.862577 0.610499 0.693597
O O7 0.961095 0.559349 0.793191
O O8 0.858684 0.563897 0.978214
O O9 0.423991 0.802615 0.629446
O O10 0.534232 0.763331 0.809881
O O11 0.519287 0.857686 0.718760
O O12 0.438244 0.811882 0.929492
O O13 0.814255 0.500000 0.194993
O O14 0.910174 0.439529 0.265359
O O15 0.798482 0.394875 0.226847
O O16 0.681877 0.171586 0.538050
O O17 0.649184 0.805851 0.832189
O O18 0.000000 0.430885 0.500000
#
# Coordination Sequence:
#
# PCOD9190262 Si02
#       8
#     8   8   8   8   8   8   8   8
#     4   9  18  32  46  60  77 107 143 176 213 258
#     4  10  21  32  41  56  81 113 148 178 213 256
#     4   9  17  27  41  59  83 106 140 170 216 258
#     4  11  21  31  43  57  78 113 148 179 213 255
#     4  10  20  29  45  65  83 109 137 184 223 252
#     4   9  17  28  44  59  77 109 137 176 212 256
#     4  11  20  27  39  58  82 110 142 183 219 248
#     4  11  19  30  45  61  84 105 143 183 219 257
#
# _framework density 14.682679
#
# number of rings (size 3 to 8) (size 9 to 14) (size 15 to 20)
#    0.000    2.000    1.250    5.625    3.500    3.500 
#    0.000    0.000    0.000    0.000    0.000    0.000 
#    0.000    0.000    0.000    9.000    0.000   12.750 
#
# Total GULP energy -178150.658254 kJ/mol
# GULP energy per Si atom -5567.208070 kJ/mol
# Density = 1.464926 g / cm^3
# Si number density = 14.682679 Si / 1000 Ang^3
#
#
#
# Elastic Constant Matrix: (Units=GPa)
#
#
# Indices 1 2 3 4 5 6 
#
# 1 63.4756 48.4714 28.3805 0.0000 18.9141 0.0000
# 2 48.4714 77.5996 28.0942 0.0000 14.0097 0.0000
# 3 28.3805 28.0942 54.3942 0.0000 18.3962 0.0000
# 4 0.0000 0.0000 0.0000 4.5817 0.0000 4.8224
# 5 18.9141 14.0097 18.3962 0.0000 26.4723 0.0000
# 6 0.0000 0.0000 0.0000 4.8224 0.0000 10.7175
#
#
#
# Elastic Compliance Matrix: (Units=1/GPa)
#
#
# Indices 1 2 3 4 5 6 
#
# 1 0.035515 -0.018156 -0.004994 0.000000 -0.012296 0.000000
# 2 -0.018156 0.025389 -0.004553 0.000000 0.002700 0.000000
# 3 -0.004994 -0.004553 0.027870 0.000000 -0.013390 0.000000
# 4 0.000000 0.000000 0.000000 0.414625 0.000000 -0.186565
# 5 -0.012296 0.002700 -0.013390 0.000000 0.054436 0.000000
# 6 0.000000 0.000000 0.000000 -0.186565 0.000000 0.177252
#
#
# Mechanical properties :
#
#
# Convention : Reuss Voigt Hill
#
# Bulk Modulus (GPa) = 29.96979 45.04017 37.50498
# Shear Modulus (GPa) = 6.23739 14.38918 10.31329
#
# Velocity S-wave (km/s) = 2.06334 3.13391 2.65318
# Velocity P-wave (km/s) = 5.11199 6.62099 5.91481
#
# Compressibility (1/GPa) = 0.03336693
#
# Stress axis : x y z
#
# Youngs Moduli (GPa) = 28.15677 39.38783 35.88062
#
# Poissons Ratio (x) = 0.71513 0.17920
# Poissons Ratio (y) = 0.51122 0.16337
# Poissons Ratio (z) = 0.14062 0.17934
#
# Static dielectric constant tensor:
#      x y z
#    x 1.498070 0.000000 0.023440 
#    y 0.000000 1.501330 0.000000 
#    z 0.023440 0.000000 1.552730 
# 
# From -- ./inp_files/90165.got.cif
#   From: 2010.05.17/outbox.cif.g08.bks.cpg/sg12_46_cif.got.tgz:90165.got - 2010.06.03 13:09:07.
