data_PCOD9190701
_publ_section_title
;
Structure prediction by ZEFSAII (Michael W. Deem and Ramdas Pophale) SiO2 
 PCOD9190701
Probable space group: C 2/M
;
_chemical_formula_sum "Si O2"
_cell_formula_units_Z 56
_cell_length_a 19.352552
_cell_length_b 7.635682
_cell_length_c 18.705584
_cell_angle_alpha 90.000000
_cell_angle_beta 87.499540
_cell_angle_gamma 90.000000
_cell_volume 2761.491093
_symmetry_space_group_name_H-M "C 2/M"
_symmetry_group_IT_number 12
_symmetry_cell_setting 'monoclinic'
loop_
_space_group_symop_operation_xyz
x,y,z
-x,y,-z
-x,-y,-z
x,-y,z
1/2+x,1/2+y,z
1/2-x,1/2+y,-z
1/2-x,1/2-y,-z
1/2+x,1/2-y,z
loop_
_atom_site_type_symbol
_atom_site_label
_atom_site_fract_x
_atom_site_fract_y
_atom_site_fract_z
Si Si1 0.673943 0.710972 0.586110
Si Si2 0.575616 0.284768 0.719224
Si Si3 0.331908 0.792296 0.996259
Si Si4 0.919934 0.209385 0.703311
Si Si5 0.676294 0.211769 0.158205
Si Si6 0.165778 0.205826 0.846790
Si Si7 0.667195 0.709621 0.425272
O O1 0.669912 0.500000 0.584330
O O2 0.621612 0.770750 0.649385
O O3 0.658064 0.777421 0.506653
O O4 0.753281 0.756686 0.599611
O O5 0.574467 0.500000 0.720099
O O6 0.496922 0.223901 0.714896
O O7 0.613512 0.223936 0.789855
O O8 0.359456 0.722841 0.070281
O O9 0.341340 0.000000 0.998235
O O10 0.250000 0.750000 0.000000
O O11 0.354762 0.727311 0.916914
O O12 0.869913 0.240982 0.772510
O O13 0.884304 0.279560 0.632698
O O14 0.925667 0.000000 0.694153
O O15 0.755635 0.277857 0.161931
O O16 0.679736 0.000000 0.153963
O O17 0.172555 0.000000 0.831356
O O18 0.658147 0.500000 0.428994
#
# Coordination Sequence:
#
# PCOD9190701 Si02
#       7
#     8   8   8   8   8   8   8
#     4   9  17  32  53  71  93 127 160 193 235 281
#     4   9  18  32  49  70  96 128 163 194 231 281
#     4   9  17  30  49  73  97 121 155 198 240 282
#     4  10  20  32  47  70  99 127 158 197 236 277
#     4   9  18  32  50  71  94 123 158 193 234 285
#     4   9  17  31  51  72  94 122 160 200 234 278
#     4   9  18  31  49  75  99 120 155 200 239 277
#
# _framework density 20.278898000000002
#
# number of rings (size 3 to 8) (size 9 to 14) (size 15 to 20)
#    0.000    2.857    0.000    2.143    0.000    5.143 
#    0.000    5.714    0.000    4.286    0.000    5.000 
#    0.000    0.000    0.000    0.000    0.000    0.000 
#
# Total GULP energy -156123.719017 kJ/mol
# GULP energy per Si atom -5575.847108 kJ/mol
# Density = 2.023274 g / cm^3
# Si number density = 20.278898 Si / 1000 Ang^3
#
#
#
# Elastic Constant Matrix: (Units=GPa)
#
#
# Indices 1 2 3 4 5 6 
#
# 1 130.4550 7.8919 110.4699 0.0000 37.8555 0.0000
# 2 7.8919 33.3622 2.8042 0.0000 -0.4977 0.0000
# 3 110.4699 2.8042 156.6380 0.0000 41.8573 0.0000
# 4 0.0000 0.0000 0.0000 16.2047 0.0000 -3.7758
# 5 37.8555 -0.4977 41.8573 0.0000 4.8043 0.0000
# 6 0.0000 0.0000 0.0000 -3.7758 0.0000 14.3887
#
#
#
# Elastic Compliance Matrix: (Units=1/GPa)
#
#
# Indices 1 2 3 4 5 6 
#
# 1 0.015902 -0.002031 -0.016835 0.000000 0.021169 0.000000
# 2 -0.002031 0.030061 0.003173 0.000000 -0.008527 0.000000
# 3 -0.016835 0.003173 0.013052 0.000000 0.019267 0.000000
# 4 0.000000 0.000000 0.000000 0.065730 0.000000 0.017248
# 5 0.021169 -0.008527 0.019267 0.000000 -0.127398 0.000000
# 6 0.000000 0.000000 0.000000 0.017248 0.000000 0.074025
#
#
# Mechanical properties :
#
#
# Convention : Reuss Voigt Hill
#
# Bulk Modulus (GPa) = 36.19557 62.53192 49.36375
# Shear Modulus (GPa) = 44.65617 20.36549 32.51083
#
# Velocity S-wave (km/s) = 4.69775 3.17246 4.00832
# Velocity P-wave (km/s) = 6.87842 6.65749 6.76886
#
# Compressibility (1/GPa) = 0.02762769
#
# Stress axis : x y z
#
# Youngs Moduli (GPa) = 62.88655 33.26623 76.61638
#
# Poissons Ratio (x) = 0.06755 1.28986
# Poissons Ratio (y) = 0.12770 -0.24308
# Poissons Ratio (z) = 1.05871 -0.10554
#
# Static dielectric constant tensor:
#      x y z
#    x 1.684880 0.000000 0.027200 
#    y 0.000000 1.768210 0.000000 
#    z 0.027200 0.000000 1.736830 
# 
# From -- ./inp_files/280213.got.cif
#   From: 2010.05.17/outbox.cif.g08.bks.cpg/sg12_141_cif.got.tgz:280213.got - 2010.06.03 13:09:07.
