data_PCOD9190769
_publ_section_title
;
Structure prediction by ZEFSAII (Michael W. Deem and Ramdas Pophale) SiO2 
 PCOD9190769
Probable space group: C 2/M
;
_chemical_formula_sum "Si O2"
_cell_formula_units_Z 48
_cell_length_a 20.810543
_cell_length_b 7.643758
_cell_length_c 16.275941
_cell_angle_alpha 90.000000
_cell_angle_beta 71.973671
_cell_angle_gamma 90.000000
_cell_volume 2461.942347
_symmetry_space_group_name_H-M "C 2/M"
_symmetry_group_IT_number 12
_symmetry_cell_setting 'monoclinic'
loop_
_space_group_symop_operation_xyz
x,y,z
-x,y,-z
-x,-y,-z
x,-y,z
1/2+x,1/2+y,z
1/2-x,1/2+y,-z
1/2-x,1/2-y,-z
1/2+x,1/2-y,z
loop_
_atom_site_type_symbol
_atom_site_label
_atom_site_fract_x
_atom_site_fract_y
_atom_site_fract_z
Si Si1 0.134106 0.211529 0.766765
Si Si2 0.299313 0.206025 0.086958
Si Si3 0.012007 0.786237 0.233570
Si Si4 0.651614 0.703755 0.105304
Si Si5 0.535943 0.713634 0.568416
Si Si6 0.819868 0.209548 0.428317
O O1 0.168355 0.269251 0.837157
O O2 0.172986 0.271804 0.668796
O O3 0.056121 0.268708 0.786928
O O4 0.134497 0.000000 0.766889
O O5 0.222587 0.278071 0.111108
O O6 0.295749 0.000000 0.070215
O O7 0.342654 0.285317 0.995448
O O8 0.081826 0.721154 0.167284
O O9 0.002503 0.736411 0.332616
O O10 0.011796 0.000000 0.230916
O O11 0.650991 0.500000 0.129956
O O12 0.500000 0.775428 0.500000
O O13 0.536035 0.500000 0.566001
O O14 0.613655 0.771492 0.548797
O O15 0.750000 0.250000 0.500000
O O16 0.825442 0.000000 0.422471
#
# Coordination Sequence:
#
# PCOD9190769 Si02
#       6
#     8   8   8   8   8   8
#     4   9  18  33  50  68  94 126 158 192 231 276
#     4  10  20  32  48  72  98 122 152 192 237 282
#     4   8  15  29  48  68  89 120 162 196 225 269
#     4   9  18  33  51  69  92 123 158 195 233 276
#     4   8  14  26  46  71  95 118 152 199 236 262
#     4   9  18  31  48  71  97 125 155 190 234 280
#
# _framework density 19.496801000000001
#
# number of rings (size 3 to 8) (size 9 to 14) (size 15 to 20)
#    0.000    3.167    0.000    2.500    0.000    3.333 
#    0.000    7.500    0.000    1.500    0.000    0.000 
#    0.000    0.000    0.000    0.000    0.000    0.000 
#
# Total GULP energy -133786.927488 kJ/mol
# GULP energy per Si atom -5574.455312 kJ/mol
# Density = 1.945243 g / cm^3
# Si number density = 19.496801 Si / 1000 Ang^3
#
#
#
# Elastic Constant Matrix: (Units=GPa)
#
#
# Indices 1 2 3 4 5 6 
#
# 1 154.7218 -0.7360 136.3141 0.0000 -6.8481 0.0000
# 2 -0.7360 33.7368 -7.2857 0.0000 -3.3422 0.0000
# 3 136.3141 -7.2857 148.1059 0.0000 -5.8842 0.0000
# 4 0.0000 0.0000 0.0000 16.2401 0.0000 -2.6425
# 5 -6.8481 -3.3422 -5.8842 0.0000 48.1587 0.0000
# 6 0.0000 0.0000 0.0000 -2.6425 0.0000 11.6956
#
#
#
# Elastic Compliance Matrix: (Units=1/GPa)
#
#
# Indices 1 2 3 4 5 6 
#
# 1 0.035486 -0.006283 -0.032947 0.000000 0.000584 0.000000
# 2 -0.006283 0.031321 0.007410 0.000000 0.002186 0.000000
# 3 -0.032947 0.007410 0.037456 0.000000 0.000406 0.000000
# 4 0.000000 0.000000 0.000000 0.063926 0.000000 0.014444
# 5 0.000584 0.002186 0.000406 0.000000 0.021049 0.000000
# 6 0.000000 0.000000 0.000000 0.014444 0.000000 0.088765
#
#
# Mechanical properties :
#
#
# Convention : Reuss Voigt Hill
#
# Bulk Modulus (GPa) = 24.61561 65.90548 45.26054
# Shear Modulus (GPa) = 14.07722 29.10369 21.59046
#
# Velocity S-wave (km/s) = 2.68997 3.86779 3.33135
# Velocity P-wave (km/s) = 4.72237 7.33642 6.16943
#
# Compressibility (1/GPa) = 0.04062462
#
# Stress axis : x y z
#
# Youngs Moduli (GPa) = 28.18009 31.92749 26.69793
#
# Poissons Ratio (x) = 0.20060 0.87961
# Poissons Ratio (y) = 0.17705 -0.19784
# Poissons Ratio (z) = 0.92844 -0.23659
#
# Static dielectric constant tensor:
#      x y z
#    x 1.681800 0.000000 -0.015430 
#    y 0.000000 1.757850 0.000000 
#    z -0.015430 0.000000 1.654140 
# 
# From -- ./inp_files/229907.got.cif
#   From: 2010.05.17/outbox.cif.g08.bks.cpg/sg12_115_cif.got.tgz:229907.got - 2010.06.03 13:09:07.
