data_PCOD9190326
_publ_section_title
;
Structure prediction by ZEFSAII (Michael W. Deem and Ramdas Pophale) SiO2 
 PCOD9190326
Probable space group: C 2/M
;
_chemical_formula_sum "Si O2"
_cell_formula_units_Z 64
_cell_length_a 16.368655
_cell_length_b 14.549072
_cell_length_c 22.546844
_cell_angle_alpha 90.000000
_cell_angle_beta 141.538477
_cell_angle_gamma 90.000000
_cell_volume 3339.771140
_symmetry_space_group_name_H-M "C 2/M"
_symmetry_group_IT_number 12
_symmetry_cell_setting 'monoclinic'
loop_
_space_group_symop_operation_xyz
x,y,z
-x,y,-z
-x,-y,-z
x,-y,z
1/2+x,1/2+y,z
1/2-x,1/2+y,-z
1/2-x,1/2-y,-z
1/2+x,1/2-y,z
loop_
_atom_site_type_symbol
_atom_site_label
_atom_site_fract_x
_atom_site_fract_y
_atom_site_fract_z
Si Si1 0.349366 0.390822 0.897992
Si Si2 0.025683 0.706289 0.613993
Si Si3 0.530222 0.607393 0.276896
Si Si4 0.402017 0.601481 0.388592
Si Si5 0.772094 0.391139 0.498298
Si Si6 0.398010 0.208518 0.208696
Si Si7 0.228045 0.108481 0.281308
Si Si8 0.650530 0.891491 0.323408
O O1 0.322226 0.500000 0.890479
O O2 0.246933 0.332645 0.879279
O O3 0.327929 0.369403 0.816004
O O4 0.500000 0.373711 0.000000
O O5 0.048211 0.814098 0.620849
O O6 0.062675 0.678720 0.702031
O O7 0.134066 0.660452 0.633338
O O8 0.879317 0.668789 0.524208
O O9 0.491157 0.500000 0.254013
O O10 0.630948 0.623118 0.388684
O O11 0.414872 0.682028 0.213260
O O12 0.620778 0.626303 0.270659
O O13 0.500000 0.596690 0.500000
O O14 0.403343 0.500000 0.360681
O O15 0.258409 0.621770 0.333804
O O16 0.802808 0.500000 0.509163
O O17 0.783948 0.368606 0.575053
O O18 0.515920 0.163477 0.238133
O O19 0.256265 0.000000 0.299042
O O20 0.620509 0.000000 0.308848
#
# Coordination Sequence:
#
# PCOD9190326 Si02
#       8
#     8   8   8   8   8   8   8   8
#     4   9  18  36  61  83 100 118 148 195 253 312
#     4  10  20  30  49  69  97 132 171 215 247 281
#     4  10  21  33  46  67 101 138 166 197 234 283
#     4  10  22  33  43  63  94 138 182 216 242 270
#     4   9  19  32  47  68  93 131 175 210 245 279
#     4  10  20  32  52  77  99 126 163 204 250 292
#     4   9  18  33  51  76 103 126 157 201 252 295
#     4   9  18  33  49  66  97 132 171 215 246 280
#
# _framework density 19.162991000000002
#
# number of rings (size 3 to 8) (size 9 to 14) (size 15 to 20)
#    0.000    2.500    0.000    1.500    5.250    4.500 
#    0.000    2.500    0.000    0.375    0.000    0.000 
#    0.000    0.000    0.000    0.000    0.000    0.000 
#
# Total GULP energy -178620.996473 kJ/mol
# GULP energy per Si atom -5581.906140 kJ/mol
# Density = 1.911938 g / cm^3
# Si number density = 19.162991 Si / 1000 Ang^3
#
#
#
# Elastic Constant Matrix: (Units=GPa)
#
#
# Indices 1 2 3 4 5 6 
#
# 1 72.3885 54.7696 29.7267 0.0000 20.3961 0.0000
# 2 54.7696 89.1289 44.3450 0.0000 30.8415 0.0000
# 3 29.7267 44.3450 46.6062 0.0001 26.2946 0.0000
# 4 0.0000 0.0000 0.0001 17.4313 0.0000 13.8662
# 5 20.3961 30.8415 26.2946 0.0000 25.4939 0.0000
# 6 0.0000 0.0000 0.0000 13.8662 0.0000 34.1393
#
#
#
# Elastic Compliance Matrix: (Units=1/GPa)
#
#
# Indices 1 2 3 4 5 6 
#
# 1 0.025993 -0.014558 -0.002228 0.000000 -0.000887 0.000000
# 2 -0.014558 0.031008 -0.013454 0.000000 -0.011988 0.000000
# 3 -0.002228 -0.013454 0.060968 0.000000 -0.044824 0.000000
# 4 0.000000 0.000000 0.000000 0.084751 0.000000 -0.034423
# 5 -0.000887 -0.011988 -0.044824 0.000000 0.100669 0.000000
# 6 0.000000 0.000000 0.000000 -0.034423 0.000000 0.043273
#
#
# Mechanical properties :
#
#
# Convention : Reuss Voigt Hill
#
# Bulk Modulus (GPa) = 17.39445 51.75624 34.57534
# Shear Modulus (GPa) = 11.72869 20.69840 16.21355
#
# Velocity S-wave (km/s) = 2.47665 3.29009 2.91191
# Velocity P-wave (km/s) = 4.15634 6.44205 5.42103
#
# Compressibility (1/GPa) = 0.05748961
#
# Stress axis : x y z
#
# Youngs Moduli (GPa) = 38.47119 32.24988 16.40212
#
# Poissons Ratio (x) = 0.46949 0.03654
# Poissons Ratio (y) = 0.56006 0.22068
# Poissons Ratio (z) = 0.08570 0.43390
#
# Static dielectric constant tensor:
#      x y z
#    x 1.717090 0.000000 -0.000920 
#    y 0.000000 1.704190 0.000000 
#    z -0.000920 0.000000 1.650270 
# 
# From -- ./inp_files/340201.got.cif
#   From: 2010.05.17/outbox.cif.g08.bks.cpg/sg12_171_cif.got.tgz:340201.got - 2010.06.03 13:09:07.
