data_PCOD9190030
_publ_section_title
;
Structure prediction by ZEFSAII (Michael W. Deem and Ramdas Pophale) SiO2 
 PCOD9190030
Probable space group: C 2/M
;
_chemical_formula_sum "Si O2"
_cell_formula_units_Z 64
_cell_length_a 26.650280
_cell_length_b 29.939245
_cell_length_c 9.799419
_cell_angle_alpha 90.000000
_cell_angle_beta 153.231637
_cell_angle_gamma 90.000000
_cell_volume 3521.490270
_symmetry_space_group_name_H-M "C 2/M"
_symmetry_group_IT_number 12
_symmetry_cell_setting 'monoclinic'
loop_
_space_group_symop_operation_xyz
x,y,z
-x,y,-z
-x,-y,-z
x,-y,z
1/2+x,1/2+y,z
1/2-x,1/2+y,-z
1/2-x,1/2-y,-z
1/2+x,1/2-y,z
loop_
_atom_site_type_symbol
_atom_site_label
_atom_site_fract_x
_atom_site_fract_y
_atom_site_fract_z
Si Si1 0.890213 0.449498 0.826141
Si Si2 0.998725 0.842585 0.157484
Si Si3 0.044114 0.602395 0.748667
Si Si4 0.660594 0.830125 0.680473
Si Si5 0.254472 0.865526 0.402494
Si Si6 0.798999 0.711443 0.715428
Si Si7 0.772816 0.152468 0.230292
Si Si8 0.016845 0.753250 0.377243
O O1 0.846519 0.500000 0.726980
O O2 0.803788 0.414119 0.552953
O O3 0.931991 0.432032 0.073838
O O4 0.000000 0.448999 0.000000
O O5 0.015561 0.800928 0.300654
O O6 0.109838 0.871495 0.456509
O O7 0.878200 0.863107 0.896643
O O8 0.000000 0.830119 0.000000
O O9 0.000000 0.581869 0.500000
O O10 0.949056 0.638961 0.557303
O O11 0.161881 0.626248 0.005141
O O12 0.712104 0.846089 0.663487
O O13 0.620110 0.778959 0.591812
O O14 0.749993 0.836487 0.018062
O O15 0.310163 0.831626 0.646270
O O16 0.750000 0.750000 0.500000
O O17 0.725539 0.695342 0.664995
O O18 0.911902 0.728266 0.055501
O O19 0.000000 0.755996 0.500000
#
# Coordination Sequence:
#
# PCOD9190030 Si02
#       8
#     8   8   8   8   8   8   8   8
#     4  11  22  40  65  97 126 150 195 261 318 373
#     4  12  26  40  55  82 122 163 213 254 292 355
#     4  10  19  39  64  90 120 156 194 245 315 364
#     4  11  23  37  62  85 121 162 202 257 306 366
#     4  12  25  40  62  89 120 165 206 247 317 368
#     4  12  22  39  58  84 120 161 211 249 299 360
#     4  11  22  40  59  82 123 168 203 251 301 359
#     4  12  24  38  57  86 121 164 211 258 308 353
#
# _framework density 18.174125
#
# number of rings (size 3 to 8) (size 9 to 14) (size 15 to 20)
#    0.000    0.625    7.500    0.375    5.250    0.750 
#    0.000    0.000    0.000    3.375    0.000    0.875 
#    0.000    0.000    0.000    0.000    0.000    0.000 
#
# Total GULP energy -178692.420143 kJ/mol
# GULP energy per Si atom -5584.138129 kJ/mol
# Density = 1.813276 g / cm^3
# Si number density = 18.174125 Si / 1000 Ang^3
#
#
#
# Elastic Constant Matrix: (Units=GPa)
#
#
# Indices 1 2 3 4 5 6 
#
# 1 132.0949 45.7734 70.0265 0.0000 -22.3971 0.0000
# 2 45.7734 96.1095 38.5401 0.0000 -11.0842 0.0000
# 3 70.0265 38.5401 136.9784 0.0000 -11.8049 0.0000
# 4 0.0000 0.0000 0.0000 7.0021 0.0000 2.6676
# 5 -22.3971 -11.0842 -11.8049 0.0000 40.0911 0.0000
# 6 0.0000 0.0000 0.0000 2.6676 0.0000 14.6432
#
#
#
# Elastic Compliance Matrix: (Units=1/GPa)
#
#
# Indices 1 2 3 4 5 6 
#
# 1 0.012016 -0.003275 -0.004844 0.000000 0.004381 0.000000
# 2 -0.003275 0.012837 -0.001836 0.000000 0.001179 0.000000
# 3 -0.004844 -0.001836 0.010277 0.000000 -0.000187 0.000000
# 4 0.000000 0.000000 0.000000 0.153464 0.000000 -0.027957
# 5 0.004381 0.001179 -0.000187 0.000000 0.027661 0.000000
# 6 0.000000 0.000000 0.000000 -0.027957 0.000000 0.073384
#
#
# Mechanical properties :
#
#
# Convention : Reuss Voigt Hill
#
# Bulk Modulus (GPa) = 65.70194 74.87364 70.28779
# Shear Modulus (GPa) = 15.89210 26.40348 21.14779
#
# Velocity S-wave (km/s) = 2.96029 3.81570 3.41489
# Velocity P-wave (km/s) = 6.92202 7.79103 7.36934
#
# Compressibility (1/GPa) = 0.01522025
#
# Stress axis : x y z
#
# Youngs Moduli (GPa) = 83.22418 77.90152 97.30461
#
# Poissons Ratio (x) = 0.25513 0.47131
# Poissons Ratio (y) = 0.27256 0.17864
# Poissons Ratio (z) = 0.40311 0.14302
#
# Static dielectric constant tensor:
#      x y z
#    x 1.695150 0.000000 0.020360 
#    y 0.000000 1.620680 0.000000 
#    z 0.020360 0.000000 1.675200 
# 
# From -- ./inp_files/100259.got.cif
#   From: 2010.05.17/outbox.cif.g08.bks.cpg/sg12_51_cif.got.tgz:100259.got - 2010.06.03 13:09:07.
