data_PCOD9190284
_publ_section_title
;
Structure prediction by ZEFSAII (Michael W. Deem and Ramdas Pophale) SiO2 
 PCOD9190284
Probable space group: C 2/M
;
_chemical_formula_sum "Si O2"
_cell_formula_units_Z 52
_cell_length_a 22.669156
_cell_length_b 8.661715
_cell_length_c 14.301525
_cell_angle_alpha 90.000000
_cell_angle_beta 136.691356
_cell_angle_gamma 90.000000
_cell_volume 1926.194824
_symmetry_space_group_name_H-M "C 2/M"
_symmetry_group_IT_number 12
_symmetry_cell_setting 'monoclinic'
loop_
_space_group_symop_operation_xyz
x,y,z
-x,y,-z
-x,-y,-z
x,-y,z
1/2+x,1/2+y,z
1/2-x,1/2+y,-z
1/2-x,1/2-y,-z
1/2+x,1/2-y,z
loop_
_atom_site_type_symbol
_atom_site_label
_atom_site_fract_x
_atom_site_fract_y
_atom_site_fract_z
Si Si1 0.453994 0.175439 0.236792
Si Si2 0.424734 0.500000 0.487868
Si Si3 0.399693 0.500000 0.866218
Si Si4 0.104134 0.664843 0.125859
Si Si5 0.199430 0.821400 0.029838
Si Si6 0.628700 0.184014 0.661038
Si Si7 0.348690 0.832833 0.600729
Si Si8 0.141863 0.000000 0.400221
O O1 0.431649 0.221318 0.317829
O O2 0.553988 0.177872 0.328496
O O3 0.423778 0.000000 0.200220
O O4 0.396369 0.252796 0.090368
O O5 0.500000 0.500000 0.500000
O O6 0.380132 0.333252 0.415935
O O7 0.435050 0.500000 0.612144
O O8 0.367492 0.337698 0.870008
O O9 0.387689 0.500000 0.740688
O O10 0.500000 0.500000 0.000000
O O11 0.134345 0.500000 0.117588
O O12 0.133009 0.659531 0.267379
O O13 0.000000 0.663191 0.000000
O O14 0.273658 0.806133 0.192361
O O15 0.186761 0.000000 0.998086
O O16 0.250000 0.750000 0.000000
O O17 0.611946 0.000000 0.613713
O O18 0.309936 0.664143 0.530297
O O19 0.315174 0.000000 0.526350
#
# Coordination Sequence:
#
# PCOD9190284 Si02
#       8
#     8   4   4   8   8   8   8   4
#     4   9  17  27  43  64  83 110 144 186 232 268
#     4  12  24  32  46  62  82 124 160 186 211 242
#     4   8  14  26  42  58  80 106 136 180 218 252
#     4   8  13  22  37  56  79 112 143 157 198 256
#     4   9  17  27  44  64  79 104 140 185 235 271
#     4   9  20  34  44  59  83 110 150 191 223 255
#     4   9  17  28  41  60  89 114 143 180 217 255
#     4  10  20  30  42  64  84 118 160 174 212 262
#
# _framework density 26.996231999999999
#
# number of rings (size 3 to 8) (size 9 to 14) (size 15 to 20)
#    0.000    2.923    0.000    2.308    6.462    0.923 
#    0.000    0.000    0.000    0.000    0.000    0.000 
#    0.000    0.000    0.000   22.154   43.385    2.462 
#
# Total GULP energy -145215.375572 kJ/mol
# GULP energy per Si atom -5585.206753 kJ/mol
# Density = 2.693479 g / cm^3
# Si number density = 26.996232 Si / 1000 Ang^3
#
#
#
# Elastic Constant Matrix: (Units=GPa)
#
#
# Indices 1 2 3 4 5 6 
#
# 1 58.9625 38.2420 23.4746 0.0000 7.1634 0.0000
# 2 38.2420 260.8211 59.2612 0.0000 3.1865 0.0000
# 3 23.4746 59.2612 93.2269 0.0000 -7.1523 0.0000
# 4 0.0000 0.0000 0.0000 49.6227 0.0000 7.5107
# 5 7.1634 3.1865 -7.1523 0.0000 27.9448 0.0000
# 6 0.0000 0.0000 0.0000 7.5107 0.0000 26.0328
#
#
#
# Elastic Compliance Matrix: (Units=1/GPa)
#
#
# Indices 1 2 3 4 5 6 
#
# 1 0.020763 -0.001953 -0.004465 0.000000 -0.006243 0.000000
# 2 -0.001953 0.004709 -0.002555 0.000000 -0.000690 0.000000
# 3 -0.004465 -0.002555 0.013857 0.000000 0.004983 0.000000
# 4 0.000000 0.000000 0.000000 0.021072 0.000000 -0.006080
# 5 -0.006243 -0.000690 0.004983 0.000000 0.038739 0.000000
# 6 0.000000 0.000000 0.000000 -0.006080 0.000000 0.040167
#
#
# Mechanical properties :
#
#
# Convention : Reuss Voigt Hill
#
# Bulk Modulus (GPa) = 46.76696 72.77402 59.77049
# Shear Modulus (GPa) = 30.41695 40.18892 35.30294
#
# Velocity S-wave (km/s) = 3.36029 3.86254 3.62013
# Velocity P-wave (km/s) = 5.69355 6.84893 6.29779
#
# Compressibility (1/GPa) = 0.02138262
#
# Stress axis : x y z
#
# Youngs Moduli (GPa) = 48.16233 212.34429 72.16559
#
# Poissons Ratio (x) = 0.41481 0.32224
# Poissons Ratio (y) = 0.09408 0.18436
# Poissons Ratio (z) = 0.21506 0.54246
#
# Static dielectric constant tensor:
#      x y z
#    x 2.288620 0.000000 -0.018600 
#    y 0.000000 2.178440 0.000000 
#    z -0.018600 0.000000 2.103830 
# 
# From -- ./inp_files/250221.got.cif
#   From: 2010.05.17/outbox.cif.g08.bks.cpg/sg12_126_cif.got.tgz:250221.got - 2010.06.03 13:09:07.
