data_PCOD9190565
_publ_section_title
;
Structure prediction by ZEFSAII (Michael W. Deem and Ramdas Pophale) SiO2 
 PCOD9190565
Probable space group: C 2/M
;
_chemical_formula_sum "Si O2"
_cell_formula_units_Z 64
_cell_length_a 30.415099
_cell_length_b 14.509623
_cell_length_c 9.251711
_cell_angle_alpha 90.000000
_cell_angle_beta 47.274613
_cell_angle_gamma 90.000000
_cell_volume 2999.346530
_symmetry_space_group_name_H-M "C 2/M"
_symmetry_group_IT_number 12
_symmetry_cell_setting 'monoclinic'
loop_
_space_group_symop_operation_xyz
x,y,z
-x,y,-z
-x,-y,-z
x,-y,z
1/2+x,1/2+y,z
1/2-x,1/2+y,-z
1/2-x,1/2-y,-z
1/2+x,1/2-y,z
loop_
_atom_site_type_symbol
_atom_site_label
_atom_site_fract_x
_atom_site_fract_y
_atom_site_fract_z
Si Si1 0.913686 0.107755 0.481428
Si Si2 0.070176 0.900509 0.881957
Si Si3 0.140348 0.602291 0.762908
Si Si4 0.744616 0.183325 0.372782
Si Si5 0.162254 0.273900 0.287103
Si Si6 0.848123 0.740884 0.996908
Si Si7 0.470321 0.731472 0.793829
Si Si8 0.439351 0.110588 0.334181
O O1 0.899968 0.114833 0.339220
O O2 0.863583 0.170116 0.664714
O O3 0.977740 0.158376 0.359620
O O4 0.916265 0.000000 0.513679
O O5 0.089390 0.000000 0.900232
O O6 0.068560 0.815064 0.991126
O O7 0.000000 0.909101 0.000000
O O8 0.126306 0.500000 0.842987
O O9 0.202253 0.604413 0.532353
O O10 0.088766 0.628940 0.762298
O O11 0.148234 0.664983 0.885084
O O12 0.750000 0.250000 0.500000
O O13 0.706741 0.222709 0.322955
O O14 0.810222 0.175655 0.154519
O O15 0.184048 0.294367 0.076869
O O16 0.110139 0.346729 0.446871
O O17 0.917642 0.755761 0.797028
O O18 0.502586 0.825917 0.767750
O O19 0.447780 0.000000 0.330781
#
# Coordination Sequence:
#
# PCOD9190565 Si02
#       8
#     8   8   8   8   8   8   8   8
#     4   9  19  35  57  83 118 156 191 232 283 343
#     4   8  15  28  50  78 107 145 192 234 278 323
#     4   9  20  39  60  86 113 148 199 248 292 338
#     4   9  20  40  65  83 108 144 194 244 293 343
#     4  10  21  39  61  84 118 156 191 238 295 348
#     4  11  23  35  57  88 116 155 191 233 295 360
#     4  10  20  31  57  84 121 153 194 240 286 343
#     4   9  20  37  59  86 118 158 200 244 286 335
#
# _framework density 21.337980999999999
#
# number of rings (size 3 to 8) (size 9 to 14) (size 15 to 20)
#    0.000    2.625    0.000    1.500   10.500    3.000 
#    0.000    8.125    0.000    1.500    0.000    0.000 
#    0.000    0.000    0.000    0.000    0.000    0.000 
#
# Total GULP energy -178191.879170 kJ/mol
# GULP energy per Si atom -5568.496224 kJ/mol
# Density = 2.128941 g / cm^3
# Si number density = 21.337981 Si / 1000 Ang^3
#
#
#
# Elastic Constant Matrix: (Units=GPa)
#
#
# Indices 1 2 3 4 5 6 
#
# 1 97.7865 41.6806 31.9647 0.0000 4.6889 0.0000
# 2 41.6806 111.1336 29.3348 0.0000 5.0083 0.0000
# 3 31.9647 29.3348 69.2228 0.0000 9.4059 0.0000
# 4 0.0000 0.0000 0.0000 10.1479 0.0000 2.2678
# 5 4.6889 5.0083 9.4059 0.0000 38.0826 0.0000
# 6 0.0000 0.0000 0.0000 2.2678 0.0000 6.0681
#
#
#
# Elastic Compliance Matrix: (Units=1/GPa)
#
#
# Indices 1 2 3 4 5 6 
#
# 1 0.013332 -0.003800 -0.004543 0.000000 -0.000020 0.000000
# 2 -0.003800 0.011218 -0.002961 0.000000 -0.000276 0.000000
# 3 -0.004543 -0.002961 0.018284 0.000000 -0.003567 0.000000
# 4 0.000000 0.000000 0.000000 0.107522 0.000000 -0.040183
# 5 -0.000020 -0.000276 -0.003567 0.000000 0.027178 0.000000
# 6 0.000000 0.000000 0.000000 -0.040183 0.000000 0.179812
#
#
# Mechanical properties :
#
#
# Convention : Reuss Voigt Hill
#
# Bulk Modulus (GPa) = 49.44684 53.78923 51.61803
# Shear Modulus (GPa) = 12.93001 22.53724 17.73363
#
# Velocity S-wave (km/s) = 2.46430 3.25345 2.88598
# Velocity P-wave (km/s) = 5.59647 6.27505 5.94545
#
# Compressibility (1/GPa) = 0.02022374
#
# Stress axis : x y z
#
# Youngs Moduli (GPa) = 75.00648 89.14618 54.69351
#
# Poissons Ratio (x) = 0.33876 0.24849
# Poissons Ratio (y) = 0.28503 0.16197
# Poissons Ratio (z) = 0.34078 0.26400
#
# Static dielectric constant tensor:
#      x y z
#    x 1.871370 0.000000 -0.032010 
#    y 0.000000 1.776020 0.000000 
#    z -0.032010 0.000000 1.835030 
# 
# From -- ./inp_files/111979.got.cif
#   From: 2010.05.17/outbox.cif.g08.bks.cpg/sg12_56_cif.got.tgz:111979.got - 2010.06.03 13:09:07.
