data_PCOD9190971
_publ_section_title
;
Structure prediction by ZEFSAII (Michael W. Deem and Ramdas Pophale) SiO2 
 PCOD9190971
Probable space group: C 2/M
;
_chemical_formula_sum "Si O2"
_cell_formula_units_Z 56
_cell_length_a 31.083512
_cell_length_b 8.500442
_cell_length_c 23.972409
_cell_angle_alpha 90.000000
_cell_angle_beta 153.464291
_cell_angle_gamma 90.000000
_cell_volume 2829.783190
_symmetry_space_group_name_H-M "C 2/M"
_symmetry_group_IT_number 12
_symmetry_cell_setting 'monoclinic'
loop_
_space_group_symop_operation_xyz
x,y,z
-x,y,-z
-x,-y,-z
x,-y,z
1/2+x,1/2+y,z
1/2-x,1/2+y,-z
1/2-x,1/2-y,-z
1/2+x,1/2-y,z
loop_
_atom_site_type_symbol
_atom_site_label
_atom_site_fract_x
_atom_site_fract_y
_atom_site_fract_z
Si Si1 0.690976 0.812988 0.377574
Si Si2 0.405137 0.810532 0.424920
Si Si3 0.803963 0.186528 0.116181
Si Si4 0.658701 0.815765 0.527768
Si Si5 0.969302 0.309804 0.126426
Si Si6 0.989294 0.814247 0.268636
Si Si7 0.729330 0.809158 0.148829
O O1 0.750000 0.750000 0.500000
O O2 0.746110 0.767360 0.384731
O O3 0.579626 0.758247 0.244628
O O4 0.689910 0.000000 0.381933
O O5 0.500000 0.752789 0.500000
O O6 0.390250 0.755691 0.471768
O O7 0.304836 0.762759 0.279393
O O8 0.413386 0.000000 0.435765
O O9 0.768412 0.246518 0.133875
O O10 0.915161 0.216976 0.232510
O O11 0.789127 0.000000 0.099821
O O12 0.750000 0.250000 0.000000
O O13 0.582679 0.786314 0.390142
O O14 0.677974 0.000000 0.556579
O O15 0.967616 0.500000 0.128554
O O16 0.944517 0.238880 0.158203
O O17 0.884477 0.267043 0.984485
O O18 0.011590 0.000000 0.292603
O O19 0.735798 0.000000 0.160277
#
# Coordination Sequence:
#
# PCOD9190971 Si02
#       7
#     8   8   8   8   8   8   8
#     4  11  22  37  60  90 122 157 200 246 299 358
#     4  10  23  43  64  87 116 156 204 249 298 356
#     4  10  20  32  50  81 116 150 188 233 290 354
#     4  11  23  39  60  85 117 157 199 248 305 357
#     4  10  21  37  57  83 119 156 189 236 299 354
#     4  11  21  32  53  86 118 151 194 241 293 354
#     4  10  21  38  59  84 117 156 197 243 298 356
#
# _framework density 19.789501999999999
#
# number of rings (size 3 to 8) (size 9 to 14) (size 15 to 20)
#    0.000    1.571    2.857    2.143    0.000    3.714 
#    0.000    0.714    0.000    4.286    0.000    0.000 
#    0.000    0.000    0.000    0.000    0.000    0.000 
#
# Total GULP energy -156158.994815 kJ/mol
# GULP energy per Si atom -5577.106958 kJ/mol
# Density = 1.974446 g / cm^3
# Si number density = 19.789502 Si / 1000 Ang^3
#
#
#
# Elastic Constant Matrix: (Units=GPa)
#
#
# Indices 1 2 3 4 5 6 
#
# 1 90.3207 23.7929 38.7016 0.0000 5.8732 0.0000
# 2 23.7929 -9.7365 13.6848 0.0000 25.8563 0.0000
# 3 38.7016 13.6848 109.0947 0.0000 4.8567 0.0000
# 4 0.0000 0.0000 0.0000 28.8713 0.0000 0.1650
# 5 5.8732 25.8563 4.8567 0.0000 14.1423 0.0000
# 6 0.0000 0.0000 0.0000 0.1650 0.0000 23.3458
#
#
#
# Elastic Compliance Matrix: (Units=1/GPa)
#
#
# Indices 1 2 3 4 5 6 
#
# 1 0.012881 0.002569 -0.004514 0.000000 -0.008497 0.000000
# 2 0.002569 -0.016963 -0.000119 0.000000 0.029986 0.000000
# 3 -0.004514 -0.000119 0.010855 0.000000 -0.001636 0.000000
# 4 0.000000 0.000000 0.000000 0.034638 0.000000 -0.000245
# 5 -0.008497 0.029986 -0.001636 0.000000 0.019977 0.000000
# 6 0.000000 0.000000 0.000000 -0.000245 0.000000 0.042836
#
#
# Mechanical properties :
#
#
# Convention : Reuss Voigt Hill
#
# Bulk Modulus (GPa) = 377.62061 38.00416 207.81238
# Shear Modulus (GPa) = 45.77338 20.83851 33.30595
#
# Velocity S-wave (km/s) = 4.81460 3.24853 4.10690
# Velocity P-wave (km/s) = 14.90436 5.77204 11.30169
#
# Compressibility (1/GPa) = 0.00264816
#
# Stress axis : x y z
#
# Youngs Moduli (GPa) = 77.63092 -58.95350 92.12048
#
# Poissons Ratio (x) = 0.15147 0.41581
# Poissons Ratio (y) = -0.19946 0.01093
# Poissons Ratio (z) = 0.35041 -0.00699
#
# Static dielectric constant tensor:
#      x y z
#    x 1.742900 0.000000 0.035960 
#    y 0.000000 1.676720 0.000000 
#    z 0.035960 0.000000 1.711090 
# 
# From -- ./inp_files/329701.got.cif
#   From: 2010.05.17/outbox.cif.g08.bks.cpg/sg12_165_cif.got.tgz:329701.got - 2010.06.03 13:09:07.
