data_PCOD9190138
_publ_section_title
;
Structure prediction by ZEFSAII (Michael W. Deem and Ramdas Pophale) SiO2 
 PCOD9190138
Probable space group: C 2/M
;
_chemical_formula_sum "Si O2"
_cell_formula_units_Z 36
_cell_length_a 11.129936
_cell_length_b 17.889086
_cell_length_c 8.681024
_cell_angle_alpha 90.000000
_cell_angle_beta 99.522552
_cell_angle_gamma 90.000000
_cell_volume 1704.613127
_symmetry_space_group_name_H-M "C 2/M"
_symmetry_group_IT_number 12
_symmetry_cell_setting 'monoclinic'
loop_
_space_group_symop_operation_xyz
x,y,z
-x,y,-z
-x,-y,-z
x,-y,z
1/2+x,1/2+y,z
1/2-x,1/2+y,-z
1/2-x,1/2-y,-z
1/2+x,1/2-y,z
loop_
_atom_site_type_symbol
_atom_site_label
_atom_site_fract_x
_atom_site_fract_y
_atom_site_fract_z
Si Si1 0.872243 0.586532 0.057049
Si Si2 0.864984 0.168172 0.462716
Si Si3 0.871657 0.919846 0.187709
Si Si4 0.734055 0.294997 0.238240
Si Si5 0.500000 0.303022 0.000000
O O1 0.880332 0.500000 0.121400
O O2 0.828124 0.650927 0.167284
O O3 0.763841 0.584238 0.909336
O O4 0.000000 0.603312 0.000000
O O5 0.871049 0.092179 0.369143
O O6 0.790024 0.223141 0.334732
O O7 0.815324 0.160147 0.623450
O O8 0.000000 0.201491 0.500000
O O9 0.948135 0.855334 0.123656
O O10 0.924756 0.000000 0.157054
O O11 0.622509 0.269257 0.102950
#
# Coordination Sequence:
#
# PCOD9190138 Si02
#       5
#     8   8   8   8   4
#     4   9  20  40  64  93 123 160 211 259 305 368
#     4  11  23  42  57  92 131 163 207 252 308 372
#     4  10  21  38  61  90 124 159 205 254 306 366
#     4  10  23  40  64  89 128 165 205 256 310 369
#     4  10  19  40  62  94 117 158 204 256 309 364
#
# _framework density 21.119160000000001
#
# number of rings (size 3 to 8) (size 9 to 14) (size 15 to 20)
#    0.000    2.000    2.222    0.333    0.000    9.333 
#    4.000    0.000    0.000    4.667    0.000    0.000 
#    0.000    0.000    0.000    0.000    0.000    0.000 
#
# Total GULP energy -100405.020098 kJ/mol
# GULP energy per Si atom -5578.056672 kJ/mol
# Density = 2.107109 g / cm^3
# Si number density = 21.119160 Si / 1000 Ang^3
#
#
#
# Elastic Constant Matrix: (Units=GPa)
#
#
# Indices 1 2 3 4 5 6 
#
# 1 105.0036 26.6958 39.2658 0.0000 -6.3053 0.0000
# 2 26.6958 40.1350 39.6756 0.0000 3.8842 0.0000
# 3 39.2658 39.6756 115.9276 0.0000 -7.4731 0.0000
# 4 0.0000 0.0000 0.0000 -27.7280 0.0000 25.3370
# 5 -6.3053 3.8842 -7.4731 0.0000 46.5812 0.0000
# 6 0.0000 0.0000 0.0000 25.3370 0.0000 7.7055
#
#
#
# Elastic Compliance Matrix: (Units=1/GPa)
#
#
# Indices 1 2 3 4 5 6 
#
# 1 0.011906 -0.006397 -0.001723 0.000000 0.001869 0.000000
# 2 -0.006397 0.042414 -0.012765 0.000000 -0.006451 0.000000
# 3 -0.001723 -0.012765 0.013774 0.000000 0.003041 0.000000
# 4 0.000000 0.000000 0.000000 -0.009006 0.000000 0.029612
# 5 0.001869 -0.006451 0.003041 0.000000 0.022747 0.000000
# 6 0.000000 0.000000 0.000000 0.029612 0.000000 0.032407
#
#
# Mechanical properties :
#
#
# Convention : Reuss Voigt Hill
#
# Bulk Modulus (GPa) = 37.98711 52.48227 45.23469
# Shear Modulus (GPa) = 30.34194 15.67366 23.00780
#
# Velocity S-wave (km/s) = 3.79450 2.72720 3.30423
# Velocity P-wave (km/s) = 6.10112 5.90096 6.00188
#
# Compressibility (1/GPa) = 0.02632472
#
# Stress axis : x y z
#
# Youngs Moduli (GPa) = 83.98852 23.57694 72.59799
#
# Poissons Ratio (x) = 0.15083 0.12508
# Poissons Ratio (y) = 0.53729 0.92672
# Poissons Ratio (z) = 0.14471 0.30096
#
# Static dielectric constant tensor:
#      x y z
#    x 1.816190 0.000000 -0.024240 
#    y 0.000000 1.841100 0.000000 
#    z -0.024240 0.000000 1.753350 
# 
# From -- ./inp_files/46639.got.cif
#   From: 2010.05.17/outbox.cif.g08.bks.cpg/sg12_24_cif.got.tgz:46639.got - 2010.06.03 13:09:07.
