data_PCOD9190865
_publ_section_title
;
Structure prediction by ZEFSAII (Michael W. Deem and Ramdas Pophale) SiO2 
 PCOD9190865
Probable space group: C 2/M
;
_chemical_formula_sum "Si O2"
_cell_formula_units_Z 48
_cell_length_a 29.676719
_cell_length_b 8.351984
_cell_length_c 18.345137
_cell_angle_alpha 90.000000
_cell_angle_beta 25.106688
_cell_angle_gamma 90.000000
_cell_volume 1929.322258
_symmetry_space_group_name_H-M "C 2/M"
_symmetry_group_IT_number 12
_symmetry_cell_setting 'monoclinic'
loop_
_space_group_symop_operation_xyz
x,y,z
-x,y,-z
-x,-y,-z
x,-y,z
1/2+x,1/2+y,z
1/2-x,1/2+y,-z
1/2-x,1/2-y,-z
1/2+x,1/2-y,z
loop_
_atom_site_type_symbol
_atom_site_label
_atom_site_fract_x
_atom_site_fract_y
_atom_site_fract_z
Si Si1 0.874853 0.311100 0.767169
Si Si2 0.396234 0.187015 0.894104
Si Si3 0.367507 0.312286 0.463585
Si Si4 0.613898 0.688817 0.401756
Si Si5 0.435978 0.308629 0.987418
Si Si6 0.342928 0.307190 0.282674
O O1 0.853281 0.500000 0.797562
O O2 0.833483 0.234311 0.752528
O O3 0.852185 0.242353 0.881834
O O4 0.002359 0.282557 0.572464
O O5 0.523991 0.214674 0.702471
O O6 0.374908 0.251813 0.005723
O O7 0.372055 0.000000 0.928324
O O8 0.394372 0.500000 0.416422
O O9 0.330785 0.283709 0.601439
O O10 0.272817 0.270328 0.547441
O O11 0.589759 0.500000 0.433477
O O12 0.439901 0.500000 0.978675
O O13 0.559184 0.252785 0.810310
O O14 0.385526 0.267743 0.138762
O O15 0.332148 0.500000 0.304489
#
# Coordination Sequence:
#
# PCOD9190865 Si02
#       6
#     8   8   8   8   8   8
#     4   9  16  26  42  66  95 126 159 194 234 281
#     4  10  20  32  49  75 103 130 162 201 243 286
#     4  10  20  32  49  75 103 130 162 201 243 286
#     4   9  16  26  42  66  95 126 159 194 234 281
#     4   9  19  36  55  73  95 126 163 201 244 295
#     4   9  19  36  55  73  95 126 163 201 244 295
#
# _framework density 24.879201999999999
#
# number of rings (size 3 to 8) (size 9 to 14) (size 15 to 20)
#    0.000    2.667    0.000    4.000    0.000    6.000 
#    0.000    1.667    0.000    1.000    0.000    0.000 
#    0.000    0.000    0.000    0.000    0.000    0.000 
#
# Total GULP energy -134111.938464 kJ/mol
# GULP energy per Si atom -5587.997436 kJ/mol
# Density = 2.482258 g / cm^3
# Si number density = 24.879202 Si / 1000 Ang^3
#
#
#
# Elastic Constant Matrix: (Units=GPa)
#
#
# Indices 1 2 3 4 5 6 
#
# 1 185.1987 10.0453 17.1692 -0.0003 -3.7729 0.0004
# 2 10.0453 31.1984 1.2236 -0.0008 -1.4976 0.0007
# 3 17.1692 1.2236 68.7412 -0.0008 12.9469 0.0006
# 4 -0.0003 -0.0008 -0.0008 17.4033 0.0001 8.2030
# 5 -3.7729 -1.4976 12.9469 0.0001 52.4421 0.0000
# 6 0.0004 0.0007 0.0006 8.2030 0.0000 33.3973
#
#
#
# Elastic Compliance Matrix: (Units=1/GPa)
#
#
# Indices 1 2 3 4 5 6 
#
# 1 0.005649 -0.001724 -0.001518 0.000000 0.000732 0.000000
# 2 -0.001724 0.032663 -0.000318 0.000002 0.000887 -0.000001
# 3 -0.001518 -0.000318 0.015684 0.000001 -0.003990 0.000000
# 4 0.000000 0.000002 0.000001 0.064984 0.000000 -0.015961
# 5 0.000732 0.000887 -0.003990 0.000000 0.020132 0.000000
# 6 0.000000 -0.000001 0.000000 -0.015961 0.000000 0.033863
#
#
# Mechanical properties :
#
#
# Convention : Reuss Voigt Hill
#
# Bulk Modulus (GPa) = 21.33313 38.00163 29.66738
# Shear Modulus (GPa) = 25.54678 37.76187 31.65432
#
# Velocity S-wave (km/s) = 3.20790 3.90013 3.57083
# Velocity P-wave (km/s) = 4.72378 5.96565 5.38067
#
# Compressibility (1/GPa) = 0.04687544
#
# Stress axis : x y z
#
# Youngs Moduli (GPa) = 177.02981 30.61557 63.76063
#
# Poissons Ratio (x) = 0.05278 0.09679
# Poissons Ratio (y) = 0.30522 0.02027
# Poissons Ratio (z) = 0.26874 0.00973
#
# Static dielectric constant tensor:
#      x y z
#    x 2.039870 0.000000 0.068240 
#    y 0.000000 1.838370 0.000000 
#    z 0.068240 0.000000 2.112540 
# 
# From -- ./inp_files/123532.got.cif
#   From: 2010.05.17/outbox.cif.g08.bks.cpg/sg12_62_cif.got.tgz:123532.got - 2010.06.03 13:09:07.
