data_PCOD9190909
_publ_section_title
;
Structure prediction by ZEFSAII (Michael W. Deem and Ramdas Pophale) SiO2 
 PCOD9190909
Probable space group: C 2/M
;
_chemical_formula_sum "Si O2"
_cell_formula_units_Z 56
_cell_length_a 12.928873
_cell_length_b 26.695315
_cell_length_c 14.078971
_cell_angle_alpha 90.000000
_cell_angle_beta 146.872268
_cell_angle_gamma 90.000000
_cell_volume 2655.599956
_symmetry_space_group_name_H-M "C 2/M"
_symmetry_group_IT_number 12
_symmetry_cell_setting 'monoclinic'
loop_
_space_group_symop_operation_xyz
x,y,z
-x,y,-z
-x,-y,-z
x,-y,z
1/2+x,1/2+y,z
1/2-x,1/2+y,-z
1/2-x,1/2-y,-z
1/2+x,1/2-y,z
loop_
_atom_site_type_symbol
_atom_site_label
_atom_site_fract_x
_atom_site_fract_y
_atom_site_fract_z
Si Si1 0.800878 0.744283 0.255058
Si Si2 0.975355 0.227591 0.134617
Si Si3 0.479688 0.665042 0.321026
Si Si4 0.028930 0.584237 0.408911
Si Si5 0.133512 0.056913 0.025395
Si Si6 0.582299 0.189067 0.357608
Si Si7 0.036469 0.941557 0.302819
O O1 0.680242 0.719772 0.245251
O O2 0.845304 0.803900 0.289442
O O3 0.001607 0.720237 0.384912
O O4 0.670878 0.732624 0.063063
O O5 0.925299 0.185673 0.173559
O O6 0.996888 0.281100 0.203284
O O7 0.695180 0.685170 0.489148
O O8 0.490491 0.604951 0.337976
O O9 0.000000 0.591846 0.500000
O O10 0.019112 0.633967 0.337347
O O11 0.240311 0.562402 0.554657
O O12 0.845590 0.555590 0.227891
O O13 0.091951 0.073777 0.886990
O O14 0.061473 0.000000 0.961815
O O15 0.000000 0.084132 0.000000
O O16 0.999878 0.000000 0.302539
#
# Coordination Sequence:
#
# PCOD9190909 Si02
#       7
#     8   8   8   8   8   8   8
#     4  10  21  35  57  79 110 146 180 228 275 335
#     4  10  21  36  54  82 112 143 180 225 280 333
#     4  10  21  36  55  81 109 149 181 228 276 325
#     4  11  22  34  52  77 112 150 184 226 278 324
#     4  10  20  32  50  73 101 148 191 226 270 322
#     4  10  22  34  51  81 108 141 185 222 271 335
#     4  10  22  37  53  79 112 145 192 232 275 330
#
# _framework density 21.087513999999999
#
# number of rings (size 3 to 8) (size 9 to 14) (size 15 to 20)
#    0.000    1.857    1.429    3.857    8.000    2.286 
#    0.000    0.000    0.000    0.000    0.000   11.000 
#    0.000    0.000    0.000    0.000    0.000    0.000 
#
# Total GULP energy -155938.689471 kJ/mol
# GULP energy per Si atom -5569.238910 kJ/mol
# Density = 2.103952 g / cm^3
# Si number density = 21.087514 Si / 1000 Ang^3
#
#
#
# Elastic Constant Matrix: (Units=GPa)
#
#
# Indices 1 2 3 4 5 6 
#
# 1 21.9633 -3.2717 -14.9702 0.0000 6.4767 0.0001
# 2 -3.2717 104.0128 -2.2615 0.0000 1.9278 -0.0001
# 3 -14.9702 -2.2615 101.1548 0.0001 1.6330 0.0004
# 4 0.0000 0.0000 0.0001 20.3245 0.0000 5.7288
# 5 6.4767 1.9278 1.6330 0.0000 12.9369 0.0002
# 6 0.0001 -0.0001 0.0004 5.7288 0.0002 30.1273
#
#
#
# Elastic Compliance Matrix: (Units=1/GPa)
#
#
# Indices 1 2 3 4 5 6 
#
# 1 0.062324 0.002783 0.009816 0.000000 -0.032856 0.000000
# 2 0.002783 0.009771 0.000678 0.000000 -0.002935 0.000000
# 3 0.009816 0.000678 0.011458 0.000000 -0.006462 0.000000
# 4 0.000000 0.000000 0.000000 0.051988 0.000000 -0.009886
# 5 -0.032856 -0.002935 -0.006462 0.000000 0.095000 0.000000
# 6 0.000000 0.000000 0.000000 -0.009886 0.000000 0.035072
#
#
# Mechanical properties :
#
#
# Convention : Reuss Voigt Hill
#
# Bulk Modulus (GPa) = 9.08211 20.68045 14.88128
# Shear Modulus (GPa) = 18.13151 29.18668 23.65910
#
# Velocity S-wave (km/s) = 2.93545 3.72435 3.35318
# Velocity P-wave (km/s) = 3.97560 5.32190 4.69724
#
# Compressibility (1/GPa) = 0.11010657
#
# Stress axis : x y z
#
# Youngs Moduli (GPa) = 16.04510 102.34513 87.27501
#
# Poissons Ratio (x) = -0.28481 -0.85671
# Poissons Ratio (y) = -0.04465 -0.05914
# Poissons Ratio (z) = -0.15750 -0.06936
#
# Static dielectric constant tensor:
#      x y z
#    x 1.832340 0.000000 -0.017550 
#    y 0.000000 1.812640 0.000000 
#    z -0.017550 0.000000 1.832070 
# 
# From -- ./inp_files/219130.got.cif
#   From: 2010.05.17/outbox.cif.g08.bks.cpg/sg12_110_cif.got.tgz:219130.got - 2010.06.03 13:09:07.
