data_PCOD9190301
_publ_section_title
;
Structure prediction by ZEFSAII (Michael W. Deem and Ramdas Pophale) SiO2 
 PCOD9190301
Probable space group: C 2/M
;
_chemical_formula_sum "Si O2"
_cell_formula_units_Z 56
_cell_length_a 7.159417
_cell_length_b 27.435658
_cell_length_c 16.571667
_cell_angle_alpha 90.000000
_cell_angle_beta 107.640587
_cell_angle_gamma 90.000000
_cell_volume 3101.996534
_symmetry_space_group_name_H-M "C 2/M"
_symmetry_group_IT_number 12
_symmetry_cell_setting 'monoclinic'
loop_
_space_group_symop_operation_xyz
x,y,z
-x,y,-z
-x,-y,-z
x,-y,z
1/2+x,1/2+y,z
1/2-x,1/2+y,-z
1/2-x,1/2-y,-z
1/2+x,1/2-y,z
loop_
_atom_site_type_symbol
_atom_site_label
_atom_site_fract_x
_atom_site_fract_y
_atom_site_fract_z
Si Si1 0.509106 0.203770 0.192368
Si Si2 0.054082 0.130161 0.331681
Si Si3 0.793047 0.193521 0.515708
Si Si4 0.120478 0.639248 0.350854
Si Si5 0.611212 0.943027 0.600972
Si Si6 0.789047 0.307833 0.013122
Si Si7 0.072382 0.182445 0.834248
O O1 0.513563 0.178619 0.279727
O O2 0.711227 0.187491 0.177118
O O3 0.510880 0.262676 0.189188
O O4 0.328902 0.184938 0.113236
O O5 0.174231 0.174136 0.390355
O O6 0.175275 0.082267 0.371392
O O7 0.835499 0.129672 0.340658
O O8 0.037447 0.143127 0.235131
O O9 0.750000 0.250000 0.500000
O O10 0.643658 0.162984 0.442233
O O11 0.000000 0.184712 0.500000
O O12 0.007637 0.588984 0.349472
O O13 0.500000 0.938848 0.500000
O O14 0.621982 0.000000 0.621961
O O15 0.619614 0.329584 0.934004
O O16 0.750000 0.250000 0.000000
O O17 0.000000 0.318628 0.000000
#
# Coordination Sequence:
#
# PCOD9190301 Si02
#       7
#     8   8   8   8   8   8   8
#     4   9  17  28  46  73 106 144 174 206 250 299
#     4  10  21  36  51  76 106 133 172 213 257 313
#     4  10  20  30  46  71 103 140 166 196 243 298
#     4  10  21  36  51  76 106 133 172 213 257 313
#     4  11  24  40  60  77  95 133 177 226 276 309
#     4   8  14  26  42  66 102 139 179 208 236 293
#     4   9  17  28  46  73 106 144 174 206 250 299
#
# _framework density 18.052889
#
# number of rings (size 3 to 8) (size 9 to 14) (size 15 to 20)
#    0.000    2.429    1.429    0.857    4.000    0.571 
#    0.000    1.429    0.000    0.000    0.000    2.000 
#    0.000    5.714    0.000    0.000    0.000    0.000 
#
# Total GULP energy -156099.032772 kJ/mol
# GULP energy per Si atom -5574.965456 kJ/mol
# Density = 1.801180 g / cm^3
# Si number density = 18.052889 Si / 1000 Ang^3
#
#
#
# Elastic Constant Matrix: (Units=GPa)
#
#
# Indices 1 2 3 4 5 6 
#
# 1 57.0551 10.9503 19.9674 0.0000 11.4044 0.0000
# 2 10.9503 89.0232 34.6429 0.0000 8.6766 0.0000
# 3 19.9674 34.6429 122.0904 0.0000 11.0706 0.0000
# 4 0.0000 0.0000 0.0000 15.6651 0.0000 5.1818
# 5 11.4044 8.6766 11.0706 0.0000 22.5956 0.0000
# 6 0.0000 0.0000 0.0000 5.1818 0.0000 18.2705
#
#
#
# Elastic Compliance Matrix: (Units=1/GPa)
#
#
# Indices 1 2 3 4 5 6 
#
# 1 0.020233 -0.000735 -0.002302 0.000000 -0.008802 0.000000
# 2 -0.000735 0.012884 -0.003266 0.000000 -0.002977 0.000000
# 3 -0.002302 -0.003266 0.009706 0.000000 -0.002339 0.000000
# 4 0.000000 0.000000 0.000000 0.070445 0.000000 -0.019979
# 5 -0.008802 -0.002977 -0.002339 0.000000 0.050988 0.000000
# 6 0.000000 0.000000 0.000000 -0.019979 0.000000 0.060399
#
#
# Mechanical properties :
#
#
# Convention : Reuss Voigt Hill
#
# Bulk Modulus (GPa) = 33.09382 44.36553 38.72968
# Shear Modulus (GPa) = 20.21555 24.81344 22.51450
#
# Velocity S-wave (km/s) = 3.34997 3.71143 3.53532
# Velocity P-wave (km/s) = 5.77360 6.55705 6.17776
#
# Compressibility (1/GPa) = 0.03021712
#
# Stress axis : x y z
#
# Youngs Moduli (GPa) = 49.42411 77.61313 103.02916
#
# Poissons Ratio (x) = 0.05704 0.23721
# Poissons Ratio (y) = 0.03632 0.33648
# Poissons Ratio (z) = 0.11379 0.25347
#
# Static dielectric constant tensor:
#      x y z
#    x 0.674450 0.000000 -0.586480 
#    y 0.000000 1.541880 0.000000 
#    z -0.586480 0.000000 1.341210 
# 
# From -- ./inp_files/258985.got.cif
#   From: 2010.05.17/outbox.cif.g08.bks.cpg/sg12_130_cif.got.tgz:258985.got - 2010.06.03 13:09:07.
