data_PCOD9190126
_publ_section_title
;
Structure prediction by ZEFSAII (Michael W. Deem and Ramdas Pophale) SiO2 
 PCOD9190126
Probable space group: C 2/M
;
_chemical_formula_sum "Si O2"
_cell_formula_units_Z 52
_cell_length_a 24.001384
_cell_length_b 14.335518
_cell_length_c 7.250555
_cell_angle_alpha 90.000000
_cell_angle_beta 81.082429
_cell_angle_gamma 90.000000
_cell_volume 2464.559754
_symmetry_space_group_name_H-M "C 2/M"
_symmetry_group_IT_number 12
_symmetry_cell_setting 'monoclinic'
loop_
_space_group_symop_operation_xyz
x,y,z
-x,y,-z
-x,-y,-z
x,-y,z
1/2+x,1/2+y,z
1/2-x,1/2+y,-z
1/2-x,1/2-y,-z
1/2+x,1/2-y,z
loop_
_atom_site_type_symbol
_atom_site_label
_atom_site_fract_x
_atom_site_fract_y
_atom_site_fract_z
Si Si1 0.156710 0.106944 0.207880
Si Si2 0.550581 0.697155 0.099125
Si Si3 0.196172 0.272263 0.409076
Si Si4 0.722193 0.895262 0.048542
Si Si5 0.097808 0.603472 0.049625
Si Si6 0.596800 0.105021 0.500022
Si Si7 0.000000 0.261292 0.500000
O O1 0.109171 0.140916 0.087547
O O2 0.159859 0.181456 0.372041
O O3 0.145732 0.000000 0.268132
O O4 0.219619 0.111244 0.089924
O O5 0.565278 0.801978 0.019115
O O6 0.528932 0.704518 0.321551
O O7 0.500000 0.658534 0.000000
O O8 0.250000 0.250000 0.500000
O O9 0.217837 0.319080 0.209166
O O10 0.154681 0.346219 0.524988
O O11 0.663969 0.887104 0.964336
O O12 0.719951 0.000000 0.133077
O O13 0.077264 0.500000 0.003437
O O14 0.097506 0.603533 0.274875
O O15 0.544815 0.170370 0.574986
O O16 0.590860 0.000000 0.568877
#
# Coordination Sequence:
#
# PCOD9190126 Si02
#       7
#     8   8   8   8   8   8   4
#     4  11  23  41  59  85 122 160 205 254 294 353
#     4  11  23  39  63  85 120 164 210 252 299 359
#     4  11  21  35  61  89 123 156 192 242 308 371
#     4   9  18  36  63  85 113 153 191 237 307 367
#     4   8  15  32  57  86 114 145 187 241 304 368
#     4   9  17  33  58  83 115 153 191 241 303 365
#     4  10  19  40  61  88 118 156 201 250 311 354
#
# _framework density 21.099104000000001
#
# number of rings (size 3 to 8) (size 9 to 14) (size 15 to 20)
#    0.000    2.154    4.615    2.077    0.000    3.692 
#    0.000    0.385    0.000    0.000    0.000    0.000 
#    0.000    0.000    0.000    0.000    0.000    0.000 
#
# Total GULP energy -145128.731600 kJ/mol
# GULP energy per Si atom -5581.874292 kJ/mol
# Density = 2.105108 g / cm^3
# Si number density = 21.099104 Si / 1000 Ang^3
#
#
#
# Elastic Constant Matrix: (Units=GPa)
#
#
# Indices 1 2 3 4 5 6 
#
# 1 83.5013 -2.8630 7.9907 0.0000 2.0104 0.0000
# 2 -2.8630 66.6698 17.8454 0.0000 12.0029 0.0000
# 3 7.9907 17.8454 43.4787 0.0000 3.0504 0.0000
# 4 0.0000 0.0000 0.0000 -0.6181 0.0000 -8.6294
# 5 2.0104 12.0029 3.0504 0.0000 31.3836 0.0000
# 6 0.0000 0.0000 0.0000 -8.6294 0.0000 24.3811
#
#
#
# Elastic Compliance Matrix: (Units=1/GPa)
#
#
# Indices 1 2 3 4 5 6 
#
# 1 0.012319 0.001471 -0.002792 0.000000 -0.001080 0.000000
# 2 0.001471 0.018149 -0.007276 0.000000 -0.006328 0.000000
# 3 -0.002792 -0.007276 0.026472 0.000000 0.000388 0.000000
# 4 0.000000 0.000000 0.000000 -0.272303 0.000000 -0.096379
# 5 -0.001080 -0.006328 0.000388 0.000000 0.034316 0.000000
# 6 0.000000 0.000000 0.000000 -0.096379 0.000000 0.006903
#
#
# Mechanical properties :
#
#
# Convention : Reuss Voigt Hill
#
# Bulk Modulus (GPa) = 25.15903 26.62179 25.89041
# Shear Modulus (GPa) = -34.79443 22.40777 -6.19333
#
# Velocity S-wave (km/s) = -4.06531 3.26241 -1.71515
# Velocity P-wave (km/s) = 3.17578 5.18034 2.89399
#
# Compressibility (1/GPa) = 0.03974715
#
# Stress axis : x y z
#
# Youngs Moduli (GPa) = 81.17220 55.09884 37.77606
#
# Poissons Ratio (x) = -0.08104 0.10547
# Poissons Ratio (y) = -0.11939 0.27484
# Poissons Ratio (z) = 0.22664 0.40087
#
# Static dielectric constant tensor:
#      x y z
#    x 1.747810 0.000000 0.000380 
#    y 0.000000 1.792060 0.000000 
#    z 0.000380 0.000000 1.761410 
# 
# From -- ./inp_files/95733.got.cif
#   From: 2010.05.17/outbox.cif.g08.bks.cpg/sg12_48_cif.got.tgz:95733.got - 2010.06.03 13:09:07.
