data_PCOD9190830
_publ_section_title
;
Structure prediction by ZEFSAII (Michael W. Deem and Ramdas Pophale) SiO2 
 PCOD9190830
Probable space group: C 2/M
;
_chemical_formula_sum "Si O2"
_cell_formula_units_Z 48
_cell_length_a 11.455884
_cell_length_b 20.808469
_cell_length_c 11.598320
_cell_angle_alpha 90.000000
_cell_angle_beta 88.062920
_cell_angle_gamma 90.000000
_cell_volume 2763.220699
_symmetry_space_group_name_H-M "C 2/M"
_symmetry_group_IT_number 12
_symmetry_cell_setting 'monoclinic'
loop_
_space_group_symop_operation_xyz
x,y,z
-x,y,-z
-x,-y,-z
x,-y,z
1/2+x,1/2+y,z
1/2-x,1/2+y,-z
1/2-x,1/2-y,-z
1/2+x,1/2-y,z
loop_
_atom_site_type_symbol
_atom_site_label
_atom_site_fract_x
_atom_site_fract_y
_atom_site_fract_z
Si Si1 0.491158 0.860812 0.862625
Si Si2 0.011162 0.500000 0.136630
Si Si3 0.252858 0.139731 0.738081
Si Si4 0.890366 0.738146 0.308522
Si Si5 0.245817 0.000000 0.744488
Si Si6 0.238897 0.635009 0.528232
Si Si7 0.860166 0.500000 0.486663
Si Si8 0.000000 0.818853 0.500000
O O1 0.537933 0.931523 0.823145
O O2 0.357722 0.858668 0.824555
O O3 0.555985 0.806287 0.790517
O O4 0.500000 0.854580 0.000000
O O5 0.146477 0.500000 0.169989
O O6 0.000000 0.500000 0.000000
O O7 0.176404 0.202982 0.748632
O O8 0.187971 0.070476 0.754845
O O9 0.300657 0.142366 0.604381
O O10 0.810079 0.693043 0.392927
O O11 0.982096 0.772830 0.390477
O O12 0.304187 0.000000 0.616340
O O13 0.187724 0.565946 0.567577
O O14 0.380304 0.640632 0.518294
O O15 0.000000 0.500000 0.500000
#
# Coordination Sequence:
#
# PCOD9190830 Si02
#       8
#     8   4   8   8   4   8   4   4
#     4  10  20  32  49  72 103 137 170 219 263 307
#     4   8  16  30  46  66  92 128 162 200 260 298
#     4   9  18  33  48  74  98 131 171 208 261 307
#     4  11  20  31  54  75 103 136 175 219 256 314
#     4   8  16  30  49  65  98 127 158 207 249 308
#     4  10  21  33  53  78 104 143 173 217 262 310
#     4  10  22  31  49  81 107 136 173 214 260 304
#     4  10  20  37  52  73 106 138 180 214 264 319
#
# _framework density 17.371034999999999
#
# number of rings (size 3 to 8) (size 9 to 14) (size 15 to 20)
#    0.000    2.333    0.000    4.000    8.167    1.000 
#    0.000    0.833    0.000    0.000    0.000    0.583 
#    0.000    0.000    0.000    4.000    0.000    0.000 
#
# Total GULP energy -133626.866022 kJ/mol
# GULP energy per Si atom -5567.786084 kJ/mol
# Density = 1.733150 g / cm^3
# Si number density = 17.371035 Si / 1000 Ang^3
#
#
#
# Elastic Constant Matrix: (Units=GPa)
#
#
# Indices 1 2 3 4 5 6 
#
# 1 52.2344 54.5155 36.1333 0.0000 8.1676 0.0000
# 2 54.5155 194.2209 42.8327 0.0000 4.6110 0.0000
# 3 36.1333 42.8327 81.6642 0.0000 20.0134 0.0000
# 4 0.0000 0.0000 0.0000 1.9202 0.0000 5.4863
# 5 8.1676 4.6110 20.0134 0.0000 17.0535 0.0000
# 6 0.0000 0.0000 0.0000 5.4863 0.0000 23.2989
#
#
#
# Elastic Compliance Matrix: (Units=1/GPa)
#
#
# Indices 1 2 3 4 5 6 
#
# 1 0.034651 -0.007228 -0.011163 0.000000 -0.001541 0.000000
# 2 -0.007228 0.007428 -0.001480 0.000000 0.003190 0.000000
# 3 -0.011163 -0.001480 0.023235 0.000000 -0.021521 0.000000
# 4 0.000000 0.000000 0.000000 1.591508 0.000000 -0.374764
# 5 -0.001541 0.003190 -0.021521 0.000000 0.083771 0.000000
# 6 0.000000 0.000000 0.000000 -0.374764 0.000000 0.131169
#
#
# Mechanical properties :
#
#
# Convention : Reuss Voigt Hill
#
# Bulk Modulus (GPa) = 39.10452 66.12030 52.61241
# Shear Modulus (GPa) = 2.60413 21.43039 12.01726
#
# Velocity S-wave (km/s) = 1.22571 3.51620 2.63306
# Velocity P-wave (km/s) = 4.95615 7.39128 6.29263
#
# Compressibility (1/GPa) = 0.02557249
#
# Stress axis : x y z
#
# Youngs Moduli (GPa) = 28.85932 134.62386 43.03869
#
# Poissons Ratio (x) = 0.97301 0.48045
# Poissons Ratio (y) = 0.20858 0.06369
# Poissons Ratio (z) = 0.32216 0.19922
#
# Static dielectric constant tensor:
#      x y z
#    x 0.691860 0.000000 -0.214890 
#    y 0.000000 1.659820 0.000000 
#    z -0.214890 0.000000 1.515040 
# 
# From -- ./inp_files/132647.got.cif
#   From: 2010.05.17/outbox.cif.g08.bks.cpg/sg12_67_cif.got.tgz:132647.got - 2010.06.03 13:09:07.
