data_PCOD9190694
_publ_section_title
;
Structure prediction by ZEFSAII (Michael W. Deem and Ramdas Pophale) SiO2 
 PCOD9190694
Probable space group: C 2/M
;
_chemical_formula_sum "Si O2"
_cell_formula_units_Z 50
_cell_length_a 15.046963
_cell_length_b 7.493857
_cell_length_c 19.154457
_cell_angle_alpha 90.000000
_cell_angle_beta 61.361774
_cell_angle_gamma 90.000000
_cell_volume 1895.623539
_symmetry_space_group_name_H-M "C 2/M"
_symmetry_group_IT_number 12
_symmetry_cell_setting 'monoclinic'
loop_
_space_group_symop_operation_xyz
x,y,z
-x,y,-z
-x,-y,-z
x,-y,z
1/2+x,1/2+y,z
1/2-x,1/2+y,-z
1/2-x,1/2-y,-z
1/2+x,1/2-y,z
loop_
_atom_site_type_symbol
_atom_site_label
_atom_site_fract_x
_atom_site_fract_y
_atom_site_fract_z
Si Si1 0.796034 0.301534 0.087458
Si Si2 0.951365 0.715838 0.674669
Si Si3 0.826456 0.716254 0.376623
Si Si4 0.376396 0.218662 0.197526
Si Si5 0.610382 0.294461 0.448043
Si Si6 0.500000 0.000000 0.000000
Si Si7 0.089217 0.292432 0.153500
O O1 0.750763 0.500000 0.112279
O O2 0.810524 0.212784 0.158284
O O3 0.703237 0.210415 0.083197
O O4 0.910398 0.346637 0.021456
O O5 0.946589 0.500000 0.672159
O O6 0.070533 0.770171 0.623073
O O7 0.884009 0.793112 0.638392
O O8 0.917482 0.774080 0.764206
O O9 0.822882 0.500000 0.381362
O O10 0.843439 0.760446 0.288344
O O11 0.714652 0.785205 0.438135
O O12 0.492956 0.281611 0.148587
O O13 0.374269 0.000000 0.188142
O O14 0.500000 0.207710 0.500000
O O15 0.604579 0.500000 0.473516
O O16 0.062295 0.500000 0.169744
#
# Coordination Sequence:
#
# PCOD9190694 Si02
#       7
#     8   8   8   8   8   2   8
#     4   9  17  32  51  68 102 131 159 192 231 282
#     4   9  18  32  49  70  95 121 160 206 246 292
#     4   8  15  29  47  68  92 123 162 196 244 294
#     4   8  14  27  50  70  90 126 161 194 240 297
#     4  10  20  32  47  69  98 130 168 201 237 292
#     4   8  20  32  50  72 104 130 168 188 220 284
#     4   9  17  30  51  76  93 117 162 209 244 279
#
# _framework density 26.376546999999999
#
# number of rings (size 3 to 8) (size 9 to 14) (size 15 to 20)
#    0.480    2.720    0.000    2.880    0.000    2.880 
#    0.000    2.800    0.000    1.920    0.000    0.000 
#    0.000    0.000    0.000    0.000    0.000    0.000 
#
# Total GULP energy -139194.147774 kJ/mol
# GULP energy per Si atom -5567.765911 kJ/mol
# Density = 2.631651 g / cm^3
# Si number density = 26.376547 Si / 1000 Ang^3
#
#
#
# Elastic Constant Matrix: (Units=GPa)
#
#
# Indices 1 2 3 4 5 6 
#
# 1 154.3597 -5.4958 38.0968 0.0000 -55.4898 0.0000
# 2 -5.4958 77.9310 5.2985 0.0000 -2.1312 0.0000
# 3 38.0968 5.2985 75.8326 0.0000 -20.1827 0.0000
# 4 0.0000 0.0000 0.0000 14.2987 0.0000 -0.5876
# 5 -55.4898 -2.1312 -20.1827 0.0000 56.8720 0.0000
# 6 0.0000 0.0000 0.0000 -0.5876 0.0000 -4.7820
#
#
#
# Elastic Compliance Matrix: (Units=1/GPa)
#
#
# Indices 1 2 3 4 5 6 
#
# 1 0.010606 0.001202 -0.002922 0.000000 0.009356 0.000000
# 2 0.001202 0.013031 -0.001184 0.000000 0.001241 0.000000
# 3 -0.002922 -0.001184 0.015424 0.000000 0.002578 0.000000
# 4 0.000000 0.000000 0.000000 0.069585 0.000000 -0.008550
# 5 0.009356 0.001241 0.002578 0.000000 0.027673 0.000000
# 6 0.000000 0.000000 0.000000 -0.008550 0.000000 -0.208067
#
#
# Mechanical properties :
#
#
# Convention : Reuss Voigt Hill
#
# Bulk Modulus (GPa) = 30.07240 42.65804 36.36522
# Shear Modulus (GPa) = -91.14767 31.29266 -29.92751
#
# Velocity S-wave (km/s) = -5.88484 3.44813 -3.37207
# Velocity P-wave (km/s) = 5.89484 5.66221 1.15944
#
# Compressibility (1/GPa) = 0.03325308
#
# Stress axis : x y z
#
# Youngs Moduli (GPa) = 94.28887 76.73940 64.83469
#
# Poissons Ratio (x) = -0.09228 0.18945
# Poissons Ratio (y) = -0.11338 0.07678
# Poissons Ratio (z) = 0.27551 0.09088
#
# Static dielectric constant tensor:
#      x y z
#    x 2.033230 0.000000 0.012130 
#    y 0.000000 1.979680 0.000000 
#    z 0.012130 0.000000 2.246350 
# 
# From -- ./inp_files/359421.got.cif
#   From: 2010.05.17/outbox.cif.g08.bks.cpg/sg12_180_cif.got.tgz:359421.got - 2010.06.03 13:09:07.
