data_PCOD9190689
_publ_section_title
;
Structure prediction by ZEFSAII (Michael W. Deem and Ramdas Pophale) SiO2 
 PCOD9190689
Probable space group: C 2/M
;
_chemical_formula_sum "Si O2"
_cell_formula_units_Z 48
_cell_length_a 27.817448
_cell_length_b 9.682684
_cell_length_c 8.755469
_cell_angle_alpha 90.000000
_cell_angle_beta 101.827566
_cell_angle_gamma 90.000000
_cell_volume 2308.195631
_symmetry_space_group_name_H-M "C 2/M"
_symmetry_group_IT_number 12
_symmetry_cell_setting 'monoclinic'
loop_
_space_group_symop_operation_xyz
x,y,z
-x,y,-z
-x,-y,-z
x,-y,z
1/2+x,1/2+y,z
1/2-x,1/2+y,-z
1/2-x,1/2-y,-z
1/2+x,1/2-y,z
loop_
_atom_site_type_symbol
_atom_site_label
_atom_site_fract_x
_atom_site_fract_y
_atom_site_fract_z
Si Si1 0.468724 0.841912 0.115618
Si Si2 0.383821 0.655189 0.617906
Si Si3 0.576115 0.160620 0.607369
Si Si4 0.862414 0.344655 0.889281
Si Si5 0.185602 0.341919 0.831773
Si Si6 0.277609 0.655698 0.394921
O O1 0.460305 0.787856 0.281825
O O2 0.487837 0.000000 0.147145
O O3 0.500000 0.773060 0.000000
O O4 0.414507 0.850118 0.009478
O O5 0.401789 0.500000 0.659919
O O6 0.420947 0.746125 0.540705
O O7 0.368403 0.735916 0.759645
O O8 0.333574 0.644895 0.489191
O O9 0.631303 0.160622 0.716594
O O10 0.564876 0.000000 0.565168
O O11 0.852780 0.500000 0.823774
O O12 0.823692 0.310153 0.996776
O O13 0.203471 0.500000 0.828859
O O14 0.219218 0.235112 0.763360
O O15 0.257560 0.500000 0.372331
O O16 0.250000 0.750000 0.500000
#
# Coordination Sequence:
#
# PCOD9190689 Si02
#       6
#     8   8   8   8   8   8
#     4   8  14  27  49  75  97 118 154 201 237 269
#     4  10  20  32  47  69  96 124 155 191 229 274
#     4   8  14  27  48  69  90 121 157 191 230 274
#     4   9  17  30  50  73  95 123 157 192 233 276
#     4   8  15  29  48  69  92 119 154 192 228 273
#     4  10  20  33  50  71  93 120 154 191 232 276
#
# _framework density 20.795463999999999
#
# number of rings (size 3 to 8) (size 9 to 14) (size 15 to 20)
#    0.000    3.167    0.000    3.000    0.000    2.667 
#    0.000    4.167    0.000    7.000    0.000    0.000 
#    0.000    0.000    0.000    0.000    0.000    0.000 
#
# Total GULP energy -133790.783156 kJ/mol
# GULP energy per Si atom -5574.615965 kJ/mol
# Density = 2.074813 g / cm^3
# Si number density = 20.795464 Si / 1000 Ang^3
#
#
#
# Elastic Constant Matrix: (Units=GPa)
#
#
# Indices 1 2 3 4 5 6 
#
# 1 59.6260 34.7631 25.6546 0.0000 -22.4159 0.0000
# 2 34.7631 150.2179 108.9967 0.0000 -51.3549 0.0000
# 3 25.6546 108.9967 121.7236 0.0000 -51.2094 0.0000
# 4 0.0000 0.0000 0.0000 24.6212 0.0000 -2.8812
# 5 -22.4159 -51.3549 -51.2094 0.0000 46.2515 0.0000
# 6 0.0000 0.0000 0.0000 -2.8812 0.0000 4.1250
#
#
#
# Elastic Compliance Matrix: (Units=1/GPa)
#
#
# Indices 1 2 3 4 5 6 
#
# 1 0.021230 -0.003802 0.002775 0.000000 0.009141 0.000000
# 2 -0.003802 0.020139 -0.016098 0.000000 0.002694 0.000000
# 3 0.002775 -0.016098 0.028251 0.000000 0.014749 0.000000
# 4 0.000000 0.000000 0.000000 0.044231 0.000000 0.030894
# 5 0.009141 0.002694 0.014749 0.000000 0.045373 0.000000
# 6 0.000000 0.000000 0.000000 0.030894 0.000000 0.264003
#
#
# Mechanical properties :
#
#
# Convention : Reuss Voigt Hill
#
# Bulk Modulus (GPa) = 28.27264 74.48845 51.38055
# Shear Modulus (GPa) = 10.65495 25.80977 18.23236
#
# Velocity S-wave (km/s) = 2.26601 3.52678 2.96420
# Velocity P-wave (km/s) = 4.52455 7.24442 6.03958
#
# Compressibility (1/GPa) = 0.03536988
#
# Stress axis : x y z
#
# Youngs Moduli (GPa) = 47.10311 49.65569 35.39746
#
# Poissons Ratio (x) = 0.18879 -0.09825
# Poissons Ratio (y) = 0.17908 0.56984
# Poissons Ratio (z) = -0.13073 0.79937
#
# Static dielectric constant tensor:
#      x y z
#    x 1.791430 0.000000 0.017490 
#    y 0.000000 1.733060 0.000000 
#    z 0.017490 0.000000 1.768360 
# 
# From -- ./inp_files/108745.got.cif
#   From: 2010.05.17/outbox.cif.g08.bks.cpg/sg12_55_cif.got.tgz:108745.got - 2010.06.03 13:09:07.
