data_PCOD9190874
_publ_section_title
;
Structure prediction by ZEFSAII (Michael W. Deem and Ramdas Pophale) SiO2 
 PCOD9190874
Probable space group: C 2/M
;
_chemical_formula_sum "Si O2"
_cell_formula_units_Z 64
_cell_length_a 18.710988
_cell_length_b 14.236783
_cell_length_c 14.457205
_cell_angle_alpha 90.000000
_cell_angle_beta 88.990058
_cell_angle_gamma 90.000000
_cell_volume 3850.573812
_symmetry_space_group_name_H-M "C 2/M"
_symmetry_group_IT_number 12
_symmetry_cell_setting 'monoclinic'
loop_
_space_group_symop_operation_xyz
x,y,z
-x,y,-z
-x,-y,-z
x,-y,z
1/2+x,1/2+y,z
1/2-x,1/2+y,-z
1/2-x,1/2-y,-z
1/2+x,1/2-y,z
loop_
_atom_site_type_symbol
_atom_site_label
_atom_site_fract_x
_atom_site_fract_y
_atom_site_fract_z
Si Si1 0.152298 0.388434 0.206507
Si Si2 0.585110 0.886332 0.605592
Si Si3 0.375067 0.211100 0.215585
Si Si4 0.735080 0.733621 0.108362
Si Si5 0.598638 0.611545 0.079342
Si Si6 0.496725 0.887923 0.894760
Si Si7 0.082754 0.613426 0.395410
Si Si8 0.437495 0.611291 0.134743
O O1 0.166110 0.500000 0.207281
O O2 0.215368 0.331169 0.158420
O O3 0.132610 0.354660 0.310446
O O4 0.080801 0.372122 0.147472
O O5 0.628379 0.829666 0.681314
O O6 0.500581 0.862635 0.619366
O O7 0.603535 0.860585 0.499300
O O8 0.592270 0.000000 0.616762
O O9 0.303865 0.192743 0.158437
O O10 0.441158 0.158524 0.165410
O O11 0.395880 0.320760 0.204992
O O12 0.665123 0.668512 0.116752
O O13 0.750000 0.750000 0.000000
O O14 0.609566 0.500000 0.089497
O O15 0.522283 0.634152 0.127899
O O16 0.590667 0.629511 0.969235
O O17 0.508594 0.000000 0.894456
O O18 0.500000 0.853331 0.000000
O O19 0.083957 0.500000 0.392737
O O20 0.429795 0.500000 0.153184
#
# Coordination Sequence:
#
# PCOD9190874 Si02
#       8
#     8   8   8   8   8   8   8   8
#     4  10  20  36  55  75 104 143 179 213 254 315
#     4   9  17  31  54  87 110 127 162 214 278 328
#     4  12  21  30  52  77 110 136 166 218 264 316
#     4  12  24  34  46  76 113 145 174 206 262 319
#     4   9  19  36  52  65  90 137 187 221 247 286
#     4  10  20  32  49  76 106 136 169 210 264 320
#     4   8  15  32  57  80 106 132 167 215 262 324
#     4   9  19  35  54  68  87 133 193 228 241 278
#
# _framework density 16.620899000000001
#
# number of rings (size 3 to 8) (size 9 to 14) (size 15 to 20)
#    0.000    2.125    2.500    3.375    1.750    2.000 
#    0.000    0.625    0.000    0.000    0.000    2.625 
#    0.000    0.000    0.000    0.000    0.000    0.000 
#
# Total GULP energy -178532.384773 kJ/mol
# GULP energy per Si atom -5579.137024 kJ/mol
# Density = 1.658307 g / cm^3
# Si number density = 16.620899 Si / 1000 Ang^3
#
#
#
# Elastic Constant Matrix: (Units=GPa)
#
#
# Indices 1 2 3 4 5 6 
#
# 1 44.7194 17.9353 17.7349 0.0000 13.2850 0.0000
# 2 17.9353 43.3503 21.9932 0.0000 5.3417 0.0000
# 3 17.7349 21.9932 111.5598 0.0000 7.7067 0.0000
# 4 0.0000 0.0000 0.0000 24.8383 0.0000 -3.1268
# 5 13.2850 5.3417 7.7067 0.0000 23.8324 0.0000
# 6 0.0000 0.0000 0.0000 -3.1268 0.0000 16.2746
#
#
#
# Elastic Compliance Matrix: (Units=1/GPa)
#
#
# Indices 1 2 3 4 5 6 
#
# 1 0.031632 -0.010268 -0.001990 0.000000 -0.014688 0.000000
# 2 -0.010268 0.029383 -0.004195 0.000000 0.000494 0.000000
# 3 -0.001990 -0.004195 0.010193 0.000000 -0.001247 0.000000
# 4 0.000000 0.000000 0.000000 0.041258 0.000000 0.007927
# 5 -0.014688 0.000494 -0.001247 0.000000 0.050440 0.000000
# 6 0.000000 0.000000 0.000000 0.007927 0.000000 0.062969
#
#
# Mechanical properties :
#
#
# Convention : Reuss Voigt Hill
#
# Bulk Modulus (GPa) = 26.10668 34.99516 30.55092
# Shear Modulus (GPa) = 18.41299 22.45347 20.43323
#
# Velocity S-wave (km/s) = 3.33201 3.67947 3.51004
# Velocity P-wave (km/s) = 5.52669 6.25715 5.90323
#
# Compressibility (1/GPa) = 0.03830437
#
# Stress axis : x y z
#
# Youngs Moduli (GPa) = 31.61326 34.03315 98.10491
#
# Poissons Ratio (x) = 0.34945 0.19520
# Poissons Ratio (y) = 0.32460 0.41150
# Poissons Ratio (z) = 0.06290 0.14275
#
# Static dielectric constant tensor:
#      x y z
#    x 1.555190 0.000000 -0.004650 
#    y 0.000000 1.581070 0.000000 
#    z -0.004650 0.000000 1.570690 
# 
# From -- ./inp_files/224737.got.cif
#   From: 2010.05.17/outbox.cif.g08.bks.cpg/sg12_113_cif.got.tgz:224737.got - 2010.06.03 13:09:07.
