data_PCOD9190808
_publ_section_title
;
Structure prediction by ZEFSAII (Michael W. Deem and Ramdas Pophale) SiO2 
 PCOD9190808
Probable space group: C 2/M
;
_chemical_formula_sum "Si O2"
_cell_formula_units_Z 48
_cell_length_a 16.655710
_cell_length_b 8.990666
_cell_length_c 26.499835
_cell_angle_alpha 90.000000
_cell_angle_beta 33.390337
_cell_angle_gamma 90.000000
_cell_volume 2183.882217
_symmetry_space_group_name_H-M "C 2/M"
_symmetry_group_IT_number 12
_symmetry_cell_setting 'monoclinic'
loop_
_space_group_symop_operation_xyz
x,y,z
-x,y,-z
-x,-y,-z
x,-y,z
1/2+x,1/2+y,z
1/2-x,1/2+y,-z
1/2-x,1/2-y,-z
1/2+x,1/2-y,z
loop_
_atom_site_type_symbol
_atom_site_label
_atom_site_fract_x
_atom_site_fract_y
_atom_site_fract_z
Si Si1 0.445640 0.822038 0.288355
Si Si2 0.512457 0.181149 0.618032
Si Si3 0.687765 0.325783 0.793233
Si Si4 0.724284 0.673552 0.895445
Si Si5 0.654768 0.821797 0.443711
Si Si6 0.109470 0.674932 0.048342
O O1 0.455630 0.771802 0.341824
O O2 0.605779 0.789247 0.182683
O O3 0.299587 0.748228 0.344465
O O4 0.430528 0.000000 0.294908
O O5 0.346717 0.225973 0.691087
O O6 0.628117 0.228663 0.515593
O O7 0.509989 0.000000 0.619486
O O8 0.669472 0.500000 0.790065
O O9 0.701061 0.316101 0.847605
O O10 0.545551 0.236712 0.851564
O O11 0.697616 0.500000 0.923223
O O12 0.625303 0.777818 0.981377
O O13 0.500000 0.784756 0.500000
O O14 0.670409 0.000000 0.433678
O O15 0.115743 0.500000 0.052060
O O16 0.250000 0.750000 0.000000
#
# Coordination Sequence:
#
# PCOD9190808 Si02
#       6
#     8   8   8   8   8   8
#     4   9  18  34  56  78 101 135 178 219 259 309
#     4   8  16  33  55  77 103 138 177 215 260 314
#     4   9  18  36  60  80 104 142 182 221 269 321
#     4   9  19  37  59  81 106 138 178 223 271 322
#     4  10  20  32  48  75 110 143 176 216 262 310
#     4  12  25  38  54  79 111 143 177 218 266 321
#
# _framework density 21.979208
#
# number of rings (size 3 to 8) (size 9 to 14) (size 15 to 20)
#    0.000    2.500    0.000    4.500    0.000    5.000 
#    0.000    5.000    0.000    0.000    0.000    0.000 
#    0.000    0.000    0.000    0.000    0.000    0.000 
#
# Total GULP energy -134090.738080 kJ/mol
# GULP energy per Si atom -5587.114087 kJ/mol
# Density = 2.192918 g / cm^3
# Si number density = 21.979208 Si / 1000 Ang^3
#
#
#
# Elastic Constant Matrix: (Units=GPa)
#
#
# Indices 1 2 3 4 5 6 
#
# 1 53.6431 15.8361 21.3118 0.0000 -20.8008 0.0000
# 2 15.8361 49.8635 42.7529 0.0000 -20.9851 0.0001
# 3 21.3118 42.7529 123.2394 0.0000 -37.2751 0.0000
# 4 0.0000 0.0000 0.0000 29.8372 0.0000 -10.3428
# 5 -20.8008 -20.9851 -37.2751 0.0000 44.5706 0.0000
# 6 0.0000 0.0001 0.0000 -10.3428 0.0000 20.3560
#
#
#
# Elastic Compliance Matrix: (Units=1/GPa)
#
#
# Indices 1 2 3 4 5 6 
#
# 1 0.023244 -0.003492 -0.000033 0.000000 0.009176 0.000000
# 2 -0.003492 0.030751 -0.008269 0.000000 0.005933 0.000000
# 3 -0.000033 -0.008269 0.013127 0.000000 0.007070 0.000000
# 4 0.000000 0.000000 0.000000 0.040680 0.000000 0.020669
# 5 0.009176 0.005933 0.007070 0.000000 0.035425 0.000000
# 6 0.000000 0.000000 0.000000 0.020669 0.000000 0.059628
#
#
# Mechanical properties :
#
#
# Convention : Reuss Voigt Hill
#
# Bulk Modulus (GPa) = 22.97100 42.94974 32.96037
# Shear Modulus (GPa) = 20.75092 28.74245 24.74668
#
# Velocity S-wave (km/s) = 3.07598 3.62015 3.35910
# Velocity P-wave (km/s) = 4.80515 6.08749 5.48393
#
# Compressibility (1/GPa) = 0.04353315
#
# Stress axis : x y z
#
# Youngs Moduli (GPa) = 43.02223 32.51944 76.17920
#
# Poissons Ratio (x) = 0.11356 0.00249
# Poissons Ratio (y) = 0.15024 0.62996
# Poissons Ratio (z) = 0.00140 0.26892
#
# Static dielectric constant tensor:
#      x y z
#    x 1.898690 0.000000 0.022080 
#    y 0.000000 1.726380 0.000000 
#    z 0.022080 0.000000 1.807730 
# 
# From -- ./inp_files/274593.got.cif
#   From: 2010.05.17/outbox.cif.g08.bks.cpg/sg12_138_cif.got.tgz:274593.got - 2010.06.03 13:09:07.
