data_PCOD9190453
_publ_section_title
;
Structure prediction by ZEFSAII (Michael W. Deem and Ramdas Pophale) SiO2 
 PCOD9190453
Probable space group: C 2/M
;
_chemical_formula_sum "Si O2"
_cell_formula_units_Z 56
_cell_length_a 24.073010
_cell_length_b 9.312524
_cell_length_c 13.954903
_cell_angle_alpha 90.000000
_cell_angle_beta 122.462482
_cell_angle_gamma 90.000000
_cell_volume 2639.580159
_symmetry_space_group_name_H-M "C 2/M"
_symmetry_group_IT_number 12
_symmetry_cell_setting 'monoclinic'
loop_
_space_group_symop_operation_xyz
x,y,z
-x,y,-z
-x,-y,-z
x,-y,z
1/2+x,1/2+y,z
1/2-x,1/2+y,-z
1/2-x,1/2-y,-z
1/2+x,1/2-y,z
loop_
_atom_site_type_symbol
_atom_site_label
_atom_site_fract_x
_atom_site_fract_y
_atom_site_fract_z
Si Si1 0.817985 0.674490 0.596177
Si Si2 0.331308 0.155727 0.999462
Si Si3 0.057205 0.667160 0.415525
Si Si4 0.278318 0.841239 0.160964
Si Si5 0.449652 0.667469 0.086175
Si Si6 0.081705 0.330348 0.665735
Si Si7 0.903811 0.169552 0.821538
O O1 0.811196 0.500000 0.589834
O O2 0.750000 0.750000 0.500000
O O3 0.878043 0.718998 0.579710
O O4 0.846050 0.734771 0.723381
O O5 0.287038 0.250303 0.888285
O O6 0.398156 0.232866 0.091530
O O7 0.345961 0.000000 0.972066
O O8 0.289645 0.139405 0.057898
O O9 0.050294 0.500000 0.379642
O O10 0.070553 0.669246 0.541533
O O11 0.983295 0.732519 0.343119
O O12 0.345746 0.766475 0.254790
O O13 0.270863 0.000000 0.198527
O O14 0.442797 0.500000 0.104753
O O15 0.424164 0.683243 0.952032
O O16 0.526057 0.707588 0.164001
O O17 0.087893 0.500000 0.701050
O O18 0.890298 0.000000 0.792338
#
# Coordination Sequence:
#
# PCOD9190453 Si02
#       7
#     8   8   8   8   8   8   8
#     4  11  23  37  56  83 116 149 184 228 278 331
#     4  10  20  31  47  76 111 139 173 219 265 319
#     4   8  16  30  51  78 103 130 172 222 266 311
#     4   9  18  31  49  73 105 142 177 213 260 319
#     4   9  19  37  59  79 104 141 184 228 277 335
#     4   8  14  29  52  76 100 131 176 222 261 309
#     4   9  20  39  59  80 105 139 185 230 275 334
#
# _framework density 21.215495000000001
#
# number of rings (size 3 to 8) (size 9 to 14) (size 15 to 20)
#    0.000    2.857    0.000    2.571    2.000    2.857 
#    0.000    4.286    0.000    0.857    0.000    5.000 
#    0.000    0.000    0.000    0.000    0.000    0.000 
#
# Total GULP energy -155922.646213 kJ/mol
# GULP energy per Si atom -5568.665936 kJ/mol
# Density = 2.116721 g / cm^3
# Si number density = 21.215495 Si / 1000 Ang^3
#
#
#
# Elastic Constant Matrix: (Units=GPa)
#
#
# Indices 1 2 3 4 5 6 
#
# 1 74.4584 24.7315 31.6013 0.0000 22.3326 0.0000
# 2 24.7315 62.6468 43.3967 0.0000 26.0119 0.0000
# 3 31.6013 43.3967 111.3679 0.0000 44.8110 0.0000
# 4 0.0000 0.0000 0.0000 18.1416 0.0000 7.4711
# 5 22.3326 26.0119 44.8110 0.0000 41.2169 0.0000
# 6 0.0000 0.0000 0.0000 7.4711 0.0000 9.7096
#
#
#
# Elastic Compliance Matrix: (Units=1/GPa)
#
#
# Indices 1 2 3 4 5 6 
#
# 1 0.016763 -0.003492 -0.001116 0.000000 -0.005665 0.000000
# 2 -0.003492 0.024211 -0.005434 0.000000 -0.007480 0.000000
# 3 -0.001116 -0.005434 0.017403 0.000000 -0.014887 0.000000
# 4 0.000000 0.000000 0.000000 0.080691 0.000000 -0.062088
# 5 -0.005665 -0.007480 -0.014887 0.000000 0.048237 0.000000
# 6 0.000000 0.000000 0.000000 -0.062088 0.000000 0.150765
#
#
# Mechanical properties :
#
#
# Convention : Reuss Voigt Hill
#
# Bulk Modulus (GPa) = 26.11438 49.77023 37.94231
# Shear Modulus (GPa) = 13.48003 23.72986 18.60495
#
# Velocity S-wave (km/s) = 2.52342 3.34805 2.96455
# Velocity P-wave (km/s) = 4.56355 6.20131 5.44437
#
# Compressibility (1/GPa) = 0.03829308
#
# Stress axis : x y z
#
# Youngs Moduli (GPa) = 59.65436 41.30378 57.46008
#
# Poissons Ratio (x) = 0.14424 0.06415
# Poissons Ratio (y) = 0.20832 0.31222
# Poissons Ratio (z) = 0.06660 0.22443
#
# Static dielectric constant tensor:
#      x y z
#    x 1.856590 0.000000 -0.040990 
#    y 0.000000 1.775710 0.000000 
#    z -0.040990 0.000000 1.830580 
# 
# From -- ./inp_files/291949.got.cif
#   From: 2010.05.17/outbox.cif.g08.bks.cpg/sg12_146_cif.got.tgz:291949.got - 2010.06.03 13:09:07.
