data_PCOD9190278
_publ_section_title
;
Structure prediction by ZEFSAII (Michael W. Deem and Ramdas Pophale) SiO2 
 PCOD9190278
Probable space group: C 2/M
;
_chemical_formula_sum "Si O2"
_cell_formula_units_Z 44
_cell_length_a 21.674411
_cell_length_b 17.389533
_cell_length_c 17.532812
_cell_angle_alpha 90.000000
_cell_angle_beta 21.011933
_cell_angle_gamma 90.000000
_cell_volume 2369.471666
_symmetry_space_group_name_H-M "C 2/M"
_symmetry_group_IT_number 12
_symmetry_cell_setting 'monoclinic'
loop_
_space_group_symop_operation_xyz
x,y,z
-x,y,-z
-x,-y,-z
x,-y,z
1/2+x,1/2+y,z
1/2-x,1/2+y,-z
1/2-x,1/2-y,-z
1/2+x,1/2-y,z
loop_
_atom_site_type_symbol
_atom_site_label
_atom_site_fract_x
_atom_site_fract_y
_atom_site_fract_z
Si Si1 0.499579 0.639867 0.118665
Si Si2 0.520943 0.000000 0.345558
Si Si3 0.931209 0.209761 0.806401
Si Si4 0.718344 0.500000 0.815830
Si Si5 0.889066 0.649787 0.444178
Si Si6 0.000000 0.276282 0.000000
Si Si7 0.609747 0.289394 0.450586
O O1 0.574367 0.653878 0.116148
O O2 0.299509 0.619543 0.356012
O O3 0.603315 0.575735 0.953841
O O4 0.505663 0.720102 0.066526
O O5 0.343380 0.000000 0.599460
O O6 0.666947 0.000000 0.240316
O O7 0.517053 0.921470 0.302480
O O8 0.056851 0.283134 0.676727
O O9 0.007829 0.174338 0.640082
O O10 0.750000 0.250000 0.000000
O O11 0.887656 0.698590 0.525745
O O12 0.189776 0.315204 0.782643
O O13 0.500000 0.297557 0.500000
#
# Coordination Sequence:
#
# PCOD9190278 Si02
#       7
#     8   4   8   4   8   4   8
#     4  11  20  36  47  76 103 143 180 212 269 306
#     4  11  21  33  45  81 103 142 181 200 275 313
#     4  10  20  33  52  70 104 143 179 224 260 316
#     4  11  23  29  55  69 111 145 168 224 249 334
#     4   9  21  31  51  69 104 141 174 215 253 322
#     4  10  20  29  54  70 108 131 178 220 254 325
#     4   9  19  32  49  75  99 139 173 217 268 306
#
# _framework density 18.56954
#
# number of rings (size 3 to 8) (size 9 to 14) (size 15 to 20)
#    1.091    0.909    0.000    5.455    5.091    1.091 
#    0.000    0.000    0.000    0.000    0.000    0.636 
#    0.000    2.909    0.000    0.000    0.000    0.000 
#
# Total GULP energy -122554.199650 kJ/mol
# GULP energy per Si atom -5570.645439 kJ/mol
# Density = 1.852727 g / cm^3
# Si number density = 18.569540 Si / 1000 Ang^3
#
#
#
# Elastic Constant Matrix: (Units=GPa)
#
#
# Indices 1 2 3 4 5 6 
#
# 1 99.6924 4.7494 33.4177 -0.0026 0.0448 -0.0022
# 2 4.7494 23.9962 -3.0051 -0.0022 2.7256 0.0021
# 3 33.4177 -3.0051 88.8387 -0.0024 -14.3376 -0.0038
# 4 -0.0026 -0.0022 -0.0024 18.2192 0.0022 8.6771
# 5 0.0448 2.7256 -14.3376 0.0022 30.2954 0.0030
# 6 -0.0022 0.0021 -0.0038 8.6771 0.0030 31.9510
#
#
#
# Elastic Compliance Matrix: (Units=1/GPa)
#
#
# Indices 1 2 3 4 5 6 
#
# 1 0.011790 -0.002707 -0.004861 0.000001 -0.002075 0.000000
# 2 -0.002707 0.042789 0.001997 0.000008 -0.002900 -0.000005
# 3 -0.004861 0.001997 0.014210 0.000000 0.006553 0.000001
# 4 0.000001 0.000008 0.000000 0.063041 -0.000003 -0.017120
# 5 -0.002075 -0.002900 0.006553 -0.000003 0.036373 -0.000002
# 6 0.000000 -0.000005 0.000001 -0.017120 -0.000002 0.035947
#
#
# Mechanical properties :
#
#
# Convention : Reuss Voigt Hill
#
# Bulk Modulus (GPa) = 17.34680 31.42793 24.38736
# Shear Modulus (GPa) = 21.32123 27.91747 24.61935
#
# Velocity S-wave (km/s) = 3.39216 3.88158 3.64509
# Velocity P-wave (km/s) = 4.97033 6.08688 5.55672
#
# Compressibility (1/GPa) = 0.05764754
#
# Stress axis : x y z
#
# Youngs Moduli (GPa) = 84.81524 23.37076 70.37234
#
# Poissons Ratio (x) = 0.06326 0.34211
# Poissons Ratio (y) = 0.22957 -0.14057
# Poissons Ratio (z) = 0.41233 -0.04668
#
# Static dielectric constant tensor:
#      x y z
#    x 1.648600 0.000000 -0.019900 
#    y 0.000000 1.623960 0.000000 
#    z -0.019900 0.000000 1.707950 
# 
# From -- ./inp_files/290655.got.cif
#   From: 2010.05.17/outbox.cif.g08.bks.cpg/sg12_146_cif.got.tgz:290655.got - 2010.06.03 13:09:07.
