data_PCOD9190281
_publ_section_title
;
Structure prediction by ZEFSAII (Michael W. Deem and Ramdas Pophale) SiO2 
 PCOD9190281
Probable space group: C 2/M
;
_chemical_formula_sum "Si O2"
_cell_formula_units_Z 56
_cell_length_a 24.188798
_cell_length_b 7.576220
_cell_length_c 15.228839
_cell_angle_alpha 90.000000
_cell_angle_beta 87.090745
_cell_angle_gamma 90.000000
_cell_volume 2787.234881
_symmetry_space_group_name_H-M "C 2/M"
_symmetry_group_IT_number 12
_symmetry_cell_setting 'monoclinic'
loop_
_space_group_symop_operation_xyz
x,y,z
-x,y,-z
-x,-y,-z
x,-y,z
1/2+x,1/2+y,z
1/2-x,1/2+y,-z
1/2-x,1/2-y,-z
1/2+x,1/2-y,z
loop_
_atom_site_type_symbol
_atom_site_label
_atom_site_fract_x
_atom_site_fract_y
_atom_site_fract_z
Si Si1 0.530420 0.206464 0.373223
Si Si2 0.383357 0.208707 0.796762
Si Si3 0.833661 0.790239 0.327533
Si Si4 0.556029 0.704271 0.756883
Si Si5 0.026613 0.704314 0.085085
Si Si6 0.126433 0.713309 0.480384
Si Si7 0.208873 0.283217 0.317896
O O1 0.575747 0.220111 0.290784
O O2 0.476250 0.287960 0.333909
O O3 0.565323 0.275173 0.453636
O O4 0.517513 0.000000 0.388603
O O5 0.417941 0.284451 0.875571
O O6 0.325044 0.276974 0.765465
O O7 0.376064 0.000000 0.814381
O O8 0.883002 0.719363 0.262651
O O9 0.853467 0.765123 0.425686
O O10 0.771828 0.721181 0.318576
O O11 0.831403 0.000000 0.311544
O O12 0.559530 0.500000 0.782519
O O13 0.518761 0.794615 0.833580
O O14 0.039811 0.500000 0.062938
O O15 0.000000 0.785076 0.000000
O O16 0.123692 0.500000 0.476658
O O17 0.172771 0.770250 0.405750
O O18 0.208768 0.500000 0.318019
#
# Coordination Sequence:
#
# PCOD9190281 Si02
#       7
#     8   8   8   8   8   8   8
#     4   8  15  29  46  63  85 114 150 190 225 258
#     4   7  11  23  45  68  85 105 139 180 217 254
#     4  10  20  30  41  61  91 124 153 182 218 261
#     4  10  20  31  43  64  93 122 147 172 216 273
#     4   9  17  31  53  76  91 106 136 180 225 267
#     4   9  17  29  47  67  84 112 158 201 229 251
#     4   8  14  27  45  63  86 117 153 188 217 250
#
# _framework density 20.091598000000001
#
# number of rings (size 3 to 8) (size 9 to 14) (size 15 to 20)
#    0.000    3.286    0.000    3.429    0.000    2.571 
#    0.000    2.857    0.000    4.286    0.000    0.000 
#    0.000    0.000    0.000    0.000    0.000    0.143 
#
# Total GULP energy -156002.406472 kJ/mol
# GULP energy per Si atom -5571.514517 kJ/mol
# Density = 2.004587 g / cm^3
# Si number density = 20.091598 Si / 1000 Ang^3
#
#
#
# Elastic Constant Matrix: (Units=GPa)
#
#
# Indices 1 2 3 4 5 6 
#
# 1 134.2011 -3.2140 52.3592 0.0000 20.7208 0.0000
# 2 -3.2140 39.8045 -9.7950 0.0000 1.9057 0.0000
# 3 52.3592 -9.7950 87.4925 0.0000 35.5437 0.0000
# 4 0.0000 0.0000 0.0000 14.4431 0.0000 0.9632
# 5 20.7208 1.9057 35.5437 0.0000 26.6606 0.0000
# 6 0.0000 0.0000 0.0000 0.9632 0.0000 8.8402
#
#
#
# Elastic Compliance Matrix: (Units=1/GPa)
#
#
# Indices 1 2 3 4 5 6 
#
# 1 0.009746 -0.000791 -0.006254 0.000000 0.000820 0.000000
# 2 -0.000791 0.027940 0.009082 0.000000 -0.013490 0.000000
# 3 -0.006254 0.009082 0.031584 0.000000 -0.037896 0.000000
# 4 0.000000 0.000000 0.000000 0.069744 0.000000 -0.007599
# 5 0.000820 -0.013490 -0.037896 0.000000 0.088359 0.000000
# 6 0.000000 0.000000 0.000000 -0.007599 0.000000 0.113947
#
#
# Mechanical properties :
#
#
# Convention : Reuss Voigt Hill
#
# Bulk Modulus (GPa) = 13.63466 37.79985 25.71726
# Shear Modulus (GPa) = 13.82381 24.79863 19.31122
#
# Velocity S-wave (km/s) = 2.62590 3.51704 3.10362
# Velocity P-wave (km/s) = 3.99934 5.94537 5.06666
#
# Compressibility (1/GPa) = 0.07334247
#
# Stress axis : x y z
#
# Youngs Moduli (GPa) = 102.60588 35.79155 31.66131
#
# Poissons Ratio (x) = 0.02832 0.19801
# Poissons Ratio (y) = 0.08119 -0.28754
# Poissons Ratio (z) = 0.64170 -0.32505
#
# Static dielectric constant tensor:
#      x y z
#    x 1.755640 0.000000 0.030330 
#    y 0.000000 1.793910 0.000000 
#    z 0.030330 0.000000 1.709200 
# 
# From -- ./inp_files/280327.got.cif
#   From: 2010.05.17/outbox.cif.g08.bks.cpg/sg12_141_cif.got.tgz:280327.got - 2010.06.03 13:09:07.
