data_PCOD9190928
_publ_section_title
;
Structure prediction by ZEFSAII (Michael W. Deem and Ramdas Pophale) SiO2 
 PCOD9190928
Probable space group: C 2/M
;
_chemical_formula_sum "Si O2"
_cell_formula_units_Z 64
_cell_length_a 9.440019
_cell_length_b 26.701010
_cell_length_c 21.075666
_cell_angle_alpha 90.000000
_cell_angle_beta 131.210077
_cell_angle_gamma 90.000000
_cell_volume 3996.431543
_symmetry_space_group_name_H-M "C 2/M"
_symmetry_group_IT_number 12
_symmetry_cell_setting 'monoclinic'
loop_
_space_group_symop_operation_xyz
x,y,z
-x,y,-z
-x,-y,-z
x,-y,z
1/2+x,1/2+y,z
1/2-x,1/2+y,-z
1/2-x,1/2-y,-z
1/2+x,1/2-y,z
loop_
_atom_site_type_symbol
_atom_site_label
_atom_site_fract_x
_atom_site_fract_y
_atom_site_fract_z
Si Si1 0.932680 0.885063 0.795664
Si Si2 0.638450 0.439422 0.595671
Si Si3 0.096261 0.942589 0.963906
Si Si4 0.468573 0.920425 0.136955
Si Si5 0.925334 0.558482 0.270846
Si Si6 0.812589 0.207153 0.108751
Si Si7 0.900094 0.942105 0.271534
Si Si8 0.451793 0.807679 0.089886
O O1 0.717140 0.901106 0.742623
O O2 0.011683 0.828873 0.824237
O O3 0.993232 0.908035 0.746658
O O4 0.038747 0.913600 0.884417
O O5 0.500000 0.420721 0.500000
O O6 0.626156 0.500000 0.593197
O O7 0.585161 0.423789 0.651368
O O8 0.858376 0.428845 0.649055
O O9 0.318009 0.940400 0.042446
O O10 0.033349 0.000000 0.938807
O O11 0.000000 0.921566 0.000000
O O12 0.409730 0.937761 0.189845
O O13 0.679081 0.939544 0.188950
O O14 0.465701 0.860433 0.129438
O O15 0.886643 0.500000 0.277412
O O16 0.651921 0.204437 0.115455
O O17 0.884292 0.262887 0.115141
O O18 0.703356 0.189124 0.012475
O O19 0.962228 0.000000 0.285899
#
# Coordination Sequence:
#
# PCOD9190928 Si02
#       8
#     8   8   8   8   8   8   8   8
#     4  12  21  33  47  73 107 137 171 218 259 293
#     4   8  16  34  56  75  99 137 175 200 241 312
#     4  11  21  30  44  66  99 145 187 209 234 296
#     4  11  19  33  49  68  98 135 180 213 250 291
#     4  10  20  32  50  76 107 139 170 205 247 301
#     4  10  22  36  50  66  92 132 180 226 267 293
#     4  10  20  32  50  75 106 134 161 211 260 296
#     4  10  21  37  50  66  89 131 185 228 262 295
#
# _framework density 16.014286999999999
#
# number of rings (size 3 to 8) (size 9 to 14) (size 15 to 20)
#    0.000    1.750    3.750    3.000    1.750    0.500 
#    0.000    1.875    0.000    3.000    0.000    0.000 
#    0.000   16.000    0.000    0.000    0.000    0.000 
#
# Total GULP energy -178492.404210 kJ/mol
# GULP energy per Si atom -5577.887632 kJ/mol
# Density = 1.597784 g / cm^3
# Si number density = 16.014287 Si / 1000 Ang^3
#
#
#
# Elastic Constant Matrix: (Units=GPa)
#
#
# Indices 1 2 3 4 5 6 
#
# 1 71.7440 25.2190 26.0383 0.0000 2.4109 0.0000
# 2 25.2190 78.8614 13.4669 0.0000 1.2662 0.0000
# 3 26.0383 13.4669 87.4520 0.0000 3.6774 0.0000
# 4 0.0000 0.0000 0.0000 6.9270 0.0000 3.2607
# 5 2.4109 1.2662 3.6774 0.0000 12.1500 0.0000
# 6 0.0000 0.0000 0.0000 3.2607 0.0000 19.3633
#
#
#
# Elastic Compliance Matrix: (Units=1/GPa)
#
#
# Indices 1 2 3 4 5 6 
#
# 1 0.017233 -0.004745 -0.004332 0.000000 -0.001614 0.000000
# 2 -0.004745 0.014336 -0.000782 0.000000 -0.000316 0.000000
# 3 -0.004332 -0.000782 0.012971 0.000000 -0.002985 0.000000
# 4 0.000000 0.000000 0.000000 0.156793 0.000000 -0.026403
# 5 -0.001614 -0.000316 -0.002985 0.000000 0.083561 0.000000
# 6 0.000000 0.000000 0.000000 -0.026403 0.000000 0.056090
#
#
# Mechanical properties :
#
#
# Convention : Reuss Voigt Hill
#
# Bulk Modulus (GPa) = 40.28724 40.83400 40.56062
# Shear Modulus (GPa) = 13.55101 19.24360 16.39731
#
# Velocity S-wave (km/s) = 2.91208 3.47025 3.20334
# Velocity P-wave (km/s) = 6.04306 6.45063 6.25017
#
# Compressibility (1/GPa) = 0.02482175
#
# Stress axis : x y z
#
# Youngs Moduli (GPa) = 58.02793 69.75216 77.09696
#
# Poissons Ratio (x) = 0.33099 0.33402
# Poissons Ratio (y) = 0.27535 0.06026
# Poissons Ratio (z) = 0.25140 0.05452
#
# Static dielectric constant tensor:
#      x y z
#    x 1.564770 0.000000 0.017370 
#    y 0.000000 1.521000 0.000000 
#    z 0.017370 0.000000 1.528380 
# 
# From -- ./inp_files/200607.got.cif
#   From: 2010.05.17/outbox.cif.g08.bks.cpg/sg12_101_cif.got.tgz:200607.got - 2010.06.03 13:09:07.
