data_PCOD9190214
_publ_section_title
;
Structure prediction by ZEFSAII (Michael W. Deem and Ramdas Pophale) SiO2 
 PCOD9190214
Probable space group: C 2/M
;
_chemical_formula_sum "Si O2"
_cell_formula_units_Z 44
_cell_length_a 10.255822
_cell_length_b 25.718674
_cell_length_c 8.842222
_cell_angle_alpha 90.000000
_cell_angle_beta 50.250829
_cell_angle_gamma 90.000000
_cell_volume 1793.175075
_symmetry_space_group_name_H-M "C 2/M"
_symmetry_group_IT_number 12
_symmetry_cell_setting 'monoclinic'
loop_
_space_group_symop_operation_xyz
x,y,z
-x,y,-z
-x,-y,-z
x,-y,z
1/2+x,1/2+y,z
1/2-x,1/2+y,-z
1/2-x,1/2-y,-z
1/2+x,1/2-y,z
loop_
_atom_site_type_symbol
_atom_site_label
_atom_site_fract_x
_atom_site_fract_y
_atom_site_fract_z
Si Si1 0.200616 0.724820 0.871806
Si Si2 0.718209 0.594708 0.903020
Si Si3 0.266680 0.000000 0.644295
Si Si4 0.114058 0.593347 0.667380
Si Si5 0.299039 0.820679 0.617298
Si Si6 0.646441 0.611883 0.271314
O O1 0.244507 0.762474 0.697264
O O2 0.308142 0.672218 0.783938
O O3 0.250000 0.750000 0.000000
O O4 0.000000 0.713685 0.000000
O O5 0.709129 0.545028 0.806457
O O6 0.696212 0.645540 0.816721
O O7 0.913253 0.600471 0.814973
O O8 0.606751 0.590548 0.135291
O O9 0.343756 0.954101 0.474699
O O10 0.205868 0.645995 0.533543
O O11 0.191784 0.584444 0.773203
O O12 0.500000 0.822453 0.500000
O O13 0.500000 0.602900 0.500000
#
# Coordination Sequence:
#
# PCOD9190214 Si02
#       6
#     8   8   4   8   8   8
#     4  12  26  44  71 101 140 185 235 279 349 416
#     4  10  19  41  67  98 131 171 222 286 338 409
#     4  10  21  42  75 104 125 168 235 284 351 416
#     4  10  21  39  69 100 130 172 225 288 341 409
#     4   9  20  38  66  94 133 176 225 273 338 402
#     4  12  27  43  63  95 141 181 231 280 348 407
#
# _framework density 24.537481
#
# number of rings (size 3 to 8) (size 9 to 14) (size 15 to 20)
#    0.000    1.455    1.818    4.909    5.091    1.455 
#    0.000    7.273    0.000    0.000    0.000    0.000 
#    0.000    0.000    0.000    0.000    0.000    0.000 
#
# Total GULP energy -122611.692562 kJ/mol
# GULP energy per Si atom -5573.258753 kJ/mol
# Density = 2.448163 g / cm^3
# Si number density = 24.537481 Si / 1000 Ang^3
#
#
#
# Elastic Constant Matrix: (Units=GPa)
#
#
# Indices 1 2 3 4 5 6 
#
# 1 80.3026 -13.5335 15.0219 0.0000 -7.1565 0.0000
# 2 -13.5335 70.4885 19.9161 0.0000 3.6706 0.0000
# 3 15.0219 19.9161 142.2177 0.0000 15.3815 0.0000
# 4 0.0000 0.0000 0.0000 17.7970 0.0000 -26.3206
# 5 -7.1565 3.6706 15.3815 0.0000 22.3687 0.0000
# 6 0.0000 0.0000 0.0000 -26.3206 0.0000 -195.9739
#
#
#
# Elastic Compliance Matrix: (Units=1/GPa)
#
#
# Indices 1 2 3 4 5 6 
#
# 1 0.013954 0.003096 -0.002523 0.000000 0.005691 0.000000
# 2 0.003096 0.015482 -0.002514 0.000000 0.000179 0.000000
# 3 -0.002523 -0.002514 0.008311 0.000000 -0.006109 0.000000
# 4 0.000000 0.000000 0.000000 0.046878 0.000000 -0.006296
# 5 0.005691 0.000179 -0.006109 0.000000 0.050698 0.000000
# 6 0.000000 0.000000 0.000000 -0.006296 0.000000 -0.004257
#
#
# Mechanical properties :
#
#
# Convention : Reuss Voigt Hill
#
# Bulk Modulus (GPa) = 29.53064 37.31310 33.42187
# Shear Modulus (GPa) = 34.19114 -13.05470 10.56822
#
# Velocity S-wave (km/s) = 3.73691 -2.30908 2.07758
# Velocity P-wave (km/s) = 5.53899 2.85139 4.40516
#
# Compressibility (1/GPa) = 0.03386313
#
# Stress axis : x y z
#
# Youngs Moduli (GPa) = 71.66542 64.59048 120.32489
#
# Poissons Ratio (x) = -0.19994 0.30357
# Poissons Ratio (y) = -0.22184 0.30255
# Poissons Ratio (z) = 0.18080 0.16241
#
# Static dielectric constant tensor:
#      x y z
#    x 2.015040 0.000000 -0.015870 
#    y 0.000000 1.910710 0.000000 
#    z -0.015870 0.000000 1.962460 
# 
# From -- ./inp_files/52995.got.cif
#   From: 2010.05.17/outbox.cif.g08.bks.cpg/sg12_27_cif.got.tgz:52995.got - 2010.06.03 13:09:07.
