data_PCOD9190277
_publ_section_title
;
Structure prediction by ZEFSAII (Michael W. Deem and Ramdas Pophale) SiO2 
 PCOD9190277
Probable space group: C 2/M
;
_chemical_formula_sum "Si O2"
_cell_formula_units_Z 40
_cell_length_a 22.033568
_cell_length_b 19.260768
_cell_length_c 8.695490
_cell_angle_alpha 90.000000
_cell_angle_beta 25.601500
_cell_angle_gamma 90.000000
_cell_volume 1594.579449
_symmetry_space_group_name_H-M "C 2/M"
_symmetry_group_IT_number 12
_symmetry_cell_setting 'monoclinic'
loop_
_space_group_symop_operation_xyz
x,y,z
-x,y,-z
-x,-y,-z
x,-y,z
1/2+x,1/2+y,z
1/2-x,1/2+y,-z
1/2-x,1/2-y,-z
1/2+x,1/2-y,z
loop_
_atom_site_type_symbol
_atom_site_label
_atom_site_fract_x
_atom_site_fract_y
_atom_site_fract_z
Si Si1 0.988122 0.000000 0.344446
Si Si2 0.136569 0.643757 0.253391
Si Si3 0.836221 0.000000 0.427553
Si Si4 0.253220 0.342475 0.646682
Si Si5 0.997707 0.253482 0.813523
Si Si6 0.117329 0.132697 0.101274
O O1 0.063948 0.930573 0.123407
O O2 0.000000 0.000000 0.500000
O O3 0.837933 0.000000 0.612286
O O4 0.000000 0.605216 0.500000
O O5 0.080649 0.710628 0.478773
O O6 0.220081 0.658010 0.906254
O O7 0.241565 0.611322 0.135935
O O8 0.777245 0.921900 0.534178
O O9 0.000000 0.000000 0.000000
O O10 0.388710 0.290082 0.344051
O O11 0.111983 0.313961 0.885651
O O12 0.886460 0.198998 0.996126
O O13 0.000000 0.145606 0.500000
#
# Coordination Sequence:
#
# PCOD9190277 Si02
#       6
#     4   8   4   8   8   8
#     4  10  20  34  62  89 118 163 210 257 308 385
#     4  10  20  29  53  91 134 163 198 255 328 377
#     4  12  26  46  64  91 130 177 218 265 319 383
#     4  11  21  37  60  90 125 168 214 258 315 382
#     4  11  19  31  60  89 126 163 204 256 321 379
#     4  11  17  29  50  84 121 162 208 245 303 377
#
# _framework density 25.084985
#
# number of rings (size 3 to 8) (size 9 to 14) (size 15 to 20)
#    0.000    1.200    6.000    3.600    0.000    0.000 
#    0.000   10.000    0.000    0.000    0.000   16.800 
#    0.000    0.000    0.000    0.000    0.000    0.000 
#
# Total GULP energy -111483.197721 kJ/mol
# GULP energy per Si atom -5574.159886 kJ/mol
# Density = 2.502789 g / cm^3
# Si number density = 25.084985 Si / 1000 Ang^3
#
#
#
# Elastic Constant Matrix: (Units=GPa)
#
#
# Indices 1 2 3 4 5 6 
#
# 1 88.5929 13.9860 24.9273 0.0001 -11.8682 0.0000
# 2 13.9860 165.6776 55.5303 0.0002 -6.3256 0.0000
# 3 24.9273 55.5303 122.9170 0.0006 -6.3846 -0.0001
# 4 0.0001 0.0002 0.0006 17.2995 -0.0001 -17.4054
# 5 -11.8682 -6.3256 -6.3846 -0.0001 47.4640 0.0000
# 6 0.0000 0.0000 -0.0001 -17.4054 0.0000 31.7095
#
#
#
# Elastic Compliance Matrix: (Units=1/GPa)
#
#
# Indices 1 2 3 4 5 6 
#
# 1 0.012325 -0.000171 -0.002279 0.000000 0.002752 0.000000
# 2 -0.000171 0.007128 -0.003160 0.000000 0.000482 0.000000
# 3 -0.002279 -0.003160 0.010044 -0.000001 0.000360 0.000000
# 4 0.000000 0.000000 -0.000001 0.129105 0.000000 0.070866
# 5 0.002752 0.000482 0.000360 0.000000 0.021869 0.000000
# 6 0.000000 0.000000 0.000000 0.070866 0.000000 0.070435
#
#
# Mechanical properties :
#
#
# Convention : Reuss Voigt Hill
#
# Bulk Modulus (GPa) = 54.71931 62.89720 58.80825
# Shear Modulus (GPa) = 18.64146 38.14421 28.39283
#
# Velocity S-wave (km/s) = 2.72900 3.90372 3.36797
# Velocity P-wave (km/s) = 5.63834 6.74142 6.21440
#
# Compressibility (1/GPa) = 0.01827508
#
# Stress axis : x y z
#
# Youngs Moduli (GPa) = 81.13859 140.29243 99.55978
#
# Poissons Ratio (x) = 0.02406 0.22689
# Poissons Ratio (y) = 0.01391 0.31465
# Poissons Ratio (z) = 0.18491 0.44338
#
# Static dielectric constant tensor:
#      x y z
#    x 2.083200 0.000000 0.088960 
#    y 0.000000 2.141120 0.000000 
#    z 0.088960 0.000000 2.113300 
# 
# From -- ./inp_files/189911.got.cif
#   From: 2010.05.17/outbox.cif.g08.bks.cpg/sg12_95_cif.got.tgz:189911.got - 2010.06.03 13:09:07.
