data_PCOD9190929
_publ_section_title
;
Structure prediction by ZEFSAII (Michael W. Deem and Ramdas Pophale) SiO2 
 PCOD9190929
Probable space group: C 2/M
;
_chemical_formula_sum "Si O2"
_cell_formula_units_Z 64
_cell_length_a 15.467184
_cell_length_b 7.598601
_cell_length_c 26.538866
_cell_angle_alpha 90.000000
_cell_angle_beta 105.591494
_cell_angle_gamma 90.000000
_cell_volume 3004.310709
_symmetry_space_group_name_H-M "C 2/M"
_symmetry_group_IT_number 12
_symmetry_cell_setting 'monoclinic'
loop_
_space_group_symop_operation_xyz
x,y,z
-x,y,-z
-x,-y,-z
x,-y,z
1/2+x,1/2+y,z
1/2-x,1/2+y,-z
1/2-x,1/2-y,-z
1/2+x,1/2-y,z
loop_
_atom_site_type_symbol
_atom_site_label
_atom_site_fract_x
_atom_site_fract_y
_atom_site_fract_z
Si Si1 0.001618 0.784232 0.941683
Si Si2 0.303463 0.290455 0.059687
Si Si3 0.249757 0.716002 0.747425
Si Si4 0.182124 0.794168 0.134835
Si Si5 0.488027 0.786266 0.556223
Si Si6 0.793836 0.807970 0.559053
Si Si7 0.635123 0.712785 0.329399
Si Si8 0.067478 0.290553 0.668862
O O1 0.094592 0.727017 0.931059
O O2 0.912961 0.720433 0.899148
O O3 0.000782 0.000000 0.941781
O O4 0.000000 0.730540 0.000000
O O5 0.305947 0.500000 0.065830
O O6 0.251374 0.217974 0.099587
O O7 0.250000 0.250000 0.000000
O O8 0.246995 0.500000 0.748090
O O9 0.277394 0.779050 0.807165
O O10 0.323707 0.766875 0.717348
O O11 0.152073 0.778777 0.713182
O O12 0.165057 0.000000 0.142048
O O13 0.500000 0.740186 0.500000
O O14 0.398395 0.694082 0.561152
O O15 0.562410 0.734876 0.609190
O O16 0.476208 0.000000 0.556855
O O17 0.750000 0.750000 0.500000
O O18 0.801402 0.717148 0.614873
O O19 0.753393 0.000000 0.561945
O O20 0.640031 0.500000 0.332969
O O21 0.530789 0.757811 0.322345
O O22 0.078619 0.500000 0.669095
#
# Coordination Sequence:
#
# PCOD9190929 Si02
#       8
#     8   8   8   8   8   8   8   8
#     4   9  17  32  54  78 108 144 176 210 258 315
#     4  11  21  35  57  84 113 145 180 221 271 316
#     4   9  19  35  58  80 102 143 186 218 260 323
#     4  10  20  37  57  80 109 143 185 221 260 318
#     4   9  18  31  51  75 101 135 174 216 271 333
#     4  10  20  32  50  75 106 135 172 223 275 328
#     4   9  19  36  56  77 104 140 183 226 268 323
#     4   9  18  34  54  77 106 137 176 224 274 322
#
# _framework density 21.302723
#
# number of rings (size 3 to 8) (size 9 to 14) (size 15 to 20)
#    0.000    2.500    1.250    0.750    1.750    1.750 
#    0.000    5.000    0.000    0.000    0.000    0.000 
#    0.000    0.000    0.000    0.000    0.000    0.000 
#
# Total GULP energy -178446.687379 kJ/mol
# GULP energy per Si atom -5576.458981 kJ/mol
# Density = 2.125424 g / cm^3
# Si number density = 21.302723 Si / 1000 Ang^3
#
#
#
# Elastic Constant Matrix: (Units=GPa)
#
#
# Indices 1 2 3 4 5 6 
#
# 1 132.9730 -7.9878 100.1597 0.0000 19.8226 0.0000
# 2 -7.9878 38.5646 3.6434 0.0000 8.7408 0.0000
# 3 100.1597 3.6434 228.7646 0.0000 17.6325 0.0000
# 4 0.0000 0.0000 0.0000 6.9854 0.0000 -5.7002
# 5 19.8226 8.7408 17.6325 0.0000 35.9495 0.0000
# 6 0.0000 0.0000 0.0000 -5.7002 0.0000 18.7203
#
#
#
# Elastic Compliance Matrix: (Units=1/GPa)
#
#
# Indices 1 2 3 4 5 6 
#
# 1 0.012412 0.004273 -0.005087 0.000000 -0.005388 0.000000
# 2 0.004273 0.028915 -0.001671 0.000000 -0.008567 0.000000
# 3 -0.005087 -0.001671 0.006628 0.000000 -0.000040 0.000000
# 4 0.000000 0.000000 0.000000 0.190487 0.000000 0.058002
# 5 -0.005388 -0.008567 -0.000040 0.000000 0.032890 0.000000
# 6 0.000000 0.000000 0.000000 0.058002 0.000000 0.071079
#
#
# Mechanical properties :
#
#
# Convention : Reuss Voigt Hill
#
# Bulk Modulus (GPa) = 23.26423 65.77033 44.51728
# Shear Modulus (GPa) = 13.82320 32.63016 23.22668
#
# Velocity S-wave (km/s) = 2.55010 3.91799 3.30557
# Velocity P-wave (km/s) = 4.42890 7.16998 5.95919
#
# Compressibility (1/GPa) = 0.04298445
#
# Stress axis : x y z
#
# Youngs Moduli (GPa) = 80.56797 34.58410 150.86959
#
# Poissons Ratio (x) = -0.14776 0.76748
# Poissons Ratio (y) = -0.34423 0.25208
# Poissons Ratio (z) = 0.40985 0.05779
#
# Static dielectric constant tensor:
#      x y z
#    x 1.738690 0.000000 0.025260 
#    y 0.000000 1.832270 0.000000 
#    z 0.025260 0.000000 1.784490 
# 
# From -- ./inp_files/359897.got.cif
#   From: 2010.05.17/outbox.cif.g08.bks.cpg/sg12_180_cif.got.tgz:359897.got - 2010.06.03 13:09:07.
