data_PCOD9190311
_publ_section_title
;
Structure prediction by ZEFSAII (Michael W. Deem and Ramdas Pophale) SiO2 
 PCOD9190311
Probable space group: C 2/M
;
_chemical_formula_sum "Si O2"
_cell_formula_units_Z 40
_cell_length_a 13.895626
_cell_length_b 20.167332
_cell_length_c 5.586588
_cell_angle_alpha 90.000000
_cell_angle_beta 78.403125
_cell_angle_gamma 90.000000
_cell_volume 1533.613326
_symmetry_space_group_name_H-M "C 2/M"
_symmetry_group_IT_number 12
_symmetry_cell_setting 'monoclinic'
loop_
_space_group_symop_operation_xyz
x,y,z
-x,y,-z
-x,-y,-z
x,-y,z
1/2+x,1/2+y,z
1/2-x,1/2+y,-z
1/2-x,1/2-y,-z
1/2+x,1/2-y,z
loop_
_atom_site_type_symbol
_atom_site_label
_atom_site_fract_x
_atom_site_fract_y
_atom_site_fract_z
Si Si1 0.611197 0.595375 0.971420
Si Si2 0.120619 0.892406 0.459934
Si Si3 0.849285 0.769803 0.816098
Si Si4 0.383726 0.077370 0.102079
Si Si5 0.109356 0.372256 0.398878
O O1 0.654611 0.580269 0.693453
O O2 0.500000 0.571724 0.000000
O O3 0.654753 0.572303 0.200743
O O4 0.605507 0.675514 0.023011
O O5 0.154689 0.816465 0.415685
O O6 0.000000 0.892622 0.500000
O O7 0.898670 0.702858 0.697389
O O8 0.750000 0.750000 0.000000
O O9 0.348265 0.118945 0.352613
O O10 0.375330 0.000000 0.162903
O O11 0.500000 0.093113 0.000000
O O12 0.342037 0.092935 0.857140
O O13 0.000000 0.400497 0.500000
#
# Coordination Sequence:
#
# PCOD9190311 Si02
#       5
#     8   8   8   8   8
#     4   8  16  27  42  52  72 107 149 181 200 240
#     4   8  15  28  41  53  71 107 147 180 202 240
#     4  10  21  29  41  63  91 118 150 184 214 253
#     4   9  18  33  50  67  83 104 145 200 237 260
#     4  10  20  30  47  66  87 118 152 183 223 274
#
# _framework density 26.082193
#
# number of rings (size 3 to 8) (size 9 to 14) (size 15 to 20)
#    1.200    1.800    0.000    1.200    2.800    4.000 
#    0.000    0.000    0.000    0.000    0.000    0.000 
#    0.000    0.000    0.000    0.000    0.000   46.000 
#
# Total GULP energy -111406.641517 kJ/mol
# GULP energy per Si atom -5570.332076 kJ/mol
# Density = 2.602283 g / cm^3
# Si number density = 26.082193 Si / 1000 Ang^3
#
#
#
# Elastic Constant Matrix: (Units=GPa)
#
#
# Indices 1 2 3 4 5 6 
#
# 1 84.9413 10.6767 42.1505 0.0000 1.8965 0.0000
# 2 10.6767 129.9948 37.6847 0.0000 3.8847 0.0000
# 3 42.1505 37.6847 285.4266 0.0000 23.8885 0.0000
# 4 0.0000 0.0000 0.0000 -37.1764 0.0000 2.5899
# 5 1.8965 3.8847 23.8885 0.0000 49.2147 0.0000
# 6 0.0000 0.0000 0.0000 2.5899 0.0000 -12.7944
#
#
#
# Elastic Compliance Matrix: (Units=1/GPa)
#
#
# Indices 1 2 3 4 5 6 
#
# 1 0.012747 -0.000524 -0.001851 0.000000 0.000449 0.000000
# 2 -0.000524 0.008021 -0.000970 0.000000 -0.000142 0.000000
# 3 -0.001851 -0.000970 0.004057 0.000000 -0.001822 0.000000
# 4 0.000000 0.000000 0.000000 -0.027284 0.000000 -0.005523
# 5 0.000449 -0.000142 -0.001822 0.000000 0.021197 0.000000
# 6 0.000000 0.000000 0.000000 -0.005523 0.000000 -0.079277
#
#
# Mechanical properties :
#
#
# Convention : Reuss Voigt Hill
#
# Bulk Modulus (GPa) = 55.13682 75.70962 65.42322
# Shear Modulus (GPa) = -104.59473 27.17217 -38.71128
#
# Velocity S-wave (km/s) = -6.33948 3.23118 -3.85672
# Velocity P-wave (km/s) = 5.69209 6.55828 2.30339
#
# Compressibility (1/GPa) = 0.01813670
#
# Stress axis : x y z
#
# Youngs Moduli (GPa) = 78.44922 124.67252 246.46723
#
# Poissons Ratio (x) = 0.06530 0.45617
# Poissons Ratio (y) = 0.04109 0.23901
# Poissons Ratio (z) = 0.14519 0.12090
#
# Static dielectric constant tensor:
#      x y z
#    x 2.093870 0.000000 0.028860 
#    y 0.000000 1.983270 0.000000 
#    z 0.028860 0.000000 2.094830 
# 
# From -- ./inp_files/20704.got.cif
#   From: 2010.05.17/outbox.cif.g08.bks.cpg/sg12_11_cif.got.tgz:20704.got - 2010.06.03 13:09:07.
