data_PCOD9190557
_publ_section_title
;
Structure prediction by ZEFSAII (Michael W. Deem and Ramdas Pophale) SiO2 
 PCOD9190557
Probable space group: C 2/M
;
_chemical_formula_sum "Si O2"
_cell_formula_units_Z 56
_cell_length_a 9.396966
_cell_length_b 17.782261
_cell_length_c 16.523790
_cell_angle_alpha 90.000000
_cell_angle_beta 84.011305
_cell_angle_gamma 90.000000
_cell_volume 2746.044999
_symmetry_space_group_name_H-M "C 2/M"
_symmetry_group_IT_number 12
_symmetry_cell_setting 'monoclinic'
loop_
_space_group_symop_operation_xyz
x,y,z
-x,y,-z
-x,-y,-z
x,-y,z
1/2+x,1/2+y,z
1/2-x,1/2+y,-z
1/2-x,1/2-y,-z
1/2+x,1/2-y,z
loop_
_atom_site_type_symbol
_atom_site_label
_atom_site_fract_x
_atom_site_fract_y
_atom_site_fract_z
Si Si1 0.719867 0.680349 0.883683
Si Si2 0.385525 0.194452 0.572361
Si Si3 0.768591 0.583578 0.207364
Si Si4 0.159848 0.653113 0.956710
Si Si5 0.939460 0.848870 0.425987
Si Si6 0.474839 0.342026 0.248952
Si Si7 0.476981 0.828398 0.742164
O O1 0.684007 0.766952 0.909186
O O2 0.605127 0.642492 0.830528
O O3 0.865659 0.675875 0.822847
O O4 0.739573 0.644969 0.971005
O O5 0.500000 0.163374 0.500000
O O6 0.222305 0.182771 0.554002
O O7 0.443867 0.280030 0.582179
O O8 0.400643 0.160049 0.660987
O O9 0.720596 0.500000 0.230358
O O10 0.813888 0.590508 0.111393
O O11 0.641091 0.641848 0.228137
O O12 0.905209 0.608933 0.250049
O O13 0.000000 0.653415 0.000000
O O14 0.936924 0.882344 0.335751
O O15 0.000000 0.894039 0.500000
O O16 0.446343 0.253178 0.264386
#
# Coordination Sequence:
#
# PCOD9190557 Si02
#       7
#     8   8   8   8   8   8   8
#     4  11  20  37  62  97 117 158 214 270 296 360
#     4  10  20  31  55  95 132 159 203 267 320 361
#     4  12  27  43  61  93 133 169 202 258 331 380
#     4  11  22  37  63  92 127 158 211 262 317 367
#     4  10  20  31  54  93 132 164 199 265 322 365
#     4  11  21  38  64  91 126 163 219 256 310 373
#     4  11  20  39  64  91 122 168 216 256 303 380
#
# _framework density 20.392966000000001
#
# number of rings (size 3 to 8) (size 9 to 14) (size 15 to 20)
#    0.000    1.143    5.714    1.714   10.000    0.286 
#    0.000    2.143    0.000    0.857    0.000    0.000 
#    0.000    0.000    0.000    0.000    0.000    0.000 
#
# Total GULP energy -156094.552987 kJ/mol
# GULP energy per Si atom -5574.805464 kJ/mol
# Density = 2.034655 g / cm^3
# Si number density = 20.392966 Si / 1000 Ang^3
#
#
#
# Elastic Constant Matrix: (Units=GPa)
#
#
# Indices 1 2 3 4 5 6 
#
# 1 103.1596 1.7533 39.8437 0.0000 15.3102 0.0000
# 2 1.7533 23.2996 7.3659 0.0000 5.6106 0.0000
# 3 39.8437 7.3659 145.3704 0.0000 30.7310 0.0000
# 4 0.0000 0.0000 0.0000 -4.1582 0.0000 1.4148
# 5 15.3102 5.6106 30.7310 0.0000 43.1173 0.0000
# 6 0.0000 0.0000 0.0000 1.4148 0.0000 3.0970
#
#
#
# Elastic Compliance Matrix: (Units=1/GPa)
#
#
# Indices 1 2 3 4 5 6 
#
# 1 0.011001 0.000503 -0.002592 0.000000 -0.002125 0.000000
# 2 0.000503 0.044511 -0.001332 0.000000 -0.005021 0.000000
# 3 -0.002592 -0.001332 0.008743 0.000000 -0.005138 0.000000
# 4 0.000000 0.000000 0.000000 -0.208138 0.000000 0.095084
# 5 -0.002125 -0.005021 -0.005138 0.000000 0.028262 0.000000
# 6 0.000000 0.000000 0.000000 0.095084 0.000000 0.279455
#
#
# Mechanical properties :
#
#
# Convention : Reuss Voigt Hill
#
# Bulk Modulus (GPa) = 17.41698 41.08394 29.25046
# Shear Modulus (GPa) = 26.34152 23.26901 24.80526
#
# Velocity S-wave (km/s) = 3.59792 3.38158 3.49142
# Velocity P-wave (km/s) = 5.08126 5.95287 5.53425
#
# Compressibility (1/GPa) = 0.05741523
#
# Stress axis : x y z
#
# Youngs Moduli (GPa) = 90.89679 22.46611 114.37833
#
# Poissons Ratio (x) = -0.01130 0.29643
# Poissons Ratio (y) = -0.04573 0.15233
# Poissons Ratio (z) = 0.23557 0.02992
#
# Static dielectric constant tensor:
#      x y z
#    x 1.732630 0.000000 0.016510 
#    y 0.000000 1.695010 0.000000 
#    z 0.016510 0.000000 1.829490 
# 
# From -- ./inp_files/257644.got.cif
#   From: 2010.05.17/outbox.cif.g08.bks.cpg/sg12_129_cif.got.tgz:257644.got - 2010.06.03 13:09:07.
