data_PCOD9190051
_publ_section_title
;
Structure prediction by ZEFSAII (Michael W. Deem and Ramdas Pophale) SiO2 
 PCOD9190051
Probable space group: C 2/M
;
_chemical_formula_sum "Si O2"
_cell_formula_units_Z 56
_cell_length_a 14.193496
_cell_length_b 26.055768
_cell_length_c 8.385264
_cell_angle_alpha 90.000000
_cell_angle_beta 57.413036
_cell_angle_gamma 90.000000
_cell_volume 2612.874471
_symmetry_space_group_name_H-M "C 2/M"
_symmetry_group_IT_number 12
_symmetry_cell_setting 'monoclinic'
loop_
_space_group_symop_operation_xyz
x,y,z
-x,y,-z
-x,-y,-z
x,-y,z
1/2+x,1/2+y,z
1/2-x,1/2+y,-z
1/2-x,1/2-y,-z
1/2+x,1/2-y,z
loop_
_atom_site_type_symbol
_atom_site_label
_atom_site_fract_x
_atom_site_fract_y
_atom_site_fract_z
Si Si1 0.125639 0.061322 0.446794
Si Si2 0.891304 0.561192 0.706607
Si Si3 0.373114 0.209687 0.837346
Si Si4 0.667453 0.723036 0.835685
Si Si5 0.174159 0.384555 0.925668
Si Si6 0.703979 0.619736 0.682424
Si Si7 0.888845 0.679460 0.315747
O O1 0.218372 0.086993 0.246130
O O2 0.142085 0.085417 0.607764
O O3 0.000000 0.070907 0.500000
O O4 0.144321 0.000000 0.434714
O O5 0.883809 0.500000 0.708345
O O6 0.779782 0.585649 0.730697
O O7 0.000000 0.575583 0.500000
O O8 0.892444 0.579396 0.889770
O O9 0.300623 0.226243 0.754155
O O10 0.493195 0.184635 0.703739
O O11 0.386960 0.254791 0.952949
O O12 0.299091 0.165788 0.992429
O O13 0.634456 0.664638 0.831120
O O14 0.640770 0.764409 0.724740
O O15 0.108123 0.359299 0.838002
O O16 0.792488 0.654900 0.506812
#
# Coordination Sequence:
#
# PCOD9190051 Si02
#       7
#     8   8   8   8   8   8   8
#     4  10  23  45  66  87 120 165 215 263 313 366
#     4  11  23  38  62  98 129 157 200 259 318 371
#     4  10  20  38  62  89 126 165 196 250 310 374
#     4  10  20  36  57  88 125 160 200 245 298 366
#     4  10  19  39  65  89 122 164 206 248 309 374
#     4  11  22  40  62  92 121 161 208 258 308 368
#     4  10  22  39  63  92 124 167 207 246 309 377
#
# _framework density 21.432335999999999
#
# number of rings (size 3 to 8) (size 9 to 14) (size 15 to 20)
#    0.000    1.714    1.429    3.857    0.000    1.143 
#   12.857    0.714    0.000   11.143    0.000    0.000 
#    0.000    0.000    0.000    0.000    0.000    0.000 
#
# Total GULP energy -156344.860113 kJ/mol
# GULP energy per Si atom -5583.745004 kJ/mol
# Density = 2.138356 g / cm^3
# Si number density = 21.432336 Si / 1000 Ang^3
#
#
#
# Elastic Constant Matrix: (Units=GPa)
#
#
# Indices 1 2 3 4 5 6 
#
# 1 109.5017 50.4258 29.3951 0.0000 -8.3400 0.0000
# 2 50.4258 139.5513 44.6909 0.0000 -4.3854 0.0000
# 3 29.3951 44.6909 77.4336 0.0000 2.4076 0.0000
# 4 0.0000 0.0000 0.0000 40.9135 0.0000 7.6396
# 5 -8.3400 -4.3854 2.4076 0.0000 27.2601 0.0000
# 6 0.0000 0.0000 0.0000 7.6396 0.0000 20.6326
#
#
#
# Elastic Compliance Matrix: (Units=1/GPa)
#
#
# Indices 1 2 3 4 5 6 
#
# 1 0.011577 -0.003240 -0.002626 0.000000 0.003253 0.000000
# 2 -0.003240 0.009793 -0.004453 0.000000 0.000977 0.000000
# 3 -0.002626 -0.004453 0.016574 0.000000 -0.002983 0.000000
# 4 0.000000 0.000000 0.000000 0.026257 0.000000 -0.009722
# 5 0.003253 0.000977 -0.002983 0.000000 0.038100 0.000000
# 6 0.000000 0.000000 0.000000 -0.009722 0.000000 0.052067
#
#
# Mechanical properties :
#
#
# Convention : Reuss Voigt Hill
#
# Bulk Modulus (GPa) = 57.78094 63.94558 60.86326
# Shear Modulus (GPa) = 27.65890 31.22623 29.44257
#
# Velocity S-wave (km/s) = 3.59628 3.82117 3.71043
# Velocity P-wave (km/s) = 6.65301 7.02632 6.84221
#
# Compressibility (1/GPa) = 0.01730675
#
# Stress axis : x y z
#
# Youngs Moduli (GPa) = 86.37831 102.11114 60.33651
#
# Poissons Ratio (x) = 0.33085 0.15844
# Poissons Ratio (y) = 0.27987 0.26865
# Poissons Ratio (z) = 0.22682 0.45466
#
# Static dielectric constant tensor:
#      x y z
#    x 1.787830 0.000000 0.010130 
#    y 0.000000 1.782040 0.000000 
#    z 0.010130 0.000000 1.855630 
# 
# From -- ./inp_files/65728.got.cif
#   From: 2010.05.17/outbox.cif.g08.bks.cpg/sg12_33_cif.got.tgz:65728.got - 2010.06.03 13:09:07.
