data_PCOD9190013
_publ_section_title
;
Structure prediction by ZEFSAII (Michael W. Deem and Ramdas Pophale) SiO2 
 PCOD9190013
Probable space group: C 2/M
;
_chemical_formula_sum "Si O2"
_cell_formula_units_Z 64
_cell_length_a 14.674888
_cell_length_b 18.947621
_cell_length_c 11.943902
_cell_angle_alpha 90.000000
_cell_angle_beta 85.547776
_cell_angle_gamma 90.000000
_cell_volume 3311.030733
_symmetry_space_group_name_H-M "C 2/M"
_symmetry_group_IT_number 12
_symmetry_cell_setting 'monoclinic'
loop_
_space_group_symop_operation_xyz
x,y,z
-x,y,-z
-x,-y,-z
x,-y,z
1/2+x,1/2+y,z
1/2-x,1/2+y,-z
1/2-x,1/2-y,-z
1/2+x,1/2-y,z
loop_
_atom_site_type_symbol
_atom_site_label
_atom_site_fract_x
_atom_site_fract_y
_atom_site_fract_z
Si Si1 0.655421 0.708469 0.504551
Si Si2 0.406596 0.282257 0.235604
Si Si3 0.462616 0.579403 0.129697
Si Si4 0.336325 0.575921 0.822207
Si Si5 0.759581 0.421305 0.408485
Si Si6 0.527898 0.918615 0.626854
Si Si7 0.258009 0.274726 0.873300
Si Si8 0.416434 0.782919 0.712060
O O1 0.750000 0.750000 0.500000
O O2 0.610409 0.714592 0.629865
O O3 0.691132 0.629284 0.480928
O O4 0.599633 0.742129 0.405458
O O5 0.398125 0.358491 0.178101
O O6 0.338573 0.228745 0.181108
O O7 0.510454 0.257210 0.217686
O O8 0.424166 0.500000 0.137499
O O9 0.554267 0.580735 0.196840
O O10 0.500000 0.591761 0.000000
O O11 0.317780 0.500000 0.881424
O O12 0.286774 0.574330 0.708059
O O13 0.299176 0.647061 0.878140
O O14 0.765768 0.500000 0.457471
O O15 0.864728 0.396200 0.382916
O O16 0.500000 0.920994 0.500000
O O17 0.460675 0.860143 0.687130
O O18 0.521880 0.000000 0.671587
O O19 0.322351 0.225360 0.788948
O O20 0.250000 0.250000 0.000000
#
# Coordination Sequence:
#
# PCOD9190013 Si02
#       8
#     8   8   8   8   8   8   8   8
#     4  12  21  37  59  91 124 159 201 248 311 366
#     4  12  24  37  64  90 124 162 203 259 307 368
#     4  10  21  39  61  86 119 161 204 249 304 364
#     4  10  19  39  63  84 117 158 201 246 300 362
#     4  10  20  36  60  89 123 159 200 246 299 373
#     4  10  21  37  60  88 122 165 201 239 301 372
#     4  12  25  41  62  94 121 160 215 259 308 365
#     4  12  23  40  62  90 126 160 203 256 309 370
#
# _framework density 19.329328
#
# number of rings (size 3 to 8) (size 9 to 14) (size 15 to 20)
#    0.000    1.000    3.750    4.125    0.000    0.500 
#    0.000    1.250    0.000    3.750    0.000    4.375 
#    0.000    0.000    0.000    0.000    0.000    0.000 
#
# Total GULP energy -178510.393921 kJ/mol
# GULP energy per Si atom -5578.449810 kJ/mol
# Density = 1.928533 g / cm^3
# Si number density = 19.329328 Si / 1000 Ang^3
#
#
#
# Elastic Constant Matrix: (Units=GPa)
#
#
# Indices 1 2 3 4 5 6 
#
# 1 61.7464 -3.5245 1.4395 0.0000 22.1614 0.0000
# 2 -3.5245 115.7349 6.3908 0.0000 -10.2142 0.0000
# 3 1.4395 6.3908 62.4369 0.0000 0.3121 0.0000
# 4 0.0000 0.0000 0.0000 22.9165 0.0000 -1.9142
# 5 22.1614 -10.2142 0.3121 0.0000 18.7987 0.0000
# 6 0.0000 0.0000 0.0000 -1.9142 0.0000 32.3505
#
#
#
# Elastic Compliance Matrix: (Units=1/GPa)
#
#
# Indices 1 2 3 4 5 6 
#
# 1 0.028606 -0.002196 -0.000260 0.000000 -0.034912 0.000000
# 2 -0.002196 0.009301 -0.000940 0.000000 0.007658 0.000000
# 3 -0.000260 -0.000940 0.016121 0.000000 -0.000471 0.000000
# 4 0.000000 0.000000 0.000000 0.043853 0.000000 0.002595
# 5 -0.034912 0.007658 -0.000471 0.000000 0.098521 0.000000
# 6 0.000000 0.000000 0.000000 0.002595 0.000000 0.031065
#
#
# Mechanical properties :
#
#
# Convention : Reuss Voigt Hill
#
# Bulk Modulus (GPa) = 21.16980 27.61441 24.39211
# Shear Modulus (GPa) = 19.99968 30.52065 25.26016
#
# Velocity S-wave (km/s) = 3.22013 3.97795 3.61893
# Velocity P-wave (km/s) = 4.98012 5.95114 5.48715
#
# Compressibility (1/GPa) = 0.04723710
#
# Stress axis : x y z
#
# Youngs Moduli (GPa) = 34.95738 107.51186 62.03203
#
# Poissons Ratio (x) = 0.23605 0.01614
# Poissons Ratio (y) = 0.07675 0.05829
# Poissons Ratio (z) = 0.00910 0.10103
#
# Static dielectric constant tensor:
#      x y z
#    x 1.651400 0.000000 0.052750 
#    y 0.000000 1.924940 0.000000 
#    z 0.052750 0.000000 1.585480 
# 
# From -- ./inp_files/146143.got.cif
#   From: 2010.05.17/outbox.cif.g08.bks.cpg/sg12_74_cif.got.tgz:146143.got - 2010.06.03 13:09:07.
