data_PCOD9190502
_publ_section_title
;
Structure prediction by ZEFSAII (Michael W. Deem and Ramdas Pophale) SiO2 
 PCOD9190502
Probable space group: C 2/M
;
_chemical_formula_sum "Si O2"
_cell_formula_units_Z 48
_cell_length_a 15.557341
_cell_length_b 8.820146
_cell_length_c 29.588569
_cell_angle_alpha 90.000000
_cell_angle_beta 142.343423
_cell_angle_gamma 90.000000
_cell_volume 2480.416320
_symmetry_space_group_name_H-M "C 2/M"
_symmetry_group_IT_number 12
_symmetry_cell_setting 'monoclinic'
loop_
_space_group_symop_operation_xyz
x,y,z
-x,y,-z
-x,-y,-z
x,-y,z
1/2+x,1/2+y,z
1/2-x,1/2+y,-z
1/2-x,1/2-y,-z
1/2+x,1/2-y,z
loop_
_atom_site_type_symbol
_atom_site_label
_atom_site_fract_x
_atom_site_fract_y
_atom_site_fract_z
Si Si1 0.362933 0.317076 0.081236
Si Si2 0.116295 0.171934 0.343717
Si Si3 0.140114 0.184581 0.816358
Si Si4 0.817390 0.818620 0.807768
Si Si5 0.413455 0.329661 0.345808
Si Si6 0.600331 0.828607 0.498952
O O1 0.357675 0.500000 0.077330
O O2 0.331875 0.272774 0.120288
O O3 0.521478 0.271638 0.133259
O O4 0.250000 0.250000 0.000000
O O5 0.256322 0.245467 0.422360
O O6 0.018236 0.237172 0.263531
O O7 0.008677 0.162405 0.340519
O O8 0.158792 0.000000 0.347379
O O9 0.249517 0.248451 0.825099
O O10 0.140260 0.000000 0.812816
O O11 0.721551 0.766147 0.725547
O O12 0.811058 0.000000 0.808441
O O13 0.371595 0.500000 0.341189
O O14 0.513481 0.258227 0.425028
O O15 0.500000 0.840475 0.500000
O O16 0.634197 0.000000 0.496224
#
# Coordination Sequence:
#
# PCOD9190502 Si02
#       6
#     8   8   8   8   8   8
#     4  10  23  40  62  88 118 152 186 231 285 345
#     4   8  16  32  53  75 102 140 185 227 274 327
#     4   9  19  38  61  84 114 153 191 232 285 341
#     4  10  21  38  61  88 115 148 192 239 283 335
#     4  10  20  35  54  75 108 149 186 232 281 333
#     4  10  20  31  50  78 107 144 187 234 279 326
#
# _framework density 19.351590000000002
#
# number of rings (size 3 to 8) (size 9 to 14) (size 15 to 20)
#    0.000    2.500    0.000    2.500    2.333    3.000 
#    0.000    6.667    0.000    0.000    0.000    0.000 
#    0.000    0.000    0.000    0.000    0.000    0.000 
#
# Total GULP energy -133794.938087 kJ/mol
# GULP energy per Si atom -5574.789087 kJ/mol
# Density = 1.930754 g / cm^3
# Si number density = 19.351590 Si / 1000 Ang^3
#
#
#
# Elastic Constant Matrix: (Units=GPa)
#
#
# Indices 1 2 3 4 5 6 
#
# 1 310.1966 90.1725 411.3523 0.0000 2.2880 0.0000
# 2 90.1725 56.9361 136.5114 0.0000 -2.7022 0.0000
# 3 411.3523 136.5114 684.1486 0.0000 -2.8659 0.0000
# 4 0.0000 0.0000 0.0000 22.5077 0.0000 0.4060
# 5 2.2880 -2.7022 -2.8659 0.0000 38.9255 0.0000
# 6 0.0000 0.0000 0.0000 0.4060 0.0000 15.5936
#
#
#
# Elastic Compliance Matrix: (Units=1/GPa)
#
#
# Indices 1 2 3 4 5 6 
#
# 1 0.016634 -0.004675 -0.009077 0.000000 -0.001971 0.000000
# 2 -0.004675 0.035120 -0.004187 0.000000 0.002405 0.000000
# 3 -0.009077 -0.004187 0.007758 0.000000 0.000814 0.000000
# 4 0.000000 0.000000 0.000000 0.044450 0.000000 -0.001157
# 5 -0.001971 0.002405 0.000814 0.000000 0.026033 0.000000
# 6 0.000000 0.000000 0.000000 -0.001157 0.000000 0.064159
#
#
# Mechanical properties :
#
#
# Convention : Reuss Voigt Hill
#
# Bulk Modulus (GPa) = 42.31020 258.59486 150.45253
# Shear Modulus (GPa) = 21.01638 42.95503 31.98571
#
# Velocity S-wave (km/s) = 3.29907 4.71650 4.06996
# Velocity P-wave (km/s) = 6.03517 12.78985 10.00009
#
# Compressibility (1/GPa) = 0.02363496
#
# Stress axis : x y z
#
# Youngs Moduli (GPa) = 60.11656 28.47416 128.89604
#
# Poissons Ratio (x) = 0.13311 1.17000
# Poissons Ratio (y) = 0.28103 0.53966
# Poissons Ratio (z) = 0.54568 0.11921
#
# Static dielectric constant tensor:
#      x y z
#    x 1.665230 0.000000 0.004770 
#    y 0.000000 1.700110 0.000000 
#    z 0.004770 0.000000 1.702740 
# 
# From -- ./inp_files/360213.got.cif
#   From: 2010.05.17/outbox.cif.g08.bks.cpg/sg12_181_cif.got.tgz:360213.got - 2010.06.03 13:09:07.
