data_PCOD9190375
_publ_section_title
;
Structure prediction by ZEFSAII (Michael W. Deem and Ramdas Pophale) SiO2 
 PCOD9190375
Probable space group: C 2/M
;
_chemical_formula_sum "Si O2"
_cell_formula_units_Z 56
_cell_length_a 28.092245
_cell_length_b 7.809167
_cell_length_c 16.941664
_cell_angle_alpha 90.000000
_cell_angle_beta 114.959891
_cell_angle_gamma 90.000000
_cell_volume 3369.493099
_symmetry_space_group_name_H-M "C 2/M"
_symmetry_group_IT_number 12
_symmetry_cell_setting 'monoclinic'
loop_
_space_group_symop_operation_xyz
x,y,z
-x,y,-z
-x,-y,-z
x,-y,z
1/2+x,1/2+y,z
1/2-x,1/2+y,-z
1/2-x,1/2-y,-z
1/2+x,1/2-y,z
loop_
_atom_site_type_symbol
_atom_site_label
_atom_site_fract_x
_atom_site_fract_y
_atom_site_fract_z
Si Si1 0.400435 0.797035 0.813386
Si Si2 0.416439 0.793182 0.461928
Si Si3 0.991822 0.289326 0.190669
Si Si4 0.308228 0.699018 0.637834
Si Si5 0.307492 0.297667 0.459433
Si Si6 0.057909 0.301766 0.999917
Si Si7 0.014772 0.709006 0.635428
O O1 0.449563 0.734725 0.794948
O O2 0.346343 0.774691 0.729973
O O3 0.405312 0.724762 0.905932
O O4 0.409451 0.000000 0.828510
O O5 0.358778 0.732413 0.443557
O O6 0.439949 0.737166 0.394062
O O7 0.459184 0.738894 0.557732
O O8 0.415805 0.000000 0.461662
O O9 0.991049 0.500000 0.189755
O O10 0.979893 0.233024 0.271006
O O11 0.952093 0.228673 0.094201
O O12 0.321782 0.500000 0.644193
O O13 0.316704 0.771789 0.555117
O O14 0.246419 0.719753 0.610797
O O15 0.297892 0.500000 0.459700
O O16 0.073687 0.500000 0.998416
O O17 0.000000 0.301982 0.000000
O O18 0.014846 0.500000 0.635939
#
# Coordination Sequence:
#
# PCOD9190375 Si02
#       7
#     8   8   8   8   8   8   8
#     4   9  15  24  41  63  85 109 137 169 201 233
#     4   9  16  27  42  61  85 110 138 170 201 233
#     4   8  12  20  37  61  87 113 140 167 194 230
#     4  10  20  31  43  60  81 106 135 165 201 246
#     4  10  20  32  44  59  80 106 136 168 202 240
#     4   7  11  19  33  57  85 109 135 166 197 231
#     4   8  14  23  38  61  86 113 141 165 194 236
#
# _framework density 16.619710999999999
#
# number of rings (size 3 to 8) (size 9 to 14) (size 15 to 20)
#    0.000    3.286    0.000    4.286    0.000    2.857 
#    0.000    1.429    0.000    4.714    0.000    1.000 
#    0.000    0.000    0.000    0.000    0.000    0.000 
#
# Total GULP energy -155870.236132 kJ/mol
# GULP energy per Si atom -5566.794148 kJ/mol
# Density = 1.658188 g / cm^3
# Si number density = 16.619711 Si / 1000 Ang^3
#
#
#
# Elastic Constant Matrix: (Units=GPa)
#
#
# Indices 1 2 3 4 5 6 
#
# 1 82.4515 -5.5996 62.5936 0.0000 -5.0572 0.0000
# 2 -5.5996 17.3848 2.8969 0.0000 -2.8648 0.0000
# 3 62.5936 2.8969 164.6610 0.0000 -9.9083 0.0000
# 4 0.0000 0.0000 0.0000 5.3224 0.0000 3.2460
# 5 -5.0572 -2.8648 -9.9083 0.0000 24.4054 0.0000
# 6 0.0000 0.0000 0.0000 3.2460 0.0000 14.1719
#
#
#
# Elastic Compliance Matrix: (Units=1/GPa)
#
#
# Indices 1 2 3 4 5 6 
#
# 1 0.017910 0.007201 -0.006828 0.000000 0.001785 0.000000
# 2 0.007201 0.061616 -0.003379 0.000000 0.007353 0.000000
# 3 -0.006828 -0.003379 0.008835 0.000000 0.001775 0.000000
# 4 0.000000 0.000000 0.000000 0.218392 0.000000 -0.050021
# 5 0.001785 0.007353 0.001775 0.000000 0.042928 0.000000
# 6 0.000000 0.000000 0.000000 -0.050021 0.000000 0.082019
#
#
# Mechanical properties :
#
#
# Convention : Reuss Voigt Hill
#
# Bulk Modulus (GPa) = 12.14345 42.69766 27.42055
# Shear Modulus (GPa) = 10.74898 22.42036 16.58467
#
# Velocity S-wave (km/s) = 2.54591 3.67689 3.16237
# Velocity P-wave (km/s) = 3.99559 6.61610 5.46523
#
# Compressibility (1/GPa) = 0.08234894
#
# Stress axis : x y z
#
# Youngs Moduli (GPa) = 55.83476 16.22966 113.18940
#
# Poissons Ratio (x) = -0.11686 0.77280
# Poissons Ratio (y) = -0.40204 0.38244
# Poissons Ratio (z) = 0.38121 0.05484
#
# Static dielectric constant tensor:
#      x y z
#    x 1.528770 0.000000 -0.019430 
#    y 0.000000 1.614250 0.000000 
#    z -0.019430 0.000000 1.598330 
# 
# From -- ./inp_files/291476.got.cif
#   From: 2010.05.17/outbox.cif.g08.bks.cpg/sg12_146_cif.got.tgz:291476.got - 2010.06.03 13:09:07.
