data_PCOD9190001
_publ_section_title
;
Structure prediction by ZEFSAII (Michael W. Deem and Ramdas Pophale) SiO2 
 PCOD9190001
Probable space group: C 2/M
;
_chemical_formula_sum "Si O2"
_cell_formula_units_Z 50
_cell_length_a 10.652794
_cell_length_b 30.305991
_cell_length_c 8.124956
_cell_angle_alpha 90.000000
_cell_angle_beta 115.850958
_cell_angle_gamma 90.000000
_cell_volume 2360.600022
_symmetry_space_group_name_H-M "C 2/M"
_symmetry_group_IT_number 12
_symmetry_cell_setting 'monoclinic'
loop_
_space_group_symop_operation_xyz
x,y,z
-x,y,-z
-x,-y,-z
x,-y,z
1/2+x,1/2+y,z
1/2-x,1/2+y,-z
1/2-x,1/2-y,-z
1/2+x,1/2-y,z
loop_
_atom_site_type_symbol
_atom_site_label
_atom_site_fract_x
_atom_site_fract_y
_atom_site_fract_z
Si Si1 0.500000 0.000000 0.000000
Si Si2 0.248527 0.678569 0.412677
Si Si3 0.186155 0.577163 0.962143
Si Si4 0.661013 0.947486 0.593459
Si Si5 0.656982 0.416883 0.609731
Si Si6 0.839540 0.733160 0.340593
Si Si7 0.055368 0.672834 0.865003
O O1 0.428084 0.960938 0.073296
O O2 0.336911 0.635520 0.425047
O O3 0.257126 0.704508 0.590604
O O4 0.284152 0.717212 0.304366
O O5 0.087445 0.663579 0.315114
O O6 0.290839 0.572474 0.176124
O O7 0.233583 0.571879 0.799576
O O8 0.125882 0.626373 0.943347
O O9 0.500000 0.931244 0.500000
O O10 0.739803 0.936606 0.469159
O O11 0.658914 0.000000 0.607367
O O12 0.500000 0.433327 0.500000
O O13 0.849384 0.705992 0.180014
O O14 0.000000 0.735771 0.500000
O O15 0.000000 0.693919 0.000000
#
# Coordination Sequence:
#
# PCOD9190001 Si02
#       7
#     2   8   8   8   8   8   8
#     4  12  20  40  76  98 130 176 218 290 340 396
#     4  10  19  39  62  89 126 174 225 274 335 403
#     4  12  24  43  68 102 138 175 228 290 342 396
#     4  11  25  43  72 104 130 173 231 282 338 408
#     4  12  27  45  69  98 142 186 227 277 348 413
#     4   9  20  35  62  91 125 171 219 277 339 398
#     4  11  20  36  61  94 128 163 220 285 334 386
#
# _framework density 21.181055000000001
#
# number of rings (size 3 to 8) (size 9 to 14) (size 15 to 20)
#    0.000    1.120    3.200    3.360    3.360    2.880 
#    0.000    0.800    0.000    0.000    0.000    0.000 
#    0.000    0.000    0.000    0.000    0.000    0.000 
#
# Total GULP energy -139358.885455 kJ/mol
# GULP energy per Si atom -5574.355418 kJ/mol
# Density = 2.113285 g / cm^3
# Si number density = 21.181055 Si / 1000 Ang^3
#
#
#
# Elastic Constant Matrix: (Units=GPa)
#
#
# Indices 1 2 3 4 5 6 
#
# 1 86.6913 30.3758 48.9462 0.0000 -3.5773 0.0000
# 2 30.3758 65.0876 26.3693 0.0000 -17.2979 0.0000
# 3 48.9462 26.3693 114.5578 0.0000 -11.5673 0.0000
# 4 0.0000 0.0000 0.0000 12.0410 0.0000 -6.8455
# 5 -3.5773 -17.2979 -11.5673 0.0000 25.2259 0.0000
# 6 0.0000 0.0000 0.0000 -6.8455 0.0000 19.8173
#
#
#
# Elastic Compliance Matrix: (Units=1/GPa)
#
#
# Indices 1 2 3 4 5 6 
#
# 1 0.017311 -0.006888 -0.006333 0.000000 -0.005172 0.000000
# 2 -0.006888 0.022695 -0.000848 0.000000 0.014197 0.000000
# 3 -0.006333 -0.000848 0.012038 0.000000 0.004041 0.000000
# 4 0.000000 0.000000 0.000000 0.103344 0.000000 0.035698
# 5 -0.005172 0.014197 0.004041 0.000000 0.050496 0.000000
# 6 0.000000 0.000000 0.000000 0.035698 0.000000 0.062792
#
#
# Mechanical properties :
#
#
# Convention : Reuss Voigt Hill
#
# Bulk Modulus (GPa) = 41.82863 53.07992 47.45427
# Shear Modulus (GPa) = 16.40520 22.12655 19.26587
#
# Velocity S-wave (km/s) = 2.78604 3.23559 3.01920
# Velocity P-wave (km/s) = 5.49003 6.25086 5.88276
#
# Compressibility (1/GPa) = 0.02390707
#
# Stress axis : x y z
#
# Youngs Moduli (GPa) = 57.76740 44.06321 83.06875
#
# Poissons Ratio (x) = 0.30349 0.52608
# Poissons Ratio (y) = 0.39788 0.07041
# Poissons Ratio (z) = 0.36585 0.03735
#
# Static dielectric constant tensor:
#      x y z
#    x 1.770630 0.000000 0.000370 
#    y 0.000000 1.731140 0.000000 
#    z 0.000370 0.000000 1.853370 
# 
# From -- ./inp_files/54371.got.cif
#   From: 2010.05.17/outbox.cif.g08.bks.cpg/sg12_28_cif.got.tgz:54371.got - 2010.06.03 13:09:07.
