data_PCOD9190111
_publ_section_title
;
Structure prediction by ZEFSAII (Michael W. Deem and Ramdas Pophale) SiO2 
 PCOD9190111
Probable space group: C 2/M
;
_chemical_formula_sum "Si O2"
_cell_formula_units_Z 52
_cell_length_a 7.704089
_cell_length_b 22.562047
_cell_length_c 14.363592
_cell_angle_alpha 90.000000
_cell_angle_beta 90.265359
_cell_angle_gamma 90.000000
_cell_volume 2496.653045
_symmetry_space_group_name_H-M "C 2/M"
_symmetry_group_IT_number 12
_symmetry_cell_setting 'monoclinic'
loop_
_space_group_symop_operation_xyz
x,y,z
-x,y,-z
-x,-y,-z
x,-y,z
1/2+x,1/2+y,z
1/2-x,1/2+y,-z
1/2-x,1/2-y,-z
1/2+x,1/2-y,z
loop_
_atom_site_type_symbol
_atom_site_label
_atom_site_fract_x
_atom_site_fract_y
_atom_site_fract_z
Si Si1 0.157546 0.215348 0.332541
Si Si2 0.644577 0.069201 0.866591
Si Si3 0.272712 0.429956 0.367573
Si Si4 0.261967 0.929638 0.914821
Si Si5 0.521971 0.166591 0.388003
Si Si6 0.500000 0.641045 0.500000
Si Si7 0.485451 0.625736 0.791601
O O1 0.348614 0.188353 0.337813
O O2 0.161616 0.284756 0.354060
O O3 0.051322 0.192719 0.242464
O O4 0.063477 0.183627 0.418883
O O5 0.442904 0.088395 0.865268
O O6 0.793815 0.099882 0.807789
O O7 0.643153 0.000000 0.842420
O O8 0.703655 0.074096 0.975045
O O9 0.259692 0.500000 0.369275
O O10 0.088584 0.397417 0.357367
O O11 0.349253 0.401733 0.462475
O O12 0.408559 0.408974 0.288912
O O13 0.105462 0.888532 0.880442
O O14 0.226522 0.000000 0.894112
O O15 0.500000 0.169851 0.500000
#
# Coordination Sequence:
#
# PCOD9190111 Si02
#       7
#     8   8   8   8   8   4   8
#     4  11  23  39  64  92 112 160 212 264 310 364
#     4   9  18  34  58  88 125 173 218 247 300 373
#     4  11  24  38  58  89 126 163 198 252 319 378
#     4   9  18  34  58  88 126 172 214 254 298 368
#     4  12  23  44  68  85 116 159 219 269 311 365
#     4  10  19  40  58  84 117 160 208 244 306 370
#     4  11  22  35  56  90 131 162 201 257 313 356
#
# _framework density 20.827884000000001
#
# number of rings (size 3 to 8) (size 9 to 14) (size 15 to 20)
#    0.000    1.538    2.308    5.308    2.154    1.538 
#    0.000    1.538    0.000    0.000    0.000   17.231 
#    0.000    0.000    0.000    0.000    0.000    0.000 
#
# Total GULP energy -145221.934135 kJ/mol
# GULP energy per Si atom -5585.459005 kJ/mol
# Density = 2.078048 g / cm^3
# Si number density = 20.827884 Si / 1000 Ang^3
#
#
#
# Elastic Constant Matrix: (Units=GPa)
#
#
# Indices 1 2 3 4 5 6 
#
# 1 93.2883 10.1651 5.2570 0.0000 -10.1163 0.0000
# 2 10.1651 65.6499 3.8159 0.0000 -6.9127 0.0000
# 3 5.2570 3.8159 32.6440 0.0000 2.8032 0.0000
# 4 0.0000 0.0000 0.0000 23.7369 0.0000 -1.4902
# 5 -10.1163 -6.9127 2.8032 0.0000 25.7621 0.0000
# 6 0.0000 0.0000 0.0000 -1.4902 0.0000 28.4985
#
#
#
# Elastic Compliance Matrix: (Units=1/GPa)
#
#
# Indices 1 2 3 4 5 6 
#
# 1 0.011443 -0.001187 -0.002082 0.000000 0.004402 0.000000
# 2 -0.001187 0.015959 -0.002021 0.000000 0.004036 0.000000
# 3 -0.002082 -0.002021 0.031617 0.000000 -0.004800 0.000000
# 4 0.000000 0.000000 0.000000 0.042267 0.000000 0.002210
# 5 0.004402 0.004036 -0.004800 0.000000 0.042150 0.000000
# 6 0.000000 0.000000 0.000000 0.002210 0.000000 0.035205
#
#
# Mechanical properties :
#
#
# Convention : Reuss Voigt Hill
#
# Bulk Modulus (GPa) = 20.64463 25.56203 23.10333
# Shear Modulus (GPa) = 24.34646 27.08912 25.71779
#
# Velocity S-wave (km/s) = 3.42268 3.61032 3.51775
# Velocity P-wave (km/s) = 5.05502 5.44783 5.25509
#
# Compressibility (1/GPa) = 0.04843876
#
# Stress axis : x y z
#
# Youngs Moduli (GPa) = 87.38604 62.66219 31.62836
#
# Poissons Ratio (x) = 0.07440 0.06585
# Poissons Ratio (y) = 0.10376 0.06392
# Poissons Ratio (z) = 0.18194 0.12663
#
# Static dielectric constant tensor:
#      x y z
#    x 1.805690 0.000000 0.018530 
#    y 0.000000 1.723420 0.000000 
#    z 0.018530 0.000000 1.801950 
# 
# From -- ./inp_files/197991.got.cif
#   From: 2010.05.17/outbox.cif.g08.bks.cpg/sg12_99_cif.got.tgz:197991.got - 2010.06.03 13:09:07.
