data_PCOD9190585
_publ_section_title
;
Structure prediction by ZEFSAII (Michael W. Deem and Ramdas Pophale) SiO2 
 PCOD9190585
Probable space group: C 2/M
;
_chemical_formula_sum "Si O2"
_cell_formula_units_Z 56
_cell_length_a 22.620365
_cell_length_b 7.542010
_cell_length_c 22.268835
_cell_angle_alpha 90.000000
_cell_angle_beta 51.322436
_cell_angle_gamma 90.000000
_cell_volume 2965.886877
_symmetry_space_group_name_H-M "C 2/M"
_symmetry_group_IT_number 12
_symmetry_cell_setting 'monoclinic'
loop_
_space_group_symop_operation_xyz
x,y,z
-x,y,-z
-x,-y,-z
x,-y,z
1/2+x,1/2+y,z
1/2-x,1/2+y,-z
1/2-x,1/2-y,-z
1/2+x,1/2-y,z
loop_
_atom_site_type_symbol
_atom_site_label
_atom_site_fract_x
_atom_site_fract_y
_atom_site_fract_z
Si Si1 0.129084 0.787135 0.067764
Si Si2 0.749051 0.712616 0.904227
Si Si3 0.680200 0.292037 0.462299
Si Si4 0.649492 0.714771 0.615931
Si Si5 0.991754 0.213381 0.766885
Si Si6 0.425022 0.204275 0.577536
Si Si7 0.370671 0.787264 0.739083
O O1 0.189953 0.748975 0.081764
O O2 0.050373 0.720306 0.146019
O O3 0.122656 0.000000 0.066017
O O4 0.169056 0.719623 0.981416
O O5 0.741713 0.500000 0.902951
O O6 0.791578 0.780992 0.817838
O O7 0.662717 0.500000 0.470225
O O8 0.650146 0.224100 0.545944
O O9 0.770539 0.268382 0.406538
O O10 0.639858 0.206095 0.431374
O O11 0.648215 0.500000 0.615255
O O12 0.575602 0.778405 0.698166
O O13 0.936773 0.253209 0.745561
O O14 0.995999 0.000000 0.769036
O O15 0.500000 0.286003 0.500000
O O16 0.395484 0.283985 0.658655
O O17 0.445303 0.000000 0.579340
O O18 0.361698 0.000000 0.739767
#
# Coordination Sequence:
#
# PCOD9190585 Si02
#       7
#     8   8   8   8   8   8   8
#     4   8  13  21  35  56  81 107 134 165 201 241
#     4   8  13  22  35  53  80 110 137 165 198 240
#     4  10  20  32  47  65  83 108 141 174 208 244
#     4   9  18  32  47  63  85 110 136 170 211 251
#     4   9  16  26  42  64  87 111 138 169 207 247
#     4  10  20  32  45  62  86 115 143 171 205 244
#     4   9  17  27  40  60  86 116 144 169 203 245
#
# _framework density 18.881367000000001
#
# number of rings (size 3 to 8) (size 9 to 14) (size 15 to 20)
#    0.000    3.000    0.000    1.286    0.000    2.000 
#    0.000    0.000    0.000    0.000    0.000    1.000 
#    0.000    8.000    0.000    0.000    0.000    0.000 
#
# Total GULP energy -155909.844743 kJ/mol
# GULP energy per Si atom -5568.208741 kJ/mol
# Density = 1.883839 g / cm^3
# Si number density = 18.881367 Si / 1000 Ang^3
#
#
#
# Elastic Constant Matrix: (Units=GPa)
#
#
# Indices 1 2 3 4 5 6 
#
# 1 38.7283 -5.7244 55.5751 -0.0026 -7.6676 -0.0002
# 2 -5.7244 49.9504 9.6754 0.0285 -0.3688 0.0018
# 3 55.5751 9.6754 228.0339 -0.0014 -28.4546 0.0000
# 4 -0.0026 0.0285 -0.0014 -105.3230 -0.0035 -22.4291
# 5 -7.6676 -0.3688 -28.4546 -0.0035 23.4639 -0.0003
# 6 -0.0002 0.0018 0.0000 -22.4291 -0.0003 4.9541
#
#
#
# Elastic Compliance Matrix: (Units=1/GPa)
#
#
# Indices 1 2 3 4 5 6 
#
# 1 0.041933 0.006820 -0.010352 0.000000 0.001256 0.000002
# 2 0.006820 0.021309 -0.002647 0.000004 -0.000646 0.000009
# 3 -0.010352 -0.002647 0.007769 0.000000 0.005997 -0.000001
# 4 0.000000 0.000004 0.000000 -0.004834 -0.000001 -0.021885
# 5 0.001256 -0.000646 0.005997 -0.000001 0.050291 -0.000003
# 6 0.000002 0.000009 -0.000001 -0.021885 -0.000003 0.102770
#
#
# Mechanical properties :
#
#
# Convention : Reuss Voigt Hill
#
# Bulk Modulus (GPa) = 17.04936 48.41830 32.73383
# Shear Modulus (GPa) = 19.90855 1.76476 10.83666
#
# Velocity S-wave (km/s) = 3.25068 0.96783 2.39829
# Velocity P-wave (km/s) = 4.81025 5.19115 5.00433
#
# Compressibility (1/GPa) = 0.05865323
#
# Stress axis : x y z
#
# Youngs Moduli (GPa) = 23.84739 46.92764 128.71768
#
# Poissons Ratio (x) = -0.32005 1.33254
# Poissons Ratio (y) = -0.16264 0.34071
# Poissons Ratio (z) = 0.24688 0.12422
#
# Static dielectric constant tensor:
#      x y z
#    x 1.583070 -0.000030 -0.032050 
#    y -0.000030 1.651720 -0.000010 
#    z -0.032050 -0.000010 1.748550 
# 
# From -- ./inp_files/323570.got.cif
#   From: 2010.05.17/outbox.cif.g08.bks.cpg/sg12_162_cif.got.tgz:323570.got - 2010.06.03 13:09:07.
