data_PCOD9190890
_publ_section_title
;
Structure prediction by ZEFSAII (Michael W. Deem and Ramdas Pophale) SiO2 
 PCOD9190890
Probable space group: C 2/M
;
_chemical_formula_sum "Si O2"
_cell_formula_units_Z 44
_cell_length_a 15.096033
_cell_length_b 11.357953
_cell_length_c 9.544244
_cell_angle_alpha 90.000000
_cell_angle_beta 77.503500
_cell_angle_gamma 90.000000
_cell_volume 1597.687477
_symmetry_space_group_name_H-M "C 2/M"
_symmetry_group_IT_number 12
_symmetry_cell_setting 'monoclinic'
loop_
_space_group_symop_operation_xyz
x,y,z
-x,y,-z
-x,-y,-z
x,-y,z
1/2+x,1/2+y,z
1/2-x,1/2+y,-z
1/2-x,1/2-y,-z
1/2+x,1/2-y,z
loop_
_atom_site_type_symbol
_atom_site_label
_atom_site_fract_x
_atom_site_fract_y
_atom_site_fract_z
Si Si1 0.607264 0.248580 0.659755
Si Si2 0.691542 0.000000 0.348415
Si Si3 0.205396 0.246916 0.327266
Si Si4 0.640835 0.747562 0.051108
Si Si5 0.053502 0.500000 0.626470
Si Si6 0.356802 0.000000 0.947594
Si Si7 0.863570 0.000000 0.947264
Si Si8 0.990333 0.000000 0.332782
O O1 0.695420 0.192138 0.711957
O O2 0.648483 0.265783 0.487885
O O3 0.558876 0.376064 0.696663
O O4 0.543282 0.132127 0.690216
O O5 0.743190 0.880680 0.314403
O O6 0.653161 0.000000 0.517575
O O7 0.630725 0.000000 0.227034
O O8 0.139245 0.234246 0.220036
O O9 0.608434 0.625391 0.996212
O O10 0.605860 0.874476 0.016341
O O11 0.750000 0.750000 0.000000
O O12 0.000000 0.500000 0.500000
O O13 0.247150 0.000000 0.015237
O O14 0.912388 0.000000 0.779314
O O15 0.000000 0.000000 0.500000
#
# Coordination Sequence:
#
# PCOD9190890 Si02
#       8
#     8   4   8   8   4   4   4   4
#     4  10  21  33  51  74 103 139 167 209 256 306
#     4   8  15  30  54  75  98 130 168 219 255 297
#     4   9  17  32  52  76 102 129 174 212 254 304
#     4   9  17  31  53  76 101 131 169 218 256 294
#     4  10  20  34  49  75 106 137 176 207 251 315
#     4   8  16  31  52  75  96 129 175 216 252 287
#     4  10  20  32  49  79 108 130 168 216 262 311
#     4  12  23  35  50  76 113 143 167 203 268 329
#
# _framework density 27.539802999999999
#
# number of rings (size 3 to 8) (size 9 to 14) (size 15 to 20)
#    0.000    2.545    0.000    2.182    0.000    5.818 
#    0.000    0.000    0.000   19.636    0.000    0.000 
#    0.000   36.364    0.000    0.000    0.000    0.000 
#
# Total GULP energy -122468.900478 kJ/mol
# GULP energy per Si atom -5566.768204 kJ/mol
# Density = 2.747712 g / cm^3
# Si number density = 27.539803 Si / 1000 Ang^3
#
#
#
# Elastic Constant Matrix: (Units=GPa)
#
#
# Indices 1 2 3 4 5 6 
#
# 1 92.5617 48.4421 22.5044 0.0000 -7.9707 0.0000
# 2 48.4421 277.2890 24.8686 0.0000 -6.9369 0.0000
# 3 22.5044 24.8686 126.5377 0.0000 -2.8973 0.0000
# 4 0.0000 0.0000 0.0000 6.1544 0.0000 -21.5128
# 5 -7.9707 -6.9369 -2.8973 0.0000 38.7929 0.0000
# 6 0.0000 0.0000 0.0000 -21.5128 0.0000 16.7090
#
#
#
# Elastic Compliance Matrix: (Units=1/GPa)
#
#
# Indices 1 2 3 4 5 6 
#
# 1 0.012442 -0.001962 -0.001780 0.000000 0.002073 0.000000
# 2 -0.001962 0.003995 -0.000430 0.000000 0.000279 0.000000
# 3 -0.001780 -0.000430 0.008308 0.000000 0.000178 0.000000
# 4 0.000000 0.000000 0.000000 -0.046418 0.000000 -0.059763
# 5 0.002073 0.000279 0.000178 0.000000 0.026267 0.000000
# 6 0.000000 0.000000 0.000000 -0.059763 0.000000 -0.017097
#
#
# Mechanical properties :
#
#
# Convention : Reuss Voigt Hill
#
# Bulk Modulus (GPa) = 60.97127 76.44650 68.70888
# Shear Modulus (GPa) = 3829.23256 39.03616 1934.13436
#
# Velocity S-wave (km/s) = 37.32900 3.76898 26.52979
# Velocity P-wave (km/s) = 43.36042 6.83806 31.03937
#
# Compressibility (1/GPa) = 0.01640117
#
# Stress axis : x y z
#
# Youngs Moduli (GPa) = 80.37545 250.33540 120.36854
#
# Poissons Ratio (x) = 0.49118 0.21421
# Poissons Ratio (y) = 0.15770 0.05173
# Poissons Ratio (z) = 0.14304 0.10758
#
# Static dielectric constant tensor:
#      x y z
#    x 2.377170 0.000000 -0.160690 
#    y 0.000000 2.239900 0.000000 
#    z -0.160690 0.000000 2.492540 
# 
# From -- ./inp_files/153482.got.cif
#   From: 2010.05.17/outbox.cif.g08.bks.cpg/sg12_77_cif.got.tgz:153482.got - 2010.06.03 13:09:07.
