data_PCOD9190170
_publ_section_title
;
Structure prediction by ZEFSAII (Michael W. Deem and Ramdas Pophale) SiO2 
 PCOD9190170
Probable space group: C 2/M
;
_chemical_formula_sum "Si O2"
_cell_formula_units_Z 44
_cell_length_a 23.721698
_cell_length_b 8.425605
_cell_length_c 11.344574
_cell_angle_alpha 90.000000
_cell_angle_beta 114.008230
_cell_angle_gamma 90.000000
_cell_volume 2071.273472
_symmetry_space_group_name_H-M "C 2/M"
_symmetry_group_IT_number 12
_symmetry_cell_setting 'monoclinic'
loop_
_space_group_symop_operation_xyz
x,y,z
-x,y,-z
-x,-y,-z
x,-y,z
1/2+x,1/2+y,z
1/2-x,1/2+y,-z
1/2-x,1/2-y,-z
1/2+x,1/2-y,z
loop_
_atom_site_type_symbol
_atom_site_label
_atom_site_fract_x
_atom_site_fract_y
_atom_site_fract_z
Si Si1 0.868089 0.311908 0.826808
Si Si2 0.115875 0.675557 0.758306
Si Si3 0.251945 0.687336 0.866745
Si Si4 0.439924 0.814282 0.673136
Si Si5 0.500000 0.757978 0.500000
Si Si6 0.548545 0.321349 0.902374
O O1 0.878450 0.500000 0.845864
O O2 0.802562 0.270058 0.828261
O O3 0.880194 0.271974 0.699571
O O4 0.918674 0.222429 0.949098
O O5 0.121105 0.500000 0.819189
O O6 0.182199 0.708897 0.759103
O O7 0.100447 0.801815 0.845445
O O8 0.058281 0.670817 0.620785
O O9 0.265937 0.500000 0.881064
O O10 0.250000 0.750000 0.000000
O O11 0.460915 0.702287 0.582359
O O12 0.496008 0.798194 0.813920
O O13 0.436689 0.000000 0.630314
O O14 0.524608 0.500000 0.883515
#
# Coordination Sequence:
#
# PCOD9190170 Si02
#       6
#     8   8   8   8   4   8
#     4  11  22  36  55  83 118 154 193 238 291 348
#     4  10  20  36  61  87 114 151 196 239 285 345
#     4  11  22  36  58  87 120 157 192 236 290 348
#     4  10  21  37  59  83 112 152 197 243 289 343
#     4  10  19  40  67  86 107 148 205 248 283 342
#     4  11  21  33  55  85 118 152 188 239 298 348
#
# _framework density 21.242968999999999
#
# number of rings (size 3 to 8) (size 9 to 14) (size 15 to 20)
#    0.000    1.455    1.818    6.000    0.000    4.364 
#    0.000    8.182    0.000    0.000    0.000    0.000 
#    0.000    0.000    0.000    0.000    0.000    0.000 
#
# Total GULP energy -122543.320008 kJ/mol
# GULP energy per Si atom -5570.150909 kJ/mol
# Density = 2.119462 g / cm^3
# Si number density = 21.242969 Si / 1000 Ang^3
#
#
#
# Elastic Constant Matrix: (Units=GPa)
#
#
# Indices 1 2 3 4 5 6 
#
# 1 133.6489 13.3581 44.6563 0.0000 -39.5427 0.0000
# 2 13.3581 62.1089 14.8045 0.0000 -11.6386 0.0000
# 3 44.6563 14.8045 73.7866 0.0000 -21.8110 0.0000
# 4 0.0000 0.0000 0.0000 -12.2130 0.0000 -6.7950
# 5 -39.5427 -11.6386 -21.8110 0.0000 38.4204 0.0000
# 6 0.0000 0.0000 0.0000 -6.7950 0.0000 24.6520
#
#
#
# Elastic Compliance Matrix: (Units=1/GPa)
#
#
# Indices 1 2 3 4 5 6 
#
# 1 0.011782 0.000325 -0.004305 0.000000 0.009781 0.000000
# 2 0.000325 0.017404 -0.002441 0.000000 0.004221 0.000000
# 3 -0.004305 -0.002441 0.018168 0.000000 0.005144 0.000000
# 4 0.000000 0.000000 0.000000 -0.070993 0.000000 -0.019568
# 5 0.009781 0.004221 0.005144 0.000000 0.040293 0.000000
# 6 0.000000 0.000000 0.000000 -0.019568 0.000000 0.035171
#
#
# Mechanical properties :
#
#
# Convention : Reuss Voigt Hill
#
# Bulk Modulus (GPa) = 28.97487 46.13138 37.55312
# Shear Modulus (GPa) = 65.64222 23.28691 44.46456
#
# Velocity S-wave (km/s) = 5.56487 3.31451 4.58005
# Velocity P-wave (km/s) = 7.41348 6.03417 6.75910
#
# Compressibility (1/GPa) = 0.03451266
#
# Stress axis : x y z
#
# Youngs Moduli (GPa) = 84.87535 57.45931 55.04161
#
# Poissons Ratio (x) = -0.01867 0.23693
# Poissons Ratio (y) = -0.02757 0.13435
# Poissons Ratio (z) = 0.36535 0.14025
#
# Static dielectric constant tensor:
#      x y z
#    x 1.855650 0.000000 -0.040510 
#    y 0.000000 1.758800 0.000000 
#    z -0.040510 0.000000 1.768360 
# 
# From -- ./inp_files/172523.got.cif
#   From: 2010.05.17/outbox.cif.g08.bks.cpg/sg12_87_cif.got.tgz:172523.got - 2010.06.03 13:09:07.
