data_PCOD9190532
_publ_section_title
;
Structure prediction by ZEFSAII (Michael W. Deem and Ramdas Pophale) SiO2 
 PCOD9190532
Probable space group: C 2/M
;
_chemical_formula_sum "Si O2"
_cell_formula_units_Z 56
_cell_length_a 20.035318
_cell_length_b 8.035855
_cell_length_c 29.574544
_cell_angle_alpha 90.000000
_cell_angle_beta 33.610386
_cell_angle_gamma 90.000000
_cell_volume 2635.708506
_symmetry_space_group_name_H-M "C 2/M"
_symmetry_group_IT_number 12
_symmetry_cell_setting 'monoclinic'
loop_
_space_group_symop_operation_xyz
x,y,z
-x,y,-z
-x,-y,-z
x,-y,z
1/2+x,1/2+y,z
1/2-x,1/2+y,-z
1/2-x,1/2-y,-z
1/2+x,1/2-y,z
loop_
_atom_site_type_symbol
_atom_site_label
_atom_site_fract_x
_atom_site_fract_y
_atom_site_fract_z
Si Si1 0.991269 0.700010 0.705130
Si Si2 0.071925 0.296589 0.561524
Si Si3 0.180261 0.702905 0.338069
Si Si4 0.341535 0.804874 0.987635
Si Si5 0.277592 0.299121 0.379656
Si Si6 0.606737 0.298761 0.849459
Si Si7 0.778654 0.800689 0.124149
O O1 0.983408 0.500000 0.706370
O O2 0.047692 0.761877 0.626071
O O3 0.085621 0.744676 0.690604
O O4 0.856346 0.763379 0.789462
O O5 0.075401 0.500000 0.560324
O O6 0.193136 0.239002 0.468552
O O7 0.954404 0.246612 0.599083
O O8 0.179607 0.500000 0.338557
O O9 0.221685 0.758916 0.363989
O O10 0.278351 0.753079 0.245288
O O11 0.312566 0.732344 0.053479
O O12 0.329516 0.000000 0.998368
O O13 0.250000 0.750000 0.000000
O O14 0.480979 0.761099 0.899974
O O15 0.274487 0.500000 0.381367
O O16 0.602198 0.500000 0.851823
O O17 0.630614 0.240990 0.887659
O O18 0.775555 0.000000 0.131164
#
# Coordination Sequence:
#
# PCOD9190532 Si02
#       7
#     8   8   8   8   8   8   8
#     4  10  20  35  56  81 115 156 196 236 286 347
#     4   9  16  32  55  81 112 152 199 243 284 336
#     4   9  17  32  56  85 114 149 195 242 284 334
#     4  12  27  44  64  91 122 151 188 238 296 356
#     4  10  20  31  52  85 118 151 195 247 292 331
#     4  10  20  39  65  89 118 157 201 241 288 349
#     4  10  21  40  64  88 117 158 202 241 289 351
#
# _framework density 21.246659999999999
#
# number of rings (size 3 to 8) (size 9 to 14) (size 15 to 20)
#    0.000    2.000    1.429    2.571    2.000    4.571 
#    0.000    0.000    0.000    3.429    0.000    0.000 
#    0.000    0.000    0.000    0.000    0.000    0.000 
#
# Total GULP energy -156416.889771 kJ/mol
# GULP energy per Si atom -5586.317492 kJ/mol
# Density = 2.119830 g / cm^3
# Si number density = 21.246660 Si / 1000 Ang^3
#
#
#
# Elastic Constant Matrix: (Units=GPa)
#
#
# Indices 1 2 3 4 5 6 
#
# 1 73.5119 19.4679 9.5904 -0.0016 -32.1766 -0.0005
# 2 19.4679 -17.8769 -11.6010 0.0056 3.2396 -0.0001
# 3 9.5904 -11.6010 47.5243 0.0015 -14.2635 -0.0010
# 4 -0.0016 0.0056 0.0015 6.1862 -0.0003 -12.4019
# 5 -32.1766 3.2396 -14.2635 -0.0003 35.9385 0.0002
# 6 -0.0005 -0.0001 -0.0010 -12.4019 0.0002 19.2296
#
#
#
# Elastic Compliance Matrix: (Units=1/GPa)
#
#
# Indices 1 2 3 4 5 6 
#
# 1 0.014935 0.015565 0.004970 0.000033 0.013941 0.000022
# 2 0.015565 -0.032062 -0.006718 -0.000119 0.014160 -0.000077
# 3 0.004970 -0.006718 0.022609 -0.000017 0.014029 -0.000010
# 4 0.000033 -0.000119 -0.000017 -0.551818 0.000030 -0.355887
# 5 0.013941 0.014160 0.014029 0.000030 0.044598 0.000020
# 6 0.000022 -0.000077 -0.000010 -0.355887 0.000020 -0.177521
#
#
# Mechanical properties :
#
#
# Convention : Reuss Voigt Hill
#
# Bulk Modulus (GPa) = 30.19656 15.34155 22.76906
# Shear Modulus (GPa) = -7.18541 17.98433 5.39946
#
# Velocity S-wave (km/s) = -1.84099 2.91255 1.59588
# Velocity P-wave (km/s) = 3.11837 4.30661 3.75973
#
# Compressibility (1/GPa) = 0.03311635
#
# Stress axis : x y z
#
# Youngs Moduli (GPa) = 66.95769 -31.18930 44.22923
#
# Poissons Ratio (x) = 0.48547 -0.21981
# Poissons Ratio (y) = -1.04221 0.29712
# Poissons Ratio (z) = -0.33277 -0.20952
#
# Static dielectric constant tensor:
#      x y z
#    x 1.707420 0.000000 -0.008350 
#    y 0.000000 1.766420 0.000000 
#    z -0.008350 0.000000 1.747150 
# 
# From -- ./inp_files/275557.got.cif
#   From: 2010.05.17/outbox.cif.g08.bks.cpg/sg12_138_cif.got.tgz:275557.got - 2010.06.03 13:09:07.
