data_PCOD9190306
_publ_section_title
;
Structure prediction by ZEFSAII (Michael W. Deem and Ramdas Pophale) SiO2 
 PCOD9190306
Probable space group: C 2/M
;
_chemical_formula_sum "Si O2"
_cell_formula_units_Z 56
_cell_length_a 23.404706
_cell_length_b 13.601612
_cell_length_c 7.516030
_cell_angle_alpha 90.000000
_cell_angle_beta 85.594992
_cell_angle_gamma 90.000000
_cell_volume 2385.598160
_symmetry_space_group_name_H-M "C 2/M"
_symmetry_group_IT_number 12
_symmetry_cell_setting 'monoclinic'
loop_
_space_group_symop_operation_xyz
x,y,z
-x,y,-z
-x,-y,-z
x,-y,z
1/2+x,1/2+y,z
1/2-x,1/2+y,-z
1/2-x,1/2-y,-z
1/2+x,1/2-y,z
loop_
_atom_site_type_symbol
_atom_site_label
_atom_site_fract_x
_atom_site_fract_y
_atom_site_fract_z
Si Si1 0.423075 0.809185 0.665112
Si Si2 0.809147 0.676464 0.873933
Si Si3 0.388319 0.886359 0.310162
Si Si4 0.964384 0.763947 0.167921
Si Si5 0.270244 0.884520 0.512338
Si Si6 0.282560 0.609934 0.844166
Si Si7 0.931246 0.109221 0.483418
O O1 0.371698 0.854373 0.791892
O O2 0.425471 0.869695 0.481608
O O3 0.483741 0.793164 0.743571
O O4 0.407397 0.696020 0.612461
O O5 0.768521 0.664422 0.706470
O O6 0.812313 0.792918 0.914058
O O7 0.779655 0.618510 0.041799
O O8 0.416921 0.819899 0.152329
O O9 0.327188 0.848897 0.396129
O O10 0.385119 0.000000 0.263611
O O11 0.930976 0.846507 0.286118
O O12 0.000000 0.809888 0.000000
O O13 0.222940 0.878589 0.368986
O O14 0.278272 0.000000 0.547832
O O15 0.304989 0.500000 0.875947
O O16 0.000000 0.104669 0.500000
O O17 0.907431 0.000000 0.510081
#
# Coordination Sequence:
#
# PCOD9190306 Si02
#       7
#     8   8   8   8   8   8   8
#     4   9  19  33  50  73  96 133 175 206 250 299
#     4  10  20  35  55  78 104 141 170 215 266 309
#     4   9  18  33  50  71 101 136 171 206 244 295
#     4  10  20  30  46  74 104 133 166 210 249 301
#     4   9  18  34  56  79 105 137 174 213 257 312
#     4  10  21  35  54  80 106 134 174 217 261 316
#     4   8  15  31  51  68  90 125 166 205 247 295
#
# _framework density 23.474197
#
# number of rings (size 3 to 8) (size 9 to 14) (size 15 to 20)
#    0.000    2.714    0.000    2.143    2.000    2.857 
#    0.000    0.000    0.000    0.000    0.000    0.000 
#    0.000    0.000    0.000    0.000    0.000    0.000 
#
# Total GULP energy -156060.056240 kJ/mol
# GULP energy per Si atom -5573.573437 kJ/mol
# Density = 2.342077 g / cm^3
# Si number density = 23.474197 Si / 1000 Ang^3
#
#
#
# Elastic Constant Matrix: (Units=GPa)
#
#
# Indices 1 2 3 4 5 6 
#
# 1 26.9123 -5.0414 2.8575 0.0000 -7.0761 0.0000
# 2 -5.0414 87.7267 -1.4421 0.0000 4.4262 0.0000
# 3 2.8575 -1.4421 86.0187 0.0000 -3.3332 0.0000
# 4 0.0000 0.0000 0.0000 17.1981 0.0000 -2.8268
# 5 -7.0761 4.4262 -3.3332 0.0000 24.1024 0.0000
# 6 0.0000 0.0000 0.0000 -2.8268 0.0000 17.7130
#
#
#
# Elastic Compliance Matrix: (Units=1/GPa)
#
#
# Indices 1 2 3 4 5 6 
#
# 1 0.040594 0.001739 -0.000875 0.000000 0.011477 0.000000
# 2 0.001739 0.011581 0.000074 0.000000 -0.001606 0.000000
# 3 -0.000875 0.000074 0.011708 0.000000 0.001349 0.000000
# 4 0.000000 0.000000 0.000000 0.059712 0.000000 0.009529
# 5 0.011477 -0.001606 0.001349 0.000000 0.045341 0.000000
# 6 0.000000 0.000000 0.000000 0.009529 0.000000 0.057976
#
#
# Mechanical properties :
#
#
# Convention : Reuss Voigt Hill
#
# Bulk Modulus (GPa) = 15.20656 21.48954 18.34805
# Shear Modulus (GPa) = 20.24659 25.42163 22.83411
#
# Velocity S-wave (km/s) = 2.94003 3.29441 3.12225
# Velocity P-wave (km/s) = 4.24465 4.86264 4.56412
#
# Compressibility (1/GPa) = 0.06576109
#
# Stress axis : x y z
#
# Youngs Moduli (GPa) = 24.63408 86.34657 85.41216
#
# Poissons Ratio (x) = -0.15019 0.07470
# Poissons Ratio (y) = -0.04285 -0.00633
# Poissons Ratio (z) = 0.02155 -0.00640
#
# Static dielectric constant tensor:
#      x y z
#    x 1.965210 0.000000 0.048160 
#    y 0.000000 1.858700 0.000000 
#    z 0.048160 0.000000 1.950340 
# 
# From -- ./inp_files/96254.got.cif
#   From: 2010.05.17/outbox.cif.g08.bks.cpg/sg12_49_cif.got.tgz:96254.got - 2010.06.03 13:09:07.
