data_PCOD9190434
_publ_section_title
;
Structure prediction by ZEFSAII (Michael W. Deem and Ramdas Pophale) SiO2 
 PCOD9190434
Probable space group: C 2/M
;
_chemical_formula_sum "Si O2"
_cell_formula_units_Z 56
_cell_length_a 23.720391
_cell_length_b 9.192676
_cell_length_c 14.215149
_cell_angle_alpha 90.000000
_cell_angle_beta 121.665810
_cell_angle_gamma 90.000000
_cell_volume 2638.203647
_symmetry_space_group_name_H-M "C 2/M"
_symmetry_group_IT_number 12
_symmetry_cell_setting 'monoclinic'
loop_
_space_group_symop_operation_xyz
x,y,z
-x,y,-z
-x,-y,-z
x,-y,z
1/2+x,1/2+y,z
1/2-x,1/2+y,-z
1/2-x,1/2-y,-z
1/2+x,1/2-y,z
loop_
_atom_site_type_symbol
_atom_site_label
_atom_site_fract_x
_atom_site_fract_y
_atom_site_fract_z
Si Si1 0.819719 0.823433 0.589168
Si Si2 0.331797 0.158359 0.006104
Si Si3 0.061699 0.671064 0.420222
Si Si4 0.276621 0.838756 0.162562
Si Si5 0.450005 0.326029 0.083428
Si Si6 0.082088 0.329356 0.662990
Si Si7 0.907042 0.175840 0.833151
O O1 0.750000 0.750000 0.500000
O O2 0.880317 0.763159 0.577959
O O3 0.843577 0.781816 0.716418
O O4 0.815246 0.000000 0.578761
O O5 0.288127 0.241066 0.890501
O O6 0.352565 0.000000 0.990660
O O7 0.288457 0.140647 0.061748
O O8 0.394886 0.248613 0.095648
O O9 0.064756 0.500000 0.393042
O O10 0.072729 0.671883 0.542524
O O11 0.985260 0.726852 0.347123
O O12 0.344463 0.767476 0.257216
O O13 0.265912 0.000000 0.196026
O O14 0.446965 0.500000 0.089510
O O15 0.525408 0.278215 0.161636
O O16 0.423973 0.284731 0.955321
O O17 0.087616 0.500000 0.697792
O O18 0.906779 0.000000 0.833950
#
# Coordination Sequence:
#
# PCOD9190434 Si02
#       7
#     8   8   8   8   8   8   8
#     4  11  23  39  56  80 111 144 180 221 269 323
#     4  10  20  31  46  76 110 134 165 212 260 305
#     4   9  18  35  58  82 105 134 177 224 265 311
#     4   9  18  33  50  70 102 143 177 203 244 309
#     4   9  17  35  59  77  97 134 178 218 259 309
#     4   8  16  33  57  80 103 138 182 218 256 314
#     4   8  18  36  57  78 100 132 179 219 254 312
#
# _framework density 21.226562999999999
#
# number of rings (size 3 to 8) (size 9 to 14) (size 15 to 20)
#    0.000    2.857    0.000    2.571    2.000    1.714 
#    0.000   12.143    0.000    0.000    0.000    0.000 
#    0.000    0.000    0.000    0.000    0.000    0.000 
#
# Total GULP energy -155882.895748 kJ/mol
# GULP energy per Si atom -5567.246277 kJ/mol
# Density = 2.117825 g / cm^3
# Si number density = 21.226563 Si / 1000 Ang^3
#
#
#
# Elastic Constant Matrix: (Units=GPa)
#
#
# Indices 1 2 3 4 5 6 
#
# 1 56.6268 21.8841 25.0791 0.0000 21.8911 0.0000
# 2 21.8841 55.3121 27.1914 0.0000 18.6766 0.0000
# 3 25.0791 27.1914 125.0272 0.0000 43.0853 0.0000
# 4 0.0000 0.0000 0.0000 9.6490 0.0000 4.3334
# 5 21.8911 18.6766 43.0853 0.0000 41.7611 0.0000
# 6 0.0000 0.0000 0.0000 4.3334 0.0000 16.9042
#
#
#
# Elastic Compliance Matrix: (Units=1/GPa)
#
#
# Indices 1 2 3 4 5 6 
#
# 1 0.023790 -0.006104 -0.000136 0.000000 -0.009600 0.000000
# 2 -0.006104 0.023220 -0.002094 0.000000 -0.005024 0.000000
# 3 -0.000136 -0.002094 0.012621 0.000000 -0.012013 0.000000
# 4 0.000000 0.000000 0.000000 0.117122 0.000000 -0.030025
# 5 -0.009600 -0.005024 -0.012013 0.000000 0.043619 0.000000
# 6 0.000000 0.000000 0.000000 -0.030025 0.000000 0.066854
#
#
# Mechanical properties :
#
#
# Convention : Reuss Voigt Hill
#
# Bulk Modulus (GPa) = 23.27604 42.80837 33.04221
# Shear Modulus (GPa) = 15.71260 24.51695 20.11478
#
# Velocity S-wave (km/s) = 2.72367 3.40224 3.08169
# Velocity P-wave (km/s) = 4.56952 5.97032 5.31626
#
# Compressibility (1/GPa) = 0.04296263
#
# Stress axis : x y z
#
# Youngs Moduli (GPa) = 42.03431 43.06583 79.23412
#
# Poissons Ratio (x) = 0.26287 0.01079
# Poissons Ratio (y) = 0.25657 0.16593
# Poissons Ratio (z) = 0.00572 0.09019
#
# Static dielectric constant tensor:
#      x y z
#    x 1.864810 0.000000 -0.022490 
#    y 0.000000 1.785670 0.000000 
#    z -0.022490 0.000000 1.817920 
# 
# From -- ./inp_files/291947.got.cif
#   From: 2010.05.17/outbox.cif.g08.bks.cpg/sg12_146_cif.got.tgz:291947.got - 2010.06.03 13:09:07.
