data_PCOD9190587
_publ_section_title
;
Structure prediction by ZEFSAII (Michael W. Deem and Ramdas Pophale) SiO2 
 PCOD9190587
Probable space group: C 2/M
;
_chemical_formula_sum "Si O2"
_cell_formula_units_Z 48
_cell_length_a 13.837107
_cell_length_b 19.992876
_cell_length_c 17.983204
_cell_angle_alpha 90.000000
_cell_angle_beta 156.220333
_cell_angle_gamma 90.000000
_cell_volume 2005.997207
_symmetry_space_group_name_H-M "C 2/M"
_symmetry_group_IT_number 12
_symmetry_cell_setting 'monoclinic'
loop_
_space_group_symop_operation_xyz
x,y,z
-x,y,-z
-x,-y,-z
x,-y,z
1/2+x,1/2+y,z
1/2-x,1/2+y,-z
1/2-x,1/2-y,-z
1/2+x,1/2-y,z
loop_
_atom_site_type_symbol
_atom_site_label
_atom_site_fract_x
_atom_site_fract_y
_atom_site_fract_z
Si Si1 0.997699 0.819536 0.124598
Si Si2 0.560458 0.424732 0.713719
Si Si3 0.697817 0.926082 0.325304
Si Si4 0.365638 0.890262 0.473940
Si Si5 0.909426 0.674264 0.034879
Si Si6 0.715882 0.076780 0.842622
O O1 0.780093 0.819585 0.030397
O O2 0.237632 0.828784 0.341736
O O3 0.987202 0.749892 0.074073
O O4 0.943934 0.884629 0.036267
O O5 0.661516 0.500000 0.787505
O O6 0.418199 0.414498 0.536453
O O7 0.355053 0.422000 0.634627
O O8 0.757287 0.368474 0.868618
O O9 0.469125 0.928789 0.219108
O O10 0.720416 0.000000 0.307162
O O11 0.631084 0.868941 0.220887
O O12 0.500000 0.926617 0.500000
O O13 0.569746 0.880069 0.679193
O O14 0.750154 0.000000 0.840929
#
# Coordination Sequence:
#
# PCOD9190587 Si02
#       6
#     8   8   8   8   8   8
#     4   9  19  31  44  63  85 114 153 191 226 264
#     4   9  17  28  44  67  93 119 148 185 224 262
#     4   8  14  25  42  65  91 116 142 175 219 269
#     4  10  20  32  45  62  87 121 159 193 221 254
#     4   9  16  28  45  63  86 117 148 182 226 270
#     4   9  18  31  45  62  86 117 153 191 225 257
#
# _framework density 23.928248
#
# number of rings (size 3 to 8) (size 9 to 14) (size 15 to 20)
#    0.000    3.000    0.000    2.000    0.000    8.000 
#    0.000    7.500    0.000    0.000    0.000    0.000 
#    0.000    2.667    0.000   12.333    0.000   33.667 
#
# Total GULP energy -133999.963715 kJ/mol
# GULP energy per Si atom -5583.331821 kJ/mol
# Density = 2.387379 g / cm^3
# Si number density = 23.928248 Si / 1000 Ang^3
#
#
#
# Elastic Constant Matrix: (Units=GPa)
#
#
# Indices 1 2 3 4 5 6 
#
# 1 101.5187 6.6272 22.5962 -0.1067 3.6671 0.0034
# 2 6.6272 166.0698 113.1266 -0.3118 -17.0692 0.1285
# 3 22.5962 113.1266 136.4761 0.0086 -4.9092 0.0250
# 4 -0.1067 -0.3118 0.0086 42.0492 0.0527 -21.4894
# 5 3.6671 -17.0692 -4.9092 0.0527 41.1089 -0.0461
# 6 0.0034 0.1285 0.0250 -21.4894 -0.0461 2.4801
#
#
#
# Elastic Compliance Matrix: (Units=1/GPa)
#
#
# Indices 1 2 3 4 5 6 
#
# 1 0.010459 0.001639 -0.003112 0.000000 -0.000624 -0.000078
# 2 0.001639 0.014927 -0.012480 0.000052 0.004561 -0.000117
# 3 -0.003112 -0.012480 0.018089 -0.000033 -0.002744 0.000133
# 4 0.000000 0.000052 -0.000033 -0.006937 -0.000041 -0.060109
# 5 -0.000624 0.004561 -0.002744 -0.000041 0.025947 -0.000081
# 6 -0.000078 -0.000117 0.000133 -0.060109 -0.000081 -0.117616
#
#
# Mechanical properties :
#
#
# Convention : Reuss Voigt Hill
#
# Bulk Modulus (GPa) = 64.24040 76.52940 70.38490
# Shear Modulus (GPa) = -226.90995 34.57528 -96.16734
#
# Velocity S-wave (km/s) = -9.74860 3.80538 -6.34643
# Velocity P-wave (km/s) = 9.99041 7.16660 4.92179
#
# Compressibility (1/GPa) = 0.01556653
#
# Stress axis : x y z
#
# Youngs Moduli (GPa) = 95.61373 66.99491 55.28318
#
# Poissons Ratio (x) = -0.10978 0.17206
# Poissons Ratio (y) = -0.15668 0.68993
# Poissons Ratio (z) = 0.29759 0.83610
#
# Static dielectric constant tensor:
#      x y z
#    x 2.004710 0.000010 0.028470 
#    y 0.000010 1.858720 -0.000060 
#    z 0.028470 -0.000060 1.853890 
# 
# From -- ./inp_files/317922.got.cif
#   From: 2010.05.17/outbox.cif.g08.bks.cpg/sg12_159_cif.got.tgz:317922.got - 2010.06.03 13:09:07.
