data_PCOD9190852
_publ_section_title
;
Structure prediction by ZEFSAII (Michael W. Deem and Ramdas Pophale) SiO2 
 PCOD9190852
Probable space group: C 2/M
;
_chemical_formula_sum "Si O2"
_cell_formula_units_Z 56
_cell_length_a 16.081451
_cell_length_b 9.100430
_cell_length_c 16.855435
_cell_angle_alpha 90.000000
_cell_angle_beta 102.363121
_cell_angle_gamma 90.000000
_cell_volume 2409.557738
_symmetry_space_group_name_H-M "C 2/M"
_symmetry_group_IT_number 12
_symmetry_cell_setting 'monoclinic'
loop_
_space_group_symop_operation_xyz
x,y,z
-x,y,-z
-x,-y,-z
x,-y,z
1/2+x,1/2+y,z
1/2-x,1/2+y,-z
1/2-x,1/2-y,-z
1/2+x,1/2-y,z
loop_
_atom_site_type_symbol
_atom_site_label
_atom_site_fract_x
_atom_site_fract_y
_atom_site_fract_z
Si Si1 0.822066 0.176506 0.959163
Si Si2 0.924194 0.168128 0.336512
Si Si3 0.696256 0.167442 0.801229
Si Si4 0.134296 0.674244 0.534452
Si Si5 0.809622 0.324918 0.624477
Si Si6 0.049416 0.330491 0.908258
Si Si7 0.928133 0.170551 0.766420
O O1 0.908517 0.250349 0.007633
O O2 0.825142 0.000000 0.971560
O O3 0.750000 0.250000 0.000000
O O4 0.784942 0.202221 0.863420
O O5 0.841054 0.223263 0.271177
O O6 0.933754 0.265591 0.416912
O O7 0.000009 0.177392 0.288537
O O8 0.914356 0.000000 0.359117
O O9 0.624869 0.168494 0.856826
O O10 0.699126 0.000000 0.770536
O O11 0.141295 0.500000 0.544905
O O12 0.129813 0.704546 0.439821
O O13 0.220962 0.752715 0.581140
O O14 0.801841 0.500000 0.631956
O O15 0.849119 0.252112 0.710280
O O16 0.028681 0.500000 0.919709
O O17 0.972002 0.246585 0.850639
O O18 0.910482 0.000000 0.779323
#
# Coordination Sequence:
#
# PCOD9190852 Si02
#       7
#     8   8   8   8   8   8   8
#     4   9  15  23  37  59  89 126 164 201 243 291
#     4  10  20  32  49  74 103 133 166 206 248 293
#     4   8  15  26  40  61  92 128 163 200 243 290
#     4  10  21  37  56  75  98 129 164 204 249 298
#     4  10  21  37  56  76  98 127 165 206 247 296
#     4   9  16  26  41  63  93 128 164 203 245 290
#     4  10  20  33  50  74 104 135 166 204 250 296
#
# _framework density 23.240779
#
# number of rings (size 3 to 8) (size 9 to 14) (size 15 to 20)
#    0.000    2.571    0.000    3.429    0.000    8.000 
#    0.000    2.857    0.000    0.000    0.000    1.000 
#    0.000    8.000    0.000    0.000    0.000    0.000 
#
# Total GULP energy -156617.785209 kJ/mol
# GULP energy per Si atom -5593.492329 kJ/mol
# Density = 2.318788 g / cm^3
# Si number density = 23.240779 Si / 1000 Ang^3
#
#
#
# Elastic Constant Matrix: (Units=GPa)
#
#
# Indices 1 2 3 4 5 6 
#
# 1 81.4637 18.0457 27.2850 0.0000 3.3554 0.0000
# 2 18.0457 121.9279 75.8327 0.0000 9.3209 0.0000
# 3 27.2850 75.8327 148.4132 0.0000 8.6068 0.0000
# 4 0.0000 0.0000 0.0000 35.0395 0.0000 1.5843
# 5 3.3554 9.3209 8.6068 0.0000 47.7254 0.0000
# 6 0.0000 0.0000 0.0000 1.5843 0.0000 14.2475
#
#
#
# Elastic Compliance Matrix: (Units=1/GPa)
#
#
# Indices 1 2 3 4 5 6 
#
# 1 0.013124 -0.000622 -0.002070 0.000000 -0.000428 0.000000
# 2 -0.000622 0.012126 -0.006010 0.000000 -0.001241 0.000000
# 3 -0.002070 -0.006010 0.010220 0.000000 -0.000524 0.000000
# 4 0.000000 0.000000 0.000000 0.028683 0.000000 -0.003189
# 5 -0.000428 -0.001241 -0.000524 0.000000 0.021320 0.000000
# 6 0.000000 0.000000 0.000000 -0.003189 0.000000 0.070542
#
#
# Mechanical properties :
#
#
# Convention : Reuss Voigt Hill
#
# Bulk Modulus (GPa) = 55.35229 66.01461 60.68345
# Shear Modulus (GPa) = 27.86424 34.77857 31.32140
#
# Velocity S-wave (km/s) = 3.46632 3.87259 3.67507
# Velocity P-wave (km/s) = 6.31578 6.96148 6.64648
#
# Compressibility (1/GPa) = 0.01806610
#
# Stress axis : x y z
#
# Youngs Moduli (GPa) = 76.19510 82.46638 97.85189
#
# Poissons Ratio (x) = 0.05131 0.20256
# Poissons Ratio (y) = 0.04741 0.58805
# Poissons Ratio (z) = 0.15773 0.49559
#
# Static dielectric constant tensor:
#      x y z
#    x 1.987880 0.000000 -0.062460 
#    y 0.000000 1.768880 0.000000 
#    z -0.062460 0.000000 1.856380 
# 
# From -- ./inp_files/319345.got.cif
#   From: 2010.05.17/outbox.cif.g08.bks.cpg/sg12_160_cif.got.tgz:319345.got - 2010.06.03 13:09:07.
