data_PCOD9190983
_publ_section_title
;
Structure prediction by ZEFSAII (Michael W. Deem and Ramdas Pophale) SiO2 
 PCOD9190983
Probable space group: C 2/M
;
_chemical_formula_sum "Si O2"
_cell_formula_units_Z 56
_cell_length_a 17.716390
_cell_length_b 18.201358
_cell_length_c 16.866757
_cell_angle_alpha 90.000000
_cell_angle_beta 25.244464
_cell_angle_gamma 90.000000
_cell_volume 2319.586937
_symmetry_space_group_name_H-M "C 2/M"
_symmetry_group_IT_number 12
_symmetry_cell_setting 'monoclinic'
loop_
_space_group_symop_operation_xyz
x,y,z
-x,y,-z
-x,-y,-z
x,-y,z
1/2+x,1/2+y,z
1/2-x,1/2+y,-z
1/2-x,1/2-y,-z
1/2+x,1/2-y,z
loop_
_atom_site_type_symbol
_atom_site_label
_atom_site_fract_x
_atom_site_fract_y
_atom_site_fract_z
Si Si1 0.588360 0.913593 0.094536
Si Si2 0.290667 0.412429 0.590862
Si Si3 0.308300 0.166288 0.155695
Si Si4 0.953951 0.912094 0.794400
Si Si5 0.795310 0.075849 0.175976
Si Si6 0.422344 0.798039 0.663781
Si Si7 0.305047 0.086436 0.549395
O O1 0.635615 0.897626 0.957958
O O2 0.754587 0.881677 0.985244
O O3 0.588226 0.000000 0.108452
O O4 0.383754 0.890262 0.295097
O O5 0.278759 0.500000 0.619655
O O6 0.282343 0.366410 0.679379
O O7 0.458632 0.400936 0.375427
O O8 0.177269 0.220790 0.233701
O O9 0.500000 0.200703 0.000000
O O10 0.109270 0.890147 0.706888
O O11 0.941331 0.000000 0.817401
O O12 0.738619 0.145266 0.182690
O O13 0.699618 0.077056 0.351399
O O14 0.746476 0.000000 0.179769
O O15 0.000000 0.075699 0.000000
O O16 0.500000 0.792955 0.500000
O O17 0.564998 0.842514 0.581933
O O18 0.338521 0.000000 0.488352
#
# Coordination Sequence:
#
# PCOD9190983 Si02
#       7
#     8   8   8   8   8   8   8
#     4   9  18  33  53  78 108 140 178 222 267 310
#     4   9  18  33  54  81 108 138 179 219 265 316
#     4  10  20  33  53  76 107 138 175 226 267 304
#     4   9  18  33  54  78 108 142 174 216 260 317
#     4   9  17  32  54  78 100 127 170 222 268 312
#     4  10  20  32  51  75 103 136 173 215 263 313
#     4   9  18  35  54  77 108 137 171 214 264 315
#
# _framework density 24.142230999999999
#
# number of rings (size 3 to 8) (size 9 to 14) (size 15 to 20)
#    0.000    2.714    0.000    1.286    2.000    3.429 
#    2.571    2.857    0.000    1.714    0.000    0.000 
#    0.000    0.000    0.000    0.000    0.000    0.000 
#
# Total GULP energy -156078.062516 kJ/mol
# GULP energy per Si atom -5574.216518 kJ/mol
# Density = 2.408728 g / cm^3
# Si number density = 24.142231 Si / 1000 Ang^3
#
#
#
# Elastic Constant Matrix: (Units=GPa)
#
#
# Indices 1 2 3 4 5 6 
#
# 1 62.8924 35.5453 10.2342 -0.0540 -7.9160 0.0080
# 2 35.5453 74.4608 44.0556 -0.1134 -9.3888 0.0313
# 3 10.2342 44.0556 103.1248 -0.1755 -32.6605 0.0387
# 4 -0.0540 -0.1134 -0.1755 -44.7245 0.0267 11.7671
# 5 -7.9160 -9.3888 -32.6605 0.0267 43.6680 -0.0037
# 6 0.0080 0.0313 0.0387 11.7671 -0.0037 3.7002
#
#
#
# Elastic Compliance Matrix: (Units=1/GPa)
#
#
# Indices 1 2 3 4 5 6 
#
# 1 0.023351 -0.013503 0.005074 -0.000004 0.005125 0.000027
# 2 -0.013503 0.025985 -0.011488 -0.000015 -0.005453 -0.000028
# 3 0.005074 -0.011488 0.017835 -0.000034 0.011789 0.000021
# 4 -0.000004 -0.000015 -0.000034 -0.012173 -0.000019 0.038713
# 5 0.005125 -0.005453 0.011789 -0.000019 0.031474 0.000003
# 6 0.000027 -0.000028 0.000021 0.038713 0.000003 0.147142
#
#
# Mechanical properties :
#
#
# Convention : Reuss Voigt Hill
#
# Bulk Modulus (GPa) = 36.57979 46.68314 41.63146
# Shear Modulus (GPa) = 17.69533 10.57160 14.13346
#
# Velocity S-wave (km/s) = 2.71026 2.09485 2.42218
# Velocity P-wave (km/s) = 4.99787 5.02293 5.01042
#
# Compressibility (1/GPa) = 0.02733750
#
# Stress axis : x y z
#
# Youngs Moduli (GPa) = 42.82427 38.48311 56.07001
#
# Poissons Ratio (x) = 0.51965 -0.28452
# Poissons Ratio (y) = 0.57827 0.64414
# Poissons Ratio (z) = -0.21731 0.44210
#
# Static dielectric constant tensor:
#      x y z
#    x 1.960770 0.000000 -0.008300 
#    y 0.000000 1.919180 0.000020 
#    z -0.008300 0.000020 1.998210 
# 
# From -- ./inp_files/318017.got.cif
#   From: 2010.05.17/outbox.cif.g08.bks.cpg/sg12_160_cif.got.tgz:318017.got - 2010.06.03 13:09:07.
