data_PCOD9190646
_publ_section_title
;
Structure prediction by ZEFSAII (Michael W. Deem and Ramdas Pophale) SiO2 
 PCOD9190646
Probable space group: C 2/M
;
_chemical_formula_sum "Si O2"
_cell_formula_units_Z 64
_cell_length_a 15.067450
_cell_length_b 7.602048
_cell_length_c 34.593956
_cell_angle_alpha 90.000000
_cell_angle_beta 128.631843
_cell_angle_gamma 90.000000
_cell_volume 3095.409881
_symmetry_space_group_name_H-M "C 2/M"
_symmetry_group_IT_number 12
_symmetry_cell_setting 'monoclinic'
loop_
_space_group_symop_operation_xyz
x,y,z
-x,y,-z
-x,-y,-z
x,-y,z
1/2+x,1/2+y,z
1/2-x,1/2+y,-z
1/2-x,1/2-y,-z
1/2+x,1/2-y,z
loop_
_atom_site_type_symbol
_atom_site_label
_atom_site_fract_x
_atom_site_fract_y
_atom_site_fract_z
Si Si1 0.093977 0.205107 0.554237
Si Si2 0.464963 0.296093 0.817556
Si Si3 0.491640 0.787213 0.257865
Si Si4 0.391875 0.703157 0.993122
Si Si5 0.289192 0.214634 0.259683
Si Si6 0.360403 0.203975 0.070033
Si Si7 0.049912 0.712809 0.629329
Si Si8 0.847307 0.285222 0.631146
O O1 0.053087 0.216073 0.587204
O O2 0.221244 0.281144 0.588554
O O3 0.000000 0.283404 0.500000
O O4 0.106633 0.000000 0.546547
O O5 0.457654 0.500000 0.826751
O O6 0.505824 0.282075 0.784575
O O7 0.337144 0.221132 0.782854
O O8 0.552636 0.213583 0.871185
O O9 0.379606 0.735744 0.251395
O O10 0.599141 0.729597 0.313210
O O11 0.493379 0.000000 0.256556
O O12 0.385110 0.500000 0.978073
O O13 0.264329 0.778072 0.952732
O O14 0.500000 0.782084 0.000000
O O15 0.407592 0.709625 0.043727
O O16 0.342733 0.270071 0.315305
O O17 0.286190 0.000000 0.259847
O O18 0.342612 0.000000 0.054717
O O19 0.051834 0.500000 0.627816
O O20 0.937737 0.763784 0.622793
O O21 0.844803 0.500000 0.631564
#
# Coordination Sequence:
#
# PCOD9190646 Si02
#       8
#     8   8   8   8   8   8   8   8
#     4  10  20  32  46  69 100 128 155 195 252 306
#     4  11  21  33  50  75 108 136 160 200 251 293
#     4   9  17  33  54  72  93 128 172 205 238 291
#     4   9  19  38  61  79  99 133 173 210 248 288
#     4   8  17  33  52  72  96 130 166 201 244 294
#     4  10  21  36  54  79 107 134 169 207 244 290
#     4   9  17  33  54  71  90 123 169 208 238 284
#     4   8  16  32  52  70  93 128 163 199 246 297
#
# _framework density 20.675774000000001
#
# number of rings (size 3 to 8) (size 9 to 14) (size 15 to 20)
#    0.000    2.750    0.000    3.000    0.000    2.500 
#    0.000   10.000    0.000    0.000    0.000    0.000 
#    0.000    0.000    0.000    0.000    0.000    0.000 
#
# Total GULP energy -178561.172237 kJ/mol
# GULP energy per Si atom -5580.036632 kJ/mol
# Density = 2.062872 g / cm^3
# Si number density = 20.675774 Si / 1000 Ang^3
#
#
#
# Elastic Constant Matrix: (Units=GPa)
#
#
# Indices 1 2 3 4 5 6 
#
# 1 -22.3470 -37.5333 176.5971 0.0001 -187.0191 0.0001
# 2 -37.5333 37.6282 14.3411 0.0000 -38.5551 0.0000
# 3 176.5971 14.3411 118.6799 -0.0001 134.3605 -0.0001
# 4 0.0001 0.0000 -0.0001 103.7584 0.0002 26.9724
# 5 -187.0191 -38.5551 134.3605 0.0002 -240.5304 0.0001
# 6 0.0001 0.0000 -0.0001 26.9724 0.0001 27.9280
#
#
#
# Elastic Compliance Matrix: (Units=1/GPa)
#
#
# Indices 1 2 3 4 5 6 
#
# 1 0.010453 0.001171 -0.003848 0.000000 -0.010465 0.000000
# 2 0.001171 0.023098 0.000422 0.000000 -0.004377 0.000000
# 3 -0.003848 0.000422 0.006610 0.000000 0.006617 0.000000
# 4 0.000000 0.000000 0.000000 0.012869 0.000000 -0.012428
# 5 -0.010465 -0.004377 0.006617 0.000000 0.008377 0.000000
# 6 0.000000 0.000000 0.000000 -0.012428 0.000000 0.047809
#
#
# Mechanical properties :
#
#
# Convention : Reuss Voigt Hill
#
# Bulk Modulus (GPa) = 28.05026 48.97453 38.51240
# Shear Modulus (GPa) = 39.80560 -23.06506 8.37027
#
# Velocity S-wave (km/s) = 4.39250 -3.34362 2.01423
# Velocity P-wave (km/s) = 6.27070 2.97185 4.90681
#
# Compressibility (1/GPa) = 0.03565029
#
# Stress axis : x y z
#
# Youngs Moduli (GPa) = 95.66580 43.29381 151.28333
#
# Poissons Ratio (x) = -0.05069 0.58217
# Poissons Ratio (y) = -0.11200 -0.06385
# Poissons Ratio (z) = 0.36814 -0.01827
#
# Static dielectric constant tensor:
#      x y z
#    x 1.740520 0.000000 0.034140 
#    y 0.000000 1.790610 0.000000 
#    z 0.034140 0.000000 1.703220 
# 
# From -- ./inp_files/375112.got.cif
#   From: 2010.05.17/outbox.cif.g08.bks.cpg/sg12_188_cif.got.tgz:375112.got - 2010.06.03 13:09:07.
