data_PCOD9190510
_publ_section_title
;
Structure prediction by ZEFSAII (Michael W. Deem and Ramdas Pophale) SiO2 
 PCOD9190510
Probable space group: C 2/M
;
_chemical_formula_sum "Si O2"
_cell_formula_units_Z 58
_cell_length_a 19.716606
_cell_length_b 7.716460
_cell_length_c 19.710589
_cell_angle_alpha 90.000000
_cell_angle_beta 117.253515
_cell_angle_gamma 90.000000
_cell_volume 2665.914895
_symmetry_space_group_name_H-M "C 2/M"
_symmetry_group_IT_number 12
_symmetry_cell_setting 'monoclinic'
loop_
_space_group_symop_operation_xyz
x,y,z
-x,y,-z
-x,-y,-z
x,-y,z
1/2+x,1/2+y,z
1/2-x,1/2+y,-z
1/2-x,1/2-y,-z
1/2+x,1/2-y,z
loop_
_atom_site_type_symbol
_atom_site_label
_atom_site_fract_x
_atom_site_fract_y
_atom_site_fract_z
Si Si1 0.122071 0.790196 0.567590
Si Si2 0.347840 0.198684 0.266402
Si Si3 0.024541 0.197806 0.763235
Si Si4 0.500000 0.500000 0.000000
Si Si5 0.931830 0.199889 0.594353
Si Si6 0.489538 0.798986 0.897200
Si Si7 0.704060 0.790623 0.382761
Si Si8 0.824802 0.291859 0.781415
O O1 0.115143 0.736757 0.642550
O O2 0.068035 0.727051 0.481707
O O3 0.208097 0.739025 0.585448
O O4 0.118466 0.000000 0.565337
O O5 0.390135 0.303155 0.227333
O O6 0.257600 0.232297 0.231066
O O7 0.360138 0.000000 0.255996
O O8 0.977347 0.279436 0.678352
O O9 0.014966 0.289842 0.830303
O O10 0.998057 0.000000 0.760941
O O11 0.470545 0.655523 0.038863
O O12 0.844218 0.206055 0.579812
O O13 0.957876 0.000000 0.601178
O O14 0.400036 0.739429 0.856173
O O15 0.495711 0.000000 0.921196
O O16 0.667202 0.739004 0.293601
O O17 0.700710 0.000000 0.388494
O O18 0.823157 0.500000 0.780473
#
# Coordination Sequence:
#
# PCOD9190510 Si02
#       8
#     8   8   8   2   8   8   8   8
#     4   9  19  35  48  72 115 163 213 266 324 372
#     4  11  23  36  57  87 120 167 221 269 316 374
#     4  11  22  39  61  90 126 168 214 263 321 377
#     4  12  26  44  72 110 140 166 194 252 324 370
#     4  10  20  31  51  77 112 161 213 266 319 374
#     4  11  23  43  72 105 135 167 207 251 310 385
#     4   9  16  28  49  76 112 152 199 258 316 363
#     4   9  19  37  62  91 122 161 208 260 308 371
#
# _framework density 21.756132000000001
#
# number of rings (size 3 to 8) (size 9 to 14) (size 15 to 20)
#    0.000    1.931    2.069    3.103    0.966    3.862 
#    0.000    2.759    0.000    0.828    0.000    0.000 
#    0.000    0.000    0.000    0.000    0.000    0.000 
#
# Total GULP energy -161702.592561 kJ/mol
# GULP energy per Si atom -5575.951468 kJ/mol
# Density = 2.170661 g / cm^3
# Si number density = 21.756132 Si / 1000 Ang^3
#
#
#
# Elastic Constant Matrix: (Units=GPa)
#
#
# Indices 1 2 3 4 5 6 
#
# 1 88.6615 8.3350 32.5715 0.0000 -22.8948 0.0000
# 2 8.3350 71.4854 15.7136 0.0000 -2.4265 0.0000
# 3 32.5715 15.7136 75.2735 0.0000 -22.5850 0.0000
# 4 0.0000 0.0000 0.0000 5.7315 0.0000 -14.4100
# 5 -22.8948 -2.4265 -22.5850 0.0000 19.4845 0.0000
# 6 0.0000 0.0000 0.0000 -14.4100 0.0000 17.6455
#
#
#
# Elastic Compliance Matrix: (Units=1/GPa)
#
#
# Indices 1 2 3 4 5 6 
#
# 1 0.016449 -0.000946 -0.001773 0.000000 0.017155 0.000000
# 2 -0.000946 0.014805 -0.003774 0.000000 -0.003642 0.000000
# 3 -0.001773 -0.003774 0.021579 0.000000 0.022459 0.000000
# 4 0.000000 0.000000 0.000000 -0.165666 0.000000 -0.135289
# 5 0.017155 -0.003642 0.022459 0.000000 0.097060 0.000000
# 6 0.000000 0.000000 0.000000 -0.135289 0.000000 -0.053810
#
#
# Mechanical properties :
#
#
# Convention : Reuss Voigt Hill
#
# Bulk Modulus (GPa) = 25.09625 38.74009 31.91817
# Shear Modulus (GPa) = -115.43324 20.49232 -47.47046
#
# Velocity S-wave (km/s) = -7.29198 3.07238 -4.67619
# Velocity P-wave (km/s) = 7.70305 5.51645 3.80170
#
# Compressibility (1/GPa) = 0.03984659
#
# Stress axis : x y z
#
# Youngs Moduli (GPa) = 60.79379 67.54409 46.34241
#
# Poissons Ratio (x) = 0.06389 0.08216
# Poissons Ratio (y) = 0.05750 0.17491
# Poissons Ratio (z) = 0.10779 0.25493
#
# Static dielectric constant tensor:
#      x y z
#    x 1.841260 0.000000 0.044300 
#    y 0.000000 1.771650 0.000000 
#    z 0.044300 0.000000 1.840180 
# 
# From -- ./inp_files/281503.got.cif
#   From: 2010.05.17/outbox.cif.g08.bks.cpg/sg12_141_cif.got.tgz:281503.got - 2010.06.03 13:09:07.
