data_PCOD9190552
_publ_section_title
;
Structure prediction by ZEFSAII (Michael W. Deem and Ramdas Pophale) SiO2 
 PCOD9190552
Probable space group: C 2/M
;
_chemical_formula_sum "Si O2"
_cell_formula_units_Z 56
_cell_length_a 14.129209
_cell_length_b 27.955157
_cell_length_c 8.208009
_cell_angle_alpha 90.000000
_cell_angle_beta 123.228107
_cell_angle_gamma 90.000000
_cell_volume 2711.947451
_symmetry_space_group_name_H-M "C 2/M"
_symmetry_group_IT_number 12
_symmetry_cell_setting 'monoclinic'
loop_
_space_group_symop_operation_xyz
x,y,z
-x,y,-z
-x,-y,-z
x,-y,z
1/2+x,1/2+y,z
1/2-x,1/2+y,-z
1/2-x,1/2-y,-z
1/2+x,1/2-y,z
loop_
_atom_site_type_symbol
_atom_site_label
_atom_site_fract_x
_atom_site_fract_y
_atom_site_fract_z
Si Si1 0.308450 0.112118 0.693812
Si Si2 0.425849 0.054503 0.573090
Si Si3 0.340681 0.945780 0.048528
Si Si4 0.177840 0.273540 0.577970
Si Si5 0.372982 0.677811 0.316529
Si Si6 0.502593 0.809594 0.829972
Si Si7 0.767449 0.650801 0.110642
O O1 0.319177 0.082473 0.538335
O O2 0.313743 0.074507 0.845677
O O3 0.203564 0.145814 0.634362
O O4 0.417867 0.146456 0.789142
O O5 0.500000 0.078169 0.500000
O O6 0.398106 0.000000 0.498533
O O7 0.523309 0.052694 0.802752
O O8 0.300058 0.000000 0.034197
O O9 0.288639 0.906329 0.123031
O O10 0.250000 0.250000 0.500000
O O11 0.166065 0.232469 0.700920
O O12 0.058336 0.284494 0.378715
O O13 0.226844 0.320722 0.713469
O O14 0.500000 0.673567 0.500000
O O15 0.342164 0.661916 0.103911
O O16 0.625026 0.827977 0.891213
O O17 0.500000 0.781485 0.000000
#
# Coordination Sequence:
#
# PCOD9190552 Si02
#       7
#     8   8   8   8   8   8   8
#     4  11  20  37  60  84 128 161 212 250 317 381
#     4  10  20  31  53  92 130 159 196 254 326 392
#     4  10  20  34  57  90 126 163 201 255 327 387
#     4  12  25  40  63  93 125 169 214 265 327 389
#     4  11  24  43  60  86 125 172 222 271 312 373
#     4  12  20  38  61  95 123 164 207 254 324 383
#     4  11  23  40  64  91 128 169 209 271 322 383
#
# _framework density 20.649367999999999
#
# number of rings (size 3 to 8) (size 9 to 14) (size 15 to 20)
#    0.000    1.000    5.714    2.571    2.000    2.286 
#    0.000    0.000    0.000   10.714    0.000    0.000 
#    0.000   18.286    0.000    0.000    0.000    0.000 
#
# Total GULP energy -156319.670316 kJ/mol
# GULP energy per Si atom -5582.845368 kJ/mol
# Density = 2.060237 g / cm^3
# Si number density = 20.649368 Si / 1000 Ang^3
#
#
#
# Elastic Constant Matrix: (Units=GPa)
#
#
# Indices 1 2 3 4 5 6 
#
# 1 67.2924 33.0307 22.6127 0.0000 -10.9123 0.0000
# 2 33.0307 132.9513 36.0715 0.0000 -12.1785 0.0000
# 3 22.6127 36.0715 83.2666 0.0000 -4.5317 0.0000
# 4 0.0000 0.0000 0.0000 24.9785 0.0000 -4.9483
# 5 -10.9123 -12.1785 -4.5317 0.0000 36.6392 0.0000
# 6 0.0000 0.0000 0.0000 -4.9483 0.0000 26.7252
#
#
#
# Elastic Compliance Matrix: (Units=1/GPa)
#
#
# Indices 1 2 3 4 5 6 
#
# 1 0.018216 -0.003265 -0.003318 0.000000 0.003929 0.000000
# 2 -0.003265 0.009322 -0.003057 0.000000 0.001748 0.000000
# 3 -0.003318 -0.003057 0.014222 0.000000 -0.000245 0.000000
# 4 0.000000 0.000000 0.000000 0.041559 0.000000 0.007695
# 5 0.003929 0.001748 -0.000245 0.000000 0.029014 0.000000
# 6 0.000000 0.000000 0.000000 0.007695 0.000000 0.038843
#
#
# Mechanical properties :
#
#
# Convention : Reuss Voigt Hill
#
# Bulk Modulus (GPa) = 44.48616 51.88224 48.18420
# Shear Modulus (GPa) = 28.09804 30.45493 29.27649
#
# Velocity S-wave (km/s) = 3.69280 3.84456 3.76944
# Velocity P-wave (km/s) = 6.30656 6.69980 6.50615
#
# Compressibility (1/GPa) = 0.02247890
#
# Stress axis : x y z
#
# Youngs Moduli (GPa) = 54.89809 107.27108 70.31575
#
# Poissons Ratio (x) = 0.35027 0.23334
# Poissons Ratio (y) = 0.17926 0.21492
# Poissons Ratio (z) = 0.18218 0.32788
#
# Static dielectric constant tensor:
#      x y z
#    x 1.755140 0.000000 -0.061930 
#    y 0.000000 1.795220 0.000000 
#    z -0.061930 0.000000 1.841140 
# 
# From -- ./inp_files/54824.got.cif
#   From: 2010.05.17/outbox.cif.g08.bks.cpg/sg12_28_cif.got.tgz:54824.got - 2010.06.03 13:09:07.
