data_PCOD9190711
_publ_section_title
;
Structure prediction by ZEFSAII (Michael W. Deem and Ramdas Pophale) SiO2 
 PCOD9190711
Probable space group: C 2/M
;
_chemical_formula_sum "Si O2"
_cell_formula_units_Z 48
_cell_length_a 31.562787
_cell_length_b 9.435137
_cell_length_c 7.590707
_cell_angle_alpha 90.000000
_cell_angle_beta 83.276748
_cell_angle_gamma 90.000000
_cell_volume 2244.961613
_symmetry_space_group_name_H-M "C 2/M"
_symmetry_group_IT_number 12
_symmetry_cell_setting 'monoclinic'
loop_
_space_group_symop_operation_xyz
x,y,z
-x,y,-z
-x,-y,-z
x,-y,z
1/2+x,1/2+y,z
1/2-x,1/2+y,-z
1/2-x,1/2-y,-z
1/2+x,1/2-y,z
loop_
_atom_site_type_symbol
_atom_site_label
_atom_site_fract_x
_atom_site_fract_y
_atom_site_fract_z
Si Si1 0.142184 0.660885 0.673808
Si Si2 0.061390 0.835898 0.610217
Si Si3 0.894455 0.341992 0.910642
Si Si4 0.805341 0.329851 0.861933
Si Si5 0.027960 0.837551 0.224632
Si Si6 0.217889 0.168154 0.767490
O O1 0.147960 0.500000 0.606892
O O2 0.103185 0.742131 0.603769
O O3 0.186287 0.747297 0.655446
O O4 0.126769 0.654499 0.886064
O O5 0.044566 0.835778 0.418397
O O6 0.020762 0.784073 0.745388
O O7 0.070416 0.000000 0.654422
O O8 0.907829 0.500000 0.853047
O O9 0.855051 0.298648 0.802480
O O10 0.935745 0.245880 0.893902
O O11 0.803099 0.500000 0.909282
O O12 0.768908 0.307854 0.733519
O O13 0.793294 0.229800 0.032547
O O14 0.026797 0.000000 0.166822
O O15 0.209727 0.000000 0.761926
#
# Coordination Sequence:
#
# PCOD9190711 Si02
#       6
#     8   8   8   8   8   8
#     4  10  20  32  47  72 102 127 156 196 238 279
#     4   9  19  36  53  69  92 123 159 198 239 283
#     4   9  18  31  47  71 102 128 153 191 236 279
#     4   8  15  27  42  65  97 128 157 191 231 276
#     4   9  19  35  53  71  92 121 159 199 237 283
#     4   9  15  25  44  67  93 127 161 192 230 275
#
# _framework density 21.381209999999999
#
# number of rings (size 3 to 8) (size 9 to 14) (size 15 to 20)
#    0.000    3.000    0.000    3.000    0.000    6.000 
#    0.000    5.000    0.000    1.000    0.000    0.000 
#    0.000    0.000    0.000    0.000    0.000    0.000 
#
# Total GULP energy -133826.159339 kJ/mol
# GULP energy per Si atom -5576.089972 kJ/mol
# Density = 2.133255 g / cm^3
# Si number density = 21.381210 Si / 1000 Ang^3
#
#
#
# Elastic Constant Matrix: (Units=GPa)
#
#
# Indices 1 2 3 4 5 6 
#
# 1 107.5960 62.9270 69.4998 0.0000 41.1292 0.0000
# 2 62.9270 81.9128 34.4140 0.0000 16.8529 0.0000
# 3 69.4998 34.4140 22.8387 0.0000 -5.7816 0.0000
# 4 0.0000 0.0000 0.0000 10.8901 0.0000 3.6867
# 5 41.1292 16.8529 -5.7816 0.0000 29.2905 0.0000
# 6 0.0000 0.0000 0.0000 3.6867 0.0000 22.5685
#
#
#
# Elastic Compliance Matrix: (Units=1/GPa)
#
#
# Indices 1 2 3 4 5 6 
#
# 1 -0.000616 -0.008978 0.017821 0.000000 0.009549 0.000000
# 2 -0.008978 0.021363 -0.005041 0.000000 -0.000680 0.000000
# 3 0.017821 -0.005041 -0.008894 0.000000 -0.023879 0.000000
# 4 0.000000 0.000000 0.000000 0.097202 0.000000 -0.015879
# 5 0.009549 -0.000680 -0.023879 0.000000 0.016410 0.000000
# 6 0.000000 0.000000 0.000000 -0.015879 0.000000 0.046904
#
#
# Mechanical properties :
#
#
# Convention : Reuss Voigt Hill
#
# Bulk Modulus (GPa) = 51.39700 60.66991 56.03345
# Shear Modulus (GPa) = 29.19695 15.58360 22.39028
#
# Velocity S-wave (km/s) = 3.69933 2.70264 3.23955
# Velocity P-wave (km/s) = 6.50672 6.17867 6.34481
#
# Compressibility (1/GPa) = 0.01945639
#
# Stress axis : x y z
#
# Youngs Moduli (GPa) = -1623.07381 46.80998 -112.43689
#
# Poissons Ratio (x) = 0.42027 2.00371
# Poissons Ratio (y) = -14.57237 -0.56677
# Poissons Ratio (z) = 28.92445 0.23596
#
# Static dielectric constant tensor:
#      x y z
#    x 1.804750 0.000000 0.010670 
#    y 0.000000 1.735230 0.000000 
#    z 0.010670 0.000000 1.844570 
# 
# From -- ./inp_files/108603.got.cif
#   From: 2010.05.17/outbox.cif.g08.bks.cpg/sg12_55_cif.got.tgz:108603.got - 2010.06.03 13:09:07.
