data_PCOD9190857
_publ_section_title
;
Structure prediction by ZEFSAII (Michael W. Deem and Ramdas Pophale) SiO2 
 PCOD9190857
Probable space group: C 2/M
;
_chemical_formula_sum "Si O2"
_cell_formula_units_Z 56
_cell_length_a 14.914791
_cell_length_b 8.980432
_cell_length_c 25.735382
_cell_angle_alpha 90.000000
_cell_angle_beta 52.114184
_cell_angle_gamma 90.000000
_cell_volume 2720.520351
_symmetry_space_group_name_H-M "C 2/M"
_symmetry_group_IT_number 12
_symmetry_cell_setting 'monoclinic'
loop_
_space_group_symop_operation_xyz
x,y,z
-x,y,-z
-x,-y,-z
x,-y,z
1/2+x,1/2+y,z
1/2-x,1/2+y,-z
1/2-x,1/2-y,-z
1/2+x,1/2-y,z
loop_
_atom_site_type_symbol
_atom_site_label
_atom_site_fract_x
_atom_site_fract_y
_atom_site_fract_z
Si Si1 0.207668 0.320964 0.068123
Si Si2 0.553911 0.180827 0.822038
Si Si3 0.593471 0.330088 0.284849
Si Si4 0.220796 0.821919 0.846202
Si Si5 0.417654 0.166866 0.416330
Si Si6 0.732340 0.828578 0.680356
Si Si7 0.665851 0.330788 0.459368
O O1 0.210548 0.500000 0.062523
O O2 0.282121 0.280208 0.092113
O O3 0.077144 0.278096 0.126215
O O4 0.250000 0.250000 0.000000
O O5 0.625154 0.244859 0.845079
O O6 0.616788 0.233916 0.746642
O O7 0.563263 0.000000 0.819077
O O8 0.576758 0.500000 0.273382
O O9 0.657483 0.231722 0.219411
O O10 0.481776 0.259209 0.349277
O O11 0.681258 0.332895 0.302259
O O12 0.212514 0.000000 0.844330
O O13 0.418440 0.244463 0.472396
O O14 0.286435 0.158597 0.446167
O O15 0.464865 0.000000 0.401783
O O16 0.797684 0.758703 0.608437
O O17 0.707421 0.000000 0.672762
O O18 0.624611 0.500000 0.466190
#
# Coordination Sequence:
#
# PCOD9190857 Si02
#       7
#     8   8   8   8   8   8   8
#     4  10  23  40  62  89 120 156 194 231 278 344
#     4   9  19  38  61  85 115 154 195 234 281 343
#     4  10  20  35  55  78 106 141 184 229 276 339
#     4  10  21  38  60  88 119 151 189 239 291 335
#     4  10  20  32  49  74 106 140 178 230 283 331
#     4   8  16  32  55  76  96 134 186 225 265 327
#     4   9  18  33  52  71  98 140 184 227 274 332
#
# _framework density 20.584298
#
# number of rings (size 3 to 8) (size 9 to 14) (size 15 to 20)
#    0.000    2.571    0.000    2.143    2.000    3.429 
#    0.000    9.286    0.000    0.000    0.000    0.000 
#    0.000    0.000    0.000    0.000    0.000    0.000 
#
# Total GULP energy -156233.057844 kJ/mol
# GULP energy per Si atom -5579.752066 kJ/mol
# Density = 2.053745 g / cm^3
# Si number density = 20.584298 Si / 1000 Ang^3
#
#
#
# Elastic Constant Matrix: (Units=GPa)
#
#
# Indices 1 2 3 4 5 6 
#
# 1 45.5368 7.0014 26.4577 0.0000 -0.3210 0.0000
# 2 7.0014 31.4341 10.3431 0.0000 1.9765 0.0000
# 3 26.4577 10.3431 92.0109 0.0000 24.1583 0.0000
# 4 0.0000 0.0000 0.0000 33.5161 0.0000 -1.1306
# 5 -0.3210 1.9765 24.1583 0.0000 33.3270 0.0000
# 6 0.0000 0.0000 0.0000 -1.1306 0.0000 15.7627
#
#
#
# Elastic Compliance Matrix: (Units=1/GPa)
#
#
# Indices 1 2 3 4 5 6 
#
# 1 0.028179 -0.003566 -0.009669 0.000000 0.007492 0.000000
# 2 -0.003566 0.033508 -0.002730 0.000000 -0.000043 0.000000
# 3 -0.009669 -0.002730 0.017214 0.000000 -0.012409 0.000000
# 4 0.000000 0.000000 0.000000 0.029909 0.000000 0.002145
# 5 0.007492 -0.000043 -0.012409 0.000000 0.039076 0.000000
# 6 0.000000 0.000000 0.000000 0.002145 0.000000 0.063595
#
#
# Mechanical properties :
#
#
# Convention : Reuss Voigt Hill
#
# Bulk Modulus (GPa) = 21.29004 28.50958 24.89981
# Shear Modulus (GPa) = 19.30002 24.86647 22.08324
#
# Velocity S-wave (km/s) = 3.06536 3.47944 3.27895
# Velocity P-wave (km/s) = 4.78476 5.47926 5.14374
#
# Compressibility (1/GPa) = 0.04697031
#
# Stress axis : x y z
#
# Youngs Moduli (GPa) = 35.48706 29.84377 58.09341
#
# Poissons Ratio (x) = 0.10642 0.56171
# Poissons Ratio (y) = 0.12655 0.15860
# Poissons Ratio (z) = 0.34313 0.08148
#
# Static dielectric constant tensor:
#      x y z
#    x 1.768160 0.000000 -0.000550 
#    y 0.000000 1.716820 0.000000 
#    z -0.000550 0.000000 1.748880 
# 
# From -- ./inp_files/338518.got.cif
#   From: 2010.05.17/outbox.cif.g08.bks.cpg/sg12_170_cif.got.tgz:338518.got - 2010.06.03 13:09:07.
