data_PCOD9190570
_publ_section_title
;
Structure prediction by ZEFSAII (Michael W. Deem and Ramdas Pophale) SiO2 
 PCOD9190570
Probable space group: C 2/M
;
_chemical_formula_sum "Si O2"
_cell_formula_units_Z 44
_cell_length_a 11.423458
_cell_length_b 21.095305
_cell_length_c 10.345891
_cell_angle_alpha 90.000000
_cell_angle_beta 41.287870
_cell_angle_gamma 90.000000
_cell_volume 1645.097529
_symmetry_space_group_name_H-M "C 2/M"
_symmetry_group_IT_number 12
_symmetry_cell_setting 'monoclinic'
loop_
_space_group_symop_operation_xyz
x,y,z
-x,y,-z
-x,-y,-z
x,-y,z
1/2+x,1/2+y,z
1/2-x,1/2+y,-z
1/2-x,1/2-y,-z
1/2+x,1/2-y,z
loop_
_atom_site_type_symbol
_atom_site_label
_atom_site_fract_x
_atom_site_fract_y
_atom_site_fract_z
Si Si1 0.827045 0.636063 0.222907
Si Si2 0.023333 0.500000 0.288886
Si Si3 0.384567 0.500000 0.323750
Si Si4 0.083681 0.631748 0.241652
Si Si5 0.014898 0.864885 0.135008
Si Si6 0.253534 0.500000 0.830068
Si Si7 0.884689 0.230640 0.767917
O O1 0.777980 0.565023 0.220639
O O2 0.686029 0.686783 0.289249
O O3 0.908795 0.633375 0.297444
O O4 0.000000 0.656487 0.000000
O O5 0.812287 0.500000 0.459425
O O6 0.120334 0.500000 0.066455
O O7 0.082716 0.563922 0.309361
O O8 0.420403 0.432844 0.222425
O O9 0.542273 0.500000 0.297118
O O10 0.081173 0.698995 0.311112
O O11 0.274788 0.625537 0.010063
O O12 0.966874 0.810833 0.278929
O O13 0.000000 0.841756 0.000000
O O14 0.750000 0.250000 0.000000
#
# Coordination Sequence:
#
# PCOD9190570 Si02
#       7
#     8   4   4   8   8   4   8
#     4  12  18  34  68  92 133 173 215 268 339 385
#     4  12  23  42  70  97 134 176 227 275 336 391
#     4  12  23  44  66 100 136 177 223 279 327 399
#     4  11  23  39  65  98 135 173 222 278 330 399
#     4  11  22  39  65  96 134 175 221 269 331 396
#     4  12  20  41  67  99 136 172 215 285 328 397
#     4  10  20  31  60  99 126 170 220 271 323 403
#
# _framework density 26.746134999999999
#
# number of rings (size 3 to 8) (size 9 to 14) (size 15 to 20)
#    0.000    0.727    9.091    1.091    5.091    0.000 
#    0.000    4.545    0.000    0.000   14.182    0.000 
#    0.000    0.000    0.000    0.000    0.000    0.000 
#
# Total GULP energy -122963.571561 kJ/mol
# GULP energy per Si atom -5589.253253 kJ/mol
# Density = 2.668526 g / cm^3
# Si number density = 26.746135 Si / 1000 Ang^3
#
#
#
# Elastic Constant Matrix: (Units=GPa)
#
#
# Indices 1 2 3 4 5 6 
#
# 1 89.7105 44.7829 14.6591 0.0000 -20.5248 0.0000
# 2 44.7829 272.4476 38.8333 0.0000 -4.4231 0.0000
# 3 14.6591 38.8333 100.6043 0.0000 -12.8230 0.0000
# 4 0.0000 0.0000 0.0000 -11.6954 0.0000 -20.5969
# 5 -20.5248 -4.4231 -12.8230 0.0000 34.7125 0.0000
# 6 0.0000 0.0000 0.0000 -20.5969 0.0000 9.0279
#
#
#
# Elastic Compliance Matrix: (Units=1/GPa)
#
#
# Indices 1 2 3 4 5 6 
#
# 1 0.014081 -0.002156 -0.000203 0.000000 0.007976 0.000000
# 2 -0.002156 0.004214 -0.001476 0.000000 -0.001283 0.000000
# 3 -0.000203 -0.001476 0.011019 0.000000 0.003762 0.000000
# 4 0.000000 0.000000 0.000000 -0.017040 0.000000 -0.038876
# 5 0.007976 -0.001283 0.003762 0.000000 0.034751 0.000000
# 6 0.000000 0.000000 0.000000 -0.038876 0.000000 0.022074
#
#
# Mechanical properties :
#
#
# Convention : Reuss Voigt Hill
#
# Bulk Modulus (GPa) = 46.20164 73.25702 59.72933
# Shear Modulus (GPa) = 59.53428 30.70813 45.12120
#
# Velocity S-wave (km/s) = 4.72307 3.39209 4.11179
# Velocity P-wave (km/s) = 6.85965 6.54148 6.70245
#
# Compressibility (1/GPa) = 0.02164425
#
# Stress axis : x y z
#
# Youngs Moduli (GPa) = 71.01577 237.28072 90.75372
#
# Poissons Ratio (x) = 0.51162 0.01841
# Poissons Ratio (y) = 0.15312 0.13397
# Poissons Ratio (z) = 0.01441 0.35026
#
# Static dielectric constant tensor:
#      x y z
#    x 2.124310 0.000000 0.012660 
#    y 0.000000 2.155620 0.000000 
#    z 0.012660 0.000000 2.147260 
# 
# From -- ./inp_files/207570.got.cif
#   From: 2010.05.17/outbox.cif.g08.bks.cpg/sg12_104_cif.got.tgz:207570.got - 2010.06.03 13:09:07.
