data_PCOD9190728
_publ_section_title
;
Structure prediction by ZEFSAII (Michael W. Deem and Ramdas Pophale) SiO2 
 PCOD9190728
Probable space group: C 2/M
;
_chemical_formula_sum "Si O2"
_cell_formula_units_Z 64
_cell_length_a 22.827213
_cell_length_b 9.176260
_cell_length_c 23.627141
_cell_angle_alpha 90.000000
_cell_angle_beta 55.589239
_cell_angle_gamma 90.000000
_cell_volume 4083.077331
_symmetry_space_group_name_H-M "C 2/M"
_symmetry_group_IT_number 12
_symmetry_cell_setting 'monoclinic'
loop_
_space_group_symop_operation_xyz
x,y,z
-x,y,-z
-x,-y,-z
x,-y,z
1/2+x,1/2+y,z
1/2-x,1/2+y,-z
1/2-x,1/2-y,-z
1/2+x,1/2-y,z
loop_
_atom_site_type_symbol
_atom_site_label
_atom_site_fract_x
_atom_site_fract_y
_atom_site_fract_z
Si Si1 0.983189 0.674059 0.263204
Si Si2 0.293039 0.329960 0.846161
Si Si3 0.301600 0.324011 0.018170
Si Si4 0.158247 0.325312 0.599360
Si Si5 0.578501 0.825234 0.434755
Si Si6 0.103045 0.674495 0.290272
Si Si7 0.177968 0.826430 0.470081
Si Si8 0.081443 0.831454 0.127465
O O1 0.983864 0.500000 0.257070
O O2 0.035901 0.711177 0.286752
O O3 0.016856 0.741519 0.188452
O O4 0.904230 0.720045 0.324015
O O5 0.276568 0.500000 0.847091
O O6 0.226133 0.242304 0.907953
O O7 0.328840 0.257111 0.772043
O O8 0.355362 0.321190 0.860045
O O9 0.293719 0.500000 0.021287
O O10 0.250000 0.250000 0.000000
O O11 0.380506 0.288106 0.952121
O O12 0.151650 0.500000 0.593528
O O13 0.151201 0.244964 0.543234
O O14 0.237455 0.296528 0.578702
O O15 0.500000 0.787765 0.500000
O O16 0.586817 0.789679 0.364013
O O17 0.636083 0.743825 0.441233
O O18 0.587133 0.000000 0.436382
O O19 0.113947 0.500000 0.279715
O O20 0.168011 0.000000 0.477080
O O21 0.060956 0.000000 0.134582
#
# Coordination Sequence:
#
# PCOD9190728 Si02
#       8
#     8   8   8   8   8   8   8   8
#     4   9  16  27  44  62  82 112 147 178 210 254
#     4   9  16  25  37  54  79 111 143 176 212 250
#     4   9  15  23  35  52  77 109 143 176 210 250
#     4   9  18  33  49  65  88 116 146 180 220 265
#     4  10  20  34  50  66  88 118 149 181 219 264
#     4   9  17  28  43  62  83 112 147 179 213 255
#     4  10  20  32  48  69  89 112 145 185 224 260
#     4   8  15  24  34  54  83 110 137 173 213 249
#
# _framework density 15.674452
#
# number of rings (size 3 to 8) (size 9 to 14) (size 15 to 20)
#    0.000    2.875    0.000    2.625    0.000    7.250 
#    0.000    2.500    0.000    0.000    0.000    0.000 
#    0.000    1.000    0.000   11.250    0.000    7.625 
#
# Total GULP energy -178184.060078 kJ/mol
# GULP energy per Si atom -5568.251877 kJ/mol
# Density = 1.563878 g / cm^3
# Si number density = 15.674452 Si / 1000 Ang^3
#
#
#
# Elastic Constant Matrix: (Units=GPa)
#
#
# Indices 1 2 3 4 5 6 
#
# 1 29.6731 22.0789 34.3856 0.0000 -4.3527 -0.0001
# 2 22.0789 40.8407 59.0723 0.0000 -7.4864 0.0000
# 3 34.3856 59.0723 168.4226 0.0000 -21.4317 0.0000
# 4 0.0000 0.0000 0.0000 28.6028 0.0000 -0.9031
# 5 -4.3527 -7.4864 -21.4317 0.0000 18.0515 0.0000
# 6 -0.0001 0.0000 0.0000 -0.9031 0.0000 17.0642
#
#
#
# Elastic Compliance Matrix: (Units=1/GPa)
#
#
# Indices 1 2 3 4 5 6 
#
# 1 0.056610 -0.028186 -0.001675 0.000000 -0.000028 0.000000
# 2 -0.028186 0.063731 -0.016609 0.000000 -0.000085 0.000000
# 3 -0.001675 -0.016609 0.013166 0.000000 0.008339 0.000000
# 4 0.000000 0.000000 0.000000 0.035020 0.000000 0.001853
# 5 -0.000028 -0.000085 0.008339 0.000000 0.065256 0.000000
# 6 0.000000 0.000000 0.000000 0.001853 0.000000 0.058700
#
#
# Mechanical properties :
#
#
# Convention : Reuss Voigt Hill
#
# Bulk Modulus (GPa) = 24.65090 52.22333 38.43712
# Shear Modulus (GPa) = 12.53297 20.97032 16.75164
#
# Velocity S-wave (km/s) = 2.83075 3.66165 3.27268
# Velocity P-wave (km/s) = 5.14248 7.16008 6.23345
#
# Compressibility (1/GPa) = 0.04056646
#
# Stress axis : x y z
#
# Youngs Moduli (GPa) = 17.66463 15.69088 75.95199
#
# Poissons Ratio (x) = 0.44226 0.12725
# Poissons Ratio (y) = 0.49789 1.26151
# Poissons Ratio (z) = 0.02960 0.26061
#
# Static dielectric constant tensor:
#      x y z
#    x 1.500150 0.000000 -0.010350 
#    y 0.000000 1.526530 0.000000 
#    z -0.010350 0.000000 1.548610 
# 
# From -- ./inp_files/348540.got.cif
#   From: 2010.05.17/outbox.cif.g08.bks.cpg/sg12_175_cif.got.tgz:348540.got - 2010.06.03 13:09:07.
