data_PCOD9190449
_publ_section_title
;
Structure prediction by ZEFSAII (Michael W. Deem and Ramdas Pophale) SiO2 
 PCOD9190449
Probable space group: C 2/M
;
_chemical_formula_sum "Si O2"
_cell_formula_units_Z 64
_cell_length_a 16.603260
_cell_length_b 7.667279
_cell_length_c 19.817256
_cell_angle_alpha 90.000000
_cell_angle_beta 99.571436
_cell_angle_gamma 90.000000
_cell_volume 2487.653506
_symmetry_space_group_name_H-M "C 2/M"
_symmetry_group_IT_number 12
_symmetry_cell_setting 'monoclinic'
loop_
_space_group_symop_operation_xyz
x,y,z
-x,y,-z
-x,-y,-z
x,-y,z
1/2+x,1/2+y,z
1/2-x,1/2+y,-z
1/2-x,1/2-y,-z
1/2+x,1/2-y,z
loop_
_atom_site_type_symbol
_atom_site_label
_atom_site_fract_x
_atom_site_fract_y
_atom_site_fract_z
Si Si1 0.699449 0.209876 0.706050
Si Si2 0.663932 0.197044 0.455267
Si Si3 0.688592 0.713282 0.085561
Si Si4 0.429427 0.290626 0.039815
Si Si5 0.958671 0.200599 0.666407
Si Si6 0.087058 0.201385 0.579042
Si Si7 0.619766 0.288238 0.214583
Si Si8 0.137031 0.291881 0.835469
O O1 0.671449 0.290279 0.632392
O O2 0.790340 0.251891 0.742923
O O3 0.639370 0.270083 0.758729
O O4 0.694933 0.000000 0.698507
O O5 0.750000 0.250000 0.500000
O O6 0.626626 0.300912 0.387272
O O7 0.600747 0.213229 0.509011
O O8 0.669454 0.000000 0.433029
O O9 0.690740 0.500000 0.085765
O O10 0.626719 0.765166 0.137610
O O11 0.778159 0.774802 0.119213
O O12 0.653150 0.772356 0.009224
O O13 0.431197 0.500000 0.037094
O O14 0.431263 0.247988 0.118915
O O15 0.500000 0.226103 0.000000
O O16 0.943605 0.279652 0.738287
O O17 0.022867 0.282484 0.623084
O O18 0.984062 0.000000 0.679387
O O19 0.065450 0.000000 0.563842
O O20 0.611628 0.500000 0.212906
O O21 0.143159 0.500000 0.831857
#
# Coordination Sequence:
#
# PCOD9190449 Si02
#       8
#     8   8   8   8   8   8   8   8
#     4   9  18  34  56  79 103 138 185 228 268 322
#     4  12  25  41  62  84 110 146 187 231 276 323
#     4   8  15  30  51  74 100 133 176 219 262 318
#     4  10  20  31  47  74 105 135 171 219 273 330
#     4  10  21  37  58  85 115 146 181 221 269 328
#     4  11  23  37  56  85 118 148 181 224 272 325
#     4   8  15  31  55  77  99 135 179 220 264 317
#     4   9  18  33  53  74  99 137 182 224 267 318
#
# _framework density 25.727053999999999
#
# number of rings (size 3 to 8) (size 9 to 14) (size 15 to 20)
#    0.000    2.375    0.000    4.500    0.000    5.250 
#    0.000    2.500    0.000    2.250    0.000    0.000 
#    0.000    0.000    0.000    0.000    0.000    0.000 
#
# Total GULP energy -178931.275478 kJ/mol
# GULP energy per Si atom -5591.602359 kJ/mol
# Density = 2.566850 g / cm^3
# Si number density = 25.727054 Si / 1000 Ang^3
#
#
#
# Elastic Constant Matrix: (Units=GPa)
#
#
# Indices 1 2 3 4 5 6 
#
# 1 62.0330 1.2626 15.3079 0.0000 -20.5913 0.0000
# 2 1.2626 60.5031 -3.1749 0.0000 1.7903 0.0000
# 3 15.3079 -3.1749 158.1309 0.0000 -19.8881 0.0000
# 4 0.0000 0.0000 0.0000 20.3257 0.0000 -3.0304
# 5 -20.5913 1.7903 -19.8881 0.0000 51.9371 0.0000
# 6 0.0000 0.0000 0.0000 -3.0304 0.0000 10.3249
#
#
#
# Elastic Compliance Matrix: (Units=1/GPa)
#
#
# Indices 1 2 3 4 5 6 
#
# 1 0.018716 -0.000649 -0.000934 0.000000 0.007085 0.000000
# 2 -0.000649 0.016579 0.000306 0.000000 -0.000712 0.000000
# 3 -0.000934 0.000306 0.006695 0.000000 0.002183 0.000000
# 4 0.000000 0.000000 0.000000 0.051450 0.000000 0.015101
# 5 0.007085 -0.000712 0.002183 0.000000 0.022923 0.000000
# 6 0.000000 0.000000 0.000000 0.015101 0.000000 0.101285
#
#
# Mechanical properties :
#
#
# Convention : Reuss Voigt Hill
#
# Bulk Modulus (GPa) = 25.35748 34.16202 29.75975
# Shear Modulus (GPa) = 21.42732 34.33566 27.88149
#
# Velocity S-wave (km/s) = 2.88908 3.65720 3.29560
# Velocity P-wave (km/s) = 4.58332 5.58041 5.10626
#
# Compressibility (1/GPa) = 0.03943610
#
# Stress axis : x y z
#
# Youngs Moduli (GPa) = 53.43055 60.31817 149.36614
#
# Poissons Ratio (x) = 0.03916 0.13947
# Poissons Ratio (y) = 0.03469 -0.04574
# Poissons Ratio (z) = 0.04989 -0.01847
#
# Static dielectric constant tensor:
#      x y z
#    x 2.140770 0.000000 -0.027720 
#    y 0.000000 1.935400 0.000000 
#    z -0.027720 0.000000 1.985700 
# 
# From -- ./inp_files/314019.got.cif
#   From: 2010.05.17/outbox.cif.g08.bks.cpg/sg12_158_cif.got.tgz:314019.got - 2010.06.03 13:09:07.
