data_PCOD9190008
_publ_section_title
;
Structure prediction by ZEFSAII (Michael W. Deem and Ramdas Pophale) SiO2 
 PCOD9190008
Probable space group: C 2/M
;
_chemical_formula_sum "Si O2"
_cell_formula_units_Z 64
_cell_length_a 19.376111
_cell_length_b 29.134640
_cell_length_c 8.770293
_cell_angle_alpha 90.000000
_cell_angle_beta 30.462248
_cell_angle_gamma 90.000000
_cell_volume 2509.996325
_symmetry_space_group_name_H-M "C 2/M"
_symmetry_group_IT_number 12
_symmetry_cell_setting 'monoclinic'
loop_
_space_group_symop_operation_xyz
x,y,z
-x,y,-z
-x,-y,-z
x,-y,z
1/2+x,1/2+y,z
1/2-x,1/2+y,-z
1/2-x,1/2-y,-z
1/2+x,1/2-y,z
loop_
_atom_site_type_symbol
_atom_site_label
_atom_site_fract_x
_atom_site_fract_y
_atom_site_fract_z
Si Si1 0.908523 0.705378 0.538008
Si Si2 0.121027 0.550153 0.006699
Si Si3 0.707228 0.132656 0.054704
Si Si4 0.705621 0.177105 0.518665
Si Si5 0.328336 0.072027 0.421490
Si Si6 0.543992 0.449252 0.091156
Si Si7 0.054279 0.148934 0.175765
Si Si8 0.286766 0.708181 0.687295
O O1 0.881207 0.652251 0.636663
O O2 0.918528 0.700999 0.336859
O O3 0.783874 0.741923 0.768235
O O4 0.000000 0.723867 0.500000
O O5 0.135350 0.500000 0.048536
O O6 0.168430 0.587089 0.040677
O O7 0.966921 0.557553 0.240351
O O8 0.197697 0.550794 0.696601
O O9 0.856174 0.137124 0.845698
O O10 0.693638 0.173438 0.958345
O O11 0.662612 0.125475 0.636908
O O12 0.745795 0.204776 0.590794
O O13 0.840847 0.166781 0.155620
O O14 0.206527 0.059755 0.768423
O O15 0.516490 0.500000 0.213057
O O16 0.500000 0.451153 0.000000
O O17 0.487950 0.400811 0.261247
O O18 0.939004 0.187306 0.410006
#
# Coordination Sequence:
#
# PCOD9190008 Si02
#       8
#     8   8   8   8   8   8   8   8
#     4  11  24  42  63  92 129 170 213 275 342 402
#     4  11  22  37  64  95 131 173 220 270 335 404
#     4  11  24  41  61  91 131 170 213 272 340 394
#     4  10  21  40  67  94 128 166 220 275 322 396
#     4  10  19  39  62  94 131 169 214 276 331 389
#     4  10  20  35  60  91 124 167 222 270 322 389
#     4  10  22  39  62  89 128 172 209 274 339 390
#     4  12  22  42  65  93 124 174 227 271 329 405
#
# _framework density 25.498045000000001
#
# number of rings (size 3 to 8) (size 9 to 14) (size 15 to 20)
#    0.000    1.375    1.250    6.000    0.000    1.500 
#    0.000    1.250    0.000    9.375    0.000    0.000 
#    0.000    0.000    0.000    0.000    0.000    0.000 
#
# Total GULP energy -178740.104696 kJ/mol
# GULP energy per Si atom -5585.628272 kJ/mol
# Density = 2.544001 g / cm^3
# Si number density = 25.498045 Si / 1000 Ang^3
#
#
#
# Elastic Constant Matrix: (Units=GPa)
#
#
# Indices 1 2 3 4 5 6 
#
# 1 190.6302 51.4174 3.3726 0.0000 7.3038 0.0001
# 2 51.4174 144.6103 -8.7160 0.0000 9.2300 0.0000
# 3 3.3726 -8.7160 60.2090 -0.0001 -1.7667 0.0003
# 4 0.0000 0.0000 -0.0001 15.2303 0.0000 -1.8643
# 5 7.3038 9.2300 -1.7667 0.0000 30.2209 -0.0002
# 6 0.0001 0.0000 0.0003 -1.8643 -0.0002 25.1512
#
#
#
# Elastic Compliance Matrix: (Units=1/GPa)
#
#
# Indices 1 2 3 4 5 6 
#
# 1 0.005846 -0.002065 -0.000650 0.000000 -0.000820 0.000000
# 2 -0.002065 0.007838 0.001197 0.000000 -0.001825 0.000000
# 3 -0.000650 0.001197 0.016841 0.000000 0.000776 0.000000
# 4 0.000000 0.000000 0.000000 0.066260 0.000000 0.004911
# 5 -0.000820 -0.001825 0.000776 0.000000 0.033891 0.000000
# 6 0.000000 0.000000 0.000000 0.004911 0.000000 0.040124
#
#
# Mechanical properties :
#
#
# Convention : Reuss Voigt Hill
#
# Bulk Modulus (GPa) = 36.38081 54.17749 45.27915
# Shear Modulus (GPa) = 27.32248 37.41219 32.36734
#
# Velocity S-wave (km/s) = 3.27701 3.83464 3.56674
# Velocity P-wave (km/s) = 5.34953 6.39529 5.89564
#
# Compressibility (1/GPa) = 0.02748702
#
# Stress axis : x y z
#
# Youngs Moduli (GPa) = 171.06400 127.58187 59.37789
#
# Poissons Ratio (x) = 0.26350 0.03863
# Poissons Ratio (y) = 0.35331 -0.07106
# Poissons Ratio (z) = 0.11128 -0.15269
#
# Static dielectric constant tensor:
#      x y z
#    x 1.993910 0.000000 -0.038370 
#    y 0.000000 2.039030 0.000000 
#    z -0.038370 0.000000 2.192760 
# 
# From -- ./inp_files/80728.got.cif
#   From: 2010.05.17/outbox.cif.g08.bks.cpg/sg12_41_cif.got.tgz:80728.got - 2010.06.03 13:09:07.
