data_PCOD9190501
_publ_section_title
;
Structure prediction by ZEFSAII (Michael W. Deem and Ramdas Pophale) SiO2 
 PCOD9190501
Probable space group: C 2/M
;
_chemical_formula_sum "Si O2"
_cell_formula_units_Z 48
_cell_length_a 10.361385
_cell_length_b 15.095916
_cell_length_c 32.522809
_cell_angle_alpha 90.000000
_cell_angle_beta 152.232482
_cell_angle_gamma 90.000000
_cell_volume 2369.977011
_symmetry_space_group_name_H-M "C 2/M"
_symmetry_group_IT_number 12
_symmetry_cell_setting 'monoclinic'
loop_
_space_group_symop_operation_xyz
x,y,z
-x,y,-z
-x,-y,-z
x,-y,z
1/2+x,1/2+y,z
1/2-x,1/2+y,-z
1/2-x,1/2-y,-z
1/2+x,1/2-y,z
loop_
_atom_site_type_symbol
_atom_site_label
_atom_site_fract_x
_atom_site_fract_y
_atom_site_fract_z
Si Si1 0.213743 0.147349 0.439098
Si Si2 0.176077 0.821483 0.740292
Si Si3 0.756562 0.636356 0.544295
Si Si4 0.643561 0.342379 0.264845
Si Si5 0.567124 0.895631 0.063538
Si Si6 0.708998 0.893291 0.934369
O O1 0.500000 0.118001 0.500000
O O2 0.226158 0.255491 0.446788
O O3 0.187495 0.113734 0.477838
O O4 0.980741 0.126044 0.340045
O O5 0.268999 0.732137 0.743526
O O6 0.451731 0.868551 0.833372
O O7 0.973693 0.809926 0.723203
O O8 0.500000 0.607577 0.500000
O O9 0.067713 0.607158 0.644326
O O10 0.379984 0.387879 0.168878
O O11 0.367054 0.857701 0.042093
O O12 0.505763 0.000000 0.043821
O O13 0.500000 0.857169 0.000000
O O14 0.723441 0.000000 0.940327
O O15 0.000000 0.859820 0.000000
#
# Coordination Sequence:
#
# PCOD9190501 Si02
#       6
#     8   8   8   8   8   8
#     4   9  15  27  44  67  99 131 163 196 233 293
#     4  10  20  31  50  77 103 131 162 204 249 287
#     4   9  17  27  44  69 100 132 164 197 239 286
#     4  10  20  32  49  77 104 129 163 205 249 288
#     4   9  19  37  57  73  94 130 170 203 243 299
#     4   9  19  37  56  73  97 129 166 205 247 296
#
# _framework density 20.253360000000001
#
# number of rings (size 3 to 8) (size 9 to 14) (size 15 to 20)
#    0.000    2.667    1.667    0.000    7.000    2.000 
#    0.000    3.333    0.000    2.000    0.000    0.000 
#    0.000    0.000    0.000    0.000    0.000    0.000 
#
# Total GULP energy -133728.039645 kJ/mol
# GULP energy per Si atom -5572.001652 kJ/mol
# Density = 2.020726 g / cm^3
# Si number density = 20.253360 Si / 1000 Ang^3
#
#
#
# Elastic Constant Matrix: (Units=GPa)
#
#
# Indices 1 2 3 4 5 6 
#
# 1 195.3544 17.9586 122.0324 0.0001 -7.4311 -0.0002
# 2 17.9586 32.3876 9.0855 0.0000 0.6592 -0.0001
# 3 122.0324 9.0855 156.8510 -0.0005 -4.8818 -0.0014
# 4 0.0001 0.0000 -0.0005 38.0146 0.0002 0.7493
# 5 -7.4311 0.6592 -4.8818 0.0002 43.6380 -0.0003
# 6 -0.0002 -0.0001 -0.0014 0.7493 -0.0003 -10.0748
#
#
#
# Elastic Compliance Matrix: (Units=1/GPa)
#
#
# Indices 1 2 3 4 5 6 
#
# 1 0.010381 -0.003576 -0.007840 0.000000 0.000945 0.000001
# 2 -0.003576 0.032638 0.000860 0.000000 -0.001006 0.000000
# 3 -0.007840 0.000860 0.012427 0.000000 0.000042 -0.000002
# 4 0.000000 0.000000 0.000000 0.026267 0.000000 0.001954
# 5 0.000945 -0.001006 0.000042 0.000000 0.023097 -0.000001
# 6 0.000001 0.000000 -0.000002 0.001954 -0.000001 -0.099112
#
#
# Mechanical properties :
#
#
# Convention : Reuss Voigt Hill
#
# Bulk Modulus (GPa) = 29.12544 75.86069 52.49306
# Shear Modulus (GPa) = 130.70735 30.01665 80.36200
#
# Velocity S-wave (km/s) = 8.04215 3.85393 6.30591
# Velocity P-wave (km/s) = 10.03228 7.57237 8.88784
#
# Compressibility (1/GPa) = 0.03433425
#
# Stress axis : x y z
#
# Youngs Moduli (GPa) = 96.32943 30.63907 80.47236
#
# Poissons Ratio (x) = 0.10957 0.63091
# Poissons Ratio (y) = 0.34448 -0.06924
# Poissons Ratio (z) = 0.75523 -0.02636
#
# Static dielectric constant tensor:
#      x y z
#    x 1.739070 0.000000 -0.018780 
#    y 0.000000 1.745830 0.000000 
#    z -0.018780 0.000000 1.730250 
# 
# From -- ./inp_files/247333.got.cif
#   From: 2010.05.17/outbox.cif.g08.bks.cpg/sg12_124_cif.got.tgz:247333.got - 2010.06.03 13:09:07.
