data_PCOD9190642
_publ_section_title
;
Structure prediction by ZEFSAII (Michael W. Deem and Ramdas Pophale) SiO2 
 PCOD9190642
Probable space group: C 2/M
;
_chemical_formula_sum "Si O2"
_cell_formula_units_Z 60
_cell_length_a 20.929069
_cell_length_b 9.695310
_cell_length_c 17.273263
_cell_angle_alpha 90.000000
_cell_angle_beta 120.301134
_cell_angle_gamma 90.000000
_cell_volume 3026.152280
_symmetry_space_group_name_H-M "C 2/M"
_symmetry_group_IT_number 12
_symmetry_cell_setting 'monoclinic'
loop_
_space_group_symop_operation_xyz
x,y,z
-x,y,-z
-x,-y,-z
x,-y,z
1/2+x,1/2+y,z
1/2-x,1/2+y,-z
1/2-x,1/2-y,-z
1/2+x,1/2-y,z
loop_
_atom_site_type_symbol
_atom_site_label
_atom_site_fract_x
_atom_site_fract_y
_atom_site_fract_z
Si Si1 0.614450 0.661642 0.692296
Si Si2 0.900676 0.338307 0.718294
Si Si3 0.174986 0.339297 0.039697
Si Si4 0.274210 0.338222 0.367611
Si Si5 0.500000 0.764000 0.500000
Si Si6 0.351188 0.338337 0.123089
Si Si7 0.126828 0.343078 0.466442
Si Si8 0.436645 0.167680 0.902213
O O1 0.627174 0.500000 0.713295
O O2 0.685374 0.711885 0.686252
O O3 0.545640 0.680837 0.592778
O O4 0.607397 0.718633 0.774961
O O5 0.921931 0.500000 0.725365
O O6 0.813753 0.330180 0.687200
O O7 0.904533 0.283518 0.633466
O O8 0.941973 0.277335 0.818065
O O9 0.156044 0.500000 0.014732
O O10 0.140804 0.249474 0.949679
O O11 0.263615 0.328410 0.091327
O O12 0.140005 0.300067 0.100735
O O13 0.294128 0.500000 0.389612
O O14 0.309158 0.250649 0.458489
O O15 0.561406 0.845248 0.489278
O O16 0.368291 0.500000 0.119078
O O17 0.153378 0.500000 0.468662
O O18 0.440284 0.000000 0.898604
O O19 0.500000 0.212616 0.000000
#
# Coordination Sequence:
#
# PCOD9190642 Si02
#       8
#     8   8   8   8   4   8   8   8
#     4   9  17  30  49  71  94 125 163 200 235 276
#     4   9  17  30  49  71  94 124 161 200 239 279
#     4   9  17  30  49  73  98 122 155 200 242 281
#     4   9  17  31  52  74  95 121 159 203 240 275
#     4  10  20  32  46  68 101 132 159 190 231 282
#     4   9  17  30  49  72  97 125 157 195 241 285
#     4  10  20  33  49  71 101 130 156 190 237 288
#     4   9  17  29  47  71  97 125 160 200 238 278
#
# _framework density 19.827158000000001
#
# number of rings (size 3 to 8) (size 9 to 14) (size 15 to 20)
#    0.000    2.800    0.000    1.600    0.000    4.800 
#    0.000    4.667    0.000    5.200    0.000    0.000 
#    0.000    0.000    0.000    0.000    0.000    0.000 
#
# Total GULP energy -167116.980914 kJ/mol
# GULP energy per Si atom -5570.566030 kJ/mol
# Density = 1.978203 g / cm^3
# Si number density = 19.827158 Si / 1000 Ang^3
#
#
#
# Elastic Constant Matrix: (Units=GPa)
#
#
# Indices 1 2 3 4 5 6 
#
# 1 15.1652 -0.4385 -2.0793 0.0000 -4.6981 0.0000
# 2 -0.4385 23.2393 25.7883 0.0000 -7.0406 0.0000
# 3 -2.0793 25.7883 152.7017 0.0000 -24.4658 0.0000
# 4 0.0000 0.0000 0.0000 22.1570 0.0000 -2.7512
# 5 -4.6981 -7.0406 -24.4658 0.0000 24.0290 0.0000
# 6 0.0000 0.0000 0.0000 -2.7512 0.0000 9.6033
#
#
#
# Elastic Compliance Matrix: (Units=1/GPa)
#
#
# Indices 1 2 3 4 5 6 
#
# 1 0.072243 0.003189 0.003415 0.000000 0.018536 0.000000
# 2 0.003189 0.054302 -0.007741 0.000000 0.008653 0.000000
# 3 0.003415 -0.007741 0.009137 0.000000 0.007702 0.000000
# 4 0.000000 0.000000 0.000000 0.046797 0.000000 0.013407
# 5 0.018536 0.008653 0.007702 0.000000 0.055618 0.000000
# 6 0.000000 0.000000 0.000000 0.013407 0.000000 0.107972
#
#
# Mechanical properties :
#
#
# Convention : Reuss Voigt Hill
#
# Bulk Modulus (GPa) = 7.49577 26.40526 16.95051
# Shear Modulus (GPa) = 12.72877 22.34692 17.53784
#
# Velocity S-wave (km/s) = 2.53649 3.36085 2.97734
# Velocity P-wave (km/s) = 3.51670 5.32983 4.51521
#
# Compressibility (1/GPa) = 0.13340865
#
# Stress axis : x y z
#
# Youngs Moduli (GPa) = 13.84214 18.41555 109.45074
#
# Poissons Ratio (x) = -0.05873 -0.37377
# Poissons Ratio (y) = -0.04415 0.84723
# Poissons Ratio (z) = -0.04727 0.14255
#
# Static dielectric constant tensor:
#      x y z
#    x 1.730380 0.000000 -0.004390 
#    y 0.000000 1.671350 0.000000 
#    z -0.004390 0.000000 1.740060 
# 
# From -- ./inp_files/232559.got.cif
#   From: 2010.05.17/outbox.cif.g08.bks.cpg/sg12_117_cif.got.tgz:232559.got - 2010.06.03 13:09:07.
