data_PCOD9190831
_publ_section_title
;
Structure prediction by ZEFSAII (Michael W. Deem and Ramdas Pophale) SiO2 
 PCOD9190831
Probable space group: C 2/M
;
_chemical_formula_sum "Si O2"
_cell_formula_units_Z 64
_cell_length_a 20.975604
_cell_length_b 7.503559
_cell_length_c 24.079168
_cell_angle_alpha 90.000000
_cell_angle_beta 43.375350
_cell_angle_gamma 90.000000
_cell_volume 2602.781082
_symmetry_space_group_name_H-M "C 2/M"
_symmetry_group_IT_number 12
_symmetry_cell_setting 'monoclinic'
loop_
_space_group_symop_operation_xyz
x,y,z
-x,y,-z
-x,-y,-z
x,-y,z
1/2+x,1/2+y,z
1/2-x,1/2+y,-z
1/2-x,1/2-y,-z
1/2+x,1/2-y,z
loop_
_atom_site_type_symbol
_atom_site_label
_atom_site_fract_x
_atom_site_fract_y
_atom_site_fract_z
Si Si1 0.064787 0.285956 0.738276
Si Si2 0.126704 0.205406 0.081675
Si Si3 0.550745 0.789441 0.520894
Si Si4 0.987890 0.786587 0.945266
Si Si5 0.026087 0.714335 0.314890
Si Si6 0.803988 0.286525 0.188957
Si Si7 0.781567 0.206279 0.866062
Si Si8 0.237091 0.215220 0.344594
O O1 0.059113 0.500000 0.750791
O O2 0.974335 0.207898 0.824930
O O3 0.052199 0.250342 0.681322
O O4 0.163445 0.223028 0.696590
O O5 0.095918 0.282860 0.040898
O O6 0.195251 0.281813 0.086608
O O7 0.152440 0.000000 0.057716
O O8 0.500000 0.708961 0.500000
O O9 0.509547 0.716361 0.603854
O O10 0.657990 0.771989 0.437085
O O11 0.530132 0.000000 0.536286
O O12 0.091470 0.750728 0.856737
O O13 0.975853 0.000000 0.955537
O O14 0.000000 0.713946 0.000000
O O15 0.039419 0.500000 0.308376
O O16 0.121531 0.788330 0.229658
O O17 0.794323 0.500000 0.190662
O O18 0.786852 0.212687 0.137512
O O19 0.733311 0.224651 0.282149
O O20 0.758307 0.000000 0.889922
O O21 0.236357 0.000000 0.343903
#
# Coordination Sequence:
#
# PCOD9190831 Si02
#       8
#     8   8   8   8   8   8   8   8
#     4   9  17  31  50  72  98 127 164 210 253 296
#     4   9  17  32  53  76 102 133 168 204 247 297
#     4  10  21  34  46  65  96 132 169 209 253 300
#     4  10  21  36  55  79 106 135 166 203 248 300
#     4   9  18  32  49  70  99 134 170 209 254 298
#     4  10  20  35  54  78 105 132 168 211 253 300
#     4   9  18  32  53  78 102 132 171 213 252 294
#     4  10  20  32  49  72  97 127 165 209 254 298
#
# _framework density 24.589082999999999
#
# number of rings (size 3 to 8) (size 9 to 14) (size 15 to 20)
#    0.000    2.500    1.250    0.750    0.000    3.000 
#    0.000    0.625    0.000    0.000    0.000    0.000 
#    0.000    0.000    0.000    0.000    0.000    0.000 
#
# Total GULP energy -178713.763529 kJ/mol
# GULP energy per Si atom -5584.805110 kJ/mol
# Density = 2.453312 g / cm^3
# Si number density = 24.589083 Si / 1000 Ang^3
#
#
#
# Elastic Constant Matrix: (Units=GPa)
#
#
# Indices 1 2 3 4 5 6 
#
# 1 167.9522 27.6415 39.4819 0.0022 16.9657 0.0009
# 2 27.6415 70.3262 24.7593 0.0137 13.1758 0.0058
# 3 39.4819 24.7593 126.0309 0.0005 25.5573 0.0010
# 4 0.0022 0.0137 0.0005 4.7029 0.0008 -12.5270
# 5 16.9657 13.1758 25.5573 0.0008 43.3615 -0.0006
# 6 0.0009 0.0058 0.0010 -12.5270 -0.0006 -7.3574
#
#
#
# Elastic Compliance Matrix: (Units=1/GPa)
#
#
# Indices 1 2 3 4 5 6 
#
# 1 0.006738 -0.001900 -0.001499 0.000000 -0.001175 -0.000001
# 2 -0.001900 0.016230 -0.001980 -0.000002 -0.003021 0.000016
# 3 -0.001499 -0.001980 0.009713 0.000001 -0.004537 -0.000002
# 4 0.000000 -0.000002 0.000001 0.038414 -0.000002 -0.065406
# 5 -0.001175 -0.003021 -0.004537 -0.000002 0.027114 -0.000003
# 6 -0.000001 0.000016 -0.000002 -0.065406 -0.000003 -0.024555
#
#
# Mechanical properties :
#
#
# Convention : Reuss Voigt Hill
#
# Bulk Modulus (GPa) = 45.61878 60.89719 53.25798
# Shear Modulus (GPa) = 54.51315 26.30317 40.40816
#
# Velocity S-wave (km/s) = 4.71357 3.27419 4.05821
# Velocity P-wave (km/s) = 6.94381 6.25408 6.60795
#
# Compressibility (1/GPa) = 0.02192080
#
# Stress axis : x y z
#
# Youngs Moduli (GPa) = 148.41259 61.61590 102.95223
#
# Poissons Ratio (x) = 0.11709 0.15434
# Poissons Ratio (y) = 0.28204 0.20390
# Poissons Ratio (z) = 0.22249 0.12203
#
# Static dielectric constant tensor:
#      x y z
#    x 2.008160 0.000000 0.041560 
#    y 0.000000 1.905180 0.000000 
#    z 0.041560 0.000000 2.001360 
# 
# From -- ./inp_files/346012.got.cif
#   From: 2010.05.17/outbox.cif.g08.bks.cpg/sg12_174_cif.got.tgz:346012.got - 2010.06.03 13:09:07.
