data_PCOD9190919
_publ_section_title
;
Structure prediction by ZEFSAII (Michael W. Deem and Ramdas Pophale) SiO2 
 PCOD9190919
Probable space group: C 2/M
;
_chemical_formula_sum "Si O2"
_cell_formula_units_Z 64
_cell_length_a 25.893059
_cell_length_b 8.050162
_cell_length_c 24.089292
_cell_angle_alpha 90.000000
_cell_angle_beta 135.860204
_cell_angle_gamma 90.000000
_cell_volume 3496.857223
_symmetry_space_group_name_H-M "C 2/M"
_symmetry_group_IT_number 12
_symmetry_cell_setting 'monoclinic'
loop_
_space_group_symop_operation_xyz
x,y,z
-x,y,-z
-x,-y,-z
x,-y,z
1/2+x,1/2+y,z
1/2-x,1/2+y,-z
1/2-x,1/2-y,-z
1/2+x,1/2-y,z
loop_
_atom_site_type_symbol
_atom_site_label
_atom_site_fract_x
_atom_site_fract_y
_atom_site_fract_z
Si Si1 0.473315 0.197202 0.218407
Si Si2 0.946106 0.799045 0.826663
Si Si3 0.169043 0.200770 0.175492
Si Si4 0.837819 0.200819 0.311799
Si Si5 0.329907 0.199264 0.039863
Si Si6 0.589505 0.696550 0.004508
Si Si7 0.477206 0.699589 0.347550
Si Si8 0.573928 0.690972 0.518523
O O1 0.535814 0.241602 0.221391
O O2 0.395497 0.258554 0.131705
O O3 0.484749 0.263011 0.288885
O O4 0.468422 0.000000 0.218415
O O5 0.870062 0.746254 0.797323
O O6 0.948617 0.000000 0.828050
O O7 0.013784 0.737809 0.918516
O O8 0.253835 0.252714 0.234807
O O9 0.118722 0.263449 0.085396
O O10 0.167228 0.000000 0.172484
O O11 0.898614 0.257961 0.313175
O O12 0.864535 0.265476 0.393035
O O13 0.842568 0.000000 0.317171
O O14 0.334282 0.000000 0.038983
O O15 0.250000 0.250000 0.000000
O O16 0.348098 0.274634 0.993897
O O17 0.577259 0.500000 0.002948
O O18 0.477982 0.500000 0.354981
O O19 0.544125 0.766312 0.438089
O O20 0.500000 0.685404 0.500000
O O21 0.596600 0.500000 0.524671
#
# Coordination Sequence:
#
# PCOD9190919 Si02
#       8
#     8   8   8   8   8   8   8   8
#     4  10  21  34  49  72  99 126 160 207 251 284
#     4   9  18  35  54  69  91 130 174 205 238 290
#     4  10  20  32  50  75 101 127 160 207 251 288
#     4   9  18  31  49  76 104 130 159 195 242 293
#     4  10  21  34  47  66  97 133 164 198 242 287
#     4   9  18  33  51  70  93 126 167 206 243 284
#     4   9  17  31  53  76  98 130 166 196 232 293
#     4   7  12  27  49  71  97 127 161 196 231 281
#
# _framework density 18.302147999999999
#
# number of rings (size 3 to 8) (size 9 to 14) (size 15 to 20)
#    0.000    2.875    0.000    2.625    1.750    4.500 
#    0.000    0.625    0.000    6.750    0.000    0.000 
#    0.000    0.000    0.000    0.000    0.000    0.000 
#
# Total GULP energy -178286.661846 kJ/mol
# GULP energy per Si atom -5571.458183 kJ/mol
# Density = 1.826049 g / cm^3
# Si number density = 18.302148 Si / 1000 Ang^3
#
#
#
# Elastic Constant Matrix: (Units=GPa)
#
#
# Indices 1 2 3 4 5 6 
#
# 1 81.4147 0.5885 49.9921 0.0000 -20.0648 0.0000
# 2 0.5885 12.0191 7.3657 0.0000 -2.2138 -0.0002
# 3 49.9921 7.3657 90.9241 0.0000 -31.2918 0.0000
# 4 0.0000 0.0000 0.0000 7.5355 0.0000 0.4476
# 5 -20.0648 -2.2138 -31.2918 0.0000 25.3720 0.0000
# 6 0.0000 -0.0002 0.0000 0.4476 0.0000 13.8779
#
#
#
# Elastic Compliance Matrix: (Units=1/GPa)
#
#
# Indices 1 2 3 4 5 6 
#
# 1 0.019100 0.005686 -0.009718 0.000000 0.003616 0.000000
# 2 0.005686 0.089294 -0.010653 0.000000 -0.000850 0.000001
# 3 -0.009718 -0.010653 0.024741 0.000000 0.021899 0.000000
# 4 0.000000 0.000000 0.000000 0.132959 0.000000 -0.004288
# 5 0.003616 -0.000850 0.021899 0.000000 0.069207 0.000000
# 6 0.000000 0.000001 0.000000 -0.004288 0.000000 0.072195
#
#
# Mechanical properties :
#
#
# Convention : Reuss Voigt Hill
#
# Bulk Modulus (GPa) = 9.63704 33.36117 21.49910
# Shear Modulus (GPa) = 10.60549 17.78452 14.19501
#
# Velocity S-wave (km/s) = 2.40982 3.12062 2.78797
# Velocity P-wave (km/s) = 3.60832 5.59034 4.70489
#
# Compressibility (1/GPa) = 0.10376634
#
# Stress axis : x y z
#
# Youngs Moduli (GPa) = 52.35610 11.19893 40.41913
#
# Poissons Ratio (x) = -0.06368 0.39279
# Poissons Ratio (y) = -0.29771 0.43057
# Poissons Ratio (z) = 0.50879 0.11930
#
# Static dielectric constant tensor:
#      x y z
#    x 1.638510 0.000000 -0.030190 
#    y 0.000000 1.663230 0.000000 
#    z -0.030190 0.000000 1.678490 
# 
# From -- ./inp_files/324321.got.cif
#   From: 2010.05.17/outbox.cif.g08.bks.cpg/sg12_163_cif.got.tgz:324321.got - 2010.06.03 13:09:07.
