data_PCOD9190907
_publ_section_title
;
Structure prediction by ZEFSAII (Michael W. Deem and Ramdas Pophale) SiO2 
 PCOD9190907
Probable space group: C 2/M
;
_chemical_formula_sum "Si O2"
_cell_formula_units_Z 64
_cell_length_a 10.363045
_cell_length_b 14.817295
_cell_length_c 22.938838
_cell_angle_alpha 90.000000
_cell_angle_beta 118.671449
_cell_angle_gamma 90.000000
_cell_volume 3090.424275
_symmetry_space_group_name_H-M "C 2/M"
_symmetry_group_IT_number 12
_symmetry_cell_setting 'monoclinic'
loop_
_space_group_symop_operation_xyz
x,y,z
-x,y,-z
-x,-y,-z
x,-y,z
1/2+x,1/2+y,z
1/2-x,1/2+y,-z
1/2-x,1/2-y,-z
1/2+x,1/2-y,z
loop_
_atom_site_type_symbol
_atom_site_label
_atom_site_fract_x
_atom_site_fract_y
_atom_site_fract_z
Si Si1 0.068585 0.889824 0.454987
Si Si2 0.610854 0.344697 0.824393
Si Si3 0.151255 0.608957 0.671219
Si Si4 0.702484 0.677736 0.181814
Si Si5 0.168479 0.634990 0.032017
Si Si6 0.405644 0.890288 0.535564
Si Si7 0.334372 0.644954 0.953304
Si Si8 0.559591 0.394567 0.327210
O O1 0.238640 0.862285 0.493306
O O2 0.004835 0.860207 0.378166
O O3 0.000000 0.855517 0.500000
O O4 0.058077 0.000000 0.455242
O O5 0.465705 0.312955 0.830306
O O6 0.716969 0.269072 0.819881
O O7 0.716577 0.395482 0.893222
O O8 0.543212 0.389239 0.751798
O O9 0.153135 0.500000 0.669483
O O10 0.198657 0.636509 0.745851
O O11 0.282376 0.644382 0.657764
O O12 0.994316 0.638588 0.612350
O O13 0.702287 0.622712 0.121306
O O14 0.167918 0.745043 0.039479
O O15 0.228951 0.611604 0.981359
O O16 0.000000 0.605772 0.000000
O O17 0.500000 0.863837 0.500000
O O18 0.402200 0.000000 0.535281
O O19 0.500000 0.615016 0.000000
O O20 0.587649 0.500000 0.343527
#
# Coordination Sequence:
#
# PCOD9190907 Si02
#       8
#     8   8   8   8   8   8   8   8
#     4   9  16  27  45  72  98 121 156 202 244 277
#     4  10  20  33  50  74  99 128 162 197 243 291
#     4   9  17  31  52  75  97 126 164 202 240 285
#     4  10  20  32  50  73 100 130 159 199 244 290
#     4   9  17  27  46  71  94 121 161 203 240 275
#     4   9  14  25  47  71  91 116 159 204 236 270
#     4   9  15  27  44  68  94 118 157 202 237 275
#     4   9  17  32  53  73  97 129 163 198 238 290
#
# _framework density 20.709130999999999
#
# number of rings (size 3 to 8) (size 9 to 14) (size 15 to 20)
#    0.000    2.750    2.500    0.000    5.250    0.000 
#    2.250    0.000    0.000    3.000    0.000    0.000 
#    0.000    0.000    0.000    0.000    0.000    0.000 
#
# Total GULP energy -178256.859671 kJ/mol
# GULP energy per Si atom -5570.526865 kJ/mol
# Density = 2.066200 g / cm^3
# Si number density = 20.709131 Si / 1000 Ang^3
#
#
#
# Elastic Constant Matrix: (Units=GPa)
#
#
# Indices 1 2 3 4 5 6 
#
# 1 139.5148 5.8513 76.9418 0.0000 -23.4388 0.0000
# 2 5.8513 40.5810 -0.4244 0.0000 -4.3996 0.0000
# 3 76.9418 -0.4244 175.5516 0.0000 -26.7176 0.0000
# 4 0.0000 0.0000 0.0000 13.7955 0.0000 -1.1706
# 5 -23.4388 -4.3996 -26.7176 0.0000 37.8038 0.0000
# 6 0.0000 0.0000 0.0000 -1.1706 0.0000 -0.4786
#
#
#
# Elastic Compliance Matrix: (Units=1/GPa)
#
#
# Indices 1 2 3 4 5 6 
#
# 1 0.009880 -0.001108 -0.003833 0.000000 0.003288 0.000000
# 2 -0.001108 0.025131 0.000994 0.000000 0.002940 0.000000
# 3 -0.003833 0.000994 0.007882 0.000000 0.003310 0.000000
# 4 0.000000 0.000000 0.000000 0.060030 0.000000 -0.146816
# 5 0.003288 0.002940 0.003310 0.000000 0.031173 0.000000
# 6 0.000000 0.000000 0.000000 -0.146816 0.000000 -1.730297
#
#
# Mechanical properties :
#
#
# Convention : Reuss Voigt Hill
#
# Bulk Modulus (GPa) = 28.57159 57.82053 43.19606
# Shear Modulus (GPa) = -3.17130 28.44271 12.63571
#
# Velocity S-wave (km/s) = -1.23882 3.71001 2.47280
# Velocity P-wave (km/s) = 3.43225 6.80685 5.39043
#
# Compressibility (1/GPa) = 0.03499980
#
# Stress axis : x y z
#
# Youngs Moduli (GPa) = 101.21167 39.79146 126.86651
#
# Poissons Ratio (x) = 0.04410 0.48623
# Poissons Ratio (y) = 0.11216 -0.12610
# Poissons Ratio (z) = 0.38791 -0.03955
#
# Static dielectric constant tensor:
#      x y z
#    x 1.722480 0.000000 -0.015860 
#    y 0.000000 1.794210 0.000000 
#    z -0.015860 0.000000 1.778730 
# 
# From -- ./inp_files/302131.got.cif
#   From: 2010.05.17/outbox.cif.g08.bks.cpg/sg12_152_cif.got.tgz:302131.got - 2010.06.03 13:09:07.
