data_PCOD9190577
_publ_section_title
;
Structure prediction by ZEFSAII (Michael W. Deem and Ramdas Pophale) SiO2 
 PCOD9190577
Probable space group: C 2/M
;
_chemical_formula_sum "Si O2"
_cell_formula_units_Z 40
_cell_length_a 28.294003
_cell_length_b 7.460733
_cell_length_c 11.554596
_cell_angle_alpha 90.000000
_cell_angle_beta 124.882091
_cell_angle_gamma 90.000000
_cell_volume 2000.873390
_symmetry_space_group_name_H-M "C 2/M"
_symmetry_group_IT_number 12
_symmetry_cell_setting 'monoclinic'
loop_
_space_group_symop_operation_xyz
x,y,z
-x,y,-z
-x,-y,-z
x,-y,z
1/2+x,1/2+y,z
1/2-x,1/2+y,-z
1/2-x,1/2-y,-z
1/2+x,1/2-y,z
loop_
_atom_site_type_symbol
_atom_site_label
_atom_site_fract_x
_atom_site_fract_y
_atom_site_fract_z
Si Si1 0.029243 0.716372 0.217611
Si Si2 0.088321 0.719001 0.064967
Si Si3 0.675894 0.716636 0.788086
Si Si4 0.698693 0.787514 0.087715
Si Si5 0.056769 0.209588 0.518481
O O1 0.029300 0.500000 0.218986
O O2 0.070152 0.773720 0.168742
O O3 0.049111 0.778126 0.370482
O O4 0.964277 0.773184 0.093068
O O5 0.088883 0.500000 0.064814
O O6 0.149627 0.783918 0.104402
O O7 0.677304 0.500000 0.781470
O O8 0.736015 0.783988 0.817247
O O9 0.617633 0.784660 0.647420
O O10 0.677572 0.762111 0.926229
O O11 0.702241 0.000000 0.114517
O O12 0.000000 0.288526 0.500000
O O13 0.058370 0.000000 0.553938
#
# Coordination Sequence:
#
# PCOD9190577 Si02
#       5
#     8   8   8   8   8
#     4   9  17  30  48  68  88 111 145 182 214 256
#     4   8  15  29  48  68  88 111 141 182 224 253
#     4   9  18  30  44  65  91 116 144 179 216 255
#     4   9  16  29  49  67  85 113 147 180 216 257
#     4  10  20  32  44  62  92 122 143 172 218 262
#
# _framework density 19.991271000000001
#
# number of rings (size 3 to 8) (size 9 to 14) (size 15 to 20)
#    0.000    3.000    0.000    2.400    0.000    1.200 
#    0.000    4.000    0.000    0.000    0.000    0.000 
#    0.000    0.000    0.000    0.000    0.000    0.000 
#
# Total GULP energy -111558.999628 kJ/mol
# GULP energy per Si atom -5577.949981 kJ/mol
# Density = 1.994577 g / cm^3
# Si number density = 19.991271 Si / 1000 Ang^3
#
#
#
# Elastic Constant Matrix: (Units=GPa)
#
#
# Indices 1 2 3 4 5 6 
#
# 1 181.0821 0.7991 75.3414 0.0000 32.4448 0.0000
# 2 0.7991 57.3123 -10.9275 0.0000 8.5997 0.0000
# 3 75.3414 -10.9275 117.5435 0.0000 23.5640 0.0000
# 4 0.0000 0.0000 0.0000 29.8942 0.0000 -4.1798
# 5 32.4448 8.5997 23.5640 0.0000 20.7535 0.0000
# 6 0.0000 0.0000 0.0000 -4.1798 0.0000 5.8446
#
#
#
# Elastic Compliance Matrix: (Units=1/GPa)
#
#
# Indices 1 2 3 4 5 6 
#
# 1 0.008793 0.000694 -0.003571 0.000000 -0.009980 0.000000
# 2 0.000694 0.020449 0.004366 0.000000 -0.014516 0.000000
# 3 -0.003571 0.004366 0.013524 0.000000 -0.011582 0.000000
# 4 0.000000 0.000000 0.000000 0.037168 0.000000 0.026581
# 5 -0.009980 -0.014516 -0.011582 0.000000 0.082952 0.000000
# 6 0.000000 0.000000 0.000000 0.026581 0.000000 0.190108
#
#
# Mechanical properties :
#
#
# Convention : Reuss Voigt Hill
#
# Bulk Modulus (GPa) = 21.86024 54.04045 37.95034
# Shear Modulus (GPa) = 13.68872 30.68011 22.18441
#
# Velocity S-wave (km/s) = 2.61958 3.92174 3.33484
# Velocity P-wave (km/s) = 4.48422 6.89909 5.81832
#
# Compressibility (1/GPa) = 0.04574514
#
# Stress axis : x y z
#
# Youngs Moduli (GPa) = 113.72559 48.90161 73.94172
#
# Poissons Ratio (x) = -0.03394 0.26404
# Poissons Ratio (y) = -0.07892 -0.32285
# Poissons Ratio (z) = 0.40611 -0.21352
#
# Static dielectric constant tensor:
#      x y z
#    x 1.721080 0.000000 0.038510 
#    y 0.000000 1.740580 0.000000 
#    z 0.038510 0.000000 1.660140 
# 
# From -- ./inp_files/71324.got.cif
#   From: 2010.05.17/outbox.cif.g08.bks.cpg/sg12_36_cif.got.tgz:71324.got - 2010.06.03 13:09:07.
