data_PCOD9190883
_publ_section_title
;
Structure prediction by ZEFSAII (Michael W. Deem and Ramdas Pophale) SiO2 
 PCOD9190883
Probable space group: C 2/M
;
_chemical_formula_sum "Si O2"
_cell_formula_units_Z 64
_cell_length_a 13.591407
_cell_length_b 29.254145
_cell_length_c 15.655117
_cell_angle_alpha 90.000000
_cell_angle_beta 36.021415
_cell_angle_gamma 90.000000
_cell_volume 3660.582178
_symmetry_space_group_name_H-M "C 2/M"
_symmetry_group_IT_number 12
_symmetry_cell_setting 'monoclinic'
loop_
_space_group_symop_operation_xyz
x,y,z
-x,y,-z
-x,-y,-z
x,-y,z
1/2+x,1/2+y,z
1/2-x,1/2+y,-z
1/2-x,1/2-y,-z
1/2+x,1/2-y,z
loop_
_atom_site_type_symbol
_atom_site_label
_atom_site_fract_x
_atom_site_fract_y
_atom_site_fract_z
Si Si1 0.568098 0.947933 0.762804
Si Si2 0.238953 0.226374 0.674895
Si Si3 0.011111 0.253537 0.348017
Si Si4 0.761193 0.450512 0.175593
Si Si5 0.307011 0.121100 0.997553
Si Si6 0.074347 0.908131 0.536780
Si Si7 0.082774 0.281365 0.119660
Si Si8 0.467732 0.659612 0.277883
O O1 0.617401 0.949506 0.828721
O O2 0.741831 0.928979 0.602746
O O3 0.534096 0.000000 0.758744
O O4 0.412595 0.913116 0.863045
O O5 0.353175 0.231823 0.677168
O O6 0.340976 0.247114 0.522558
O O7 0.178700 0.177352 0.681425
O O8 0.069170 0.253304 0.813168
O O9 0.028831 0.288199 0.256538
O O10 0.031294 0.204839 0.285484
O O11 0.778343 0.500000 0.119732
O O12 0.795065 0.407016 0.093622
O O13 0.569961 0.445221 0.341870
O O14 0.114600 0.136536 0.118525
O O15 0.398118 0.169717 0.937224
O O16 0.081769 0.874064 0.611281
O O17 0.000000 0.886617 0.500000
O O18 0.250000 0.250000 0.000000
#
# Coordination Sequence:
#
# PCOD9190883 Si02
#       8
#     8   8   8   8   8   8   8   8
#     4  10  20  32  49  77 106 141 181 218 263 314
#     4  10  22  37  56  72 102 145 178 229 272 310
#     4  10  22  37  55  75 100 144 182 223 276 312
#     4   9  18  34  49  69 107 144 176 216 262 320
#     4  11  21  31  48  72 102 142 175 208 260 307
#     4   9  19  30  52  74 102 141 180 220 258 311
#     4  11  21  38  51  77 111 140 177 230 261 315
#     4  10  20  37  48  77 108 136 187 218 259 320
#
# _framework density 17.483559
#
# number of rings (size 3 to 8) (size 9 to 14) (size 15 to 20)
#    0.000    2.000    2.500    2.625    5.250    6.000 
#    0.000    0.000    0.000    0.000    0.000    0.000 
#    0.000   22.000    0.000    0.000    0.000    0.000 
#
# Total GULP energy -178136.848993 kJ/mol
# GULP energy per Si atom -5566.776531 kJ/mol
# Density = 1.744377 g / cm^3
# Si number density = 17.483559 Si / 1000 Ang^3
#
#
#
# Elastic Constant Matrix: (Units=GPa)
#
#
# Indices 1 2 3 4 5 6 
#
# 1 42.5276 12.1652 3.5540 0.0000 -10.0058 0.0000
# 2 12.1652 92.9986 33.9665 0.0000 -7.3395 0.0000
# 3 3.5540 33.9665 103.1183 0.0000 -18.4169 0.0000
# 4 0.0000 0.0000 0.0000 22.7292 0.0000 0.9592
# 5 -10.0058 -7.3395 -18.4169 0.0000 22.2719 0.0000
# 6 0.0000 0.0000 0.0000 0.9592 0.0000 16.7420
#
#
#
# Elastic Compliance Matrix: (Units=1/GPa)
#
#
# Indices 1 2 3 4 5 6 
#
# 1 0.027424 -0.003479 0.002577 0.000000 0.013305 0.000000
# 2 -0.003479 0.012677 -0.004211 0.000000 -0.000867 0.000000
# 3 0.002577 -0.004211 0.012853 0.000000 0.010398 0.000000
# 4 0.000000 0.000000 0.000000 0.044103 0.000000 -0.002527
# 5 0.013305 -0.000867 0.010398 0.000000 0.059190 0.000000
# 6 0.000000 0.000000 0.000000 -0.002527 0.000000 0.059875
#
#
# Mechanical properties :
#
#
# Convention : Reuss Voigt Hill
#
# Bulk Modulus (GPa) = 23.40291 37.55732 30.48012
# Shear Modulus (GPa) = 20.78223 24.94586 22.86404
#
# Velocity S-wave (km/s) = 3.45145 3.78142 3.62020
# Velocity P-wave (km/s) = 5.41277 6.37132 5.91151
#
# Compressibility (1/GPa) = 0.04272973
#
# Stress axis : x y z
#
# Youngs Moduli (GPa) = 36.46410 78.88054 77.80322
#
# Poissons Ratio (x) = 0.27439 -0.20049
# Poissons Ratio (y) = 0.12684 0.32761
# Poissons Ratio (z) = -0.09396 0.33215
#
# Static dielectric constant tensor:
#      x y z
#    x 1.578150 0.000000 -0.002160 
#    y 0.000000 1.616690 0.000000 
#    z -0.002160 0.000000 1.686920 
# 
# From -- ./inp_files/273190.got.cif
#   From: 2010.05.17/outbox.cif.g08.bks.cpg/sg12_137_cif.got.tgz:273190.got - 2010.06.03 13:09:07.
