data_PCOD9190516
_publ_section_title
;
Structure prediction by ZEFSAII (Michael W. Deem and Ramdas Pophale) SiO2 
 PCOD9190516
Probable space group: C 2/M
;
_chemical_formula_sum "Si O2"
_cell_formula_units_Z 44
_cell_length_a 18.935823
_cell_length_b 17.197301
_cell_length_c 5.618756
_cell_angle_alpha 90.000000
_cell_angle_beta 76.682619
_cell_angle_gamma 90.000000
_cell_volume 1780.517139
_symmetry_space_group_name_H-M "C 2/M"
_symmetry_group_IT_number 12
_symmetry_cell_setting 'monoclinic'
loop_
_space_group_symop_operation_xyz
x,y,z
-x,y,-z
-x,-y,-z
x,-y,z
1/2+x,1/2+y,z
1/2-x,1/2+y,-z
1/2-x,1/2-y,-z
1/2+x,1/2-y,z
loop_
_atom_site_type_symbol
_atom_site_label
_atom_site_fract_x
_atom_site_fract_y
_atom_site_fract_z
Si Si1 0.263588 0.815160 0.789600
Si Si2 0.757992 0.584406 0.187169
Si Si3 0.404663 0.327444 0.204738
Si Si4 0.584765 0.590765 0.309162
Si Si5 0.879272 0.666820 0.360895
Si Si6 0.542619 0.000000 0.714233
O O1 0.184878 0.824793 0.723877
O O2 0.343984 0.797706 0.626849
O O3 0.250000 0.750000 0.000000
O O4 0.276009 0.899507 0.899294
O O5 0.781425 0.500000 0.249867
O O6 0.672421 0.590043 0.266312
O O7 0.802385 0.647569 0.296134
O O8 0.434937 0.372437 0.415699
O O9 0.423703 0.236229 0.208922
O O10 0.426419 0.364779 0.934198
O O11 0.563102 0.500000 0.301925
O O12 0.917465 0.583951 0.329677
O O13 0.500000 0.000000 0.500000
O O14 0.500000 0.000000 0.000000
#
# Coordination Sequence:
#
# PCOD9190516 Si02
#       6
#     8   8   8   8   8   4
#     4  11  21  33  55  93 130 158 214 278 336 430
#     4  10  20  31  51  82 119 171 219 258 324 405
#     4  11  21  34  58  93 124 170 216 256 333 430
#     4  10  21  35  51  86 141 169 196 243 311 423
#     4  12  23  39  67  85 125 173 235 298 352 387
#     4  12  34  54  70  94 132 188 270 326 336 369
#
# _framework density 24.711922999999999
#
# number of rings (size 3 to 8) (size 9 to 14) (size 15 to 20)
#    0.000    1.091    4.545    3.273    3.818    0.727 
#    0.000    0.000    0.000    0.000    0.000    0.000 
#    0.000   14.545    0.000    0.000    0.000    0.000 
#
# Total GULP energy -122700.355836 kJ/mol
# GULP energy per Si atom -5577.288902 kJ/mol
# Density = 2.465568 g / cm^3
# Si number density = 24.711923 Si / 1000 Ang^3
#
#
#
# Elastic Constant Matrix: (Units=GPa)
#
#
# Indices 1 2 3 4 5 6 
#
# 1 62.8232 38.5327 63.8538 0.0000 -7.8468 0.0000
# 2 38.5327 192.1558 101.8879 0.0000 -9.9988 0.0000
# 3 63.8538 101.8879 158.3759 0.0000 -15.2703 0.0000
# 4 0.0000 0.0000 0.0000 35.6665 0.0000 10.3689
# 5 -7.8468 -9.9988 -15.2703 0.0000 37.7267 0.0000
# 6 0.0000 0.0000 0.0000 10.3689 0.0000 19.5927
#
#
#
# Elastic Compliance Matrix: (Units=1/GPa)
#
#
# Indices 1 2 3 4 5 6 
#
# 1 0.027065 0.000546 -0.011141 0.000000 0.001264 0.000000
# 2 0.000546 0.007909 -0.005302 0.000000 0.000064 0.000000
# 3 -0.011141 -0.005302 0.014421 0.000000 0.002114 0.000000
# 4 0.000000 0.000000 0.000000 0.033136 0.000000 -0.017536
# 5 0.001264 0.000064 0.002114 0.000000 0.027642 0.000000
# 6 0.000000 0.000000 0.000000 -0.017536 0.000000 0.060320
#
#
# Mechanical properties :
#
#
# Convention : Reuss Voigt Hill
#
# Bulk Modulus (GPa) = 56.81823 91.32263 74.07043
# Shear Modulus (GPa) = 24.02057 32.53589 28.27823
#
# Velocity S-wave (km/s) = 3.12111 3.63244 3.38644
# Velocity P-wave (km/s) = 6.00255 7.39107 6.73270
#
# Compressibility (1/GPa) = 0.01759998
#
# Stress axis : x y z
#
# Youngs Moduli (GPa) = 36.94840 126.43120 69.34288
#
# Poissons Ratio (x) = -0.06904 0.77257
# Poissons Ratio (y) = -0.02018 0.36768
# Poissons Ratio (z) = 0.41165 0.67039
#
# Static dielectric constant tensor:
#      x y z
#    x 2.053020 0.000000 -0.249750 
#    y 0.000000 2.005560 0.000000 
#    z -0.249750 0.000000 2.997930 
# 
# From -- ./inp_files/20391.got.cif
#   From: 2010.05.17/outbox.cif.g08.bks.cpg/sg12_11_cif.got.tgz:20391.got - 2010.06.03 13:09:07.
