data_PCOD9190583
_publ_section_title
;
Structure prediction by ZEFSAII (Michael W. Deem and Ramdas Pophale) SiO2 
 PCOD9190583
Probable space group: C 2/M
;
_chemical_formula_sum "Si O2"
_cell_formula_units_Z 64
_cell_length_a 22.316880
_cell_length_b 23.087544
_cell_length_c 8.510801
_cell_angle_alpha 90.000000
_cell_angle_beta 127.849244
_cell_angle_gamma 90.000000
_cell_volume 3462.614634
_symmetry_space_group_name_H-M "C 2/M"
_symmetry_group_IT_number 12
_symmetry_cell_setting 'monoclinic'
loop_
_space_group_symop_operation_xyz
x,y,z
-x,y,-z
-x,-y,-z
x,-y,z
1/2+x,1/2+y,z
1/2-x,1/2+y,-z
1/2-x,1/2-y,-z
1/2+x,1/2-y,z
loop_
_atom_site_type_symbol
_atom_site_label
_atom_site_fract_x
_atom_site_fract_y
_atom_site_fract_z
Si Si1 0.388521 0.565533 0.477854
Si Si2 0.548718 0.762259 0.726235
Si Si3 0.645562 0.353735 0.868041
Si Si4 0.837568 0.303949 0.861787
Si Si5 0.395114 0.248314 0.635789
Si Si6 0.766229 0.310386 0.261528
Si Si7 0.209428 0.138192 0.488766
Si Si8 0.458261 0.431884 0.096340
O O1 0.376468 0.500000 0.408013
O O2 0.364793 0.608460 0.302614
O O3 0.337711 0.581228 0.548025
O O4 0.475973 0.572618 0.666266
O O5 0.500000 0.782844 0.500000
O O6 0.598778 0.705566 0.769038
O O7 0.482533 0.742442 0.739707
O O8 0.604148 0.807351 0.901284
O O9 0.607442 0.388991 0.951879
O O10 0.732722 0.339221 0.051448
O O11 0.883187 0.286812 0.777379
O O12 0.784296 0.247813 0.804539
O O13 0.779475 0.354254 0.722252
O O14 0.351157 0.211485 0.429305
O O15 0.349538 0.308519 0.579249
O O16 0.743886 0.351087 0.372655
O O17 0.435371 0.500000 0.049416
O O18 0.500000 0.416334 0.000000
#
# Coordination Sequence:
#
# PCOD9190583 Si02
#       8
#     8   8   8   8   8   8   8   8
#     4  11  22  33  46  65  91 123 159 196 229 263
#     4  11  20  27  41  67  95 122 151 177 215 273
#     4  11  20  31  44  64  93 125 154 185 228 265
#     4   8  17  30  46  67  90 118 149 188 228 271
#     4   9  16  30  48  67  92 118 150 187 226 271
#     4   8  17  30  48  68  87 117 153 188 225 274
#     4   9  16  32  50  65  88 119 154 189 231 269
#     4  10  20  32  45  61  83 116 160 201 228 255
#
# _framework density 18.483142999999998
#
# number of rings (size 3 to 8) (size 9 to 14) (size 15 to 20)
#    0.000    2.375    0.000    5.625    0.000    4.000 
#    0.000    4.375    0.000    0.000    0.000    0.000 
#    0.000   13.500    0.000    0.000    0.000    0.000 
#
# Total GULP energy -178607.574385 kJ/mol
# GULP energy per Si atom -5581.486700 kJ/mol
# Density = 1.844107 g / cm^3
# Si number density = 18.483143 Si / 1000 Ang^3
#
#
#
# Elastic Constant Matrix: (Units=GPa)
#
#
# Indices 1 2 3 4 5 6 
#
# 1 43.9819 6.6894 6.5310 0.0000 4.5201 0.0000
# 2 6.6894 28.3972 20.0522 0.0000 4.8167 0.0000
# 3 6.5310 20.0522 105.5175 0.0000 14.1109 0.0000
# 4 0.0000 0.0000 0.0000 20.4141 0.0000 -5.1580
# 5 4.5201 4.8167 14.1109 0.0000 20.3131 0.0000
# 6 0.0000 0.0000 0.0000 -5.1580 0.0000 19.4324
#
#
#
# Elastic Compliance Matrix: (Units=1/GPa)
#
#
# Indices 1 2 3 4 5 6 
#
# 1 0.023913 -0.004938 0.000015 0.000000 -0.004160 0.000000
# 2 -0.004938 0.042106 -0.007174 0.000000 -0.003902 0.000000
# 3 0.000015 -0.007174 0.011699 0.000000 -0.006429 0.000000
# 4 0.000000 0.000000 0.000000 0.052507 0.000000 0.013937
# 5 -0.004160 -0.003902 -0.006429 0.000000 0.055547 0.000000
# 6 0.000000 0.000000 0.000000 0.013937 0.000000 0.055160
#
#
# Mechanical properties :
#
#
# Convention : Reuss Voigt Hill
#
# Bulk Modulus (GPa) = 18.68342 27.16021 22.92182
# Shear Modulus (GPa) = 17.66988 21.67351 19.67170
#
# Velocity S-wave (km/s) = 3.09528 3.42805 3.26591
# Velocity P-wave (km/s) = 4.78588 5.51319 5.16236
#
# Compressibility (1/GPa) = 0.05352339
#
# Stress axis : x y z
#
# Youngs Moduli (GPa) = 41.81822 23.74975 85.47490
#
# Poissons Ratio (x) = 0.11727 -0.00125
# Poissons Ratio (y) = 0.20649 0.61322
# Poissons Ratio (z) = -0.00061 0.17039
#
# Static dielectric constant tensor:
#      x y z
#    x 1.681760 0.000000 -0.045490 
#    y 0.000000 1.606250 0.000000 
#    z -0.045490 0.000000 1.705610 
# 
# From -- ./inp_files/89193.got.cif
#   From: 2010.05.17/outbox.cif.g08.bks.cpg/sg12_45_cif.got.tgz:89193.got - 2010.06.03 13:09:07.
