data_PCOD9190816
_publ_section_title
;
Structure prediction by ZEFSAII (Michael W. Deem and Ramdas Pophale) SiO2 
 PCOD9190816
Probable space group: C 2/M
;
_chemical_formula_sum "Si O2"
_cell_formula_units_Z 56
_cell_length_a 18.342065
_cell_length_b 20.236788
_cell_length_c 15.524279
_cell_angle_alpha 90.000000
_cell_angle_beta 30.076049
_cell_angle_gamma 90.000000
_cell_volume 2887.806913
_symmetry_space_group_name_H-M "C 2/M"
_symmetry_group_IT_number 12
_symmetry_cell_setting 'monoclinic'
loop_
_space_group_symop_operation_xyz
x,y,z
-x,y,-z
-x,-y,-z
x,-y,z
1/2+x,1/2+y,z
1/2-x,1/2+y,-z
1/2-x,1/2-y,-z
1/2+x,1/2-y,z
loop_
_atom_site_type_symbol
_atom_site_label
_atom_site_fract_x
_atom_site_fract_y
_atom_site_fract_z
Si Si1 0.678837 0.289294 0.152470
Si Si2 0.830501 0.254901 0.177169
Si Si3 0.230627 0.921454 0.010545
Si Si4 0.666471 0.295068 0.514405
Si Si5 0.841603 0.902259 0.190781
Si Si6 0.085430 0.573538 0.334994
Si Si7 0.105923 0.073176 0.672913
O O1 0.748256 0.266329 0.171230
O O2 0.718103 0.367031 0.098192
O O3 0.504636 0.278063 0.324663
O O4 0.750000 0.250000 0.000000
O O5 0.748717 0.288949 0.340033
O O6 0.829812 0.176781 0.197409
O O7 0.000000 0.275427 0.000000
O O8 0.068219 0.915850 0.134946
O O9 0.249760 0.000000 0.011433
O O10 0.362435 0.900971 0.811081
O O11 0.750000 0.250000 0.500000
O O12 0.664088 0.369270 0.553327
O O13 0.736174 0.932857 0.229883
O O14 0.816175 0.922402 0.314755
O O15 0.000000 0.922116 0.000000
O O16 0.019506 0.500000 0.389683
O O17 0.000000 0.610653 0.500000
O O18 0.123284 0.000000 0.618392
#
# Coordination Sequence:
#
# PCOD9190816 Si02
#       7
#     8   8   8   8   8   8   8
#     4  11  23  38  65  93 122 161 210 254 311 364
#     4  11  24  41  62  88 123 161 207 257 305 362
#     4   9  19  37  58  83 118 158 203 253 301 356
#     4  11  22  42  63  92 124 162 204 258 305 365
#     4  11  20  33  58  84 116 157 200 241 298 366
#     4  10  20  32  48  79 120 154 188 238 300 367
#     4  10  20  36  62  90 117 156 205 254 301 359
#
# _framework density 19.391878999999999
#
# number of rings (size 3 to 8) (size 9 to 14) (size 15 to 20)
#    0.000    1.571    2.857    2.571    4.000    2.857 
#    2.571    0.714    0.000    4.286    0.000    0.000 
#    0.000    0.000    0.000    0.000    0.000    0.000 
#
# Total GULP energy -156126.414310 kJ/mol
# GULP energy per Si atom -5575.943368 kJ/mol
# Density = 1.934774 g / cm^3
# Si number density = 19.391879 Si / 1000 Ang^3
#
#
#
# Elastic Constant Matrix: (Units=GPa)
#
#
# Indices 1 2 3 4 5 6 
#
# 1 101.0512 30.8188 47.1612 0.0059 7.4626 -0.0028
# 2 30.8188 94.8645 52.3118 0.0063 8.5761 -0.0006
# 3 47.1612 52.3118 143.4574 0.0102 11.1510 -0.0041
# 4 0.0059 0.0063 0.0102 9.4333 -0.0031 -9.4286
# 5 7.4626 8.5761 11.1510 -0.0031 29.4042 0.0011
# 6 -0.0028 -0.0006 -0.0041 -9.4286 0.0011 19.1713
#
#
#
# Elastic Compliance Matrix: (Units=1/GPa)
#
#
# Indices 1 2 3 4 5 6 
#
# 1 0.012080 -0.002095 -0.003108 -0.000004 -0.001276 -0.000001
# 2 -0.002095 0.013683 -0.004154 -0.000009 -0.001884 -0.000005
# 3 -0.003108 -0.004154 0.009636 -0.000009 -0.001654 -0.000003
# 4 -0.000004 -0.000009 -0.000009 0.208497 0.000025 0.102541
# 5 -0.001276 -0.001884 -0.001654 0.000025 0.035509 0.000010
# 6 -0.000001 -0.000005 -0.000003 0.102541 0.000010 0.102592
#
#
# Mechanical properties :
#
#
# Convention : Reuss Voigt Hill
#
# Bulk Modulus (GPa) = 59.93854 66.66185 63.30020
# Shear Modulus (GPa) = 12.30700 25.54051 18.92375
#
# Velocity S-wave (km/s) = 2.52195 3.63309 3.12726
# Velocity P-wave (km/s) = 6.28144 7.21456 6.76411
#
# Compressibility (1/GPa) = 0.01668376
#
# Stress axis : x y z
#
# Youngs Moduli (GPa) = 82.78345 73.08243 103.77857
#
# Poissons Ratio (x) = 0.15312 0.32254
# Poissons Ratio (y) = 0.17344 0.43114
# Poissons Ratio (z) = 0.25729 0.30361
#
# Static dielectric constant tensor:
#      x y z
#    x 1.659170 0.000000 -0.019280 
#    y 0.000000 1.715340 0.000000 
#    z -0.019280 0.000000 1.768760 
# 
# From -- ./inp_files/77402.got.cif
#   From: 2010.05.17/outbox.cif.g08.bks.cpg/sg12_39_cif.got.tgz:77402.got - 2010.06.03 13:09:07.
