data_PCOD9190668
_publ_section_title
;
Structure prediction by ZEFSAII (Michael W. Deem and Ramdas Pophale) SiO2 
 PCOD9190668
Probable space group: C 2/M
;
_chemical_formula_sum "Si O2"
_cell_formula_units_Z 56
_cell_length_a 20.369283
_cell_length_b 28.103726
_cell_length_c 16.345150
_cell_angle_alpha 90.000000
_cell_angle_beta 160.050819
_cell_angle_gamma 90.000000
_cell_volume 3192.423103
_symmetry_space_group_name_H-M "C 2/M"
_symmetry_group_IT_number 12
_symmetry_cell_setting 'monoclinic'
loop_
_space_group_symop_operation_xyz
x,y,z
-x,y,-z
-x,-y,-z
x,-y,z
1/2+x,1/2+y,z
1/2-x,1/2+y,-z
1/2-x,1/2-y,-z
1/2+x,1/2-y,z
loop_
_atom_site_type_symbol
_atom_site_label
_atom_site_fract_x
_atom_site_fract_y
_atom_site_fract_z
Si Si1 0.215105 0.053424 0.213854
Si Si2 0.203872 0.365831 0.476344
Si Si3 0.643819 0.611919 0.974907
Si Si4 0.603074 0.775877 0.266481
Si Si5 0.193091 0.710985 0.612084
Si Si6 0.239204 0.285383 0.857146
Si Si7 0.962485 0.555041 0.266203
O O1 0.221353 0.093789 0.153434
O O2 0.385692 0.058183 0.479368
O O3 0.234151 0.000000 0.199317
O O4 0.000000 0.055652 0.000000
O O5 0.137302 0.330657 0.326219
O O6 0.211851 0.333275 0.569991
O O7 0.056921 0.408692 0.313798
O O8 0.414265 0.387580 0.708323
O O9 0.700172 0.666564 0.025792
O O10 0.754951 0.576259 0.045611
O O11 0.750000 0.750000 0.500000
O O12 0.672472 0.753563 0.262448
O O13 0.392515 0.756757 0.042585
O O14 0.238681 0.700255 0.760022
O O15 0.971028 0.727195 0.356328
O O16 0.954214 0.500000 0.232890
#
# Coordination Sequence:
#
# PCOD9190668 Si02
#       7
#     8   8   8   8   8   8   8
#     4  10  20  32  47  66  95 130 171 222 257 283
#     4  11  22  36  51  74 100 138 179 212 257 302
#     4  12  21  30  49  70  96 135 172 211 247 298
#     4  10  21  35  50  73 102 136 173 213 255 307
#     4  10  21  34  51  77 100 136 170 214 254 298
#     4  11  21  32  53  75 103 132 173 212 253 305
#     4  11  23  36  49  70 100 134 176 219 257 293
#
# _framework density 17.541535
#
# number of rings (size 3 to 8) (size 9 to 14) (size 15 to 20)
#    0.000    1.286    5.714    2.143    2.000    5.143 
#    0.000    0.000    0.000    0.000    0.000    0.000 
#    0.000    2.286    0.000    8.571    0.000    0.000 
#
# Total GULP energy -156199.370111 kJ/mol
# GULP energy per Si atom -5578.548933 kJ/mol
# Density = 1.750161 g / cm^3
# Si number density = 17.541535 Si / 1000 Ang^3
#
#
#
# Elastic Constant Matrix: (Units=GPa)
#
#
# Indices 1 2 3 4 5 6 
#
# 1 37.0184 43.4385 31.9830 0.0000 18.4154 0.0000
# 2 43.4385 116.0224 29.8795 0.0002 23.9052 0.0000
# 3 31.9830 29.8795 77.3953 -0.0002 32.7477 -0.0006
# 4 0.0000 0.0002 -0.0002 28.1807 -0.0001 0.9244
# 5 18.4154 23.9052 32.7477 -0.0001 23.6189 -0.0002
# 6 0.0000 0.0000 -0.0006 0.9244 -0.0002 24.0554
#
#
#
# Elastic Compliance Matrix: (Units=1/GPa)
#
#
# Indices 1 2 3 4 5 6 
#
# 1 0.070048 -0.019491 -0.016112 0.000000 -0.012549 -0.000001
# 2 -0.019491 0.016353 0.005599 0.000000 -0.009117 0.000000
# 3 -0.016112 0.005599 0.035079 0.000000 -0.041742 0.000001
# 4 0.000000 0.000000 0.000000 0.035530 0.000000 -0.001365
# 5 -0.012549 -0.009117 -0.041742 0.000000 0.119226 0.000000
# 6 -0.000001 0.000000 0.000001 -0.001365 0.000000 0.041623
#
#
# Mechanical properties :
#
#
# Convention : Reuss Voigt Hill
#
# Bulk Modulus (GPa) = 16.26771 49.00423 32.63597
# Shear Modulus (GPa) = 12.55151 23.51334 18.03243
#
# Velocity S-wave (km/s) = 2.67784 3.66517 3.20970
# Velocity P-wave (km/s) = 4.34224 6.77555 5.69048
#
# Compressibility (1/GPa) = 0.06147148
#
# Stress axis : x y z
#
# Youngs Moduli (GPa) = 14.27593 61.15112 28.50679
#
# Poissons Ratio (x) = 1.19188 0.45931
# Poissons Ratio (y) = 0.27825 -0.15960
# Poissons Ratio (z) = 0.23002 -0.34237
#
# Static dielectric constant tensor:
#      x y z
#    x 1.663690 0.000000 0.017390 
#    y 0.000000 1.616670 0.000000 
#    z 0.017390 0.000000 1.620620 
# 
# From -- ./inp_files/286639.got.cif
#   From: 2010.05.17/outbox.cif.g08.bks.cpg/sg12_144_cif.got.tgz:286639.got - 2010.06.03 13:09:07.
