data_PCOD9190032
_publ_section_title
;
Structure prediction by ZEFSAII (Michael W. Deem and Ramdas Pophale) SiO2 
 PCOD9190032
Probable space group: C 2/M
;
_chemical_formula_sum "Si O2"
_cell_formula_units_Z 44
_cell_length_a 14.495388
_cell_length_b 18.786723
_cell_length_c 10.755344
_cell_angle_alpha 90.000000
_cell_angle_beta 52.312137
_cell_angle_gamma 90.000000
_cell_volume 2317.797369
_symmetry_space_group_name_H-M "C 2/M"
_symmetry_group_IT_number 12
_symmetry_cell_setting 'monoclinic'
loop_
_space_group_symop_operation_xyz
x,y,z
-x,y,-z
-x,-y,-z
x,-y,z
1/2+x,1/2+y,z
1/2-x,1/2+y,-z
1/2-x,1/2-y,-z
1/2+x,1/2-y,z
loop_
_atom_site_type_symbol
_atom_site_label
_atom_site_fract_x
_atom_site_fract_y
_atom_site_fract_z
Si Si1 0.824254 0.280299 0.552211
Si Si2 0.102794 0.000000 0.017426
Si Si3 0.599214 0.500000 0.309213
Si Si4 0.000000 0.245342 0.000000
Si Si5 0.275402 0.355002 0.156166
Si Si6 0.059350 0.721765 0.214038
Si Si7 0.882764 0.155058 0.678724
O O1 0.750000 0.250000 0.500000
O O2 0.780283 0.350343 0.659181
O O3 0.814998 0.216003 0.660255
O O4 0.955779 0.291988 0.397222
O O5 0.057548 0.000000 0.198578
O O6 0.180439 0.069646 0.927826
O O7 0.000000 0.000000 0.000000
O O8 0.500000 0.500000 0.500000
O O9 0.665047 0.575584 0.269422
O O10 0.112843 0.195471 0.916547
O O11 0.991707 0.289467 0.880151
O O12 0.175111 0.322566 0.149109
O O13 0.087717 0.805878 0.215751
O O14 0.000000 0.147839 0.500000
#
# Coordination Sequence:
#
# PCOD9190032 Si02
#       7
#     8   4   4   4   8   8   8
#     4  10  19  39  64  91 124 166 219 268 316 387
#     4  12  26  42  63  93 135 171 217 272 325 393
#     4  10  20  36  58  86 126 177 204 255 322 385
#     4  12  20  33  62  93 124 162 208 264 324 385
#     4  11  23  39  62  92 129 167 209 270 329 379
#     4  10  21  38  59  92 125 163 215 266 322 374
#     4   8  17  31  55  83 119 156 201 255 307 365
#
# _framework density 18.983540000000001
#
# number of rings (size 3 to 8) (size 9 to 14) (size 15 to 20)
#    0.000    1.818    2.727    3.273    0.000    2.909 
#    0.000    1.818    0.000    0.545    0.000    0.000 
#    0.000    0.000    0.000    0.000    0.000    0.000 
#
# Total GULP energy -122535.839117 kJ/mol
# GULP energy per Si atom -5569.810869 kJ/mol
# Density = 1.894033 g / cm^3
# Si number density = 18.983540 Si / 1000 Ang^3
#
#
#
# Elastic Constant Matrix: (Units=GPa)
#
#
# Indices 1 2 3 4 5 6 
#
# 1 120.8679 30.0312 55.8637 0.0000 14.8939 0.0000
# 2 30.0312 90.1659 42.7085 0.0000 0.5741 0.0000
# 3 55.8637 42.7085 108.4053 0.0000 7.1558 0.0000
# 4 0.0000 0.0000 0.0000 19.9110 0.0000 -3.2925
# 5 14.8939 0.5741 7.1558 0.0000 46.7851 0.0000
# 6 0.0000 0.0000 0.0000 -3.2925 0.0000 15.9723
#
#
#
# Elastic Compliance Matrix: (Units=1/GPa)
#
#
# Indices 1 2 3 4 5 6 
#
# 1 0.011317 -0.001324 -0.005125 0.000000 -0.002802 0.000000
# 2 -0.001324 0.013810 -0.004824 0.000000 0.000990 0.000000
# 3 -0.005125 -0.004824 0.013794 0.000000 -0.000419 0.000000
# 4 0.000000 0.000000 0.000000 0.051996 0.000000 0.010718
# 5 -0.002802 0.000990 -0.000419 0.000000 0.022318 0.000000
# 6 0.000000 0.000000 0.000000 0.010718 0.000000 0.064818
#
#
# Mechanical properties :
#
#
# Convention : Reuss Voigt Hill
#
# Bulk Modulus (GPa) = 61.06907 64.07175 62.57041
# Shear Modulus (GPa) = 24.26513 29.25605 26.76059
#
# Velocity S-wave (km/s) = 3.57910 3.92998 3.75864
# Velocity P-wave (km/s) = 7.02277 7.37682 7.20197
#
# Compressibility (1/GPa) = 0.01637490
#
# Stress axis : x y z
#
# Youngs Moduli (GPa) = 88.36654 72.41013 72.49559
#
# Poissons Ratio (x) = 0.09585 0.37155
# Poissons Ratio (y) = 0.11697 0.34972
# Poissons Ratio (z) = 0.45289 0.34931
#
# Static dielectric constant tensor:
#      x y z
#    x 1.688820 0.000000 0.047430 
#    y 0.000000 1.666410 0.000000 
#    z 0.047430 0.000000 1.772650 
# 
# From -- ./inp_files/145385.got.cif
#   From: 2010.05.17/outbox.cif.g08.bks.cpg/sg12_73_cif.got.tgz:145385.got - 2010.06.03 13:09:07.
