data_PCOD9190639
_publ_section_title
;
Structure prediction by ZEFSAII (Michael W. Deem and Ramdas Pophale) SiO2 
 PCOD9190639
Probable space group: C 2/M
;
_chemical_formula_sum "Si O2"
_cell_formula_units_Z 56
_cell_length_a 20.080516
_cell_length_b 7.792498
_cell_length_c 19.317084
_cell_angle_alpha 90.000000
_cell_angle_beta 104.002112
_cell_angle_gamma 90.000000
_cell_volume 2932.873038
_symmetry_space_group_name_H-M "C 2/M"
_symmetry_group_IT_number 12
_symmetry_cell_setting 'monoclinic'
loop_
_space_group_symop_operation_xyz
x,y,z
-x,y,-z
-x,-y,-z
x,-y,z
1/2+x,1/2+y,z
1/2-x,1/2+y,-z
1/2-x,1/2-y,-z
1/2+x,1/2-y,z
loop_
_atom_site_type_symbol
_atom_site_label
_atom_site_fract_x
_atom_site_fract_y
_atom_site_fract_z
Si Si1 0.397148 0.795712 0.285741
Si Si2 0.883926 0.211270 0.845185
Si Si3 0.755783 0.796286 0.723825
Si Si4 0.537000 0.292526 0.843771
Si Si5 0.065465 0.202792 0.556534
Si Si6 0.919351 0.198619 0.001391
Si Si7 0.717863 0.704717 0.565305
O O1 0.318823 0.727586 0.271624
O O2 0.430875 0.756010 0.220997
O O3 0.438464 0.723982 0.361844
O O4 0.394714 0.000000 0.294171
O O5 0.820342 0.271296 0.783097
O O6 0.957777 0.263263 0.832641
O O7 0.884296 0.000000 0.846578
O O8 0.881171 0.271383 0.924584
O O9 0.759916 0.768856 0.642501
O O10 0.754731 0.000000 0.736171
O O11 0.536602 0.500000 0.848697
O O12 0.579963 0.226047 0.921269
O O13 0.139877 0.274172 0.552956
O O14 0.000000 0.276467 0.500000
O O15 0.067620 0.000000 0.541211
O O16 0.897098 0.000000 0.001656
O O17 0.000000 0.197634 0.000000
O O18 0.715237 0.500000 0.570737
O O19 0.750000 0.750000 0.500000
#
# Coordination Sequence:
#
# PCOD9190639 Si02
#       7
#     8   8   8   8   8   8   8
#     4  10  20  32  46  67  98 129 151 180 229 283
#     4   8  14  27  49  72  90 116 159 201 229 261
#     4   9  18  33  50  67  92 126 158 187 224 272
#     4   9  16  28  49  72  92 118 156 199 233 265
#     4   9  19  36  55  71  88 117 158 196 226 263
#     4   7  11  22  43  70  92 112 149 199 237 260
#     4  10  20  34  52  72  95 121 150 188 231 275
#
# _framework density 19.093904999999999
#
# number of rings (size 3 to 8) (size 9 to 14) (size 15 to 20)
#    0.000    3.143    0.000    2.571    0.000    2.571 
#    0.000    7.143    0.000    4.714    0.000    0.000 
#    0.000    0.000    0.000    0.000    0.000    0.000 
#
# Total GULP energy -155976.089664 kJ/mol
# GULP energy per Si atom -5570.574631 kJ/mol
# Density = 1.905045 g / cm^3
# Si number density = 19.093905 Si / 1000 Ang^3
#
#
#
# Elastic Constant Matrix: (Units=GPa)
#
#
# Indices 1 2 3 4 5 6 
#
# 1 72.3165 -0.6379 94.9870 0.0000 11.1220 0.0000
# 2 -0.6379 18.6862 -15.2630 0.0000 8.8142 0.0000
# 3 94.9870 -15.2630 184.4284 0.0000 18.0303 0.0000
# 4 0.0000 0.0000 0.0000 14.6586 0.0000 -2.5933
# 5 11.1220 8.8142 18.0303 0.0000 37.4325 0.0000
# 6 0.0000 0.0000 0.0000 -2.5933 0.0000 8.1170
#
#
#
# Elastic Compliance Matrix: (Units=1/GPa)
#
#
# Indices 1 2 3 4 5 6 
#
# 1 0.049506 -0.022937 -0.027794 0.000000 0.004079 0.000000
# 2 -0.022937 0.079854 0.020562 0.000000 -0.021892 0.000000
# 3 -0.027794 0.020562 0.022148 0.000000 -0.007251 0.000000
# 4 0.000000 0.000000 0.000000 0.072306 0.000000 0.023101
# 5 0.004079 -0.021892 -0.007251 0.000000 0.034150 0.000000
# 6 0.000000 0.000000 0.000000 0.023101 0.000000 0.130578
#
#
# Mechanical properties :
#
#
# Convention : Reuss Voigt Hill
#
# Bulk Modulus (GPa) = 10.96853 48.17817 29.57335
# Shear Modulus (GPa) = 10.43251 25.13129 17.78190
#
# Velocity S-wave (km/s) = 2.34001 3.63188 3.05501
# Velocity P-wave (km/s) = 3.61357 6.54785 5.28830
#
# Compressibility (1/GPa) = 0.09116989
#
# Stress axis : x y z
#
# Youngs Moduli (GPa) = 20.19959 12.52282 45.15123
#
# Poissons Ratio (x) = 0.28723 1.25495
# Poissons Ratio (y) = 0.46331 -0.92840
# Poissons Ratio (z) = 0.56143 -0.25750
#
# Static dielectric constant tensor:
#      x y z
#    x 1.665230 0.000000 0.013860 
#    y 0.000000 1.711470 0.000000 
#    z 0.013860 0.000000 1.679340 
# 
# From -- ./inp_files/237850.got.cif
#   From: 2010.05.17/outbox.cif.g08.bks.cpg/sg12_119_cif.got.tgz:237850.got - 2010.06.03 13:09:07.
