data_PCOD9190105
_publ_section_title
;
Structure prediction by ZEFSAII (Michael W. Deem and Ramdas Pophale) SiO2 
 PCOD9190105
Probable space group: C 2/M
;
_chemical_formula_sum "Si O2"
_cell_formula_units_Z 40
_cell_length_a 14.043422
_cell_length_b 23.989005
_cell_length_c 11.266609
_cell_angle_alpha 90.000000
_cell_angle_beta 31.637449
_cell_angle_gamma 90.000000
_cell_volume 1990.944151
_symmetry_space_group_name_H-M "C 2/M"
_symmetry_group_IT_number 12
_symmetry_cell_setting 'monoclinic'
loop_
_space_group_symop_operation_xyz
x,y,z
-x,y,-z
-x,-y,-z
x,-y,z
1/2+x,1/2+y,z
1/2-x,1/2+y,-z
1/2-x,1/2-y,-z
1/2+x,1/2-y,z
loop_
_atom_site_type_symbol
_atom_site_label
_atom_site_fract_x
_atom_site_fract_y
_atom_site_fract_z
Si Si1 0.209411 0.761652 0.765537
Si Si2 0.213711 0.936208 0.805507
Si Si3 0.317245 0.137536 0.484951
Si Si4 0.058742 0.155342 0.559469
Si Si5 0.718266 0.837119 0.087048
O O1 0.221829 0.810657 0.654279
O O2 0.332608 0.710725 0.594446
O O3 0.276367 0.789652 0.817251
O O4 0.000000 0.745129 0.000000
O O5 0.319672 0.911429 0.579603
O O6 0.246202 0.894510 0.879425
O O7 0.261248 0.000000 0.779681
O O8 0.000000 0.933189 0.000000
O O9 0.194862 0.123099 0.502325
O O10 0.519590 0.157852 0.241374
O O11 0.000000 0.125963 0.500000
O O12 0.878482 0.170343 0.823904
#
# Coordination Sequence:
#
# PCOD9190105 Si02
#       5
#     8   8   8   8   8
#     4  11  22  38  60  84 118 160 202 247 295 342
#     4  10  19  39  71  97 117 146 188 248 312 351
#     4  11  22  40  60  88 121 153 194 250 298 347
#     4  12  26  39  55  83 122 166 208 233 287 351
#     4  11  23  41  60  87 125 151 196 255 293 344
#
# _framework density 20.090969999999999
#
# number of rings (size 3 to 8) (size 9 to 14) (size 15 to 20)
#    0.000    1.000    4.000    5.400    2.800    3.200 
#    0.000    0.000    0.000    2.400    0.000    2.800 
#    0.000    0.000    0.000    0.000    0.000    0.000 
#
# Total GULP energy -111936.940527 kJ/mol
# GULP energy per Si atom -5596.847026 kJ/mol
# Density = 2.004524 g / cm^3
# Si number density = 20.090970 Si / 1000 Ang^3
#
#
#
# Elastic Constant Matrix: (Units=GPa)
#
#
# Indices 1 2 3 4 5 6 
#
# 1 110.0082 8.2403 47.5095 0.0001 4.8644 0.0000
# 2 8.2403 78.8602 36.0350 0.0002 9.3256 -0.0001
# 3 47.5095 36.0350 152.8044 0.0000 -18.8075 0.0003
# 4 0.0001 0.0002 0.0000 18.7732 0.0001 -6.0871
# 5 4.8644 9.3256 -18.8075 0.0001 28.0879 -0.0002
# 6 0.0000 -0.0001 0.0003 -6.0871 -0.0002 14.0404
#
#
#
# Elastic Compliance Matrix: (Units=1/GPa)
#
#
# Indices 1 2 3 4 5 6 
#
# 1 0.011162 0.001538 -0.004505 0.000000 -0.005461 0.000000
# 2 0.001538 0.016081 -0.005406 0.000000 -0.009225 0.000000
# 3 -0.004505 -0.005406 0.010393 0.000000 0.009535 0.000000
# 4 0.000000 0.000000 0.000000 0.061980 0.000000 0.026871
# 5 -0.005461 -0.009225 0.009535 0.000000 0.045995 0.000000
# 6 0.000000 0.000000 0.000000 0.026871 0.000000 0.082873
#
#
# Mechanical properties :
#
#
# Convention : Reuss Voigt Hill
#
# Bulk Modulus (GPa) = 47.86912 58.36028 53.11470
# Shear Modulus (GPa) = 19.82591 28.83950 24.33271
#
# Velocity S-wave (km/s) = 3.14476 3.79284 3.48390
# Velocity P-wave (km/s) = 6.08801 6.94924 6.53283
#
# Compressibility (1/GPa) = 0.02089030
#
# Stress axis : x y z
#
# Youngs Moduli (GPa) = 89.58807 62.18458 96.21399
#
# Poissons Ratio (x) = -0.09564 0.43348
# Poissons Ratio (y) = -0.13779 0.52013
# Poissons Ratio (z) = 0.40362 0.33617
#
# Static dielectric constant tensor:
#      x y z
#    x 1.761010 0.000000 -0.014070 
#    y 0.000000 1.677330 0.000000 
#    z -0.014070 0.000000 1.718880 
# 
# From -- ./inp_files/148789.got.cif
#   From: 2010.05.17/outbox.cif.g08.bks.cpg/sg12_75_cif.got.tgz:148789.got - 2010.06.03 13:09:07.
