data_PCOD9190790
_publ_section_title
;
Structure prediction by ZEFSAII (Michael W. Deem and Ramdas Pophale) SiO2 
 PCOD9190790
Probable space group: C 2/M
;
_chemical_formula_sum "Si O2"
_cell_formula_units_Z 48
_cell_length_a 24.155837
_cell_length_b 8.947026
_cell_length_c 13.945797
_cell_angle_alpha 90.000000
_cell_angle_beta 106.459976
_cell_angle_gamma 90.000000
_cell_volume 2890.485814
_symmetry_space_group_name_H-M "C 2/M"
_symmetry_group_IT_number 12
_symmetry_cell_setting 'monoclinic'
loop_
_space_group_symop_operation_xyz
x,y,z
-x,y,-z
-x,-y,-z
x,-y,z
1/2+x,1/2+y,z
1/2-x,1/2+y,-z
1/2-x,1/2-y,-z
1/2+x,1/2-y,z
loop_
_atom_site_type_symbol
_atom_site_label
_atom_site_fract_x
_atom_site_fract_y
_atom_site_fract_z
Si Si1 0.979014 0.819934 0.385361
Si Si2 0.445688 0.170692 0.081686
Si Si3 0.864995 0.676625 0.859433
Si Si4 0.128444 0.673445 0.762468
Si Si5 0.248094 0.819552 0.105934
Si Si6 0.048607 0.822952 0.231738
O O1 0.915595 0.761640 0.326573
O O2 0.000000 0.769506 0.500000
O O3 0.023387 0.773233 0.322645
O O4 0.977698 0.000000 0.383644
O O5 0.399577 0.180025 0.145090
O O6 0.496707 0.282275 0.133163
O O7 0.468973 0.000000 0.092424
O O8 0.411972 0.197911 0.967436
O O9 0.853568 0.500000 0.846476
O O10 0.807951 0.762123 0.865535
O O11 0.894766 0.739939 0.778510
O O12 0.128928 0.500000 0.732965
O O13 0.193969 0.725752 0.807999
O O14 0.248051 0.000000 0.097448
O O15 0.250000 0.750000 0.000000
O O16 0.058308 0.000000 0.238094
#
# Coordination Sequence:
#
# PCOD9190790 Si02
#       6
#     8   8   8   8   8   8
#     4   9  19  36  57  79 102 129 165 214 268 313
#     4   9  17  31  47  67 100 138 169 203 248 299
#     4  11  21  33  48  70 103 143 175 207 250 299
#     4   9  18  33  51  75 104 134 171 210 252 299
#     4  11  21  34  51  74 106 143 179 212 246 296
#     4  10  20  32  48  74 101 130 169 212 258 309
#
# _framework density 16.606206
#
# number of rings (size 3 to 8) (size 9 to 14) (size 15 to 20)
#    0.000    2.167    1.667    2.000    0.000    5.667 
#    0.000    0.000    0.000    1.000    0.000    0.000 
#    0.000    0.000    0.000    0.000    0.000    0.000 
#
# Total GULP energy -133869.562189 kJ/mol
# GULP energy per Si atom -5577.898425 kJ/mol
# Density = 1.656841 g / cm^3
# Si number density = 16.606206 Si / 1000 Ang^3
#
#
#
# Elastic Constant Matrix: (Units=GPa)
#
#
# Indices 1 2 3 4 5 6 
#
# 1 116.1345 43.6490 54.2367 0.0000 -3.7662 0.0000
# 2 43.6490 43.5543 38.3103 0.0000 -1.2130 0.0000
# 3 54.2367 38.3103 99.8967 0.0000 4.1351 0.0000
# 4 0.0000 0.0000 0.0000 20.3039 0.0000 2.7280
# 5 -3.7662 -1.2130 4.1351 0.0000 9.1120 0.0000
# 6 0.0000 0.0000 0.0000 2.7280 0.0000 29.1987
#
#
#
# Elastic Compliance Matrix: (Units=1/GPa)
#
#
# Indices 1 2 3 4 5 6 
#
# 1 0.014939 -0.011193 -0.004089 0.000000 0.006541 0.000000
# 2 -0.011193 0.044117 -0.011102 0.000000 0.006285 0.000000
# 3 -0.004089 -0.011102 0.016938 0.000000 -0.010855 0.000000
# 4 0.000000 0.000000 0.000000 0.049878 0.000000 -0.004660
# 5 0.006541 0.006285 -0.010855 0.000000 0.118211 0.000000
# 6 0.000000 0.000000 0.000000 -0.004660 0.000000 0.034683
#
#
# Mechanical properties :
#
#
# Convention : Reuss Voigt Hill
#
# Bulk Modulus (GPa) = 43.05580 59.10860 51.08220
# Shear Modulus (GPa) = 14.73719 19.94889 17.34304
#
# Velocity S-wave (km/s) = 2.98224 3.46973 3.23518
# Velocity P-wave (km/s) = 6.15160 7.19191 6.69200
#
# Compressibility (1/GPa) = 0.02322568
#
# Stress axis : x y z
#
# Youngs Moduli (GPa) = 66.93725 22.66677 59.04030
#
# Poissons Ratio (x) = 0.25370 0.24144
# Poissons Ratio (y) = 0.74921 0.65548
# Poissons Ratio (z) = 0.27373 0.25165
#
# Static dielectric constant tensor:
#      x y z
#    x 1.567870 0.000000 -0.012550 
#    y 0.000000 1.563130 0.000000 
#    z -0.012550 0.000000 1.543630 
# 
# From -- ./inp_files/236874.got.cif
#   From: 2010.05.17/outbox.cif.g08.bks.cpg/sg12_119_cif.got.tgz:236874.got - 2010.06.03 13:09:07.
