data_PCOD9190751
_publ_section_title
;
Structure prediction by ZEFSAII (Michael W. Deem and Ramdas Pophale) SiO2 
 PCOD9190751
Probable space group: C 2/M
;
_chemical_formula_sum "Si O2"
_cell_formula_units_Z 56
_cell_length_a 18.457426
_cell_length_b 18.227006
_cell_length_c 14.028800
_cell_angle_alpha 90.000000
_cell_angle_beta 47.772066
_cell_angle_gamma 90.000000
_cell_volume 3494.769846
_symmetry_space_group_name_H-M "C 2/M"
_symmetry_group_IT_number 12
_symmetry_cell_setting 'monoclinic'
loop_
_space_group_symop_operation_xyz
x,y,z
-x,y,-z
-x,-y,-z
x,-y,z
1/2+x,1/2+y,z
1/2-x,1/2+y,-z
1/2-x,1/2-y,-z
1/2+x,1/2-y,z
loop_
_atom_site_type_symbol
_atom_site_label
_atom_site_fract_x
_atom_site_fract_y
_atom_site_fract_z
Si Si1 0.173884 0.410889 0.997148
Si Si2 0.473405 0.836123 0.241319
Si Si3 0.109068 0.584423 0.856819
Si Si4 0.791597 0.915463 0.252998
Si Si5 0.426998 0.914208 0.475583
Si Si6 0.341243 0.414460 0.993594
Si Si7 0.974468 0.813000 0.131097
O O1 0.160486 0.500000 0.013267
O O2 0.177953 0.389836 0.882013
O O3 0.269377 0.391326 0.972519
O O4 0.078898 0.372326 0.125193
O O5 0.396018 0.871932 0.235955
O O6 0.448409 0.859233 0.370265
O O7 0.474259 0.752089 0.207578
O O8 0.130653 0.500000 0.816486
O O9 0.000000 0.587397 0.000000
O O10 0.684911 0.905524 0.391831
O O11 0.873194 0.858001 0.215219
O O12 0.823816 0.000000 0.243253
O O13 0.785208 0.908142 0.144062
O O14 0.500000 0.902469 0.500000
O O15 0.440654 0.000000 0.432650
O O16 0.365506 0.500000 0.958579
O O17 0.438896 0.368117 0.917787
O O18 0.000000 0.785447 0.000000
#
# Coordination Sequence:
#
# PCOD9190751 Si02
#       7
#     8   8   8   8   8   8   8
#     4   9  16  27  45  69  96 125 157 196 240 283
#     4  11  19  29  46  70 101 127 152 189 240 293
#     4   8  14  25  41  62  90 122 152 182 223 279
#     4   9  18  33  51  70  94 126 166 205 235 274
#     4  10  20  34  53  75  96 123 161 200 238 282
#     4   9  17  31  51  72  95 125 162 204 243 277
#     4  10  20  32  48  71  98 130 163 195 238 289
#
# _framework density 16.023945000000001
#
# number of rings (size 3 to 8) (size 9 to 14) (size 15 to 20)
#    0.000    2.571    0.000    4.714    0.000    5.143 
#    0.000    1.429    0.000    0.000    0.000    0.000 
#    0.000    6.857    0.000    0.000    0.000    0.000 
#
# Total GULP energy -156020.711241 kJ/mol
# GULP energy per Si atom -5572.168259 kJ/mol
# Density = 1.598747 g / cm^3
# Si number density = 16.023945 Si / 1000 Ang^3
#
#
#
# Elastic Constant Matrix: (Units=GPa)
#
#
# Indices 1 2 3 4 5 6 
#
# 1 115.5900 44.7109 38.1492 0.0000 7.5137 0.0000
# 2 44.7109 56.3146 39.4942 0.0000 8.6023 0.0000
# 3 38.1492 39.4942 58.4161 0.0000 6.0204 0.0000
# 4 0.0000 0.0000 0.0000 18.6436 0.0000 15.6667
# 5 7.5137 8.6023 6.0204 0.0000 18.3525 0.0000
# 6 0.0000 0.0000 0.0000 15.6667 0.0000 27.9946
#
#
#
# Elastic Compliance Matrix: (Units=1/GPa)
#
#
# Indices 1 2 3 4 5 6 
#
# 1 0.012729 -0.008053 -0.002815 0.000000 -0.000513 0.000000
# 2 -0.008053 0.040239 -0.021053 0.000000 -0.008657 0.000000
# 3 -0.002815 -0.021053 0.033176 0.000000 0.000137 0.000000
# 4 0.000000 0.000000 0.000000 0.101255 0.000000 -0.056666
# 5 -0.000513 -0.008657 0.000137 0.000000 0.058712 0.000000
# 6 0.000000 0.000000 0.000000 -0.056666 0.000000 0.067433
#
#
# Mechanical properties :
#
#
# Convention : Reuss Voigt Hill
#
# Bulk Modulus (GPa) = 44.84134 52.78101 48.81118
# Shear Modulus (GPa) = 12.99307 20.19590 16.59448
#
# Velocity S-wave (km/s) = 2.85064 3.55400 3.22157
# Velocity P-wave (km/s) = 6.23535 7.06057 6.66075
#
# Compressibility (1/GPa) = 0.02230085
#
# Stress axis : x y z
#
# Youngs Moduli (GPa) = 78.56203 24.85168 30.14185
#
# Poissons Ratio (x) = 0.20014 0.08485
# Poissons Ratio (y) = 0.63270 0.63458
# Poissons Ratio (z) = 0.22115 0.52321
#
# Static dielectric constant tensor:
#      x y z
#    x 1.546690 0.000000 0.013860 
#    y 0.000000 1.548920 0.000000 
#    z 0.013860 0.000000 1.514690 
# 
# From -- ./inp_files/157745.got.cif
#   From: 2010.05.17/outbox.cif.g08.bks.cpg/sg12_79_cif.got.tgz:157745.got - 2010.06.03 13:09:07.
