data_PCOD9190432
_publ_section_title
;
Structure prediction by ZEFSAII (Michael W. Deem and Ramdas Pophale) SiO2 
 PCOD9190432
Probable space group: C 2/M
;
_chemical_formula_sum "Si O2"
_cell_formula_units_Z 56
_cell_length_a 9.849901
_cell_length_b 21.840140
_cell_length_c 17.062922
_cell_angle_alpha 90.000000
_cell_angle_beta 131.041541
_cell_angle_gamma 90.000000
_cell_volume 2768.513429
_symmetry_space_group_name_H-M "C 2/M"
_symmetry_group_IT_number 12
_symmetry_cell_setting 'monoclinic'
loop_
_space_group_symop_operation_xyz
x,y,z
-x,y,-z
-x,-y,-z
x,-y,z
1/2+x,1/2+y,z
1/2-x,1/2+y,-z
1/2-x,1/2-y,-z
1/2+x,1/2-y,z
loop_
_atom_site_type_symbol
_atom_site_label
_atom_site_fract_x
_atom_site_fract_y
_atom_site_fract_z
Si Si1 0.512283 0.433163 0.275706
Si Si2 0.299647 0.756336 0.928358
Si Si3 0.311610 0.068835 0.971403
Si Si4 0.025673 0.800369 0.296787
Si Si5 0.703513 0.616658 0.088838
Si Si6 0.424081 0.199344 0.384456
Si Si7 0.126238 0.567688 0.691656
O O1 0.493995 0.500000 0.308282
O O2 0.349104 0.427089 0.151956
O O3 0.520808 0.370136 0.327064
O O4 0.694751 0.434338 0.294057
O O5 0.306678 0.688243 0.892757
O O6 0.146059 0.792238 0.824697
O O7 0.500000 0.782692 0.000000
O O8 0.250000 0.750000 0.000000
O O9 0.302484 0.000000 0.001656
O O10 0.500000 0.075551 0.000000
O O11 0.292934 0.112681 0.037900
O O12 0.207662 0.793476 0.314282
O O13 0.004776 0.749246 0.355668
O O14 0.808154 0.579966 0.194880
O O15 0.500000 0.593479 0.000000
O O16 0.500000 0.207616 0.500000
O O17 0.469618 0.130181 0.372537
O O18 0.038976 0.500000 0.651733
#
# Coordination Sequence:
#
# PCOD9190432 Si02
#       7
#     8   8   8   8   8   8   8
#     4   9  19  35  56  81 114 155 198 236 285 358
#     4  11  23  35  55  89 128 161 195 237 291 360
#     4  10  20  31  46  75 116 158 195 226 272 341
#     4  11  22  40  64  89 120 157 202 247 304 362
#     4  11  20  33  55  83 119 158 200 237 287 353
#     4  11  24  43  65  90 116 154 208 262 312 356
#     4  10  20  37  61  89 117 152 199 251 301 355
#
# _framework density 20.227461999999999
#
# number of rings (size 3 to 8) (size 9 to 14) (size 15 to 20)
#    0.000    1.571    2.857    2.571    4.000    4.286 
#    0.000    0.000    0.000    0.429    0.000    0.000 
#    0.000    0.000    0.000    0.000    0.000    0.000 
#
# Total GULP energy -156326.423032 kJ/mol
# GULP energy per Si atom -5583.086537 kJ/mol
# Density = 2.018142 g / cm^3
# Si number density = 20.227462 Si / 1000 Ang^3
#
#
#
# Elastic Constant Matrix: (Units=GPa)
#
#
# Indices 1 2 3 4 5 6 
#
# 1 51.2234 22.1933 10.4734 0.0000 -4.0462 0.0000
# 2 22.1933 175.1750 17.3380 0.0000 -14.4603 0.0000
# 3 10.4734 17.3380 32.1856 0.0000 -11.3624 0.0000
# 4 0.0000 0.0000 0.0000 7.1402 0.0000 -10.6377
# 5 -4.0462 -14.4603 -11.3624 0.0000 21.5684 0.0000
# 6 0.0000 0.0000 0.0000 -10.6377 0.0000 26.1616
#
#
#
# Elastic Compliance Matrix: (Units=1/GPa)
#
#
# Indices 1 2 3 4 5 6 
#
# 1 0.021669 -0.002193 -0.006085 0.000000 -0.000611 0.000000
# 2 -0.002193 0.006400 -0.001676 0.000000 0.002996 0.000000
# 3 -0.006085 -0.001676 0.040728 0.000000 0.019190 0.000000
# 4 0.000000 0.000000 0.000000 0.355271 0.000000 0.144459
# 5 -0.000611 0.002996 0.019190 0.000000 0.058368 0.000000
# 6 0.000000 0.000000 0.000000 0.144459 0.000000 0.096963
#
#
# Mechanical properties :
#
#
# Convention : Reuss Voigt Hill
#
# Bulk Modulus (GPa) = 20.45555 39.84370 30.14962
# Shear Modulus (GPa) = 8.12212 24.87932 16.50072
#
# Velocity S-wave (km/s) = 2.00602 3.51091 2.85925
# Velocity P-wave (km/s) = 3.93703 6.01464 5.08311
#
# Compressibility (1/GPa) = 0.04888650
#
# Stress axis : x y z
#
# Youngs Moduli (GPa) = 46.14971 156.25800 24.55337
#
# Poissons Ratio (x) = 0.34274 0.14942
# Poissons Ratio (y) = 0.10123 0.04115
# Poissons Ratio (z) = 0.28084 0.26188
#
# Static dielectric constant tensor:
#      x y z
#    x 1.583190 0.000000 0.086670 
#    y 0.000000 1.813260 0.000000 
#    z 0.086670 0.000000 1.644450 
# 
# From -- ./inp_files/198954.got.cif
#   From: 2010.05.17/outbox.cif.g08.bks.cpg/sg12_100_cif.got.tgz:198954.got - 2010.06.03 13:09:07.
