data_PCOD9190469
_publ_section_title
;
Structure prediction by ZEFSAII (Michael W. Deem and Ramdas Pophale) SiO2 
 PCOD9190469
Probable space group: C 2/M
;
_chemical_formula_sum "Si O2"
_cell_formula_units_Z 56
_cell_length_a 9.091860
_cell_length_b 26.962461
_cell_length_c 13.822497
_cell_angle_alpha 90.000000
_cell_angle_beta 113.548090
_cell_angle_gamma 90.000000
_cell_volume 3106.260558
_symmetry_space_group_name_H-M "C 2/M"
_symmetry_group_IT_number 12
_symmetry_cell_setting 'monoclinic'
loop_
_space_group_symop_operation_xyz
x,y,z
-x,y,-z
-x,-y,-z
x,-y,z
1/2+x,1/2+y,z
1/2-x,1/2+y,-z
1/2-x,1/2-y,-z
1/2+x,1/2-y,z
loop_
_atom_site_type_symbol
_atom_site_label
_atom_site_fract_x
_atom_site_fract_y
_atom_site_fract_z
Si Si1 0.620906 0.114138 0.249463
Si Si2 0.192414 0.944820 0.828015
Si Si3 0.858437 0.704172 0.884066
Si Si4 0.669661 0.059370 0.934667
Si Si5 0.002119 0.810172 0.886114
Si Si6 0.640716 0.413196 0.197824
Si Si7 0.025363 0.558107 0.620856
O O1 0.784686 0.089081 0.258236
O O2 0.624460 0.168624 0.204873
O O3 0.484308 0.085069 0.151895
O O4 0.581384 0.097848 0.347649
O O5 0.010125 0.945111 0.811288
O O6 0.251450 0.000000 0.823730
O O7 0.287784 0.923931 0.946224
O O8 0.898484 0.759672 0.858168
O O9 0.682754 0.698661 0.890025
O O10 0.000000 0.692886 0.000000
O O11 0.810975 0.073872 0.899092
O O12 0.652155 0.000000 0.932275
O O13 0.914957 0.856031 0.811078
O O14 0.000000 0.823153 0.000000
O O15 0.793887 0.427643 0.301732
O O16 0.996022 0.500000 0.642653
O O17 0.000000 0.561365 0.500000
#
# Coordination Sequence:
#
# PCOD9190469 Si02
#       7
#     8   8   8   8   8   8   8
#     4  11  21  34  56  81 110 151 189 231 279 335
#     4  11  19  30  48  81 119 145 176 220 273 341
#     4  11  23  36  56  87 123 160 195 229 272 332
#     4  10  20  31  48  77 117 158 185 213 263 339
#     4  11  23  36  56  87 123 160 195 229 272 332
#     4  11  21  34  56  81 110 151 189 231 279 335
#     4  10  23  43  64  83 106 145 195 242 292 348
#
# _framework density 18.028106999999999
#
# number of rings (size 3 to 8) (size 9 to 14) (size 15 to 20)
#    0.000    1.286    1.429    7.714    8.000    2.286 
#    0.000    0.714    0.000    3.429    0.000    0.000 
#    0.000    0.000    0.000    0.000    0.000    0.000 
#
# Total GULP energy -156201.228019 kJ/mol
# GULP energy per Si atom -5578.615286 kJ/mol
# Density = 1.798707 g / cm^3
# Si number density = 18.028107 Si / 1000 Ang^3
#
#
#
# Elastic Constant Matrix: (Units=GPa)
#
#
# Indices 1 2 3 4 5 6 
#
# 1 86.7660 16.7378 14.1420 0.0000 -14.1566 0.0000
# 2 16.7378 103.0743 27.7273 0.0000 -6.2450 0.0000
# 3 14.1420 27.7273 63.2557 0.0000 -16.0637 0.0000
# 4 0.0000 0.0000 0.0000 18.9636 0.0000 -3.1363
# 5 -14.1566 -6.2450 -16.0637 0.0000 13.8611 0.0000
# 6 0.0000 0.0000 0.0000 -3.1363 0.0000 -12.0447
#
#
#
# Elastic Compliance Matrix: (Units=1/GPa)
#
#
# Indices 1 2 3 4 5 6 
#
# 1 0.014132 -0.001773 0.001531 0.000000 0.015408 0.000000
# 2 -0.001773 0.011229 -0.005244 0.000000 -0.002829 0.000000
# 3 0.001531 -0.005244 0.024887 0.000000 0.028042 0.000000
# 4 0.000000 0.000000 0.000000 0.050555 0.000000 -0.013164
# 5 0.015408 -0.002829 0.028042 0.000000 0.119104 0.000000
# 6 0.000000 0.000000 0.000000 -0.013164 0.000000 -0.079596
#
#
# Mechanical properties :
#
#
# Convention : Reuss Voigt Hill
#
# Bulk Modulus (GPa) = 25.46202 41.14557 33.30380
# Shear Modulus (GPa) = 30.41821 17.12193 23.77007
#
# Velocity S-wave (km/s) = 4.11209 3.08512 3.63506
# Velocity P-wave (km/s) = 6.05804 5.96349 6.01095
#
# Compressibility (1/GPa) = 0.03927417
#
# Stress axis : x y z
#
# Youngs Moduli (GPa) = 70.76261 89.05570 40.18242
#
# Poissons Ratio (x) = 0.15790 -0.06150
# Poissons Ratio (y) = 0.12546 0.21072
# Poissons Ratio (z) = -0.10831 0.46702
#
# Static dielectric constant tensor:
#      x y z
#    x 1.710920 0.000000 0.001240 
#    y 0.000000 1.652080 0.000000 
#    z 0.001240 0.000000 1.590090 
# 
# From -- ./inp_files/199421.got.cif
#   From: 2010.05.17/outbox.cif.g08.bks.cpg/sg12_100_cif.got.tgz:199421.got - 2010.06.03 13:09:07.
