data_PCOD9190248
_publ_section_title
;
Structure prediction by ZEFSAII (Michael W. Deem and Ramdas Pophale) SiO2 
 PCOD9190248
Probable space group: C 2/M
;
_chemical_formula_sum "Si O2"
_cell_formula_units_Z 40
_cell_length_a 22.365877
_cell_length_b 19.311993
_cell_length_c 6.996232
_cell_angle_alpha 90.000000
_cell_angle_beta 142.231234
_cell_angle_gamma 90.000000
_cell_volume 1850.829708
_symmetry_space_group_name_H-M "C 2/M"
_symmetry_group_IT_number 12
_symmetry_cell_setting 'monoclinic'
loop_
_space_group_symop_operation_xyz
x,y,z
-x,y,-z
-x,-y,-z
x,-y,z
1/2+x,1/2+y,z
1/2-x,1/2+y,-z
1/2-x,1/2-y,-z
1/2+x,1/2-y,z
loop_
_atom_site_type_symbol
_atom_site_label
_atom_site_fract_x
_atom_site_fract_y
_atom_site_fract_z
Si Si1 0.388065 0.500000 0.648864
Si Si2 0.414407 0.207380 0.575877
Si Si3 0.882517 0.000000 0.187381
Si Si4 0.377644 0.780936 0.023570
Si Si5 0.320917 0.651591 0.433697
Si Si6 0.286658 0.639988 0.887633
O O1 0.359433 0.500000 0.352443
O O2 0.352667 0.578707 0.602560
O O3 0.500000 0.500000 0.000000
O O4 0.530359 0.195004 0.868737
O O5 0.397385 0.211925 0.301722
O O6 0.391418 0.281586 0.614318
O O7 0.329151 0.154861 0.428102
O O8 0.000000 0.000000 0.500000
O O9 0.834444 0.066245 0.967809
O O10 0.282369 0.825590 0.741515
O O11 0.347286 0.700288 0.934750
O O12 0.304603 0.646209 0.162340
#
# Coordination Sequence:
#
# PCOD9190248 Si02
#       6
#     4   8   4   8   8   8
#     4  10  20  32  45  61  93 125 146 180 224 263
#     4   8  13  23  40  61  87 116 142 175 221 262
#     4  10  20  28  45  69  93 115 146 186 224 260
#     4   8  13  22  41  61  88 114 143 178 220 260
#     4   8  15  26  39  61  84 116 150 178 211 263
#     4   8  15  24  36  63  93 112 139 180 219 262
#
# _framework density 21.611927999999999
#
# number of rings (size 3 to 8) (size 9 to 14) (size 15 to 20)
#    0.000    3.600    0.000    2.400    8.400    0.000 
#    0.000    1.000    0.000    7.200    0.000    0.000 
#    0.000    1.600    0.000    0.000    0.000    0.000 
#
# Total GULP energy -111431.523400 kJ/mol
# GULP energy per Si atom -5571.576170 kJ/mol
# Density = 2.156274 g / cm^3
# Si number density = 21.611928 Si / 1000 Ang^3
#
#
#
# Elastic Constant Matrix: (Units=GPa)
#
#
# Indices 1 2 3 4 5 6 
#
# 1 103.4693 30.0241 40.6077 0.0000 7.5984 0.0000
# 2 30.0241 180.2894 77.7465 0.0000 40.0555 0.0000
# 3 40.6077 77.7465 118.4050 0.0000 27.3880 0.0000
# 4 0.0000 0.0000 0.0000 20.4668 0.0000 4.0789
# 5 7.5984 40.0555 27.3880 0.0000 59.4608 0.0000
# 6 0.0000 0.0000 0.0000 4.0789 0.0000 -1.1470
#
#
#
# Elastic Compliance Matrix: (Units=1/GPa)
#
#
# Indices 1 2 3 4 5 6 
#
# 1 0.011193 -0.000383 -0.003712 0.000000 0.000537 0.000000
# 2 -0.000383 0.008342 -0.004541 0.000000 -0.003479 0.000000
# 3 -0.003712 -0.004541 0.013300 0.000000 -0.002593 0.000000
# 4 0.000000 0.000000 0.000000 0.028595 0.000000 0.101684
# 5 0.000537 -0.003479 -0.002593 0.000000 0.020287 0.000000
# 6 0.000000 0.000000 0.000000 0.101684 0.000000 -0.510228
#
#
# Mechanical properties :
#
#
# Convention : Reuss Voigt Hill
#
# Bulk Modulus (GPa) = 64.25380 77.65781 70.95581
# Shear Modulus (GPa) = -12.31368 32.67515 10.18073
#
# Velocity S-wave (km/s) = -2.38956 3.89254 2.17277
# Velocity P-wave (km/s) = 4.70977 7.49755 6.26080
#
# Compressibility (1/GPa) = 0.01556328
#
# Stress axis : x y z
#
# Youngs Moduli (GPa) = 89.34159 119.88124 75.18748
#
# Poissons Ratio (x) = 0.04589 0.27907
# Poissons Ratio (y) = 0.03420 0.34145
# Poissons Ratio (z) = 0.33160 0.54442
#
# Static dielectric constant tensor:
#      x y z
#    x 1.901590 0.000000 -0.078790 
#    y 0.000000 1.844740 0.000000 
#    z -0.078790 0.000000 1.830100 
# 
# From -- ./inp_files/75550.got.cif
#   From: 2010.05.17/outbox.cif.g08.bks.cpg/sg12_38_cif.got.tgz:75550.got - 2010.06.03 13:09:07.
