data_PCOD9190942
_publ_section_title
;
Structure prediction by ZEFSAII (Michael W. Deem and Ramdas Pophale) SiO2 
 PCOD9190942
Probable space group: C 2/M
;
_chemical_formula_sum "Si O2"
_cell_formula_units_Z 44
_cell_length_a 14.795303
_cell_length_b 22.590335
_cell_length_c 10.741473
_cell_angle_alpha 90.000000
_cell_angle_beta 138.109006
_cell_angle_gamma 90.000000
_cell_volume 2397.186750
_symmetry_space_group_name_H-M "C 2/M"
_symmetry_group_IT_number 12
_symmetry_cell_setting 'monoclinic'
loop_
_space_group_symop_operation_xyz
x,y,z
-x,y,-z
-x,-y,-z
x,-y,z
1/2+x,1/2+y,z
1/2-x,1/2+y,-z
1/2-x,1/2-y,-z
1/2+x,1/2-y,z
loop_
_atom_site_type_symbol
_atom_site_label
_atom_site_fract_x
_atom_site_fract_y
_atom_site_fract_z
Si Si1 0.820675 0.311305 0.106673
Si Si2 0.153203 0.149077 0.146966
Si Si3 0.113728 0.431576 0.509153
Si Si4 0.519860 0.880547 0.153849
Si Si5 0.772675 0.726585 0.662345
Si Si6 0.500000 0.245747 0.500000
O O1 0.711917 0.350928 0.067602
O O2 0.940045 0.294672 0.327315
O O3 0.886551 0.344088 0.058565
O O4 0.750000 0.250000 0.000000
O O5 0.260221 0.111711 0.336595
O O6 0.160499 0.217817 0.197228
O O7 0.000000 0.128121 0.000000
O O8 0.155443 0.500000 0.561750
O O9 0.056268 0.418838 0.312419
O O10 0.000000 0.421843 0.500000
O O11 0.634963 0.830846 0.250258
O O12 0.500000 0.911287 0.000000
O O13 0.750000 0.750000 0.500000
O O14 0.626329 0.717897 0.576182
#
# Coordination Sequence:
#
# PCOD9190942 Si02
#       6
#     8   8   8   8   8   4
#     4  11  20  33  53  83 125 160 191 233 295 363
#     4  11  22  37  60  91 120 157 203 251 304 366
#     4  11  24  45  67  84 112 163 220 263 297 348
#     4  12  22  37  59  93 123 158 201 249 309 370
#     4  11  19  33  57  86 129 164 191 236 308 380
#     4  10  20  32  50  76 122 170 202 226 272 360
#
# _framework density 18.354848
#
# number of rings (size 3 to 8) (size 9 to 14) (size 15 to 20)
#    0.000    0.909    5.455    4.909    1.273    0.727 
#    0.000    0.000    0.000    0.000    0.000    1.909 
#    0.000    0.000    0.000    0.000    0.000    0.000 
#
# Total GULP energy -122890.698534 kJ/mol
# GULP energy per Si atom -5585.940842 kJ/mol
# Density = 1.831307 g / cm^3
# Si number density = 18.354848 Si / 1000 Ang^3
#
#
#
# Elastic Constant Matrix: (Units=GPa)
#
#
# Indices 1 2 3 4 5 6 
#
# 1 138.0961 8.9635 45.4184 0.0000 1.8743 0.0000
# 2 8.9635 50.2950 14.1726 0.0000 4.4779 0.0000
# 3 45.4184 14.1726 83.7511 0.0000 -2.7431 0.0000
# 4 0.0000 0.0000 0.0000 8.4215 0.0000 -2.3861
# 5 1.8743 4.4779 -2.7431 0.0000 43.4778 0.0000
# 6 0.0000 0.0000 0.0000 -2.3861 0.0000 17.1280
#
#
#
# Elastic Compliance Matrix: (Units=1/GPa)
#
#
# Indices 1 2 3 4 5 6 
#
# 1 0.008835 -0.000167 -0.004785 0.000000 -0.000666 0.000000
# 2 -0.000167 0.021130 -0.003563 0.000000 -0.002394 0.000000
# 3 -0.004785 -0.003563 0.015188 0.000000 0.001532 0.000000
# 4 0.000000 0.000000 0.000000 0.123623 0.000000 0.017222
# 5 -0.000666 -0.002394 0.001532 0.000000 0.023372 0.000000
# 6 0.000000 0.000000 0.000000 0.017222 0.000000 0.060783
#
#
# Mechanical properties :
#
#
# Convention : Reuss Voigt Hill
#
# Bulk Modulus (GPa) = 35.55897 45.47236 40.51567
# Shear Modulus (GPa) = 17.89964 27.37798 22.63881
#
# Velocity S-wave (km/s) = 3.12621 3.86631 3.51578
# Velocity P-wave (km/s) = 5.69614 6.69021 6.21309
#
# Compressibility (1/GPa) = 0.02812230
#
# Stress axis : x y z
#
# Youngs Moduli (GPa) = 113.18822 47.32670 65.84119
#
# Poissons Ratio (x) = 0.00790 0.31503
# Poissons Ratio (y) = 0.01890 0.23462
# Poissons Ratio (z) = 0.54157 0.16865
#
# Static dielectric constant tensor:
#      x y z
#    x 1.664650 0.000000 -0.021070 
#    y 0.000000 1.612880 0.000000 
#    z -0.021070 0.000000 1.669530 
# 
# From -- ./inp_files/148721.got.cif
#   From: 2010.05.17/outbox.cif.g08.bks.cpg/sg12_75_cif.got.tgz:148721.got - 2010.06.03 13:09:07.
