data_PCOD9190631
_publ_section_title
;
Structure prediction by ZEFSAII (Michael W. Deem and Ramdas Pophale) SiO2 
 PCOD9190631
Probable space group: C 2/M
;
_chemical_formula_sum "Si O2"
_cell_formula_units_Z 64
_cell_length_a 14.606419
_cell_length_b 7.475297
_cell_length_c 28.321257
_cell_angle_alpha 90.000000
_cell_angle_beta 75.665235
_cell_angle_gamma 90.000000
_cell_volume 2996.044816
_symmetry_space_group_name_H-M "C 2/M"
_symmetry_group_IT_number 12
_symmetry_cell_setting 'monoclinic'
loop_
_space_group_symop_operation_xyz
x,y,z
-x,y,-z
-x,-y,-z
x,-y,z
1/2+x,1/2+y,z
1/2-x,1/2+y,-z
1/2-x,1/2-y,-z
1/2+x,1/2-y,z
loop_
_atom_site_type_symbol
_atom_site_label
_atom_site_fract_x
_atom_site_fract_y
_atom_site_fract_z
Si Si1 0.925834 0.285629 0.863776
Si Si2 0.098816 0.280671 0.594047
Si Si3 0.691007 0.211410 0.678621
Si Si4 0.610489 0.784907 0.787154
Si Si5 0.881206 0.715453 0.613024
Si Si6 0.217800 0.213939 0.868508
Si Si7 0.466729 0.714489 0.054915
Si Si8 0.615045 0.209828 0.489541
O O1 0.923454 0.500000 0.857968
O O2 0.821813 0.215152 0.866047
O O3 0.009285 0.217198 0.818898
O O4 0.958723 0.250224 0.912978
O O5 0.101767 0.500000 0.592404
O O6 0.149704 0.215913 0.634670
O O7 0.139654 0.217321 0.538168
O O8 0.988215 0.228369 0.609849
O O9 0.644868 0.284447 0.732196
O O10 0.803505 0.234629 0.661182
O O11 0.670927 0.000000 0.680591
O O12 0.684854 0.746386 0.819208
O O13 0.603727 0.000000 0.784597
O O14 0.883583 0.500000 0.609593
O O15 0.850866 0.786340 0.564794
O O16 0.134097 0.283764 0.913063
O O17 0.220715 0.000000 0.874891
O O18 0.542114 0.500000 0.948067
O O19 0.500000 0.783984 0.000000
O O20 0.500000 0.219749 0.500000
O O21 0.639460 0.000000 0.487111
#
# Coordination Sequence:
#
# PCOD9190631 Si02
#       8
#     8   8   8   8   8   8   8   8
#     4   9  18  33  52  72  94 125 167 205 232 267
#     4   8  15  29  48  67  90 122 154 184 227 284
#     4  10  20  32  46  67  94 121 150 189 241 290
#     4   9  19  34  48  65  92 123 156 197 241 282
#     4   9  17  30  49  70  90 117 155 192 226 275
#     4   9  18  33  53  74  95 124 163 201 234 272
#     4   9  18  32  49  74 109 138 157 187 235 284
#     4   7  11  23  44  67  88 113 149 188 222 268
#
# _framework density 21.361497
#
# number of rings (size 3 to 8) (size 9 to 14) (size 15 to 20)
#    0.000    3.250    0.000    1.500    0.000    3.250 
#    0.000    3.125    0.000    3.375    0.000    0.000 
#    0.000    0.000    0.000    0.000    0.000    0.000 
#
# Total GULP energy -178522.915630 kJ/mol
# GULP energy per Si atom -5578.841113 kJ/mol
# Density = 2.131288 g / cm^3
# Si number density = 21.361497 Si / 1000 Ang^3
#
#
#
# Elastic Constant Matrix: (Units=GPa)
#
#
# Indices 1 2 3 4 5 6 
#
# 1 112.6571 5.4030 75.9708 0.0000 -3.8498 0.0000
# 2 5.4030 61.0480 3.2915 0.0000 -2.8181 0.0000
# 3 75.9708 3.2915 152.3979 0.0000 -17.5384 0.0000
# 4 0.0000 0.0000 0.0000 14.8454 0.0000 5.3875
# 5 -3.8498 -2.8181 -17.5384 0.0000 9.1127 0.0000
# 6 0.0000 0.0000 0.0000 5.3875 0.0000 15.1633
#
#
#
# Elastic Compliance Matrix: (Units=1/GPa)
#
#
# Indices 1 2 3 4 5 6 
#
# 1 0.014101 -0.001277 -0.008172 0.000000 -0.010165 0.000000
# 2 -0.001277 0.016744 0.001039 0.000000 0.006638 0.000000
# 3 -0.008172 0.001039 0.013169 0.000000 0.022215 0.000000
# 4 0.000000 0.000000 0.000000 0.077332 0.000000 -0.027476
# 5 -0.010165 0.006638 0.022215 0.000000 0.150251 0.000000
# 6 0.000000 0.000000 0.000000 -0.027476 0.000000 0.075711
#
#
# Mechanical properties :
#
#
# Convention : Reuss Voigt Hill
#
# Bulk Modulus (GPa) = 36.77107 55.04817 45.90962
# Shear Modulus (GPa) = 13.39793 23.92014 18.65904
#
# Velocity S-wave (km/s) = 2.50711 3.34994 2.95869
# Velocity P-wave (km/s) = 5.06280 6.38659 5.76283
#
# Compressibility (1/GPa) = 0.02719530
#
# Stress axis : x y z
#
# Youngs Moduli (GPa) = 70.91771 59.72300 75.93350
#
# Poissons Ratio (x) = 0.07624 0.62049
# Poissons Ratio (y) = 0.09054 -0.07887
# Poissons Ratio (z) = 0.57950 -0.06203
#
# Static dielectric constant tensor:
#      x y z
#    x 1.772280 0.000000 -0.019000 
#    y 0.000000 1.816590 0.000000 
#    z -0.019000 0.000000 1.767770 
# 
# From -- ./inp_files/359810.got.cif
#   From: 2010.05.17/outbox.cif.g08.bks.cpg/sg12_180_cif.got.tgz:359810.got - 2010.06.03 13:09:07.
