data_PCOD9190019
_publ_section_title
;
Structure prediction by ZEFSAII (Michael W. Deem and Ramdas Pophale) SiO2 
 PCOD9190019
Probable space group: C 2/M
;
_chemical_formula_sum "Si O2"
_cell_formula_units_Z 48
_cell_length_a 29.790471
_cell_length_b 14.806306
_cell_length_c 14.164430
_cell_angle_alpha 90.000000
_cell_angle_beta 160.331859
_cell_angle_gamma 90.000000
_cell_volume 2102.813701
_symmetry_space_group_name_H-M "C 2/M"
_symmetry_group_IT_number 12
_symmetry_cell_setting 'monoclinic'
loop_
_space_group_symop_operation_xyz
x,y,z
-x,y,-z
-x,-y,-z
x,-y,z
1/2+x,1/2+y,z
1/2-x,1/2+y,-z
1/2-x,1/2-y,-z
1/2+x,1/2-y,z
loop_
_atom_site_type_symbol
_atom_site_label
_atom_site_fract_x
_atom_site_fract_y
_atom_site_fract_z
Si Si1 0.270473 0.251655 0.231830
Si Si2 0.849537 0.602500 0.236264
Si Si3 0.595072 0.397449 0.601090
Si Si4 0.655922 0.834143 0.292120
Si Si5 0.389055 0.900296 0.005206
Si Si6 0.699828 0.094489 0.575494
O O1 0.294657 0.179362 0.197282
O O2 0.391233 0.324519 0.455676
O O3 0.146962 0.319904 0.995969
O O4 0.250454 0.187679 0.282788
O O5 0.852466 0.500000 0.283402
O O6 0.000000 0.621500 0.500000
O O7 0.740723 0.599730 0.937944
O O8 0.500000 0.369268 0.500000
O O9 0.556032 0.500000 0.496128
O O10 0.750000 0.750000 0.500000
O O11 0.667860 0.875222 0.211208
O O12 0.693743 0.901974 0.450797
O O13 0.500000 0.810190 0.000000
O O14 0.339939 0.000000 0.936987
O O15 0.546919 0.905645 0.307228
O O16 0.765293 0.000000 0.735614
#
# Coordination Sequence:
#
# PCOD9190019 Si02
#       6
#     8   8   8   8   8   8
#     4  12  22  35  62  90 118 151 201 254 308 350
#     4  10  23  41  61  87 119 160 205 251 303 364
#     4  10  23  41  59  83 120 161 200 244 308 372
#     4  10  19  39  63  90 122 164 206 243 300 362
#     4  10  22  38  61  90 123 162 205 250 298 360
#     4  10  22  38  61  90 123 161 205 253 296 357
#
# _framework density 22.826559
#
# number of rings (size 3 to 8) (size 9 to 14) (size 15 to 20)
#    0.000    1.667    1.667    2.500    4.667    2.000 
#    0.000    0.000    0.000    4.000    0.000    0.000 
#    0.000    0.000    0.000    0.000    0.000    0.000 
#
# Total GULP energy -133922.429784 kJ/mol
# GULP energy per Si atom -5580.101241 kJ/mol
# Density = 2.277460 g / cm^3
# Si number density = 22.826559 Si / 1000 Ang^3
#
#
#
# Elastic Constant Matrix: (Units=GPa)
#
#
# Indices 1 2 3 4 5 6 
#
# 1 59.0263 31.2793 7.6223 0.0000 4.5212 0.0000
# 2 31.2793 174.5042 21.1146 0.0000 4.1817 0.0000
# 3 7.6223 21.1146 46.1741 0.0000 -0.0019 0.0000
# 4 0.0000 0.0000 0.0000 77.1594 0.0000 94.4323
# 5 4.5212 4.1817 -0.0019 0.0000 24.1417 0.0000
# 6 0.0000 0.0000 0.0000 94.4323 0.0000 179.7711
#
#
#
# Elastic Compliance Matrix: (Units=1/GPa)
#
#
# Indices 1 2 3 4 5 6 
#
# 1 0.019056 -0.003136 -0.001712 0.000000 -0.003026 0.000000
# 2 -0.003136 0.006609 -0.002505 0.000000 -0.000558 0.000000
# 3 -0.001712 -0.002505 0.023085 0.000000 0.000756 0.000000
# 4 0.000000 0.000000 0.000000 0.036291 0.000000 -0.019063
# 5 -0.003026 -0.000558 0.000756 0.000000 0.042085 0.000000
# 6 0.000000 0.000000 0.000000 -0.019063 0.000000 0.015577
#
#
# Mechanical properties :
#
#
# Convention : Reuss Voigt Hill
#
# Bulk Modulus (GPa) = 29.37243 44.41523 36.89383
# Shear Modulus (GPa) = 29.62840 70.86033 50.24436
#
# Velocity S-wave (km/s) = 3.60666 5.57766 4.69672
# Velocity P-wave (km/s) = 5.49905 7.80899 6.75351
#
# Compressibility (1/GPa) = 0.03404553
#
# Stress axis : x y z
#
# Youngs Moduli (GPa) = 52.47601 151.30715 43.31811
#
# Poissons Ratio (x) = 0.47452 0.07415
# Poissons Ratio (y) = 0.16457 0.10849
# Poissons Ratio (z) = 0.08983 0.37895
#
# Static dielectric constant tensor:
#      x y z
#    x 1.924330 0.000000 -0.012010 
#    y 0.000000 1.922210 0.000000 
#    z -0.012010 0.000000 1.836350 
# 
# From -- ./inp_files/204301.got.cif
#   From: 2010.05.17/outbox.cif.g08.bks.cpg/sg12_103_cif.got.tgz:204301.got - 2010.06.03 13:09:07.
