data_PCOD9190704
_publ_section_title
;
Structure prediction by ZEFSAII (Michael W. Deem and Ramdas Pophale) SiO2 
 PCOD9190704
Probable space group: C 2/M
;
_chemical_formula_sum "Si O2"
_cell_formula_units_Z 56
_cell_length_a 24.882575
_cell_length_b 7.183128
_cell_length_c 19.118760
_cell_angle_alpha 90.000000
_cell_angle_beta 140.305153
_cell_angle_gamma 90.000000
_cell_volume 2182.552126
_symmetry_space_group_name_H-M "C 2/M"
_symmetry_group_IT_number 12
_symmetry_cell_setting 'monoclinic'
loop_
_space_group_symop_operation_xyz
x,y,z
-x,y,-z
-x,-y,-z
x,-y,z
1/2+x,1/2+y,z
1/2-x,1/2+y,-z
1/2-x,1/2-y,-z
1/2+x,1/2-y,z
loop_
_atom_site_type_symbol
_atom_site_label
_atom_site_fract_x
_atom_site_fract_y
_atom_site_fract_z
Si Si1 0.095141 0.774800 0.084602
Si Si2 0.177570 0.225299 0.312456
Si Si3 0.328877 0.773440 0.381839
Si Si4 0.000073 0.287561 0.394280
Si Si5 0.145913 0.774972 0.979436
Si Si6 0.471572 0.274870 0.734166
Si Si7 0.311332 0.226327 0.206159
O O1 0.141009 0.719234 0.200652
O O2 0.100296 0.000000 0.089037
O O3 0.123138 0.720119 0.036108
O O4 0.000000 0.719435 0.000000
O O5 0.274155 0.284446 0.395055
O O6 0.109183 0.287747 0.300973
O O7 0.179051 0.000000 0.320193
O O8 0.425400 0.709342 0.483393
O O9 0.292299 0.724569 0.268501
O O10 0.329676 0.000000 0.383797
O O11 0.986590 0.500000 0.404318
O O12 0.906803 0.207659 0.292385
O O13 0.038054 0.285312 0.354783
O O14 0.065197 0.712140 0.853627
O O15 0.146263 0.000000 0.973112
O O16 0.244273 0.713637 0.079604
O O17 0.472550 0.500000 0.739315
O O18 0.309564 0.000000 0.201296
#
# Coordination Sequence:
#
# PCOD9190704 Si02
#       7
#     8   8   8   8   8   8   8
#     4   9  12  18  36  65  97 117 136 186 250 283
#     4   9  15  24  43  71  97 117 146 194 244 278
#     4   9  16  28  48  71  93 118 154 202 244 270
#     4  10  21  34  47  67  97 131 162 188 222 276
#     4   9  15  24  43  71  97 117 146 194 244 278
#     4  10  20  32  47  71 100 127 154 186 230 285
#     4   9  16  28  48  71  93 118 154 202 244 270
#
# _framework density 25.658035000000002
#
# number of rings (size 3 to 8) (size 9 to 14) (size 15 to 20)
#    0.000    2.714    2.857    0.429    0.000    2.857 
#    0.000    0.000    0.000    1.714    0.000    2.000 
#    0.000    0.000    0.000    0.000    0.000    0.000 
#
# Total GULP energy -156221.518852 kJ/mol
# GULP energy per Si atom -5579.339959 kJ/mol
# Density = 2.559964 g / cm^3
# Si number density = 25.658035 Si / 1000 Ang^3
#
#
#
# Elastic Constant Matrix: (Units=GPa)
#
#
# Indices 1 2 3 4 5 6 
#
# 1 82.3021 -4.5069 43.1631 0.0000 15.2064 0.0000
# 2 -4.5069 133.1951 -2.6886 0.0000 4.6911 0.0000
# 3 43.1631 -2.6886 99.2585 0.0000 21.8972 0.0000
# 4 0.0000 0.0000 0.0000 -21.5357 0.0000 -10.9254
# 5 15.2064 4.6911 21.8972 0.0000 47.4545 0.0000
# 6 0.0000 0.0000 0.0000 -10.9254 0.0000 -18.3253
#
#
#
# Elastic Compliance Matrix: (Units=1/GPa)
#
#
# Indices 1 2 3 4 5 6 
#
# 1 0.015961 0.000487 -0.006445 0.000000 -0.002189 0.000000
# 2 0.000487 0.007564 0.000214 0.000000 -0.001003 0.000000
# 3 -0.006445 0.000214 0.013841 0.000000 -0.004343 0.000000
# 4 0.000000 0.000000 0.000000 -0.066568 0.000000 0.039688
# 5 -0.002189 -0.001003 -0.004343 0.000000 0.023877 0.000000
# 6 0.000000 0.000000 0.000000 0.039688 0.000000 -0.078231
#
#
# Mechanical properties :
#
#
# Convention : Reuss Voigt Hill
#
# Bulk Modulus (GPa) = 38.64056 42.96566 40.80311
# Shear Modulus (GPa) = -78.81205 20.10456 -29.35375
#
# Velocity S-wave (km/s) = -5.54824 2.80225 -3.38603
# Velocity P-wave (km/s) = 5.09426 5.22034 0.80638
#
# Compressibility (1/GPa) = 0.02587954
#
# Stress axis : x y z
#
# Youngs Moduli (GPa) = 62.65100 132.20685 72.24839
#
# Poissons Ratio (x) = -0.06440 0.46563
# Poissons Ratio (y) = -0.03052 -0.01548
# Poissons Ratio (z) = 0.40377 -0.02833
#
# Static dielectric constant tensor:
#      x y z
#    x 2.046400 0.000000 0.098540 
#    y 0.000000 2.015090 0.000000 
#    z 0.098540 0.000000 2.001570 
# 
# From -- ./inp_files/289173.got.cif
#   From: 2010.05.17/outbox.cif.g08.bks.cpg/sg12_145_cif.got.tgz:289173.got - 2010.06.03 13:09:07.
