data_PCOD9190847
_publ_section_title
;
Structure prediction by ZEFSAII (Michael W. Deem and Ramdas Pophale) SiO2 
 PCOD9190847
Probable space group: C 2/M
;
_chemical_formula_sum "Si O2"
_cell_formula_units_Z 64
_cell_length_a 26.676392
_cell_length_b 7.318472
_cell_length_c 18.800670
_cell_angle_alpha 90.000000
_cell_angle_beta 50.929684
_cell_angle_gamma 90.000000
_cell_volume 2849.648421
_symmetry_space_group_name_H-M "C 2/M"
_symmetry_group_IT_number 12
_symmetry_cell_setting 'monoclinic'
loop_
_space_group_symop_operation_xyz
x,y,z
-x,y,-z
-x,-y,-z
x,-y,z
1/2+x,1/2+y,z
1/2-x,1/2+y,-z
1/2-x,1/2-y,-z
1/2+x,1/2-y,z
loop_
_atom_site_type_symbol
_atom_site_label
_atom_site_fract_x
_atom_site_fract_y
_atom_site_fract_z
Si Si1 0.478014 0.277612 0.440618
Si Si2 0.156047 0.277089 0.897375
Si Si3 0.337484 0.277425 0.597420
Si Si4 0.898136 0.277239 0.208730
Si Si5 0.777794 0.282470 0.397415
Si Si6 0.042806 0.287436 0.100525
Si Si7 0.197532 0.777656 0.213263
Si Si8 0.921374 0.779196 0.769592
O O1 0.500000 0.222327 0.500000
O O2 0.479982 0.500000 0.438112
O O3 0.403602 0.220699 0.500531
O O4 0.525620 0.216950 0.335719
O O5 0.158204 0.500000 0.896533
O O6 0.134551 0.226365 0.836960
O O7 0.228212 0.216646 0.853287
O O8 0.101133 0.212496 0.000896
O O9 0.337115 0.500000 0.597272
O O10 0.274361 0.213069 0.612675
O O11 0.333837 0.224237 0.683091
O O12 0.900955 0.500000 0.207849
O O13 0.849496 0.216212 0.314607
O O14 0.971343 0.210617 0.150849
O O15 0.780150 0.500000 0.385650
O O16 0.750000 0.250000 0.500000
O O17 0.038709 0.500000 0.083278
O O18 0.060525 0.277212 0.167438
O O19 0.149376 0.719062 0.193878
O O20 0.198480 0.000000 0.211243
O O21 0.921749 0.000000 0.768288
#
# Coordination Sequence:
#
# PCOD9190847 Si02
#       8
#     8   8   8   8   8   8   8   8
#     4   9  15  25  44  70  95 120 155 195 231 273
#     4   9  16  30  53  75  92 121 170 217 247 278
#     4   9  15  26  45  70  96 122 157 201 241 277
#     4   9  17  32  52  74  98 127 167 209 243 282
#     4  10  20  32  49  74 102 129 157 196 246 294
#     4  10  21  34  50  73 101 131 163 203 249 294
#     4   9  15  27  49  76  99 121 162 214 249 277
#     4  10  20  32  49  75 104 130 159 201 250 296
#
# _framework density 22.458911000000001
#
# number of rings (size 3 to 8) (size 9 to 14) (size 15 to 20)
#    0.000    2.625    2.500    0.375    1.750    2.000 
#    0.000    0.000    0.000    3.375    0.000    0.000 
#    0.000    0.000    0.000    0.000    0.000    0.000 
#
# Total GULP energy -178768.701082 kJ/mol
# GULP energy per Si atom -5586.521909 kJ/mol
# Density = 2.240779 g / cm^3
# Si number density = 22.458911 Si / 1000 Ang^3
#
#
#
# Elastic Constant Matrix: (Units=GPa)
#
#
# Indices 1 2 3 4 5 6 
#
# 1 113.6017 -3.6913 67.2372 -0.0072 -42.1287 0.0004
# 2 -3.6913 87.9778 -1.8001 -0.0052 -7.7314 -0.0022
# 3 67.2372 -1.8001 177.0808 -0.0178 -34.0444 -0.0037
# 4 -0.0072 -0.0052 -0.0178 -0.0294 0.0042 12.5653
# 5 -42.1287 -7.7314 -34.0444 0.0042 40.2994 0.0030
# 6 0.0004 -0.0022 -0.0037 12.5653 0.0030 -3.3718
#
#
#
# Elastic Compliance Matrix: (Units=1/GPa)
#
#
# Indices 1 2 3 4 5 6 
#
# 1 0.016221 0.001885 -0.003355 -0.000005 0.014485 0.000001
# 2 0.001885 0.011843 0.000263 0.000002 0.004465 0.000005
# 3 -0.003355 0.000263 0.007473 0.000004 0.002856 0.000008
# 4 -0.000005 0.000002 0.000004 0.021369 -0.000009 0.079635
# 5 0.014485 0.004465 0.002856 -0.000009 0.043226 0.000000
# 6 0.000001 0.000005 0.000008 0.079635 0.000000 0.000187
#
#
# Mechanical properties :
#
#
# Convention : Reuss Voigt Hill
#
# Bulk Modulus (GPa) = 30.19053 55.79464 42.99258
# Shear Modulus (GPa) = 43.94643 28.50728 36.22685
#
# Velocity S-wave (km/s) = 4.42831 3.56660 4.02061
# Velocity P-wave (km/s) = 6.29431 6.46976 6.38264
#
# Compressibility (1/GPa) = 0.03312297
#
# Stress axis : x y z
#
# Youngs Moduli (GPa) = 61.64659 84.43567 133.81747
#
# Poissons Ratio (x) = -0.15915 0.44900
# Poissons Ratio (y) = -0.11620 -0.03521
# Poissons Ratio (z) = 0.20684 -0.02221
#
# Static dielectric constant tensor:
#      x y z
#    x 1.788840 0.000000 -0.030380 
#    y 0.000000 1.890930 0.000000 
#    z -0.030380 0.000000 1.804210 
# 
# From -- ./inp_files/289083.got.cif
#   From: 2010.05.17/outbox.cif.g08.bks.cpg/sg12_145_cif.got.tgz:289083.got - 2010.06.03 13:09:07.
