data_PCOD9190858
_publ_section_title
;
Structure prediction by ZEFSAII (Michael W. Deem and Ramdas Pophale) SiO2 
 PCOD9190858
Probable space group: C 2/M
;
_chemical_formula_sum "Si O2"
_cell_formula_units_Z 64
_cell_length_a 16.236693
_cell_length_b 23.555014
_cell_length_c 17.867189
_cell_angle_alpha 90.000000
_cell_angle_beta 146.695734
_cell_angle_gamma 90.000000
_cell_volume 3752.120647
_symmetry_space_group_name_H-M "C 2/M"
_symmetry_group_IT_number 12
_symmetry_cell_setting 'monoclinic'
loop_
_space_group_symop_operation_xyz
x,y,z
-x,y,-z
-x,-y,-z
x,-y,z
1/2+x,1/2+y,z
1/2-x,1/2+y,-z
1/2-x,1/2-y,-z
1/2+x,1/2-y,z
loop_
_atom_site_type_symbol
_atom_site_label
_atom_site_fract_x
_atom_site_fract_y
_atom_site_fract_z
Si Si1 0.131052 0.242686 0.784312
Si Si2 0.063721 0.064961 0.728021
Si Si3 0.157237 0.307928 0.443032
Si Si4 0.118350 0.846476 0.648311
Si Si5 0.402380 0.154674 0.767701
Si Si6 0.078476 0.435175 0.980967
Si Si7 0.534643 0.728951 0.938143
Si Si8 0.562957 0.655276 0.261581
O O1 0.169936 0.200958 0.745816
O O2 0.012224 0.289784 0.666661
O O3 0.038242 0.202756 0.771111
O O4 0.285053 0.266749 0.933764
O O5 0.039085 0.103824 0.635816
O O6 0.993264 0.096289 0.746189
O O7 0.014507 0.000000 0.681971
O O8 0.243659 0.065927 0.873595
O O9 0.250000 0.250000 0.500000
O O10 0.145791 0.339424 0.354741
O O11 0.262628 0.338744 0.583016
O O12 0.261091 0.865275 0.709482
O O13 0.000000 0.821540 0.500000
O O14 0.530387 0.108947 0.881335
O O15 0.459527 0.215711 0.841762
O O16 0.031682 0.500000 0.928910
O O17 0.000000 0.418602 0.000000
O O18 0.468704 0.673231 0.847332
O O19 0.500000 0.729778 0.000000
#
# Coordination Sequence:
#
# PCOD9190858 Si02
#       8
#     8   8   8   8   8   8   8   8
#     4  10  20  32  49  74 106 145 177 211 265 315
#     4  10  21  37  55  75 105 145 188 225 266 310
#     4  10  20  35  50  71 106 148 177 220 267 320
#     4  11  21  31  49  76 111 150 183 214 259 320
#     4  12  19  32  52  74 114 146 184 219 265 311
#     4  10  20  34  50  75 110 147 185 225 258 300
#     4  12  22  32  52  83 107 135 177 227 271 329
#     4  10  21  37  52  76 105 137 185 222 270 322
#
# _framework density 17.057020999999999
#
# number of rings (size 3 to 8) (size 9 to 14) (size 15 to 20)
#    0.000    1.375    5.000    4.500    1.750    0.250 
#    0.000    1.875    0.000    0.375    0.000    0.000 
#    0.000    1.000    0.000    0.000    0.000    0.000 
#
# Total GULP energy -178475.622145 kJ/mol
# GULP energy per Si atom -5577.363192 kJ/mol
# Density = 1.701820 g / cm^3
# Si number density = 17.057021 Si / 1000 Ang^3
#
#
#
# Elastic Constant Matrix: (Units=GPa)
#
#
# Indices 1 2 3 4 5 6 
#
# 1 27.1202 14.1491 16.3349 0.0000 -2.2501 0.0000
# 2 14.1491 61.7768 17.4534 0.0000 -11.4548 0.0000
# 3 16.3349 17.4534 81.8811 0.0000 -6.3609 0.0000
# 4 0.0000 0.0000 0.0000 20.4653 0.0000 3.7357
# 5 -2.2501 -11.4548 -6.3609 0.0000 25.9970 0.0000
# 6 0.0000 0.0000 0.0000 3.7357 0.0000 17.2351
#
#
#
# Elastic Compliance Matrix: (Units=1/GPa)
#
#
# Indices 1 2 3 4 5 6 
#
# 1 0.045726 -0.008695 -0.007400 0.000000 -0.001684 0.000000
# 2 -0.008695 0.020152 -0.001967 0.000000 0.007646 0.000000
# 3 -0.007400 -0.001967 0.014262 0.000000 0.001982 0.000000
# 4 0.000000 0.000000 0.000000 0.050876 0.000000 -0.011027
# 5 -0.001684 0.007646 0.001982 0.000000 0.042174 0.000000
# 6 0.000000 0.000000 0.000000 -0.011027 0.000000 0.060411
#
#
# Mechanical properties :
#
#
# Convention : Reuss Voigt Hill
#
# Bulk Modulus (GPa) = 22.71798 29.62810 26.17304
# Shear Modulus (GPa) = 17.58105 20.92888 19.25497
#
# Velocity S-wave (km/s) = 3.21397 3.50665 3.36349
# Velocity P-wave (km/s) = 5.20774 5.81405 5.51923
#
# Compressibility (1/GPa) = 0.04401799
#
# Stress axis : x y z
#
# Youngs Moduli (GPa) = 21.86932 49.62275 70.11475
#
# Poissons Ratio (x) = 0.43145 0.51883
# Poissons Ratio (y) = 0.19014 0.13792
# Poissons Ratio (z) = 0.16183 0.09761
#
# Static dielectric constant tensor:
#      x y z
#    x 1.603770 0.000000 0.000690 
#    y 0.000000 1.585450 0.000000 
#    z 0.000690 0.000000 1.651700 
# 
# From -- ./inp_files/279387.got.cif
#   From: 2010.05.17/outbox.cif.g08.bks.cpg/sg12_140_cif.got.tgz:279387.got - 2010.06.03 13:09:07.
