data_PCOD9190452
_publ_section_title
;
Structure prediction by ZEFSAII (Michael W. Deem and Ramdas Pophale) SiO2 
 PCOD9190452
Probable space group: C 2/M
;
_chemical_formula_sum "Si O2"
_cell_formula_units_Z 64
_cell_length_a 25.865539
_cell_length_b 8.583237
_cell_length_c 17.021168
_cell_angle_alpha 90.000000
_cell_angle_beta 74.673213
_cell_angle_gamma 90.000000
_cell_volume 3644.470877
_symmetry_space_group_name_H-M "C 2/M"
_symmetry_group_IT_number 12
_symmetry_cell_setting 'monoclinic'
loop_
_space_group_symop_operation_xyz
x,y,z
-x,y,-z
-x,-y,-z
x,-y,z
1/2+x,1/2+y,z
1/2-x,1/2+y,-z
1/2-x,1/2-y,-z
1/2+x,1/2-y,z
loop_
_atom_site_type_symbol
_atom_site_label
_atom_site_fract_x
_atom_site_fract_y
_atom_site_fract_z
Si Si1 0.721259 0.813551 0.821711
Si Si2 0.443932 0.311363 0.349560
Si Si3 0.563729 0.184782 0.308604
Si Si4 0.879366 0.187845 0.222525
Si Si5 0.169624 0.688420 0.176942
Si Si6 0.564960 0.678540 0.474433
Si Si7 0.939205 0.187875 0.038359
Si Si8 0.161837 0.312727 0.003513
O O1 0.678952 0.754952 0.774216
O O2 0.781184 0.750296 0.791535
O O3 0.721598 0.000000 0.821727
O O4 0.697943 0.756671 0.915951
O O5 0.444263 0.500000 0.351751
O O6 0.505650 0.259183 0.315277
O O7 0.407027 0.260054 0.292114
O O8 0.422275 0.258890 0.443758
O O9 0.611717 0.238543 0.232772
O O10 0.580200 0.225757 0.391501
O O11 0.557925 0.000000 0.303061
O O12 0.917451 0.230983 0.133520
O O13 0.875721 0.000000 0.225539
O O14 0.170707 0.500000 0.177403
O O15 0.177219 0.743460 0.083899
O O16 0.500000 0.673869 0.500000
O O17 0.584024 0.500000 0.458700
O O18 0.936766 0.000000 0.032874
O O19 0.898281 0.260949 0.992900
O O20 0.000000 0.237626 0.000000
O O21 0.164517 0.500000 0.002836
#
# Coordination Sequence:
#
# PCOD9190452 Si02
#       8
#     8   8   8   8   8   8   8   8
#     4  10  20  34  52  73  94 124 169 210 244 282
#     4   9  18  32  52  75  99 131 165 194 234 292
#     4  10  20  31  47  75 104 129 158 196 246 292
#     4   9  18  33  51  70  97 131 162 197 241 288
#     4  10  21  35  50  70  99 131 163 202 247 293
#     4   8  15  30  49  70  98 129 160 194 236 289
#     4   9  18  30  45  69  99 129 161 197 237 283
#     4   9  19  34  49  68  94 127 166 203 242 286
#
# _framework density 17.560848
#
# number of rings (size 3 to 8) (size 9 to 14) (size 15 to 20)
#    0.000    2.750    0.000    1.875    1.750    5.000 
#    0.000    0.000    0.000    0.750    0.000    0.000 
#    0.000    0.000    0.000    0.000    0.000    0.000 
#
# Total GULP energy -178360.571705 kJ/mol
# GULP energy per Si atom -5573.767866 kJ/mol
# Density = 1.752088 g / cm^3
# Si number density = 17.560848 Si / 1000 Ang^3
#
#
#
# Elastic Constant Matrix: (Units=GPa)
#
#
# Indices 1 2 3 4 5 6 
#
# 1 82.0753 6.2161 39.8855 0.0000 21.7735 0.0000
# 2 6.2161 2.7753 10.6667 0.0000 3.2872 0.0000
# 3 39.8855 10.6667 72.3039 0.0000 28.7083 0.0000
# 4 0.0000 0.0000 0.0000 19.7979 0.0000 2.1416
# 5 21.7735 3.2872 28.7083 0.0000 26.1567 0.0000
# 6 0.0000 0.0000 0.0000 2.1416 0.0000 23.8836
#
#
#
# Elastic Compliance Matrix: (Units=1/GPa)
#
#
# Indices 1 2 3 4 5 6 
#
# 1 0.017471 -0.010925 -0.004957 0.000000 -0.007730 0.000000
# 2 -0.010925 0.883428 -0.148580 0.000000 0.061145 0.000000
# 3 -0.004957 -0.148580 0.052164 0.000000 -0.034455 0.000000
# 4 0.000000 0.000000 0.000000 0.051005 0.000000 -0.004573
# 5 -0.007730 0.061145 -0.034455 0.000000 0.074797 0.000000
# 6 0.000000 0.000000 0.000000 -0.004573 0.000000 0.042280
#
#
# Mechanical properties :
#
#
# Convention : Reuss Voigt Hill
#
# Bulk Modulus (GPa) = 1.60220 30.07679 15.83950
# Shear Modulus (GPa) = 3.01547 20.66008 11.83777
#
# Velocity S-wave (km/s) = 1.31183 3.43371 2.59916
# Velocity P-wave (km/s) = 1.79133 5.73453 4.24816
#
# Compressibility (1/GPa) = 0.62414032
#
# Stress axis : x y z
#
# Youngs Moduli (GPa) = 57.23863 1.13195 19.17014
#
# Poissons Ratio (x) = 0.01237 0.09502
# Poissons Ratio (y) = 0.62532 2.84830
# Poissons Ratio (z) = 0.28371 0.16819
#
# Static dielectric constant tensor:
#      x y z
#    x 1.576190 0.000000 0.006640 
#    y 0.000000 1.594550 0.000000 
#    z 0.006640 0.000000 1.624660 
# 
# From -- ./inp_files/243911.got.cif
#   From: 2010.05.17/outbox.cif.g08.bks.cpg/sg12_122_cif.got.tgz:243911.got - 2010.06.03 13:09:07.
