data_PCOD9190171
_publ_section_title
;
Structure prediction by ZEFSAII (Michael W. Deem and Ramdas Pophale) SiO2 
 PCOD9190171
Probable space group: C 2/M
;
_chemical_formula_sum "Si O2"
_cell_formula_units_Z 36
_cell_length_a 11.650885
_cell_length_b 15.170937
_cell_length_c 12.116886
_cell_angle_alpha 90.000000
_cell_angle_beta 73.922836
_cell_angle_gamma 90.000000
_cell_volume 2057.954827
_symmetry_space_group_name_H-M "C 2/M"
_symmetry_group_IT_number 12
_symmetry_cell_setting 'monoclinic'
loop_
_space_group_symop_operation_xyz
x,y,z
-x,y,-z
-x,-y,-z
x,-y,z
1/2+x,1/2+y,z
1/2-x,1/2+y,-z
1/2-x,1/2-y,-z
1/2+x,1/2-y,z
loop_
_atom_site_type_symbol
_atom_site_label
_atom_site_fract_x
_atom_site_fract_y
_atom_site_fract_z
Si Si1 0.721744 0.500000 0.747326
Si Si2 0.132971 0.500000 0.513870
Si Si3 0.956338 0.000000 0.884499
Si Si4 0.744028 0.642184 0.113675
Si Si5 0.911587 0.597224 0.268386
Si Si6 0.841144 0.342024 0.853216
O O1 0.776747 0.500000 0.610554
O O2 0.578806 0.500000 0.783998
O O3 0.769569 0.413544 0.799630
O O4 0.140415 0.583736 0.594941
O O5 0.000000 0.500000 0.500000
O O6 0.873314 0.084420 0.881035
O O7 0.000000 0.000000 0.000000
O O8 0.809949 0.611866 0.206338
O O9 0.714455 0.744928 0.136281
O O10 0.829810 0.630462 0.984562
O O11 0.967096 0.500000 0.231552
O O12 0.022320 0.661643 0.224051
#
# Coordination Sequence:
#
# PCOD9190171 Si02
#       6
#     4   4   4   8   8   8
#     4  12  22  40  62  88 118 164 200 242 310 350
#     4  10  19  40  67  86 111 159 217 257 287 348
#     4  12  23  38  61  84 129 165 185 237 317 378
#     4  11  24  38  57  97 127 154 199 245 314 361
#     4  10  21  39  66  84 116 159 207 254 291 350
#     4  11  22  36  64  90 124 155 198 256 300 364
#
# _framework density 17.493095
#
# number of rings (size 3 to 8) (size 9 to 14) (size 15 to 20)
#    0.667    0.444    6.667    0.667    3.111    0.889 
#    0.000    3.333    4.889    0.000    0.000    0.000 
#    0.000    0.000    0.000    0.000    0.000    0.000 
#
# Total GULP energy -100348.883280 kJ/mol
# GULP energy per Si atom -5574.937960 kJ/mol
# Density = 1.745328 g / cm^3
# Si number density = 17.493095 Si / 1000 Ang^3
#
#
#
# Elastic Constant Matrix: (Units=GPa)
#
#
# Indices 1 2 3 4 5 6 
#
# 1 46.0690 11.3698 33.6985 0.0000 -2.3037 0.0000
# 2 11.3698 72.5512 34.4618 0.0000 1.8685 0.0000
# 3 33.6985 34.4618 150.9833 0.0000 -2.2887 0.0000
# 4 0.0000 0.0000 0.0000 3.0461 0.0000 -20.5247
# 5 -2.3037 1.8685 -2.2887 0.0000 32.6880 0.0000
# 6 0.0000 0.0000 0.0000 -20.5247 0.0000 -9.8526
#
#
#
# Elastic Compliance Matrix: (Units=1/GPa)
#
#
# Indices 1 2 3 4 5 6 
#
# 1 0.026161 -0.001545 -0.005463 0.000000 0.001550 0.000000
# 2 -0.001545 0.015593 -0.003233 0.000000 -0.001227 0.000000
# 3 -0.005463 -0.003233 0.008586 0.000000 0.000401 0.000000
# 4 0.000000 0.000000 0.000000 0.021833 0.000000 -0.045482
# 5 0.001550 -0.001227 0.000401 0.000000 0.030800 0.000000
# 6 0.000000 0.000000 0.000000 -0.045482 0.000000 -0.006750
#
#
# Mechanical properties :
#
#
# Convention : Reuss Voigt Hill
#
# Bulk Modulus (GPa) = 33.49046 47.62930 40.55988
# Shear Modulus (GPa) = 39.47665 17.84787 28.66226
#
# Velocity S-wave (km/s) = 4.75563 3.19765 4.05222
# Velocity P-wave (km/s) = 7.02433 6.39686 6.71793
#
# Compressibility (1/GPa) = 0.02985925
#
# Stress axis : x y z
#
# Youngs Moduli (GPa) = 38.22438 64.13287 116.46192
#
# Poissons Ratio (x) = 0.09908 0.63622
# Poissons Ratio (y) = 0.05905 0.37650
# Poissons Ratio (z) = 0.20882 0.20733
#
# Static dielectric constant tensor:
#      x y z
#    x 1.569990 0.000000 0.001170 
#    y 0.000000 1.600720 0.000000 
#    z 0.001170 0.000000 1.599100 
# 
# From -- ./inp_files/129066.got.cif
#   From: 2010.05.17/outbox.cif.g08.bks.cpg/sg12_65_cif.got.tgz:129066.got - 2010.06.03 13:09:07.
