data_PCOD9190459
_publ_section_title
;
Structure prediction by ZEFSAII (Michael W. Deem and Ramdas Pophale) SiO2 
 PCOD9190459
Probable space group: C 2/M
;
_chemical_formula_sum "Si O2"
_cell_formula_units_Z 52
_cell_length_a 6.937808
_cell_length_b 19.356396
_cell_length_c 20.135471
_cell_angle_alpha 90.000000
_cell_angle_beta 45.662238
_cell_angle_gamma 90.000000
_cell_volume 1933.996442
_symmetry_space_group_name_H-M "C 2/M"
_symmetry_group_IT_number 12
_symmetry_cell_setting 'monoclinic'
loop_
_space_group_symop_operation_xyz
x,y,z
-x,y,-z
-x,-y,-z
x,-y,z
1/2+x,1/2+y,z
1/2-x,1/2+y,-z
1/2-x,1/2-y,-z
1/2+x,1/2-y,z
loop_
_atom_site_type_symbol
_atom_site_label
_atom_site_fract_x
_atom_site_fract_y
_atom_site_fract_z
Si Si1 0.280140 0.076373 0.475464
Si Si2 0.566926 0.806770 0.653652
Si Si3 0.119833 0.354635 0.858285
Si Si4 0.935670 0.500000 0.927620
Si Si5 0.028003 0.845077 0.646608
Si Si6 0.676634 0.652607 0.847548
Si Si7 0.362837 0.500000 0.138132
Si Si8 0.750000 0.750000 0.000000
O O1 0.443603 0.139371 0.403576
O O2 0.000000 0.075554 0.500000
O O3 0.200338 0.095751 0.569956
O O4 0.397324 0.000000 0.440648
O O5 0.773392 0.836565 0.657872
O O6 0.660543 0.730654 0.611722
O O7 0.286798 0.801042 0.760843
O O8 0.089101 0.428338 0.900983
O O9 0.880838 0.346565 0.860703
O O10 0.054500 0.287431 0.918374
O O11 0.395738 0.356241 0.750149
O O12 0.854149 0.500000 0.869567
O O13 0.656307 0.500000 0.034007
O O14 0.675726 0.574301 0.819775
O O15 0.393042 0.676432 0.945445
#
# Coordination Sequence:
#
# PCOD9190459 Si02
#       8
#     8   8   8   4   8   8   4   4
#     4   9  19  34  55  83 110 135 172 224 272 311
#     4  10  20  35  54  79 107 139 176 215 264 317
#     4  10  20  31  48  74 102 133 171 216 263 308
#     4   9  16  28  44  65  95 127 162 212 261 300
#     4  10  20  35  54  79 107 139 176 215 264 317
#     4  10  20  31  48  74 102 133 171 216 263 308
#     4   9  16  28  44  65  95 127 162 212 261 300
#     4  12  18  30  46  72 106 130 170 206 266 318
#
# _framework density 26.887326999999999
#
# number of rings (size 3 to 8) (size 9 to 14) (size 15 to 20)
#    0.000    2.154    3.077    0.923    2.154    0.000 
#    0.000    0.000    0.000    1.846    0.000   12.923 
#    0.000    0.000    0.000    0.000    0.000    0.000 
#
# Total GULP energy -145206.951584 kJ/mol
# GULP energy per Si atom -5584.882753 kJ/mol
# Density = 2.682613 g / cm^3
# Si number density = 26.887327 Si / 1000 Ang^3
#
#
#
# Elastic Constant Matrix: (Units=GPa)
#
#
# Indices 1 2 3 4 5 6 
#
# 1 104.6745 -7.0753 -0.2645 0.0000 0.8514 -0.0001
# 2 -7.0753 176.7012 43.9863 0.0000 15.4672 0.0000
# 3 -0.2645 43.9863 109.7007 0.0000 0.6117 0.0000
# 4 0.0000 0.0000 0.0000 46.7202 0.0000 -0.3743
# 5 0.8514 15.4672 0.6117 0.0000 24.3514 0.0001
# 6 -0.0001 0.0000 0.0000 -0.3743 0.0001 -26.4920
#
#
#
# Elastic Compliance Matrix: (Units=1/GPa)
#
#
# Indices 1 2 3 4 5 6 
#
# 1 0.009591 0.000481 -0.000166 0.000000 -0.000637 0.000000
# 2 0.000481 0.006711 -0.002666 0.000000 -0.004212 0.000000
# 3 -0.000166 -0.002666 0.010176 0.000000 0.001444 0.000000
# 4 0.000000 0.000000 0.000000 0.021402 0.000000 -0.000302
# 5 -0.000637 -0.004212 0.001444 0.000000 0.043727 0.000000
# 6 0.000000 0.000000 0.000000 -0.000302 0.000000 -0.037743
#
#
# Mechanical properties :
#
#
# Convention : Reuss Voigt Hill
#
# Bulk Modulus (GPa) = 45.92347 51.59658 48.76003
# Shear Modulus (GPa) = 75.95929 32.54458 54.25194
#
# Velocity S-wave (km/s) = 5.32093 3.48286 4.49681
# Velocity P-wave (km/s) = 7.40721 5.95024 6.71834
#
# Compressibility (1/GPa) = 0.02177536
#
# Stress axis : x y z
#
# Youngs Moduli (GPa) = 104.26757 149.00976 98.26729
#
# Poissons Ratio (x) = -0.07170 0.01634
# Poissons Ratio (y) = -0.05017 0.26200
# Poissons Ratio (z) = 0.01733 0.39729
#
# Static dielectric constant tensor:
#      x y z
#    x 2.296090 0.000000 0.094620 
#    y 0.000000 2.060110 0.000000 
#    z 0.094620 0.000000 2.112860 
# 
# From -- ./inp_files/374282.got.cif
#   From: 2010.05.17/outbox.cif.g08.bks.cpg/sg12_188_cif.got.tgz:374282.got - 2010.06.03 13:09:07.
