data_PCOD9190859
_publ_section_title
;
Structure prediction by ZEFSAII (Michael W. Deem and Ramdas Pophale) SiO2 
 PCOD9190859
Probable space group: C 2/M
;
_chemical_formula_sum "Si O2"
_cell_formula_units_Z 44
_cell_length_a 23.200455
_cell_length_b 18.588349
_cell_length_c 5.185319
_cell_angle_alpha 90.000000
_cell_angle_beta 69.102591
_cell_angle_gamma 90.000000
_cell_volume 2089.114490
_symmetry_space_group_name_H-M "C 2/M"
_symmetry_group_IT_number 12
_symmetry_cell_setting 'monoclinic'
loop_
_space_group_symop_operation_xyz
x,y,z
-x,y,-z
-x,-y,-z
x,-y,z
1/2+x,1/2+y,z
1/2-x,1/2+y,-z
1/2-x,1/2-y,-z
1/2+x,1/2-y,z
loop_
_atom_site_type_symbol
_atom_site_label
_atom_site_fract_x
_atom_site_fract_y
_atom_site_fract_z
Si Si1 0.000000 0.166155 0.000000
Si Si2 0.421313 0.420964 0.759148
Si Si3 0.269657 0.918679 0.129721
Si Si4 0.692907 0.384032 0.740821
Si Si5 0.929162 0.775196 0.502995
Si Si6 0.683418 0.768324 0.977248
O O1 0.019477 0.111818 0.192332
O O2 0.945381 0.219283 0.175419
O O3 0.427992 0.500000 0.640315
O O4 0.405311 0.356473 0.595451
O O5 0.369346 0.420517 0.061649
O O6 0.216376 0.911258 0.429989
O O7 0.294877 0.000000 0.102428
O O8 0.242150 0.905316 0.887247
O O9 0.312382 0.850079 0.128050
O O10 0.681746 0.297631 0.775717
O O11 0.874331 0.733025 0.730176
O O12 0.000000 0.760573 0.500000
O O13 0.750000 0.750000 0.000000
#
# Coordination Sequence:
#
# PCOD9190859 Si02
#       6
#     4   8   8   8   8   8
#     4  10  21  32  52  70 105 146 196 232 271 330
#     4  10  20  32  49  74 107 149 190 232 271 324
#     4  11  21  37  57  87 117 146 183 237 294 342
#     4  10  22  37  56  82 119 153 188 226 285 342
#     4   9  20  38  51  75 109 146 190 231 285 338
#     4   9  20  37  60  85 113 148 192 238 283 341
#
# _framework density 21.061557000000001
#
# number of rings (size 3 to 8) (size 9 to 14) (size 15 to 20)
#    0.000    2.182    0.000    2.455    7.636    4.000 
#    9.818    0.000    0.000    0.545    0.000    0.636 
#    0.000    0.000    0.000    0.000    0.000    0.000 
#
# Total GULP energy -122548.005409 kJ/mol
# GULP energy per Si atom -5570.363882 kJ/mol
# Density = 2.101362 g / cm^3
# Si number density = 21.061557 Si / 1000 Ang^3
#
#
#
# Elastic Constant Matrix: (Units=GPa)
#
#
# Indices 1 2 3 4 5 6 
#
# 1 45.6723 3.5567 7.1945 0.0000 -13.4176 0.0000
# 2 3.5567 154.3007 23.9689 0.0000 -18.5450 0.0000
# 3 7.1945 23.9689 94.7718 0.0000 -28.0110 0.0000
# 4 0.0000 0.0000 0.0000 19.2163 0.0000 -1.2665
# 5 -13.4176 -18.5450 -28.0110 0.0000 40.0834 0.0000
# 6 0.0000 0.0000 0.0000 -1.2665 0.0000 11.5836
#
#
#
# Elastic Compliance Matrix: (Units=1/GPa)
#
#
# Indices 1 2 3 4 5 6 
#
# 1 0.024343 0.000394 0.000649 0.000000 0.008784 0.000000
# 2 0.000394 0.006946 -0.001005 0.000000 0.002643 0.000000
# 3 0.000649 -0.001005 0.013464 0.000000 0.009161 0.000000
# 4 0.000000 0.000000 0.000000 0.052417 0.000000 0.005731
# 5 0.008784 0.002643 0.009161 0.000000 0.035513 0.000000
# 6 0.000000 0.000000 0.000000 0.005731 0.000000 0.086955
#
#
# Mechanical properties :
#
#
# Convention : Reuss Voigt Hill
#
# Bulk Modulus (GPa) = 22.30798 40.46502 31.38650
# Shear Modulus (GPa) = 21.32138 31.51163 26.41650
#
# Velocity S-wave (km/s) = 3.18517 3.87223 3.54538
# Velocity P-wave (km/s) = 4.91344 6.26472 5.62977
#
# Compressibility (1/GPa) = 0.04482700
#
# Stress axis : x y z
#
# Youngs Moduli (GPa) = 41.07979 143.97659 74.26994
#
# Poissons Ratio (x) = -0.05671 -0.04818
# Poissons Ratio (y) = -0.01618 0.07467
# Poissons Ratio (z) = -0.02665 0.14476
#
# Static dielectric constant tensor:
#      x y z
#    x 1.907080 0.000000 0.039700 
#    y 0.000000 1.763540 0.000000 
#    z 0.039700 0.000000 1.881570 
# 
# From -- ./inp_files/20903.got.cif
#   From: 2010.05.17/outbox.cif.g08.bks.cpg/sg12_11_cif.got.tgz:20903.got - 2010.06.03 13:09:07.
