data_PCOD9190641
_publ_section_title
;
Structure prediction by ZEFSAII (Michael W. Deem and Ramdas Pophale) SiO2 
 PCOD9190641
Probable space group: C 2/M
;
_chemical_formula_sum "Si O2"
_cell_formula_units_Z 56
_cell_length_a 19.573689
_cell_length_b 7.415322
_cell_length_c 30.975636
_cell_angle_alpha 90.000000
_cell_angle_beta 144.384631
_cell_angle_gamma 90.000000
_cell_volume 2618.185053
_symmetry_space_group_name_H-M "C 2/M"
_symmetry_group_IT_number 12
_symmetry_cell_setting 'monoclinic'
loop_
_space_group_symop_operation_xyz
x,y,z
-x,y,-z
-x,-y,-z
x,-y,z
1/2+x,1/2+y,z
1/2-x,1/2+y,-z
1/2-x,1/2-y,-z
1/2+x,1/2-y,z
loop_
_atom_site_type_symbol
_atom_site_label
_atom_site_fract_x
_atom_site_fract_y
_atom_site_fract_z
Si Si1 0.453698 0.719896 0.701757
Si Si2 0.561379 0.290656 0.989585
Si Si3 0.611692 0.715766 0.426560
Si Si4 0.022841 0.791474 0.559028
Si Si5 0.167611 0.782072 0.871136
Si Si6 0.792303 0.782048 0.697364
Si Si7 0.007366 0.220039 0.866968
O O1 0.452584 0.500000 0.701015
O O2 0.435778 0.783861 0.643879
O O3 0.575791 0.774382 0.786900
O O4 0.348903 0.774301 0.680517
O O5 0.523953 0.500000 0.968487
O O6 0.700998 0.283455 0.066495
O O7 0.500000 0.208992 0.000000
O O8 0.526461 0.213386 0.925105
O O9 0.592896 0.500000 0.416210
O O10 0.750000 0.750000 0.500000
O O11 0.546278 0.787392 0.435586
O O12 0.161933 0.785708 0.637842
O O13 0.000000 0.709305 0.500000
O O14 0.983291 0.000000 0.535839
O O15 0.110856 0.724251 0.887529
O O16 0.170683 0.000000 0.872404
O O17 0.885126 0.727115 0.781818
O O18 0.787697 0.000000 0.694869
O O19 0.009575 0.000000 0.868295
#
# Coordination Sequence:
#
# PCOD9190641 Si02
#       7
#     8   8   8   8   8   8   8
#     4   8  16  32  52  72  93 120 156 198 238 270
#     4  10  20  32  46  68 100 130 153 187 237 284
#     4  10  20  34  51  70  95 126 158 193 233 277
#     4  10  21  34  47  69 102 130 149 184 241 287
#     4   9  17  32  53  71  90 121 161 199 231 271
#     4   9  17  32  54  73  90 120 162 198 227 272
#     4   8  16  32  51  70  94 124 156 193 236 275
#
# _framework density 21.388863000000001
#
# number of rings (size 3 to 8) (size 9 to 14) (size 15 to 20)
#    0.000    2.857    0.000    3.000    0.000    2.286 
#    0.000    4.286    0.000    0.000    0.000    0.000 
#    0.000    0.000    0.000    0.000    0.000    0.000 
#
# Total GULP energy -156338.863017 kJ/mol
# GULP energy per Si atom -5583.530822 kJ/mol
# Density = 2.134018 g / cm^3
# Si number density = 21.388863 Si / 1000 Ang^3
#
#
#
# Elastic Constant Matrix: (Units=GPa)
#
#
# Indices 1 2 3 4 5 6 
#
# 1 206.1332 1.0835 131.2408 0.0002 -23.3191 -0.0008
# 2 1.0835 69.3718 -5.4148 0.0005 -11.3400 -0.0028
# 3 131.2408 -5.4148 134.6196 0.0000 -25.7097 -0.0003
# 4 0.0002 0.0005 0.0000 11.0551 0.0000 29.1433
# 5 -23.3191 -11.3400 -25.7097 0.0000 41.5937 0.0003
# 6 -0.0008 -0.0028 -0.0003 29.1433 0.0003 -62.8762
#
#
#
# Elastic Compliance Matrix: (Units=1/GPa)
#
#
# Indices 1 2 3 4 5 6 
#
# 1 0.012927 -0.001383 -0.012864 0.000000 -0.001081 0.000000
# 2 -0.001383 0.015537 0.002987 0.000000 0.005307 0.000000
# 3 -0.012864 0.002987 0.021394 0.000000 0.006826 0.000000
# 4 0.000000 0.000000 0.000000 0.040711 0.000000 0.018870
# 5 -0.001081 0.005307 0.006826 0.000000 0.029102 0.000000
# 6 0.000000 0.000000 0.000000 0.018870 0.000000 -0.007158
#
#
# Mechanical properties :
#
#
# Convention : Reuss Voigt Hill
#
# Bulk Modulus (GPa) = 36.58146 73.77151 55.17648
# Shear Modulus (GPa) = 34.68707 16.83552 25.76130
#
# Velocity S-wave (km/s) = 4.03145 2.80860 3.47425
# Velocity P-wave (km/s) = 6.22979 6.71440 6.47663
#
# Compressibility (1/GPa) = 0.02733625
#
# Stress axis : x y z
#
# Youngs Moduli (GPa) = 77.35961 64.36124 46.74309
#
# Poissons Ratio (x) = 0.08900 0.60132
# Poissons Ratio (y) = 0.10697 -0.13960
# Poissons Ratio (z) = 0.99518 -0.19222
#
# Static dielectric constant tensor:
#      x y z
#    x 1.755610 0.000000 -0.038530 
#    y 0.000000 1.804890 0.000000 
#    z -0.038530 0.000000 1.737700 
# 
# From -- ./inp_files/363252.got.cif
#   From: 2010.05.17/outbox.cif.g08.bks.cpg/sg12_182_cif.got.tgz:363252.got - 2010.06.03 13:09:07.
