data_PCOD9190948
_publ_section_title
;
Structure prediction by ZEFSAII (Michael W. Deem and Ramdas Pophale) SiO2 
 PCOD9190948
Probable space group: C 2/M
;
_chemical_formula_sum "Si O2"
_cell_formula_units_Z 56
_cell_length_a 22.905217
_cell_length_b 10.709561
_cell_length_c 13.042835
_cell_angle_alpha 90.000000
_cell_angle_beta 99.586260
_cell_angle_gamma 90.000000
_cell_volume 3154.792876
_symmetry_space_group_name_H-M "C 2/M"
_symmetry_group_IT_number 12
_symmetry_cell_setting 'monoclinic'
loop_
_space_group_symop_operation_xyz
x,y,z
-x,y,-z
-x,-y,-z
x,-y,z
1/2+x,1/2+y,z
1/2-x,1/2+y,-z
1/2-x,1/2-y,-z
1/2+x,1/2-y,z
loop_
_atom_site_type_symbol
_atom_site_label
_atom_site_fract_x
_atom_site_fract_y
_atom_site_fract_z
Si Si1 0.696385 0.348996 0.479312
Si Si2 0.201902 0.857822 0.875542
Si Si3 0.666156 0.212837 0.069034
Si Si4 0.550337 0.864698 0.928390
Si Si5 0.019280 0.850932 0.762247
Si Si6 0.381522 0.646408 0.745816
Si Si7 0.373115 0.650026 0.337501
O O1 0.711721 0.500000 0.492449
O O2 0.750000 0.250000 0.500000
O O3 0.661908 0.332786 0.362359
O O4 0.652456 0.313807 0.560192
O O5 0.272454 0.851390 0.881050
O O6 0.167851 0.799746 0.767945
O O7 0.182429 0.000000 0.874596
O O8 0.185539 0.800530 0.980027
O O9 0.639117 0.279874 0.160183
O O10 0.613229 0.135257 0.003619
O O11 0.544166 0.743163 0.855476
O O12 0.542791 0.000000 0.872536
O O13 0.500000 0.855143 0.000000
O O14 0.058997 0.824373 0.673334
O O15 0.949361 0.825845 0.734111
O O16 0.026619 0.000000 0.788902
O O17 0.379536 0.500000 0.771126
O O18 0.367695 0.500000 0.336033
#
# Coordination Sequence:
#
# PCOD9190948 Si02
#       7
#     8   8   8   8   8   8   8
#     4  10  21  39  60  84 114 146 187 231 279 333
#     4  10  20  32  50  77 106 142 186 228 272 327
#     4  11  20  33  52  76 113 148 184 225 281 331
#     4  11  22  36  53  81 118 153 188 228 280 338
#     4  10  20  36  58  83 109 146 190 232 284 331
#     4  10  21  35  56  85 111 142 188 238 278 326
#     4   9  18  34  57  81 109 142 183 232 277 327
#
# _framework density 17.750768999999998
#
# number of rings (size 3 to 8) (size 9 to 14) (size 15 to 20)
#    0.000    1.857    2.857    1.714    0.000    1.429 
#    0.000    5.000    0.000    0.000    0.000    2.000 
#    0.000    0.000    0.000    0.000    0.000    0.000 
#
# Total GULP energy -155930.107228 kJ/mol
# GULP energy per Si atom -5568.932401 kJ/mol
# Density = 1.771037 g / cm^3
# Si number density = 17.750769 Si / 1000 Ang^3
#
#
#
# Elastic Constant Matrix: (Units=GPa)
#
#
# Indices 1 2 3 4 5 6 
#
# 1 127.5871 43.0228 36.3479 0.0000 -10.4856 0.0000
# 2 43.0228 69.4969 41.4788 0.0000 -5.1422 0.0000
# 3 36.3479 41.4788 75.3588 0.0000 -14.3679 0.0000
# 4 0.0000 0.0000 0.0000 15.6057 0.0000 6.9058
# 5 -10.4856 -5.1422 -14.3679 0.0000 32.7038 0.0000
# 6 0.0000 0.0000 0.0000 6.9058 0.0000 19.0465
#
#
#
# Elastic Compliance Matrix: (Units=1/GPa)
#
#
# Indices 1 2 3 4 5 6 
#
# 1 0.010215 -0.005138 -0.001777 0.000000 0.001686 0.000000
# 2 -0.005138 0.024131 -0.011345 0.000000 -0.002837 0.000000
# 3 -0.001777 -0.011345 0.021744 0.000000 0.007199 0.000000
# 4 0.000000 0.000000 0.000000 0.076325 0.000000 -0.027673
# 5 0.001686 -0.002837 0.007199 0.000000 0.033835 0.000000
# 6 0.000000 0.000000 0.000000 -0.027673 0.000000 0.062537
#
#
# Mechanical properties :
#
#
# Convention : Reuss Voigt Hill
#
# Bulk Modulus (GPa) = 51.09969 57.12689 54.11329
# Shear Modulus (GPa) = 18.39370 23.57741 20.98556
#
# Velocity S-wave (km/s) = 3.22253 3.64847 3.44209
# Velocity P-wave (km/s) = 6.53422 7.07114 6.80798
#
# Compressibility (1/GPa) = 0.01956959
#
# Stress axis : x y z
#
# Youngs Moduli (GPa) = 97.89131 41.44006 45.98934
#
# Poissons Ratio (x) = 0.21293 0.08174
# Poissons Ratio (y) = 0.50300 0.52174
# Poissons Ratio (z) = 0.17400 0.47013
#
# Static dielectric constant tensor:
#      x y z
#    x 1.626800 0.000000 0.011050 
#    y 0.000000 1.612590 0.000000 
#    z 0.011050 0.000000 1.590420 
# 
# From -- ./inp_files/165042.got.cif
#   From: 2010.05.17/outbox.cif.g08.bks.cpg/sg12_83_cif.got.tgz:165042.got - 2010.06.03 13:09:07.
