data_PCOD9190992
_publ_section_title
;
Structure prediction by ZEFSAII (Michael W. Deem and Ramdas Pophale) SiO2 
 PCOD9190992
Probable space group: C 2/M
;
_chemical_formula_sum "Si O2"
_cell_formula_units_Z 56
_cell_length_a 28.044109
_cell_length_b 20.655592
_cell_length_c 18.919026
_cell_angle_alpha 90.000000
_cell_angle_beta 162.068897
_cell_angle_gamma 90.000000
_cell_volume 3374.037270
_symmetry_space_group_name_H-M "C 2/M"
_symmetry_group_IT_number 12
_symmetry_cell_setting 'monoclinic'
loop_
_space_group_symop_operation_xyz
x,y,z
-x,y,-z
-x,-y,-z
x,-y,z
1/2+x,1/2+y,z
1/2-x,1/2+y,-z
1/2-x,1/2-y,-z
1/2+x,1/2-y,z
loop_
_atom_site_type_symbol
_atom_site_label
_atom_site_fract_x
_atom_site_fract_y
_atom_site_fract_z
Si Si1 0.953558 0.074025 0.017296
Si Si2 0.397914 0.664668 0.676046
Si Si3 0.323919 0.334661 0.041150
Si Si4 0.443065 0.924221 0.339509
Si Si5 0.852054 0.745181 0.741907
Si Si6 0.453526 0.730866 0.359783
Si Si7 0.824213 0.668897 0.395903
O O1 0.816544 0.126263 0.833269
O O2 0.907742 0.000000 0.968193
O O3 0.000000 0.077251 0.000000
O O4 0.088971 0.098945 0.259882
O O5 0.244852 0.681751 0.415589
O O6 0.407767 0.721241 0.748485
O O7 0.541558 0.667803 0.826041
O O8 0.234348 0.402400 0.914447
O O9 0.189364 0.281757 0.834986
O O10 0.398717 0.317481 0.221884
O O11 0.500000 0.907378 0.500000
O O12 0.536098 0.883121 0.411625
O O13 0.466991 0.000000 0.363285
O O14 0.738949 0.797151 0.622005
O O15 0.000000 0.734146 0.000000
O O16 0.500000 0.701259 0.500000
O O17 0.603012 0.772034 0.545411
#
# Coordination Sequence:
#
# PCOD9190992 Si02
#       7
#     8   8   8   8   8   8   8
#     4  11  21  33  53  81 114 148 180 216 266 328
#     4  11  20  35  53  76 113 145 179 231 272 329
#     4  10  20  32  52  77 104 140 182 216 274 323
#     4  10  21  34  53  79 111 146 179 223 271 325
#     4  11  22  33  52  81 113 144 183 227 280 322
#     4  10  20  32  51  77 108 139 172 224 271 325
#     4  11  17  35  51  79 111 142 174 219 272 322
#
# _framework density 16.597327
#
# number of rings (size 3 to 8) (size 9 to 14) (size 15 to 20)
#    0.000    1.429    4.286    3.857    0.000    1.714 
#    0.000    0.000    0.000    0.857    0.000    0.000 
#    0.000    0.000    0.000    0.000    0.000    0.000 
#
# Total GULP energy -156026.386227 kJ/mol
# GULP energy per Si atom -5572.370937 kJ/mol
# Density = 1.655955 g / cm^3
# Si number density = 16.597327 Si / 1000 Ang^3
#
#
#
# Elastic Constant Matrix: (Units=GPa)
#
#
# Indices 1 2 3 4 5 6 
#
# 1 84.5053 21.9473 45.9992 0.0000 -5.8101 0.0000
# 2 21.9473 59.0832 32.8958 0.0000 -6.7789 0.0000
# 3 45.9992 32.8958 89.3778 0.0000 -8.6006 0.0000
# 4 0.0000 0.0000 0.0000 24.3088 0.0000 -0.1680
# 5 -5.8101 -6.7789 -8.6006 0.0000 32.1422 0.0000
# 6 0.0000 0.0000 0.0000 -0.1680 0.0000 14.1329
#
#
#
# Elastic Compliance Matrix: (Units=1/GPa)
#
#
# Indices 1 2 3 4 5 6 
#
# 1 0.016594 -0.001731 -0.007852 0.000000 0.000533 0.000000
# 2 -0.001731 0.021659 -0.006847 0.000000 0.002423 0.000000
# 3 -0.007852 -0.006847 0.017936 0.000000 0.001936 0.000000
# 4 0.000000 0.000000 0.000000 0.041141 0.000000 0.000489
# 5 0.000533 0.002423 0.001936 0.000000 0.032237 0.000000
# 6 0.000000 0.000000 0.000000 0.000489 0.000000 0.070763
#
#
# Mechanical properties :
#
#
# Convention : Reuss Voigt Hill
#
# Bulk Modulus (GPa) = 42.86726 48.29456 45.58091
# Shear Modulus (GPa) = 20.74985 22.92506 21.83745
#
# Velocity S-wave (km/s) = 3.53964 3.72055 3.63122
# Velocity P-wave (km/s) = 6.52605 6.90055 6.71591
#
# Compressibility (1/GPa) = 0.02332783
#
# Stress axis : x y z
#
# Youngs Moduli (GPa) = 60.26343 46.17052 55.75406
#
# Poissons Ratio (x) = 0.07993 0.43776
# Poissons Ratio (y) = 0.10433 0.38177
# Poissons Ratio (z) = 0.47317 0.31615
#
# Static dielectric constant tensor:
#      x y z
#    x 1.596230 0.000000 -0.003420 
#    y 0.000000 1.553930 0.000000 
#    z -0.003420 0.000000 1.626610 
# 
# From -- ./inp_files/294106.got.cif
#   From: 2010.05.17/outbox.cif.g08.bks.cpg/sg12_148_cif.got.tgz:294106.got - 2010.06.03 13:09:07.
