data_PCOD9190097
_publ_section_title
;
Structure prediction by ZEFSAII (Michael W. Deem and Ramdas Pophale) SiO2 
 PCOD9190097
Probable space group: C 2/M
;
_chemical_formula_sum "Si O2"
_cell_formula_units_Z 56
_cell_length_a 25.853816
_cell_length_b 17.678851
_cell_length_c 9.319399
_cell_angle_alpha 90.000000
_cell_angle_beta 35.011380
_cell_angle_gamma 90.000000
_cell_volume 2443.886661
_symmetry_space_group_name_H-M "C 2/M"
_symmetry_group_IT_number 12
_symmetry_cell_setting 'monoclinic'
loop_
_space_group_symop_operation_xyz
x,y,z
-x,y,-z
-x,-y,-z
x,-y,z
1/2+x,1/2+y,z
1/2-x,1/2+y,-z
1/2-x,1/2-y,-z
1/2+x,1/2-y,z
loop_
_atom_site_type_symbol
_atom_site_label
_atom_site_fract_x
_atom_site_fract_y
_atom_site_fract_z
Si Si1 0.662327 0.411344 0.109596
Si Si2 0.583101 0.160452 0.924372
Si Si3 0.944643 0.809417 0.843526
Si Si4 0.020290 0.413374 0.616802
Si Si5 0.315399 0.159287 0.590637
Si Si6 0.107534 0.083696 0.789823
Si Si7 0.659489 0.327822 0.400216
O O1 0.634407 0.500000 0.180682
O O2 0.587362 0.350635 0.227813
O O3 0.693986 0.378490 0.190769
O O4 0.742553 0.398883 0.815410
O O5 0.663726 0.153934 0.626799
O O6 0.500000 0.176144 0.000000
O O7 0.587028 0.227159 0.033129
O O8 0.559610 0.091217 0.082866
O O9 0.052245 0.812754 0.618560
O O10 0.894966 0.861582 0.072043
O O11 0.050974 0.500000 0.535381
O O12 0.000000 0.387371 0.500000
O O13 0.096288 0.362732 0.518082
O O14 0.294547 0.246590 0.679164
O O15 0.160190 0.121797 0.540749
O O16 0.140518 0.000000 0.746748
O O17 0.000000 0.078175 0.000000
#
# Coordination Sequence:
#
# PCOD9190097 Si02
#       7
#     8   8   8   8   8   8   8
#     4  12  28  41  57  93 140 178 210 260 329 390
#     4  10  19  39  68  96 124 163 216 267 315 378
#     4  11  20  38  65  91 124 160 219 270 310 380
#     4  10  22  39  67 100 124 160 215 270 321 373
#     4  11  23  43  65  91 131 176 210 261 326 391
#     4   9  17  32  58  85 117 155 204 264 312 358
#     4  11  21  40  64  90 119 168 224 269 314 374
#
# _framework density 22.91432
#
# number of rings (size 3 to 8) (size 9 to 14) (size 15 to 20)
#    0.000    1.429    4.286    2.571    2.000    6.000 
#    0.000    0.000    0.000    1.714    0.000    0.000 
#    0.000    0.000    0.000    0.000    0.000    0.000 
#
# Total GULP energy -156258.122092 kJ/mol
# GULP energy per Si atom -5580.647218 kJ/mol
# Density = 2.286217 g / cm^3
# Si number density = 22.914320 Si / 1000 Ang^3
#
#
#
# Elastic Constant Matrix: (Units=GPa)
#
#
# Indices 1 2 3 4 5 6 
#
# 1 182.8586 73.2353 40.4779 0.0000 94.9599 0.0000
# 2 73.2353 137.1978 21.4166 0.0000 52.5896 0.0000
# 3 40.4779 21.4166 99.0204 0.0000 35.9754 0.0000
# 4 0.0000 0.0000 0.0000 41.8839 0.0000 -4.8573
# 5 94.9599 52.5896 35.9754 0.0000 77.6836 0.0000
# 6 0.0000 0.0000 0.0000 -4.8573 0.0000 23.8777
#
#
#
# Elastic Compliance Matrix: (Units=1/GPa)
#
#
# Indices 1 2 3 4 5 6 
#
# 1 0.015183 -0.001320 0.000598 0.000000 -0.017942 0.000000
# 2 -0.001320 0.009968 0.000299 0.000000 -0.005273 0.000000
# 3 0.000598 0.000299 0.012178 0.000000 -0.006573 0.000000
# 4 0.000000 0.000000 0.000000 0.024452 0.000000 0.004974
# 5 -0.017942 -0.005273 -0.006573 0.000000 0.041419 0.000000
# 6 0.000000 0.000000 0.000000 0.004974 0.000000 0.042892
#
#
# Mechanical properties :
#
#
# Convention : Reuss Voigt Hill
#
# Bulk Modulus (GPa) = 27.41038 76.59293 52.00166
# Shear Modulus (GPa) = 31.42704 47.61883 39.52293
#
# Velocity S-wave (km/s) = 3.70740 4.56359 4.15759
# Velocity P-wave (km/s) = 5.50586 7.82731 6.76688
#
# Compressibility (1/GPa) = 0.03648252
#
# Stress axis : x y z
#
# Youngs Moduli (GPa) = 65.86413 100.32234 82.11627
#
# Poissons Ratio (x) = 0.13245 -0.04909
# Poissons Ratio (y) = 0.08696 -0.02459
# Poissons Ratio (z) = -0.03937 -0.03004
#
# Static dielectric constant tensor:
#      x y z
#    x 0.765220 0.000000 0.022890 
#    y 0.000000 1.862800 0.000000 
#    z 0.022890 0.000000 1.902900 
# 
# From -- ./inp_files/105942.got.cif
#   From: 2010.05.17/outbox.cif.g08.bks.cpg/sg12_53_cif.got.tgz:105942.got - 2010.06.03 13:09:07.
