data_PCOD9190382
_publ_section_title
;
Structure prediction by ZEFSAII (Michael W. Deem and Ramdas Pophale) SiO2 
 PCOD9190382
Probable space group: C 2/M
;
_chemical_formula_sum "Si O2"
_cell_formula_units_Z 64
_cell_length_a 20.595852
_cell_length_b 7.319294
_cell_length_c 15.989820
_cell_angle_alpha 90.000000
_cell_angle_beta 109.073592
_cell_angle_gamma 90.000000
_cell_volume 2278.086036
_symmetry_space_group_name_H-M "C 2/M"
_symmetry_group_IT_number 12
_symmetry_cell_setting 'monoclinic'
loop_
_space_group_symop_operation_xyz
x,y,z
-x,y,-z
-x,-y,-z
x,-y,z
1/2+x,1/2+y,z
1/2-x,1/2+y,-z
1/2-x,1/2-y,-z
1/2+x,1/2-y,z
loop_
_atom_site_type_symbol
_atom_site_label
_atom_site_fract_x
_atom_site_fract_y
_atom_site_fract_z
Si Si1 0.914625 0.277201 0.795014
Si Si2 0.549063 0.788220 0.450910
Si Si3 0.167956 0.784011 0.893590
Si Si4 0.672244 0.222980 0.403962
Si Si5 0.420814 0.720898 0.301121
Si Si6 0.703707 0.283056 0.645847
Si Si7 0.294367 0.217123 0.854804
Si Si8 0.957811 0.718768 0.062266
O O1 0.914037 0.500000 0.794896
O O2 0.874339 0.222619 0.695545
O O3 0.868002 0.215510 0.854349
O O4 0.992640 0.217098 0.841250
O O5 0.500000 0.700506 0.500000
O O6 0.623827 0.711877 0.459488
O O7 0.497883 0.784605 0.349408
O O8 0.559317 0.000000 0.475650
O O9 0.117886 0.713958 0.798331
O O10 0.244045 0.708772 0.906432
O O11 0.121818 0.760586 0.956221
O O12 0.174377 0.000000 0.883761
O O13 0.748603 0.288758 0.410252
O O14 0.673927 0.000000 0.406958
O O15 0.421044 0.500000 0.300438
O O16 0.371377 0.782657 0.357639
O O17 0.699018 0.500000 0.632328
O O18 0.748408 0.261094 0.750387
O O19 0.303982 0.000000 0.873676
O O20 0.959746 0.500000 0.059917
O O21 0.000000 0.784597 0.000000
#
# Coordination Sequence:
#
# PCOD9190382 Si02
#       8
#     8   8   8   8   8   8   8   8
#     4   8  13  24  44  65  83 110 150 188 218 256
#     4  10  20  31  43  64  95 126 153 182 217 260
#     4   9  17  30  49  70  88 109 143 188 232 269
#     4   8  13  24  44  65  83 110 150 188 218 256
#     4   9  17  30  49  70  88 109 143 188 232 269
#     4   7  11  22  42  66  85 103 139 188 225 257
#     4   7  11  22  42  66  85 103 139 188 225 257
#     4  10  20  31  43  64  95 126 153 182 217 260
#
# _framework density 28.093758000000001
#
# number of rings (size 3 to 8) (size 9 to 14) (size 15 to 20)
#    0.000    3.500    0.000    3.750    0.000    2.000 
#    0.000    1.250    0.000    1.500    0.000    3.500 
#    0.000    0.000    0.000    0.000    0.000    0.000 
#
# Total GULP energy -178893.697860 kJ/mol
# GULP energy per Si atom -5590.428058 kJ/mol
# Density = 2.802982 g / cm^3
# Si number density = 28.093758 Si / 1000 Ang^3
#
#
#
# Elastic Constant Matrix: (Units=GPa)
#
#
# Indices 1 2 3 4 5 6 
#
# 1 280.8231 3.8529 45.0809 0.0000 -23.6310 0.0000
# 2 3.8529 121.3715 1.5163 0.0000 1.2350 0.0000
# 3 45.0809 1.5163 83.7572 0.0000 -23.3899 0.0000
# 4 0.0000 0.0000 0.0000 1.7517 0.0000 -1.3154
# 5 -23.6310 1.2350 -23.3899 0.0000 67.0266 0.0000
# 6 0.0000 0.0000 0.0000 -1.3154 0.0000 4.4150
#
#
#
# Elastic Compliance Matrix: (Units=1/GPa)
#
#
# Indices 1 2 3 4 5 6 
#
# 1 0.003930 -0.000108 -0.001912 0.000000 0.000720 0.000000
# 2 -0.000108 0.008247 -0.000160 0.000000 -0.000246 0.000000
# 3 -0.001912 -0.000160 0.014164 0.000000 0.004272 0.000000
# 4 0.000000 0.000000 0.000000 0.735416 0.000000 0.219109
# 5 0.000720 -0.000246 0.004272 0.000000 0.016669 0.000000
# 6 0.000000 0.000000 0.000000 0.219109 0.000000 0.291783
#
#
# Mechanical properties :
#
#
# Convention : Reuss Voigt Hill
#
# Bulk Modulus (GPa) = 45.49343 65.20577 55.34960
# Shear Modulus (GPa) = 4.62152 43.67211 24.14681
#
# Velocity S-wave (km/s) = 1.28398 3.94701 2.93492
# Velocity P-wave (km/s) = 4.29264 6.63568 5.58834
#
# Compressibility (1/GPa) = 0.02198120
#
# Stress axis : x y z
#
# Youngs Moduli (GPa) = 254.45170 121.25473 70.60038
#
# Poissons Ratio (x) = 0.01312 0.13500
# Poissons Ratio (y) = 0.02753 0.01128
# Poissons Ratio (z) = 0.48655 0.01937
#
# Static dielectric constant tensor:
#      x y z
#    x 2.152390 0.000000 -0.040240 
#    y 0.000000 2.090440 0.000000 
#    z -0.040240 0.000000 2.329690 
# 
# From -- ./inp_files/319196.got.cif
#   From: 2010.05.17/outbox.cif.g08.bks.cpg/sg12_160_cif.got.tgz:319196.got - 2010.06.03 13:09:07.
