data_PCOD9190718
_publ_section_title
;
Structure prediction by ZEFSAII (Michael W. Deem and Ramdas Pophale) SiO2 
 PCOD9190718
Probable space group: C 2/M
;
_chemical_formula_sum "Si O2"
_cell_formula_units_Z 64
_cell_length_a 14.296794
_cell_length_b 25.512652
_cell_length_c 11.099130
_cell_angle_alpha 90.000000
_cell_angle_beta 78.284439
_cell_angle_gamma 90.000000
_cell_volume 3964.060567
_symmetry_space_group_name_H-M "C 2/M"
_symmetry_group_IT_number 12
_symmetry_cell_setting 'monoclinic'
loop_
_space_group_symop_operation_xyz
x,y,z
-x,y,-z
-x,-y,-z
x,-y,z
1/2+x,1/2+y,z
1/2-x,1/2+y,-z
1/2-x,1/2-y,-z
1/2+x,1/2-y,z
loop_
_atom_site_type_symbol
_atom_site_label
_atom_site_fract_x
_atom_site_fract_y
_atom_site_fract_z
Si Si1 0.059758 0.751357 0.663671
Si Si2 0.814982 0.339141 0.269254
Si Si3 0.709429 0.839103 0.210659
Si Si4 0.845817 0.757162 0.615485
Si Si5 0.610606 0.808314 0.993425
Si Si6 0.387439 0.059904 0.376282
Si Si7 0.888756 0.559576 0.665637
Si Si8 0.409506 0.691975 0.096223
O O1 0.094856 0.695356 0.705615
O O2 0.131689 0.760292 0.532733
O O3 0.065704 0.790717 0.774229
O O4 0.951845 0.754411 0.645006
O O5 0.720665 0.305857 0.328424
O O6 0.826588 0.338499 0.122163
O O7 0.826109 0.395844 0.325974
O O8 0.703580 0.795697 0.319297
O O9 0.673572 0.894840 0.263100
O O10 0.815878 0.842421 0.131089
O O11 0.643039 0.819208 0.119382
O O12 0.619326 0.746349 0.962990
O O13 0.500000 0.821916 0.000000
O O14 0.380461 0.064118 0.522962
O O15 0.500848 0.067443 0.324347
O O16 0.362412 0.000000 0.349107
O O17 0.862056 0.500000 0.705242
O O18 0.500000 0.670575 0.000000
#
# Coordination Sequence:
#
# PCOD9190718 Si02
#       8
#     8   8   8   8   8   8   8   8
#     4  10  21  34  46  75 110 135 168 216 264 307
#     4  11  20  32  51  74 107 139 177 212 250 323
#     4  12  20  32  55  75 103 145 178 215 260 312
#     4  11  21  31  51  77 107 138 168 216 266 312
#     4  10  20  32  47  74 106 141 175 208 254 313
#     4   9  18  34  54  77 107 137 169 215 268 314
#     4   9  19  34  54  79 103 134 174 218 264 313
#     4  10  21  33  49  70 106 141 176 210 252 320
#
# _framework density 16.145060999999998
#
# number of rings (size 3 to 8) (size 9 to 14) (size 15 to 20)
#    0.000    1.750    2.500    6.000    3.500    2.000 
#    0.000    0.625    0.000    2.625    0.000    2.625 
#    0.000    0.000    0.000    0.000    0.000    0.000 
#
# Total GULP energy -178495.978906 kJ/mol
# GULP energy per Si atom -5577.999341 kJ/mol
# Density = 1.610831 g / cm^3
# Si number density = 16.145061 Si / 1000 Ang^3
#
#
#
# Elastic Constant Matrix: (Units=GPa)
#
#
# Indices 1 2 3 4 5 6 
#
# 1 70.6910 43.4358 41.1958 0.0000 -15.5431 0.0000
# 2 43.4358 85.2704 45.7554 0.0000 -13.3318 0.0000
# 3 41.1958 45.7554 101.7263 0.0000 -17.3466 0.0000
# 4 0.0000 0.0000 0.0000 17.8266 0.0000 -4.3359
# 5 -15.5431 -13.3318 -17.3466 0.0000 28.0424 0.0000
# 6 0.0000 0.0000 0.0000 -4.3359 0.0000 18.7156
#
#
#
# Elastic Compliance Matrix: (Units=1/GPa)
#
#
# Indices 1 2 3 4 5 6 
#
# 1 0.023386 -0.008485 -0.004619 0.000000 0.006071 0.000000
# 2 -0.008485 0.018834 -0.004818 0.000000 0.001270 0.000000
# 3 -0.004619 -0.004818 0.014579 0.000000 0.004167 0.000000
# 4 0.000000 0.000000 0.000000 0.059446 0.000000 0.013772
# 5 0.006071 0.001270 0.004167 0.000000 0.042207 0.000000
# 6 0.000000 0.000000 0.000000 0.013772 0.000000 0.056622
#
#
# Mechanical properties :
#
#
# Convention : Reuss Voigt Hill
#
# Bulk Modulus (GPa) = 47.72377 57.60686 52.66532
# Shear Modulus (GPa) = 19.38717 21.40365 20.39541
#
# Velocity S-wave (km/s) = 3.46903 3.64498 3.55809
# Velocity P-wave (km/s) = 6.75789 7.31251 7.04066
#
# Compressibility (1/GPa) = 0.02095392
#
# Stress axis : x y z
#
# Youngs Moduli (GPa) = 42.76012 53.09625 68.59327
#
# Poissons Ratio (x) = 0.45052 0.31683
# Poissons Ratio (y) = 0.36282 0.33051
# Poissons Ratio (z) = 0.19750 0.25584
#
# Static dielectric constant tensor:
#      x y z
#    x 1.565900 0.000000 -0.002340 
#    y 0.000000 1.513730 0.000000 
#    z -0.002340 0.000000 1.577040 
# 
# From -- ./inp_files/148645.got.cif
#   From: 2010.05.17/outbox.cif.g08.bks.cpg/sg12_75_cif.got.tgz:148645.got - 2010.06.03 13:09:07.
