data_PCOD9190621
_publ_section_title
;
Structure prediction by ZEFSAII (Michael W. Deem and Ramdas Pophale) SiO2 
 PCOD9190621
Probable space group: C 2/M
;
_chemical_formula_sum "Si O2"
_cell_formula_units_Z 56
_cell_length_a 20.141762
_cell_length_b 7.450222
_cell_length_c 26.952311
_cell_angle_alpha 90.000000
_cell_angle_beta 137.226776
_cell_angle_gamma 90.000000
_cell_volume 2746.599583
_symmetry_space_group_name_H-M "C 2/M"
_symmetry_group_IT_number 12
_symmetry_cell_setting 'monoclinic'
loop_
_space_group_symop_operation_xyz
x,y,z
-x,y,-z
-x,-y,-z
x,-y,z
1/2+x,1/2+y,z
1/2-x,1/2+y,-z
1/2-x,1/2-y,-z
1/2+x,1/2-y,z
loop_
_atom_site_type_symbol
_atom_site_label
_atom_site_fract_x
_atom_site_fract_y
_atom_site_fract_z
Si Si1 0.034074 0.786129 0.210835
Si Si2 0.341341 0.780470 0.918575
Si Si3 0.301807 0.280472 0.624166
Si Si4 0.044331 0.783193 0.373723
Si Si5 0.419139 0.790997 0.493229
Si Si6 0.506807 0.786081 0.080867
Si Si7 0.119047 0.780818 0.793227
O O1 0.131530 0.722739 0.292622
O O2 0.024984 0.750394 0.148058
O O3 0.940815 0.721437 0.191035
O O4 0.035381 0.000000 0.217574
O O5 0.405619 0.721967 0.906570
O O6 0.230221 0.718181 0.854727
O O7 0.338094 0.000000 0.916771
O O8 0.403936 0.722982 0.001090
O O9 0.299576 0.500000 0.621604
O O10 0.361276 0.225755 0.607174
O O11 0.190996 0.214871 0.567703
O O12 0.046333 0.718928 0.430977
O O13 0.947759 0.727640 0.290254
O O14 0.045614 0.000000 0.375476
O O15 0.500000 0.713239 0.500000
O O16 0.408354 0.000000 0.473029
O O17 0.505557 0.000000 0.074388
O O18 0.121043 0.000000 0.794060
#
# Coordination Sequence:
#
# PCOD9190621 Si02
#       7
#     8   8   8   8   8   8   8
#     4   9  17  30  48  67  88 116 148 182 220 261
#     4   8  15  29  46  63  88 122 152 176 213 266
#     4   8  16  32  49  64  87 120 151 176 214 269
#     4   9  17  31  51  69  85 112 152 190 216 248
#     4  10  20  32  46  66  93 121 145 174 220 272
#     4   9  17  29  46  67  90 117 148 182 219 259
#     4   8  15  29  48  67  87 116 151 181 215 262
#
# _framework density 20.388846999999998
#
# number of rings (size 3 to 8) (size 9 to 14) (size 15 to 20)
#    0.000    3.286    0.000    3.000    0.000    2.000 
#    0.000    5.000    0.000    1.714    0.000    0.000 
#    0.000    0.000    0.000    0.000    0.000    0.000 
#
# Total GULP energy -156143.321337 kJ/mol
# GULP energy per Si atom -5576.547191 kJ/mol
# Density = 2.034244 g / cm^3
# Si number density = 20.388847 Si / 1000 Ang^3
#
#
#
# Elastic Constant Matrix: (Units=GPa)
#
#
# Indices 1 2 3 4 5 6 
#
# 1 288.2137 12.2195 224.2413 0.0001 143.7354 0.0001
# 2 12.2195 57.7697 1.2317 0.0000 16.6943 0.0000
# 3 224.2413 1.2317 228.6566 0.0001 97.8901 0.0001
# 4 0.0001 0.0000 0.0001 18.3415 0.0002 -13.9848
# 5 143.7354 16.6943 97.8901 0.0002 176.9454 0.0001
# 6 0.0001 0.0000 0.0001 -13.9848 0.0001 -10.6367
#
#
#
# Elastic Compliance Matrix: (Units=1/GPa)
#
#
# Indices 1 2 3 4 5 6 
#
# 1 0.019637 -0.001863 -0.016371 0.000000 -0.006718 0.000000
# 2 -0.001863 0.018089 0.002375 0.000000 -0.001507 0.000000
# 3 -0.016371 0.002375 0.019417 0.000000 0.002333 0.000000
# 4 0.000000 0.000000 0.000000 0.027227 0.000000 -0.035797
# 5 -0.006718 -0.001507 0.002333 0.000000 0.009961 0.000000
# 6 0.000000 0.000000 0.000000 -0.035797 0.000000 -0.046949
#
#
# Mechanical properties :
#
#
# Convention : Reuss Voigt Hill
#
# Bulk Modulus (GPa) = 39.33297 116.66943 78.00120
# Shear Modulus (GPa) = 57.09415 59.39318 58.24366
#
# Velocity S-wave (km/s) = 5.29749 5.40310 5.35056
# Velocity P-wave (km/s) = 7.53334 9.81178 8.74706
#
# Compressibility (1/GPa) = 0.02542397
#
# Stress axis : x y z
#
# Youngs Moduli (GPa) = 50.92555 55.28198 51.50140
#
# Poissons Ratio (x) = 0.10299 0.84313
# Poissons Ratio (y) = 0.09487 -0.12231
# Poissons Ratio (z) = 0.83371 -0.13128
#
# Static dielectric constant tensor:
#      x y z
#    x 1.710790 0.000000 0.010820 
#    y 0.000000 1.774530 0.000000 
#    z 0.010820 0.000000 1.712300 
# 
# From -- ./inp_files/315408.got.cif
#   From: 2010.05.17/outbox.cif.g08.bks.cpg/sg12_158_cif.got.tgz:315408.got - 2010.06.03 13:09:07.
