data_PCOD9190211
_publ_section_title
;
Structure prediction by ZEFSAII (Michael W. Deem and Ramdas Pophale) SiO2 
 PCOD9190211
Probable space group: C 2/M
;
_chemical_formula_sum "Si O2"
_cell_formula_units_Z 34
_cell_length_a 9.120901
_cell_length_b 28.923425
_cell_length_c 9.122347
_cell_angle_alpha 90.000000
_cell_angle_beta 134.272324
_cell_angle_gamma 90.000000
_cell_volume 1723.158689
_symmetry_space_group_name_H-M "C 2/M"
_symmetry_group_IT_number 12
_symmetry_cell_setting 'monoclinic'
loop_
_space_group_symop_operation_xyz
x,y,z
-x,y,-z
-x,-y,-z
x,-y,z
1/2+x,1/2+y,z
1/2-x,1/2+y,-z
1/2-x,1/2-y,-z
1/2+x,1/2-y,z
loop_
_atom_site_type_symbol
_atom_site_label
_atom_site_fract_x
_atom_site_fract_y
_atom_site_fract_z
Si Si1 0.814256 0.321907 0.971461
Si Si2 0.909453 0.791517 0.600744
Si Si3 0.227898 0.084329 0.723387
Si Si4 0.927110 0.632642 0.608055
Si Si5 0.500000 0.000000 0.000000
O O1 0.613462 0.290625 0.840194
O O2 0.748626 0.369267 0.837808
O O3 0.000000 0.302824 0.000000
O O4 0.905463 0.335855 0.191562
O O5 0.750000 0.750000 0.500000
O O6 0.777415 0.836648 0.545257
O O7 0.000000 0.793677 0.500000
O O8 0.372446 0.092319 0.682328
O O9 0.000000 0.079088 0.500000
O O10 0.320658 0.040627 0.869503
O O11 0.000000 0.618129 0.500000
#
# Coordination Sequence:
#
# PCOD9190211 Si02
#       5
#     8   8   8   8   2
#     4  10  19  41  67  85 126 180 208 260 330 382
#     4  12  23  41  64  95 131 170 229 275 314 389
#     4  11  20  41  68  93 129 169 215 267 324 396
#     4  11  22  40  65  93 131 178 212 265 338 383
#     4  12  22  36  74 108 112 168 236 256 316 408
#
# _framework density 19.731207000000001
#
# number of rings (size 3 to 8) (size 9 to 14) (size 15 to 20)
#    0.000    0.941   10.588    1.059    0.000    1.882 
#    0.000    0.588    0.000    1.412    0.000    0.000 
#    0.000    0.000    0.000    0.000    0.000    0.000 
#
# Total GULP energy -94685.695195 kJ/mol
# GULP energy per Si atom -5569.746776 kJ/mol
# Density = 1.968630 g / cm^3
# Si number density = 19.731207 Si / 1000 Ang^3
#
#
#
# Elastic Constant Matrix: (Units=GPa)
#
#
# Indices 1 2 3 4 5 6 
#
# 1 83.5619 31.0882 33.9649 0.0000 5.3304 0.0000
# 2 31.0882 61.4871 2.8868 0.0000 15.7260 0.0000
# 3 33.9649 2.8868 120.7411 0.0000 36.1063 0.0000
# 4 0.0000 0.0000 0.0000 18.2554 0.0000 23.3605
# 5 5.3304 15.7260 36.1063 0.0000 50.5213 0.0000
# 6 0.0000 0.0000 0.0000 23.3605 0.0000 10.9616
#
#
#
# Elastic Compliance Matrix: (Units=1/GPa)
#
#
# Indices 1 2 3 4 5 6 
#
# 1 0.018184 -0.010444 -0.006695 0.000000 0.006117 0.000000
# 2 -0.010444 0.023901 0.005420 0.000000 -0.010212 0.000000
# 3 -0.006695 0.005420 0.013137 0.000000 -0.010369 0.000000
# 4 0.000000 0.000000 0.000000 -0.031717 0.000000 0.067593
# 5 0.006117 -0.010212 -0.010369 0.000000 0.029737 0.000000
# 6 0.000000 0.000000 0.000000 0.067593 0.000000 -0.052821
#
#
# Mechanical properties :
#
#
# Convention : Reuss Voigt Hill
#
# Bulk Modulus (GPa) = 31.46161 44.62999 38.04580
# Shear Modulus (GPa) = 145.12828 29.13767 87.13297
#
# Velocity S-wave (km/s) = 8.58559 3.84699 6.65251
# Velocity P-wave (km/s) = 10.68938 6.51157 8.85052
#
# Compressibility (1/GPa) = 0.03178477
#
# Stress axis : x y z
#
# Youngs Moduli (GPa) = 54.99457 41.83874 76.12320
#
# Poissons Ratio (x) = 0.43696 0.50961
# Poissons Ratio (y) = 0.57436 -0.41259
# Poissons Ratio (z) = 0.36817 -0.22677
#
# Static dielectric constant tensor:
#      x y z
#    x 1.681100 0.000000 0.011530 
#    y 0.000000 1.647920 0.000000 
#    z 0.011530 0.000000 1.773550 
# 
# From -- ./inp_files/41294.got.cif
#   From: 2010.05.17/outbox.cif.g08.bks.cpg/sg12_21_cif.got.tgz:41294.got - 2010.06.03 13:09:07.
