data_PCOD9190021
_publ_section_title
;
Structure prediction by ZEFSAII (Michael W. Deem and Ramdas Pophale) SiO2 
 PCOD9190021
Probable space group: C 2/M
;
_chemical_formula_sum "Si O2"
_cell_formula_units_Z 40
_cell_length_a 14.375035
_cell_length_b 14.767781
_cell_length_c 12.333145
_cell_angle_alpha 90.000000
_cell_angle_beta 131.019898
_cell_angle_gamma 90.000000
_cell_volume 1975.362018
_symmetry_space_group_name_H-M "C 2/M"
_symmetry_group_IT_number 12
_symmetry_cell_setting 'monoclinic'
loop_
_space_group_symop_operation_xyz
x,y,z
-x,y,-z
-x,-y,-z
x,-y,z
1/2+x,1/2+y,z
1/2-x,1/2+y,-z
1/2-x,1/2-y,-z
1/2+x,1/2-y,z
loop_
_atom_site_type_symbol
_atom_site_label
_atom_site_fract_x
_atom_site_fract_y
_atom_site_fract_z
Si Si1 0.504356 0.398891 0.880700
Si Si2 0.484207 0.105106 0.216220
Si Si3 0.324882 0.745143 0.668277
Si Si4 0.264696 0.650425 0.062316
Si Si5 0.110164 0.257699 0.667778
O O1 0.451547 0.500000 0.839958
O O2 0.429892 0.331165 0.747803
O O3 0.644389 0.401467 0.948211
O O4 0.500000 0.362938 0.000000
O O5 0.602359 0.160119 0.262614
O O6 0.436500 0.163886 0.284678
O O7 0.508676 0.000000 0.261069
O O8 0.371617 0.110227 0.043895
O O9 0.250000 0.750000 0.500000
O O10 0.229984 0.716312 0.689265
O O11 0.339558 0.669954 0.229030
O O12 0.250000 0.750000 0.000000
O O13 0.000000 0.238142 0.500000
#
# Coordination Sequence:
#
# PCOD9190021 Si02
#       5
#     8   8   8   8   8
#     4  11  22  38  67 100 124 161 217 273 324 385
#     4  11  24  43  68 100 132 170 222 273 325 389
#     4  12  24  42  65  95 135 174 213 267 336 392
#     4  10  19  39  63  91 130 170 206 260 328 391
#     4  11  22  42  69  93 128 175 219 266 334 386
#
# _framework density 20.249452000000002
#
# number of rings (size 3 to 8) (size 9 to 14) (size 15 to 20)
#    0.000    1.000    6.000    3.000    0.000    3.600 
#    0.000    3.000    0.000    4.200    0.000    0.000 
#    0.000    0.000    0.000    0.000    0.000    0.000 
#
# Total GULP energy -111570.572941 kJ/mol
# GULP energy per Si atom -5578.528647 kJ/mol
# Density = 2.020336 g / cm^3
# Si number density = 20.249452 Si / 1000 Ang^3
#
#
#
# Elastic Constant Matrix: (Units=GPa)
#
#
# Indices 1 2 3 4 5 6 
#
# 1 52.9910 12.7452 2.4137 0.0000 21.9821 0.0000
# 2 12.7452 93.6697 42.4819 0.0000 6.1302 0.0000
# 3 2.4137 42.4819 132.7052 0.0000 21.8258 0.0000
# 4 0.0000 0.0000 0.0000 7.6174 0.0000 -7.2819
# 5 21.9821 6.1302 21.8258 0.0000 29.7849 0.0000
# 6 0.0000 0.0000 0.0000 -7.2819 0.0000 5.8211
#
#
#
# Elastic Compliance Matrix: (Units=1/GPa)
#
#
# Indices 1 2 3 4 5 6 
#
# 1 0.030164 -0.004778 0.005094 0.000000 -0.025011 0.000000
# 2 -0.004778 0.013250 -0.004874 0.000000 0.004370 0.000000
# 3 0.005094 -0.004874 0.010752 0.000000 -0.010636 0.000000
# 4 0.000000 0.000000 0.000000 -0.670223 0.000000 -0.838424
# 5 -0.025011 0.004370 -0.010636 0.000000 0.058928 0.000000
# 6 0.000000 0.000000 0.000000 -0.838424 0.000000 -0.877048
#
#
# Mechanical properties :
#
#
# Convention : Reuss Voigt Hill
#
# Bulk Modulus (GPa) = 22.19645 43.84972 33.02309
# Shear Modulus (GPa) = -3.54598 23.42634 9.94018
#
# Velocity S-wave (km/s) = -1.32475 3.40499 2.21800
# Velocity P-wave (km/s) = 2.94030 6.09594 4.78570
#
# Compressibility (1/GPa) = 0.04505225
#
# Stress axis : x y z
#
# Youngs Moduli (GPa) = 33.15243 75.47058 93.00391
#
# Poissons Ratio (x) = 0.36059 -0.47381
# Poissons Ratio (y) = 0.15840 0.45326
# Poissons Ratio (z) = -0.16889 0.36781
#
# Static dielectric constant tensor:
#      x y z
#    x 1.766600 0.000000 -0.009220 
#    y 0.000000 0.995370 0.000000 
#    z -0.009220 0.000000 1.708120 
# 
# From -- ./inp_files/142531.got.cif
#   From: 2010.05.17/outbox.cif.g08.bks.cpg/sg12_72_cif.got.tgz:142531.got - 2010.06.03 13:09:07.
