data_PCOD9190310
_publ_section_title
;
Structure prediction by ZEFSAII (Michael W. Deem and Ramdas Pophale) SiO2 
 PCOD9190310
Probable space group: C 2/M
;
_chemical_formula_sum "Si O2"
_cell_formula_units_Z 44
_cell_length_a 16.929146
_cell_length_b 15.933044
_cell_length_c 24.127421
_cell_angle_alpha 90.000000
_cell_angle_beta 155.163748
_cell_angle_gamma 90.000000
_cell_volume 2733.513729
_symmetry_space_group_name_H-M "C 2/M"
_symmetry_group_IT_number 12
_symmetry_cell_setting 'monoclinic'
loop_
_space_group_symop_operation_xyz
x,y,z
-x,y,-z
-x,-y,-z
x,-y,z
1/2+x,1/2+y,z
1/2-x,1/2+y,-z
1/2-x,1/2-y,-z
1/2+x,1/2-y,z
loop_
_atom_site_type_symbol
_atom_site_label
_atom_site_fract_x
_atom_site_fract_y
_atom_site_fract_z
Si Si1 0.299556 0.000000 0.843557
Si Si2 0.088543 0.000000 0.345474
Si Si3 0.226106 0.500000 0.656484
Si Si4 0.769902 0.098821 0.407836
Si Si5 0.825529 0.655165 0.542934
Si Si6 0.703324 0.352622 0.697815
Si Si7 0.625080 0.830529 0.636262
O O1 0.274005 0.917161 0.788941
O O2 0.131246 0.000000 0.781119
O O3 0.500000 0.000000 0.000000
O O4 0.176248 0.084129 0.428784
O O5 0.155547 0.000000 0.324524
O O6 0.250031 0.412531 0.703771
O O7 0.000000 0.500000 0.500000
O O8 0.627310 0.129649 0.363968
O O9 0.720386 0.119793 0.313534
O O10 0.975227 0.138626 0.550481
O O11 0.796794 0.000000 0.429572
O O12 0.750000 0.750000 0.500000
O O13 0.985524 0.651492 0.598403
O O14 0.736897 0.253453 0.723274
O O15 0.500000 0.815126 0.500000
#
# Coordination Sequence:
#
# PCOD9190310 Si02
#       7
#     4   4   4   8   8   8   8
#     4  12  24  38  55  75 101 143 189 228 258 299
#     4  12  20  33  48  74 113 139 173 212 256 316
#     4  10  20  30  46  78 114 143 165 200 263 336
#     4  11  18  27  48  72 107 135 165 204 273 328
#     4  12  18  27  45  77 111 139 168 197 258 328
#     4  11  18  33  49  74 105 138 171 212 268 319
#     4  11  18  29  48  80 115 144 162 200 261 339
#
# _framework density 16.096499000000001
#
# number of rings (size 3 to 8) (size 9 to 14) (size 15 to 20)
#    0.000    0.727   11.818    0.545    0.000    0.000 
#    0.000    0.000    0.000    1.091    0.000    0.636 
#    0.000    0.000    0.000    0.000    0.000    0.000 
#
# Total GULP energy -122596.824019 kJ/mol
# GULP energy per Si atom -5572.582910 kJ/mol
# Density = 1.605986 g / cm^3
# Si number density = 16.096499 Si / 1000 Ang^3
#
#
#
# Elastic Constant Matrix: (Units=GPa)
#
#
# Indices 1 2 3 4 5 6 
#
# 1 169.8814 43.9847 33.2089 0.0055 17.0308 -0.0006
# 2 43.9847 156.3173 25.3984 0.0326 4.4084 -0.0058
# 3 33.2089 25.3984 42.3458 0.0518 -1.5052 -0.0055
# 4 0.0055 0.0326 0.0518 3.5894 -0.0096 1.9385
# 5 17.0308 4.4084 -1.5052 -0.0096 9.2901 -0.0009
# 6 -0.0006 -0.0058 -0.0055 1.9385 -0.0009 32.9520
#
#
#
# Elastic Compliance Matrix: (Units=1/GPa)
#
#
# Indices 1 2 3 4 5 6 
#
# 1 0.009381 -0.000924 -0.007442 0.000056 -0.017966 -0.000005
# 2 -0.000924 0.007336 -0.003760 -0.000018 -0.002397 0.000002
# 3 -0.007442 -0.003760 0.032442 -0.000382 0.020683 0.000028
# 4 0.000056 -0.000018 -0.000382 0.287744 0.000140 -0.016927
# 5 -0.017966 -0.002397 0.020683 0.000140 0.145065 -0.000001
# 6 -0.000005 0.000002 0.000028 -0.016927 -0.000001 0.031343
#
#
# Mechanical properties :
#
#
# Convention : Reuss Voigt Hill
#
# Bulk Modulus (GPa) = 40.14903 63.74761 51.94832
# Shear Modulus (GPa) = 9.15974 26.89645 18.02810
#
# Velocity S-wave (km/s) = 2.38807 4.09216 3.35027
# Velocity P-wave (km/s) = 5.70970 7.87509 6.87815
#
# Compressibility (1/GPa) = 0.02490720
#
# Stress axis : x y z
#
# Youngs Moduli (GPa) = 106.59290 136.31728 30.82402
#
# Poissons Ratio (x) = 0.12596 0.22938
# Poissons Ratio (y) = 0.09849 0.11591
# Poissons Ratio (z) = 0.79323 0.51262
#
# Static dielectric constant tensor:
#      x y z
#    x 1.587390 0.000000 -0.007430 
#    y 0.000000 1.599340 0.000000 
#    z -0.007430 0.000000 1.502720 
# 
# From -- ./inp_files/364171.got.cif
#   From: 2010.05.17/outbox.cif.g08.bks.cpg/sg12_183_cif.got.tgz:364171.got - 2010.06.03 13:09:07.
