data_PCOD9190178
_publ_section_title
;
Structure prediction by ZEFSAII (Michael W. Deem and Ramdas Pophale) SiO2 
 PCOD9190178
Probable space group: C 2/M
;
_chemical_formula_sum "Si O2"
_cell_formula_units_Z 44
_cell_length_a 12.409538
_cell_length_b 16.964910
_cell_length_c 11.851816
_cell_angle_alpha 90.000000
_cell_angle_beta 122.146239
_cell_angle_gamma 90.000000
_cell_volume 2112.603222
_symmetry_space_group_name_H-M "C 2/M"
_symmetry_group_IT_number 12
_symmetry_cell_setting 'monoclinic'
loop_
_space_group_symop_operation_xyz
x,y,z
-x,y,-z
-x,-y,-z
x,-y,z
1/2+x,1/2+y,z
1/2-x,1/2+y,-z
1/2-x,1/2-y,-z
1/2+x,1/2-y,z
loop_
_atom_site_type_symbol
_atom_site_label
_atom_site_fract_x
_atom_site_fract_y
_atom_site_fract_z
Si Si1 0.000000 0.368794 0.500000
Si Si2 0.610288 0.757272 0.368493
Si Si3 0.594811 0.000000 0.228462
Si Si4 0.372255 0.000000 0.292484
Si Si5 0.866181 0.000000 0.368357
Si Si6 0.876855 0.668417 0.867773
Si Si7 0.874918 0.000000 0.003873
Si Si8 0.616276 0.364571 0.804166
O O1 0.958243 0.315327 0.581418
O O2 0.891792 0.425503 0.386330
O O3 0.750000 0.750000 0.500000
O O4 0.635545 0.792534 0.260074
O O5 0.511817 0.685081 0.289878
O O6 0.735153 0.000000 0.364573
O O7 0.593241 0.923174 0.147816
O O8 0.487047 0.000000 0.263622
O O9 0.245937 0.000000 0.146934
O O10 0.866856 0.923132 0.291781
O O11 0.000000 0.000000 0.500000
O O12 0.750107 0.681887 0.870956
O O13 0.000000 0.700494 0.000000
O O14 0.879569 0.922094 0.085573
O O15 0.000000 0.000000 0.000000
#
# Coordination Sequence:
#
# PCOD9190178 Si02
#       8
#     4   8   4   4   4   8   4   8
#     4  11  26  44  68 107 138 194 232 291 354 428
#     4  12  27  44  68  99 149 188 228 286 354 424
#     4  10  19  40  68 100 129 171 228 289 334 407
#     4  11  23  46  73  99 141 177 246 288 352 422
#     4   9  21  37  68  97 128 174 224 287 339 393
#     4  11  23  43  71 101 133 182 228 287 349 409
#     4  11  26  49  76 100 136 184 233 310 350 415
#     4  10  25  45  67 102 134 176 237 284 346 423
#
# _framework density 20.827385
#
# number of rings (size 3 to 8) (size 9 to 14) (size 15 to 20)
#    0.000    1.273    1.818    3.000    8.909    1.455 
#    3.273    0.000    0.000    0.000    0.000    0.000 
#    0.000    0.000    0.000    0.000    0.000    0.000 
#
# Total GULP energy -122766.650682 kJ/mol
# GULP energy per Si atom -5580.302304 kJ/mol
# Density = 2.077998 g / cm^3
# Si number density = 20.827385 Si / 1000 Ang^3
#
#
#
# Elastic Constant Matrix: (Units=GPa)
#
#
# Indices 1 2 3 4 5 6 
#
# 1 144.5516 39.2194 76.3883 0.0000 13.7981 0.0000
# 2 39.2194 85.8143 50.6463 0.0000 7.7930 0.0000
# 3 76.3883 50.6463 191.8116 0.0000 29.3608 0.0000
# 4 0.0000 0.0000 0.0000 12.9590 0.0000 17.3241
# 5 13.7981 7.7930 29.3608 0.0000 45.0460 0.0000
# 6 0.0000 0.0000 0.0000 17.3241 0.0000 -5.8337
#
#
#
# Elastic Compliance Matrix: (Units=1/GPa)
#
#
# Indices 1 2 3 4 5 6 
#
# 1 0.009173 -0.002412 -0.002944 0.000000 -0.000474 0.000000
# 2 -0.002412 0.014438 -0.002869 0.000000 0.000111 0.000000
# 3 -0.002944 -0.002869 0.007697 0.000000 -0.003619 0.000000
# 4 0.000000 0.000000 0.000000 0.015527 0.000000 0.046109
# 5 -0.000474 0.000111 -0.003619 0.000000 0.024684 0.000000
# 6 0.000000 0.000000 0.000000 0.046109 0.000000 -0.034491
#
#
# Mechanical properties :
#
#
# Convention : Reuss Voigt Hill
#
# Bulk Modulus (GPa) = 67.29549 83.85394 75.57472
# Shear Modulus (GPa) = 85.57042 27.49584 56.53313
#
# Velocity S-wave (km/s) = 6.41675 3.63737 5.21561
# Velocity P-wave (km/s) = 9.34242 7.61507 8.52262
#
# Compressibility (1/GPa) = 0.01485984
#
# Stress axis : x y z
#
# Youngs Moduli (GPa) = 109.01265 69.25953 129.91656
#
# Poissons Ratio (x) = 0.16705 0.38245
# Poissons Ratio (y) = 0.26294 0.37270
# Poissons Ratio (z) = 0.32091 0.19869
#
# Static dielectric constant tensor:
#      x y z
#    x 1.767530 0.000000 0.060540 
#    y 0.000000 1.850910 0.000000 
#    z 0.060540 0.000000 1.737150 
# 
# From -- ./inp_files/131629.got.cif
#   From: 2010.05.17/outbox.cif.g08.bks.cpg/sg12_66_cif.got.tgz:131629.got - 2010.06.03 13:09:07.
