data_PCOD9190800
_publ_section_title
;
Structure prediction by ZEFSAII (Michael W. Deem and Ramdas Pophale) SiO2 
 PCOD9190800
Probable space group: C 2/M
;
_chemical_formula_sum "Si O2"
_cell_formula_units_Z 58
_cell_length_a 24.452536
_cell_length_b 7.503326
_cell_length_c 15.040222
_cell_angle_alpha 90.000000
_cell_angle_beta 98.398809
_cell_angle_gamma 90.000000
_cell_volume 2729.915257
_symmetry_space_group_name_H-M "C 2/M"
_symmetry_group_IT_number 12
_symmetry_cell_setting 'monoclinic'
loop_
_space_group_symop_operation_xyz
x,y,z
-x,y,-z
-x,-y,-z
x,-y,z
1/2+x,1/2+y,z
1/2-x,1/2+y,-z
1/2-x,1/2-y,-z
1/2+x,1/2-y,z
loop_
_atom_site_type_symbol
_atom_site_label
_atom_site_fract_x
_atom_site_fract_y
_atom_site_fract_z
Si Si1 0.079600 0.714000 0.507968
Si Si2 0.783876 0.286406 0.918136
Si Si3 0.589799 0.217337 0.045527
Si Si4 0.072894 0.295771 0.709217
Si Si5 0.701679 0.209896 0.556373
Si Si6 0.488356 0.218110 0.136610
Si Si7 0.500000 0.500000 0.500000
Si Si8 0.695567 0.704666 0.757830
O O1 0.070201 0.500000 0.497289
O O2 0.076654 0.779904 0.611009
O O3 0.142677 0.756099 0.498919
O O4 0.034967 0.841120 0.454944
O O5 0.788559 0.500000 0.909341
O O6 0.847040 0.218960 0.935643
O O7 0.745793 0.220195 0.827773
O O8 0.750000 0.250000 0.000000
O O9 0.548899 0.271061 0.116291
O O10 0.590861 0.000000 0.045512
O O11 0.556969 0.270254 0.948391
O O12 0.055931 0.500000 0.691507
O O13 0.032553 0.216669 0.773008
O O14 0.136123 0.294206 0.758899
O O15 0.750000 0.250000 0.500000
O O16 0.708316 0.291562 0.655690
O O17 0.698398 0.000000 0.573410
O O18 0.487718 0.000000 0.138816
O O19 0.687446 0.500000 0.782942
#
# Coordination Sequence:
#
# PCOD9190800 Si02
#       8
#     8   8   8   8   8   8   2   8
#     4   9  21  37  56  89 116 148 193 237 289 360
#     4  10  20  32  48  74 107 144 181 224 277 333
#     4   8  14  25  43  69  99 130 174 217 262 322
#     4   9  17  31  52  77 103 132 179 229 275 325
#     4  10  21  38  63  87 114 147 193 246 295 356
#     4   8  13  24  46  71  94 130 174 221 265 314
#     4  12  22  36  64  78 120 154 178 234 304 336
#     4  10  20  32  50  79 111 142 184 230 281 344
#
# _framework density 21.246078000000001
#
# number of rings (size 3 to 8) (size 9 to 14) (size 15 to 20)
#    0.000    2.759    0.000    3.517    4.828    2.207 
#    0.000    1.379    0.000    5.793    0.000    3.862 
#    0.000    0.000    0.000    0.000    0.000    0.000 
#
# Total GULP energy -161456.088405 kJ/mol
# GULP energy per Si atom -5567.451324 kJ/mol
# Density = 2.119772 g / cm^3
# Si number density = 21.246078 Si / 1000 Ang^3
#
#
#
# Elastic Constant Matrix: (Units=GPa)
#
#
# Indices 1 2 3 4 5 6 
#
# 1 169.7278 6.0623 35.0021 0.0000 -4.9744 0.0000
# 2 6.0623 70.2490 -7.8801 0.0000 4.2301 0.0000
# 3 35.0021 -7.8801 31.1226 0.0000 -10.0652 0.0000
# 4 0.0000 0.0000 0.0000 5.7277 0.0000 -6.0901
# 5 -4.9744 4.2301 -10.0652 0.0000 38.6304 0.0000
# 6 0.0000 0.0000 0.0000 -6.0901 0.0000 13.7278
#
#
#
# Elastic Compliance Matrix: (Units=1/GPa)
#
#
# Indices 1 2 3 4 5 6 
#
# 1 0.007931 -0.001701 -0.009784 0.000000 -0.001342 0.000000
# 2 -0.001701 0.015033 0.005587 0.000000 -0.000410 0.000000
# 3 -0.009784 0.005587 0.047988 0.000000 0.010632 0.000000
# 4 0.000000 0.000000 0.000000 0.330479 0.000000 0.146612
# 5 -0.001342 -0.000410 0.010632 0.000000 0.028528 0.000000
# 6 0.000000 0.000000 0.000000 0.146612 0.000000 0.137887
#
#
# Mechanical properties :
#
#
# Convention : Reuss Voigt Hill
#
# Bulk Modulus (GPa) = 16.90459 37.49645 27.20052
# Shear Modulus (GPa) = 8.34220 27.47819 17.91020
#
# Velocity S-wave (km/s) = 1.98368 3.60019 2.90658
# Velocity P-wave (km/s) = 3.63600 5.91344 4.90863
#
# Compressibility (1/GPa) = 0.05915554
#
# Stress axis : x y z
#
# Youngs Moduli (GPa) = 126.08773 66.51910 20.83860
#
# Poissons Ratio (x) = 0.11316 0.20389
# Poissons Ratio (y) = 0.21450 -0.11643
# Poissons Ratio (z) = 1.23368 -0.37165
#
# Static dielectric constant tensor:
#      x y z
#    x 1.807800 0.000000 0.073130 
#    y 0.000000 1.829570 0.000000 
#    z 0.073130 0.000000 1.802380 
# 
# From -- ./inp_files/237777.got.cif
#   From: 2010.05.17/outbox.cif.g08.bks.cpg/sg12_119_cif.got.tgz:237777.got - 2010.06.03 13:09:07.
