data_PCOD9190258
_publ_section_title
;
Structure prediction by ZEFSAII (Michael W. Deem and Ramdas Pophale) SiO2 
 PCOD9190258
Probable space group: C 2/M
;
_chemical_formula_sum "Si O2"
_cell_formula_units_Z 64
_cell_length_a 21.112871
_cell_length_b 14.063836
_cell_length_c 13.886910
_cell_angle_alpha 90.000000
_cell_angle_beta 68.124280
_cell_angle_gamma 90.000000
_cell_volume 3826.502350
_symmetry_space_group_name_H-M "C 2/M"
_symmetry_group_IT_number 12
_symmetry_cell_setting 'monoclinic'
loop_
_space_group_symop_operation_xyz
x,y,z
-x,y,-z
-x,-y,-z
x,-y,z
1/2+x,1/2+y,z
1/2-x,1/2+y,-z
1/2-x,1/2-y,-z
1/2+x,1/2-y,z
loop_
_atom_site_type_symbol
_atom_site_label
_atom_site_fract_x
_atom_site_fract_y
_atom_site_fract_z
Si Si1 0.725173 0.609914 0.305214
Si Si2 0.425334 0.389632 0.158062
Si Si3 0.698782 0.287665 0.673481
Si Si4 0.778072 0.609632 0.788458
Si Si5 0.854420 0.787481 0.809144
Si Si6 0.863312 0.110451 0.463206
Si Si7 0.510975 0.609839 0.294083
Si Si8 0.140031 0.109060 0.995505
O O1 0.745147 0.500000 0.288554
O O2 0.781771 0.678911 0.319147
O O3 0.702724 0.651248 0.215225
O O4 0.660111 0.617558 0.413809
O O5 0.400777 0.500000 0.183153
O O6 0.370943 0.317618 0.233931
O O7 0.489438 0.384107 0.193038
O O8 0.421319 0.374207 0.046063
O O9 0.756647 0.348623 0.696325
O O10 0.684710 0.321849 0.573447
O O11 0.798122 0.500000 0.770891
O O12 0.834222 0.679014 0.802049
O O13 0.709719 0.615380 0.893336
O O14 0.927191 0.819167 0.725305
O O15 0.855722 0.818764 0.919268
O O16 0.942476 0.129961 0.394132
O O17 0.852272 0.000000 0.439149
O O18 0.531269 0.500000 0.301982
O O19 0.134192 0.000000 0.035002
#
# Coordination Sequence:
#
# PCOD9190258 Si02
#       8
#     8   8   8   8   8   8   8   8
#     4  10  20  29  40  65  95 119 143 172 213 264
#     4   8  15  28  47  69  88 111 145 182 217 253
#     4   9  15  28  49  66  82 108 146 186 216 247
#     4   9  18  31  47  66  85 111 146 180 216 255
#     4  11  20  29  43  65  92 119 143 172 211 261
#     4   9  17  30  47  65  87 114 145 182 218 254
#     4   9  17  29  45  65  88 114 144 177 215 256
#     4   9  16  28  46  67  91 112 136 175 219 258
#
# _framework density 16.725456000000001
#
# number of rings (size 3 to 8) (size 9 to 14) (size 15 to 20)
#    0.000    2.750    0.000    4.500    0.000    1.000 
#    0.000    3.750    0.000    3.000    0.000    4.375 
#    0.000    0.000    0.000    0.000    0.000    0.000 
#
# Total GULP energy -178279.920887 kJ/mol
# GULP energy per Si atom -5571.247528 kJ/mol
# Density = 1.668739 g / cm^3
# Si number density = 16.725456 Si / 1000 Ang^3
#
#
#
# Elastic Constant Matrix: (Units=GPa)
#
#
# Indices 1 2 3 4 5 6 
#
# 1 57.5662 39.5901 -3.9374 0.0000 -2.5311 0.0000
# 2 39.5901 109.9349 7.5789 0.0000 1.0489 0.0000
# 3 -3.9374 7.5789 29.9092 0.0000 5.7169 0.0000
# 4 0.0000 0.0000 0.0000 14.9416 0.0000 -0.1670
# 5 -2.5311 1.0489 5.7169 0.0000 20.3923 0.0000
# 6 0.0000 0.0000 0.0000 -0.1670 0.0000 21.2325
#
#
#
# Elastic Compliance Matrix: (Units=1/GPa)
#
#
# Indices 1 2 3 4 5 6 
#
# 1 0.024004 -0.009012 0.005057 0.000000 0.002025 0.000000
# 2 -0.009012 0.012642 -0.004281 0.000000 -0.000569 0.000000
# 3 0.005057 -0.004281 0.037006 0.000000 -0.009527 0.000000
# 4 0.000000 0.000000 0.000000 0.066933 0.000000 0.000527
# 5 0.002025 -0.000569 -0.009527 0.000000 0.051989 0.000000
# 6 0.000000 0.000000 0.000000 0.000527 0.000000 0.047102
#
#
# Mechanical properties :
#
#
# Convention : Reuss Voigt Hill
#
# Bulk Modulus (GPa) = 17.48902 31.54149 24.51525
# Shear Modulus (GPa) = 18.16786 21.59185 19.87985
#
# Velocity S-wave (km/s) = 3.29939 3.59689 3.45135
# Velocity P-wave (km/s) = 4.99939 6.01244 5.52916
#
# Compressibility (1/GPa) = 0.05717875
#
# Stress axis : x y z
#
# Youngs Moduli (GPa) = 41.65899 79.09843 27.02260
#
# Poissons Ratio (x) = 0.71287 -0.13665
# Poissons Ratio (y) = 0.37545 0.11569
# Poissons Ratio (z) = -0.21066 0.33865
#
# Static dielectric constant tensor:
#      x y z
#    x 1.580970 0.000000 0.006610 
#    y 0.000000 1.539610 0.000000 
#    z 0.006610 0.000000 1.617630 
# 
# From -- ./inp_files/239635.got.cif
#   From: 2010.05.17/outbox.cif.g08.bks.cpg/sg12_120_cif.got.tgz:239635.got - 2010.06.03 13:09:07.
