data_PCOD9190454
_publ_section_title
;
Structure prediction by ZEFSAII (Michael W. Deem and Ramdas Pophale) SiO2 
 PCOD9190454
Probable space group: C 2/M
;
_chemical_formula_sum "Si O2"
_cell_formula_units_Z 48
_cell_length_a 27.194164
_cell_length_b 24.048540
_cell_length_c 11.977654
_cell_angle_alpha 90.000000
_cell_angle_beta 19.189968
_cell_angle_gamma 90.000000
_cell_volume 2574.765011
_symmetry_space_group_name_H-M "C 2/M"
_symmetry_group_IT_number 12
_symmetry_cell_setting 'monoclinic'
loop_
_space_group_symop_operation_xyz
x,y,z
-x,y,-z
-x,-y,-z
x,-y,z
1/2+x,1/2+y,z
1/2-x,1/2+y,-z
1/2-x,1/2-y,-z
1/2+x,1/2-y,z
loop_
_atom_site_type_symbol
_atom_site_label
_atom_site_fract_x
_atom_site_fract_y
_atom_site_fract_z
Si Si1 0.366719 0.210443 0.497891
Si Si2 0.583534 0.500000 0.640574
Si Si3 0.240697 0.000000 0.538563
Si Si4 0.950250 0.218769 0.726812
Si Si5 0.538848 0.381853 0.666332
Si Si6 0.336917 0.688232 0.407563
Si Si7 0.791503 0.619865 0.510759
O O1 0.498143 0.239786 0.284674
O O2 0.315081 0.251531 0.508071
O O3 0.394266 0.150912 0.381382
O O4 0.225952 0.209039 0.883260
O O5 0.702617 0.500000 0.487629
O O6 0.587478 0.445310 0.556176
O O7 0.422749 0.500000 0.049873
O O8 0.318710 0.942873 0.411298
O O9 0.029743 0.159460 0.581599
O O10 0.000000 0.239835 0.500000
O O11 0.647700 0.353258 0.521867
O O12 0.372808 0.380568 0.077884
O O13 0.225185 0.660320 0.560029
O O14 0.500000 0.690140 0.000000
#
# Coordination Sequence:
#
# PCOD9190454 Si02
#       7
#     8   4   4   8   8   8   8
#     4  10  20  31  48  71  93 124 157 192 235 278
#     4   9  12  22  39  64  95 126 150 172 223 287
#     4   9  14  20  40  64  95 129 148 173 218 274
#     4  10  20  35  49  66  91 122 162 207 239 265
#     4   8  15  24  41  65  93 123 154 184 225 276
#     4   9  15  26  43  69 101 126 148 181 222 283
#     4   9  15  24  39  67  97 122 150 180 220 279
#
# _framework density 18.642479000000002
#
# number of rings (size 3 to 8) (size 9 to 14) (size 15 to 20)
#    0.000    2.833    1.667    2.000    0.000    0.000 
#    0.000    0.417    0.000    0.000    0.000   10.500 
#    0.000    0.000    0.000    0.000    0.000    0.000 
#
# Total GULP energy -133692.660305 kJ/mol
# GULP energy per Si atom -5570.527513 kJ/mol
# Density = 1.860005 g / cm^3
# Si number density = 18.642479 Si / 1000 Ang^3
#
#
#
# Elastic Constant Matrix: (Units=GPa)
#
#
# Indices 1 2 3 4 5 6 
#
# 1 55.2873 30.8478 8.0394 0.0030 -2.2435 -0.0030
# 2 30.8478 111.0267 -5.4052 0.0036 -8.3984 -0.0011
# 3 8.0394 -5.4052 37.8585 0.0051 -3.6787 -0.0056
# 4 0.0030 0.0036 0.0051 10.5027 0.0002 -3.0660
# 5 -2.2435 -8.3984 -3.6787 0.0002 10.1250 0.0010
# 6 -0.0030 -0.0011 -0.0056 -3.0660 0.0010 -0.4436
#
#
#
# Elastic Compliance Matrix: (Units=1/GPa)
#
#
# Indices 1 2 3 4 5 6 
#
# 1 0.022648 -0.006801 -0.006055 -0.000007 -0.002823 -0.000020
# 2 -0.006801 0.011836 0.004086 -0.000003 0.009796 0.000005
# 3 -0.006055 0.004086 0.029525 -0.000035 0.012775 -0.000072
# 4 -0.000007 -0.000003 -0.000035 0.031554 0.000003 -0.218070
# 5 -0.002823 0.009796 0.012775 0.000003 0.110907 0.000047
# 6 -0.000020 0.000005 -0.000072 -0.218070 0.000047 -0.747012
#
#
# Mechanical properties :
#
#
# Convention : Reuss Voigt Hill
#
# Bulk Modulus (GPa) = 21.51942 30.12627 25.82285
# Shear Modulus (GPa) = -9.85195 15.41618 2.78212
#
# Velocity S-wave (km/s) = -2.30134 2.87877 1.22294
# Velocity P-wave (km/s) = 2.12291 5.21966 3.98445
#
# Compressibility (1/GPa) = 0.04646965
#
# Stress axis : x y z
#
# Youngs Moduli (GPa) = 44.15460 84.48623 33.87018
#
# Poissons Ratio (x) = 0.57457 0.20507
# Poissons Ratio (y) = 0.30028 -0.13839
# Poissons Ratio (z) = 0.26734 -0.34520
#
# Static dielectric constant tensor:
#      x y z
#    x 1.629360 0.000000 -0.016190 
#    y 0.000000 1.689000 0.000000 
#    z -0.016190 0.000000 1.649220 
# 
# From -- ./inp_files/134510.got.cif
#   From: 2010.05.17/outbox.cif.g08.bks.cpg/sg12_68_cif.got.tgz:134510.got - 2010.06.03 13:09:07.
