data_PCOD9190328
_publ_section_title
;
Structure prediction by ZEFSAII (Michael W. Deem and Ramdas Pophale) SiO2 
 PCOD9190328
Probable space group: C 2/M
;
_chemical_formula_sum "Si O2"
_cell_formula_units_Z 48
_cell_length_a 19.487650
_cell_length_b 14.030874
_cell_length_c 14.302779
_cell_angle_alpha 90.000000
_cell_angle_beta 141.255882
_cell_angle_gamma 90.000000
_cell_volume 2447.542853
_symmetry_space_group_name_H-M "C 2/M"
_symmetry_group_IT_number 12
_symmetry_cell_setting 'monoclinic'
loop_
_space_group_symop_operation_xyz
x,y,z
-x,y,-z
-x,-y,-z
x,-y,z
1/2+x,1/2+y,z
1/2-x,1/2+y,-z
1/2-x,1/2-y,-z
1/2+x,1/2-y,z
loop_
_atom_site_type_symbol
_atom_site_label
_atom_site_fract_x
_atom_site_fract_y
_atom_site_fract_z
Si Si1 0.605849 0.698881 0.963836
Si Si2 0.782364 0.259403 0.737441
Si Si3 0.910948 0.890558 0.518613
Si Si4 0.386805 0.892590 0.969460
Si Si5 0.847573 0.892199 0.176755
Si Si6 0.880733 0.892906 0.710780
O O1 0.558219 0.807091 0.914212
O O2 0.656080 0.673863 0.917682
O O3 0.504987 0.629021 0.875830
O O4 0.692655 0.700163 0.140831
O O5 0.665897 0.309698 0.605212
O O6 0.808284 0.189734 0.679912
O O7 0.867776 0.348075 0.845817
O O8 0.885865 0.888202 0.603661
O O9 0.040880 0.871884 0.648162
O O10 0.887586 0.000000 0.461214
O O11 0.428214 0.000000 0.016326
O O12 0.263450 0.892252 0.882557
O O13 0.863742 0.000000 0.158079
O O14 0.847194 0.000000 0.701802
#
# Coordination Sequence:
#
# PCOD9190328 Si02
#       6
#     8   8   8   8   8   8
#     4   9  19  31  51  75 102 131 167 209 249 296
#     4  10  20  30  50  77 108 129 162 210 256 297
#     4   9  18  33  54  76 102 132 167 207 251 300
#     4   9  19  32  49  75 107 134 167 206 251 300
#     4   9  17  33  55  77 102 134 169 208 248 296
#     4  10  20  36  54  75 100 132 172 212 251 300
#
# _framework density 19.611505000000001
#
# number of rings (size 3 to 8) (size 9 to 14) (size 15 to 20)
#    1.000    1.667    0.000    3.500    0.000    2.667 
#    0.000    5.000    0.000    4.000    0.000    1.167 
#    0.000    0.000    0.000    0.000    0.000    0.000 
#
# Total GULP energy -133655.749069 kJ/mol
# GULP energy per Si atom -5568.989545 kJ/mol
# Density = 1.956687 g / cm^3
# Si number density = 19.611505 Si / 1000 Ang^3
#
#
#
# Elastic Constant Matrix: (Units=GPa)
#
#
# Indices 1 2 3 4 5 6 
#
# 1 80.5886 41.9376 20.7445 0.0000 5.6023 0.0000
# 2 41.9376 84.3688 8.3082 0.0000 0.9399 0.0000
# 3 20.7445 8.3082 56.4627 0.0000 -0.2378 0.0000
# 4 0.0000 0.0000 0.0000 29.6732 0.0000 0.0690
# 5 5.6023 0.9399 -0.2378 0.0000 17.0736 0.0000
# 6 0.0000 0.0000 0.0000 0.0690 0.0000 30.3302
#
#
#
# Elastic Compliance Matrix: (Units=1/GPa)
#
#
# Indices 1 2 3 4 5 6 
#
# 1 0.018805 -0.008727 -0.005649 0.000000 -0.005769 0.000000
# 2 -0.008727 0.016085 0.000848 0.000000 0.001990 0.000000
# 3 -0.005649 0.000848 0.019670 0.000000 0.002081 0.000000
# 4 0.000000 0.000000 0.000000 0.033701 0.000000 -0.000077
# 5 -0.005769 0.001990 0.002081 0.000000 0.060382 0.000000
# 6 0.000000 0.000000 0.000000 -0.000077 0.000000 0.032971
#
#
# Mechanical properties :
#
#
# Convention : Reuss Voigt Hill
#
# Bulk Modulus (GPa) = 36.35854 40.37787 38.36820
# Shear Modulus (GPa) = 22.95268 25.44406 24.19837
#
# Velocity S-wave (km/s) = 3.42478 3.60586 3.51648
# Velocity P-wave (km/s) = 5.84965 6.16197 6.00784
#
# Compressibility (1/GPa) = 0.02750386
#
# Stress axis : x y z
#
# Youngs Moduli (GPa) = 53.17601 62.16934 50.83784
#
# Poissons Ratio (x) = 0.54256 0.28720
# Poissons Ratio (y) = 0.46407 -0.04311
# Poissons Ratio (z) = 0.30041 -0.05271
#
# Static dielectric constant tensor:
#      x y z
#    x 1.745410 0.000000 0.001480 
#    y 0.000000 1.713030 0.000000 
#    z 0.001480 0.000000 1.716460 
# 
# From -- ./inp_files/284077.got.cif
#   From: 2010.05.17/outbox.cif.g08.bks.cpg/sg12_143_cif.got.tgz:284077.got - 2010.06.03 13:09:07.
