data_PCOD9190541
_publ_section_title
;
Structure prediction by ZEFSAII (Michael W. Deem and Ramdas Pophale) SiO2 
 PCOD9190541
Probable space group: C 2/M
;
_chemical_formula_sum "Si O2"
_cell_formula_units_Z 64
_cell_length_a 20.893226
_cell_length_b 27.603437
_cell_length_c 12.492928
_cell_angle_alpha 90.000000
_cell_angle_beta 149.924170
_cell_angle_gamma 90.000000
_cell_volume 3610.745976
_symmetry_space_group_name_H-M "C 2/M"
_symmetry_group_IT_number 12
_symmetry_cell_setting 'monoclinic'
loop_
_space_group_symop_operation_xyz
x,y,z
-x,y,-z
-x,-y,-z
x,-y,z
1/2+x,1/2+y,z
1/2-x,1/2+y,-z
1/2-x,1/2-y,-z
1/2+x,1/2-y,z
loop_
_atom_site_type_symbol
_atom_site_label
_atom_site_fract_x
_atom_site_fract_y
_atom_site_fract_z
Si Si1 0.696017 0.057285 0.101422
Si Si2 0.407345 0.707975 0.642112
Si Si3 0.964728 0.054703 0.575940
Si Si4 0.183071 0.122840 0.900274
Si Si5 0.469937 0.140495 0.078901
Si Si6 0.290094 0.304372 0.885969
Si Si7 0.706518 0.816081 0.523338
Si Si8 0.790361 0.196344 0.241818
O O1 0.815311 0.066195 0.354943
O O2 0.732767 0.083397 0.042355
O O3 0.683079 0.000000 0.069176
O O4 0.577997 0.085704 0.979066
O O5 0.362283 0.763717 0.589295
O O6 0.322601 0.680305 0.607610
O O7 0.365138 0.693243 0.461688
O O8 0.557579 0.702615 0.878742
O O9 0.000000 0.053940 0.500000
O O10 0.058233 0.094278 0.760476
O O11 0.985409 0.000000 0.646513
O O12 0.148534 0.163077 0.760961
O O13 0.249419 0.153317 0.089564
O O14 0.594547 0.147506 0.330714
O O15 0.500000 0.153413 0.000000
O O16 0.351908 0.174412 0.945650
O O17 0.257544 0.318277 0.717464
O O18 0.223416 0.252482 0.811201
#
# Coordination Sequence:
#
# PCOD9190541 Si02
#       8
#     8   8   8   8   8   8   8   8
#     4   9  20  36  55  82 110 134 177 238 290 330
#     4  10  20  33  55  72 106 148 191 222 263 303
#     4   8  15  30  52  78 104 129 170 230 280 319
#     4  10  20  31  53  78 114 141 179 220 280 328
#     4  11  20  35  59  79 109 142 186 228 277 327
#     4  11  22  33  51  78 113 153 182 219 263 322
#     4  10  21  36  51  77 109 146 189 225 255 321
#     4  10  21  34  48  80 110 145 185 223 266 317
#
# _framework density 17.724869000000002
#
# number of rings (size 3 to 8) (size 9 to 14) (size 15 to 20)
#    0.000    2.125    2.500    1.875    7.000    0.250 
#    0.000    2.500    0.000    2.250    0.000    0.000 
#    0.000    7.000    0.000    0.000    0.000    0.000 
#
# Total GULP energy -178546.182709 kJ/mol
# GULP energy per Si atom -5579.568210 kJ/mol
# Density = 1.768453 g / cm^3
# Si number density = 17.724869 Si / 1000 Ang^3
#
#
#
# Elastic Constant Matrix: (Units=GPa)
#
#
# Indices 1 2 3 4 5 6 
#
# 1 36.2817 21.9462 18.0782 0.0000 -3.8167 0.0000
# 2 21.9462 96.5712 31.3584 0.0000 -8.3894 0.0000
# 3 18.0782 31.3584 82.6747 0.0000 -9.3270 0.0000
# 4 0.0000 0.0000 0.0000 22.8443 0.0000 5.3394
# 5 -3.8167 -8.3894 -9.3270 0.0000 19.5456 0.0000
# 6 0.0000 0.0000 0.0000 5.3394 0.0000 18.9416
#
#
#
# Elastic Compliance Matrix: (Units=1/GPa)
#
#
# Indices 1 2 3 4 5 6 
#
# 1 0.033791 -0.005924 -0.004951 0.000000 0.001693 0.000000
# 2 -0.005924 0.013028 -0.003325 0.000000 0.002849 0.000000
# 3 -0.004951 -0.003325 0.014975 0.000000 0.004752 0.000000
# 4 0.000000 0.000000 0.000000 0.046862 0.000000 -0.013210
# 5 0.001693 0.002849 0.004752 0.000000 0.054983 0.000000
# 6 0.000000 0.000000 0.000000 -0.013210 0.000000 0.056517
#
#
# Mechanical properties :
#
#
# Convention : Reuss Voigt Hill
#
# Bulk Modulus (GPa) = 29.94507 39.81036 34.87772
# Shear Modulus (GPa) = 19.25380 21.87597 20.56488
#
# Velocity S-wave (km/s) = 3.29942 3.51692 3.40991
# Velocity P-wave (km/s) = 5.60767 6.24505 5.93492
#
# Compressibility (1/GPa) = 0.03339447
#
# Stress axis : x y z
#
# Youngs Moduli (GPa) = 29.59406 76.75485 66.77606
#
# Poissons Ratio (x) = 0.45472 0.33059
# Poissons Ratio (y) = 0.17533 0.22202
# Poissons Ratio (z) = 0.14651 0.25520
#
# Static dielectric constant tensor:
#      x y z
#    x 1.627590 0.000000 0.024480 
#    y 0.000000 1.628950 0.000000 
#    z 0.024480 0.000000 1.600440 
# 
# From -- ./inp_files/170636.got.cif
#   From: 2010.05.17/outbox.cif.g08.bks.cpg/sg12_86_cif.got.tgz:170636.got - 2010.06.03 13:09:07.
