data_PCOD9190304
_publ_section_title
;
Structure prediction by ZEFSAII (Michael W. Deem and Ramdas Pophale) SiO2 
 PCOD9190304
Probable space group: C 2/M
;
_chemical_formula_sum "Si O2"
_cell_formula_units_Z 64
_cell_length_a 9.533699
_cell_length_b 20.469468
_cell_length_c 16.651176
_cell_angle_alpha 90.000000
_cell_angle_beta 122.984156
_cell_angle_gamma 90.000000
_cell_volume 2725.726475
_symmetry_space_group_name_H-M "C 2/M"
_symmetry_group_IT_number 12
_symmetry_cell_setting 'monoclinic'
loop_
_space_group_symop_operation_xyz
x,y,z
-x,y,-z
-x,-y,-z
x,-y,z
1/2+x,1/2+y,z
1/2-x,1/2+y,-z
1/2-x,1/2-y,-z
1/2+x,1/2-y,z
loop_
_atom_site_type_symbol
_atom_site_label
_atom_site_fract_x
_atom_site_fract_y
_atom_site_fract_z
Si Si1 0.746253 0.931640 0.078820
Si Si2 0.711424 0.174310 0.492577
Si Si3 0.981622 0.926492 0.604549
Si Si4 0.379508 0.570580 0.761030
Si Si5 0.747816 0.788025 0.081341
Si Si6 0.350504 0.819528 0.338736
Si Si7 0.358491 0.926467 0.766204
Si Si8 0.089388 0.722388 0.201489
O O1 0.699151 0.860569 0.036616
O O2 0.692113 0.931866 0.155192
O O3 0.947443 0.930085 0.137450
O O4 0.686423 0.000000 0.022782
O O5 0.750000 0.250000 0.500000
O O6 0.867599 0.127204 0.525919
O O7 0.669789 0.163625 0.573563
O O8 0.546251 0.168798 0.386764
O O9 0.937046 0.922933 0.685980
O O10 0.181251 0.919575 0.664494
O O11 0.935041 0.000000 0.564304
O O12 0.295992 0.500000 0.743654
O O13 0.257826 0.628772 0.744512
O O14 0.628094 0.771776 0.118274
O O15 0.935355 0.770999 0.174442
O O16 0.750000 0.750000 0.000000
O O17 0.260346 0.750043 0.295855
O O18 0.442941 0.854266 0.788633
O O19 0.428066 0.000000 0.766927
#
# Coordination Sequence:
#
# PCOD9190304 Si02
#       8
#     8   8   8   8   8   8   8   8
#     4   8  14  29  54  80 105 140 185 227 264 325
#     4  10  20  30  46  73 112 138 184 232 271 324
#     4   8  14  26  46  72 104 141 184 233 271 311
#     4   8  13  25  46  72 102 133 177 222 264 323
#     4  11  23  39  60  89 117 144 184 238 288 342
#     4  10  20  31  48  78 104 147 181 225 281 328
#     4   8  15  29  53  81 105 142 193 233 266 323
#     4  11  22  37  62  84 115 151 187 228 289 344
#
# _framework density 23.479977999999999
#
# number of rings (size 3 to 8) (size 9 to 14) (size 15 to 20)
#    0.000    2.750    1.250    2.625    3.500    0.500 
#    0.000    3.125    0.000    7.500    0.000    3.500 
#    0.000    0.000    0.000    0.000    0.000    0.000 
#
# Total GULP energy -178386.616143 kJ/mol
# GULP energy per Si atom -5574.581754 kJ/mol
# Density = 2.342654 g / cm^3
# Si number density = 23.479978 Si / 1000 Ang^3
#
#
#
# Elastic Constant Matrix: (Units=GPa)
#
#
# Indices 1 2 3 4 5 6 
#
# 1 66.8190 21.1723 22.1735 0.0000 6.0021 0.0000
# 2 21.1723 140.3403 15.4500 0.0000 12.3299 0.0000
# 3 22.1735 15.4500 58.9103 0.0000 8.6608 0.0000
# 4 0.0000 0.0000 0.0000 31.5595 0.0000 5.6348
# 5 6.0021 12.3299 8.6608 0.0000 38.1341 0.0000
# 6 0.0000 0.0000 0.0000 5.6348 0.0000 11.5884
#
#
#
# Elastic Compliance Matrix: (Units=1/GPa)
#
#
# Indices 1 2 3 4 5 6 
#
# 1 0.017646 -0.001930 -0.006020 0.000000 -0.000786 0.000000
# 2 -0.001930 0.007699 -0.001005 0.000000 -0.001957 0.000000
# 3 -0.006020 -0.001005 0.019985 0.000000 -0.003266 0.000000
# 4 0.000000 0.000000 0.000000 0.034699 0.000000 -0.016872
# 5 -0.000786 -0.001957 -0.003266 0.000000 0.027722 0.000000
# 6 0.000000 0.000000 0.000000 -0.016872 0.000000 0.094497
#
#
# Mechanical properties :
#
#
# Convention : Reuss Voigt Hill
#
# Bulk Modulus (GPa) = 36.47066 42.62900 39.54983
# Shear Modulus (GPa) = 21.80582 30.07467 25.94025
#
# Velocity S-wave (km/s) = 3.05076 3.58280 3.32743
# Velocity P-wave (km/s) = 5.28923 5.94223 5.62521
#
# Compressibility (1/GPa) = 0.02741930
#
# Stress axis : x y z
#
# Youngs Moduli (GPa) = 56.67092 129.88102 50.03859
#
# Poissons Ratio (x) = 0.25071 0.30123
# Poissons Ratio (y) = 0.10939 0.05029
# Poissons Ratio (z) = 0.34116 0.13052
#
# Static dielectric constant tensor:
#      x y z
#    x -0.693900 0.000000 1.447480 
#    y 0.000000 1.847190 0.000000 
#    z 1.447480 0.000000 1.203880 
# 
# From -- ./inp_files/265085.got.cif
#   From: 2010.05.17/outbox.cif.g08.bks.cpg/sg12_133_cif.got.tgz:265085.got - 2010.06.03 13:09:07.
