data_PCOD9190848
_publ_section_title
;
Structure prediction by ZEFSAII (Michael W. Deem and Ramdas Pophale) SiO2 
 PCOD9190848
Probable space group: C 2/M
;
_chemical_formula_sum "Si O2"
_cell_formula_units_Z 56
_cell_length_a 15.112046
_cell_length_b 8.860397
_cell_length_c 18.718656
_cell_angle_alpha 90.000000
_cell_angle_beta 90.682199
_cell_angle_gamma 90.000000
_cell_volume 2506.226549
_symmetry_space_group_name_H-M "C 2/M"
_symmetry_group_IT_number 12
_symmetry_cell_setting 'monoclinic'
loop_
_space_group_symop_operation_xyz
x,y,z
-x,y,-z
-x,-y,-z
x,-y,z
1/2+x,1/2+y,z
1/2-x,1/2+y,-z
1/2-x,1/2-y,-z
1/2+x,1/2-y,z
loop_
_atom_site_type_symbol
_atom_site_label
_atom_site_fract_x
_atom_site_fract_y
_atom_site_fract_z
Si Si1 0.379918 0.820169 0.045288
Si Si2 0.429039 0.318461 0.908498
Si Si3 0.471249 0.678267 0.756558
Si Si4 0.155682 0.321767 0.802769
Si Si5 0.712909 0.671080 0.670564
Si Si6 0.411481 0.830313 0.611798
Si Si7 0.655633 0.318930 0.522586
O O1 0.477579 0.762656 0.071319
O O2 0.320587 0.787646 0.114748
O O3 0.381360 0.000000 0.033434
O O4 0.363766 0.736414 0.970423
O O5 0.439316 0.500000 0.913125
O O6 0.411171 0.279536 0.825398
O O7 0.463646 0.500000 0.747143
O O8 0.568988 0.726439 0.781725
O O9 0.454406 0.756296 0.681373
O O10 0.136056 0.500000 0.800194
O O11 0.219468 0.277666 0.738919
O O12 0.688588 0.500000 0.691891
O O13 0.808493 0.663040 0.634873
O O14 0.646636 0.723299 0.606344
O O15 0.411895 0.739834 0.537674
O O16 0.444133 0.000000 0.600730
O O17 0.659491 0.500000 0.520254
O O18 0.750000 0.250000 0.500000
#
# Coordination Sequence:
#
# PCOD9190848 Si02
#       7
#     8   8   8   8   8   8   8
#     4   9  16  26  42  66  94 124 158 197 239 280
#     4   9  16  26  43  67  92 123 161 197 236 283
#     4  10  20  33  50  73 102 132 162 201 247 292
#     4  10  20  32  49  74 102 131 163 201 244 290
#     4   9  19  34  52  74  99 128 161 199 243 289
#     4  10  20  34  53  76 100 128 164 203 245 292
#     4   9  17  31  51  74  98 126 163 203 242 286
#
# _framework density 22.344349000000001
#
# number of rings (size 3 to 8) (size 9 to 14) (size 15 to 20)
#    0.000    2.571    0.000    4.286    0.000    6.857 
#    0.000    0.714    0.000    5.143    0.000    0.000 
#    0.000    0.000    0.000    0.000    0.000    0.000 
#
# Total GULP energy -156174.417029 kJ/mol
# GULP energy per Si atom -5577.657751 kJ/mol
# Density = 2.229349 g / cm^3
# Si number density = 22.344349 Si / 1000 Ang^3
#
#
#
# Elastic Constant Matrix: (Units=GPa)
#
#
# Indices 1 2 3 4 5 6 
#
# 1 12.5363 10.0517 66.1517 0.0000 6.7186 0.0000
# 2 10.0517 71.0594 47.8042 0.0000 -0.0774 0.0000
# 3 66.1517 47.8042 109.1494 0.0000 2.4573 0.0000
# 4 0.0000 0.0000 0.0000 39.0402 0.0000 -2.0183
# 5 6.7186 -0.0774 2.4573 0.0000 34.2623 0.0000
# 6 0.0000 0.0000 0.0000 -2.0183 0.0000 11.1111
#
#
#
# Elastic Compliance Matrix: (Units=1/GPa)
#
#
# Indices 1 2 3 4 5 6 
#
# 1 -0.028272 -0.010581 0.021680 0.000000 0.003965 0.000000
# 2 -0.010581 0.016006 -0.000646 0.000000 0.002157 0.000000
# 3 0.021680 -0.000646 -0.003605 0.000000 -0.003994 0.000000
# 4 0.000000 0.000000 0.000000 0.025857 0.000000 0.004697
# 5 0.003965 0.002157 -0.003994 0.000000 0.028700 0.000000
# 6 0.000000 0.000000 0.000000 0.004697 0.000000 0.090853
#
#
# Mechanical properties :
#
#
# Convention : Reuss Voigt Hill
#
# Bulk Modulus (GPa) = 198.62203 48.97337 123.79770
# Shear Modulus (GPa) = 45.32506 21.46524 33.39515
#
# Velocity S-wave (km/s) = 4.50875 3.10281 3.87016
# Velocity P-wave (km/s) = 10.77912 5.89930 8.68882
#
# Compressibility (1/GPa) = 0.00503469
#
# Stress axis : x y z
#
# Youngs Moduli (GPa) = -35.37064 62.47473 -277.41929
#
# Poissons Ratio (x) = 0.66105 6.01435
# Poissons Ratio (y) = -0.37426 -0.17923
# Poissons Ratio (z) = 0.76682 0.04036
#
# Static dielectric constant tensor:
#      x y z
#    x 1.951290 0.000000 -0.041710 
#    y 0.000000 1.762760 0.000000 
#    z -0.041710 0.000000 1.910430 
# 
# From -- ./inp_files/280321.got.cif
#   From: 2010.05.17/outbox.cif.g08.bks.cpg/sg12_141_cif.got.tgz:280321.got - 2010.06.03 13:09:07.
