data_PCOD9190259
_publ_section_title
;
Structure prediction by ZEFSAII (Michael W. Deem and Ramdas Pophale) SiO2 
 PCOD9190259
Probable space group: C 2/M
;
_chemical_formula_sum "Si O2"
_cell_formula_units_Z 64
_cell_length_a 27.248763
_cell_length_b 14.174448
_cell_length_c 28.523504
_cell_angle_alpha 90.000000
_cell_angle_beta 159.561238
_cell_angle_gamma 90.000000
_cell_volume 3847.136505
_symmetry_space_group_name_H-M "C 2/M"
_symmetry_group_IT_number 12
_symmetry_cell_setting 'monoclinic'
loop_
_space_group_symop_operation_xyz
x,y,z
-x,y,-z
-x,-y,-z
x,-y,z
1/2+x,1/2+y,z
1/2-x,1/2+y,-z
1/2-x,1/2-y,-z
1/2+x,1/2-y,z
loop_
_atom_site_type_symbol
_atom_site_label
_atom_site_fract_x
_atom_site_fract_y
_atom_site_fract_z
Si Si1 0.689603 0.885127 0.001540
Si Si2 0.416320 0.608802 0.473580
Si Si3 0.827930 0.387074 0.804867
Si Si4 0.700176 0.889674 0.499889
Si Si5 0.001537 0.886483 0.732118
Si Si6 0.105403 0.387377 0.307798
Si Si7 0.393737 0.708246 0.541584
Si Si8 0.157473 0.612321 0.079366
O O1 0.694206 0.852127 0.060244
O O2 0.839007 0.861274 0.111189
O O3 0.682513 0.000000 0.996468
O O4 0.546728 0.855137 0.847305
O O5 0.500000 0.608635 0.500000
O O6 0.409423 0.500000 0.484258
O O7 0.266594 0.647556 0.322046
O O8 0.469476 0.673110 0.562901
O O9 0.801768 0.500000 0.783518
O O10 0.789843 0.350485 0.822821
O O11 0.989923 0.376825 0.936626
O O12 0.866548 0.864775 0.643696
O O13 0.630985 0.873808 0.386439
O O14 0.625956 0.818957 0.468836
O O15 0.687938 0.000000 0.500143
O O16 0.969090 0.835955 0.654138
O O17 0.996200 0.000000 0.720124
O O18 0.116614 0.500000 0.309148
O O19 0.237555 0.337430 0.402047
O O20 0.190731 0.500000 0.108449
#
# Coordination Sequence:
#
# PCOD9190259 Si02
#       8
#     8   8   8   8   8   8   8   8
#     4   9  16  24  40  67  99 127 151 178 217 269
#     4  10  20  29  42  67  97 121 141 173 218 273
#     4   8  14  24  35  52  82 120 155 176 194 240
#     4   9  19  35  50  63  83 118 163 202 238 271
#     4   9  17  28  45  71  98 122 149 186 229 275
#     4   9  16  28  47  71  97 126 156 183 218 276
#     4  11  19  31  48  65  90 125 160 190 227 275
#     4   8  13  21  35  53  81 123 156 171 194 243
#
# _framework density 16.635750000000002
#
# number of rings (size 3 to 8) (size 9 to 14) (size 15 to 20)
#    0.000    2.875    0.000    4.875    1.750    2.000 
#    0.000    2.500    0.000    0.375    0.000    0.000 
#    0.000    0.000    0.000    4.375    0.000    1.500 
#
# Total GULP energy -178145.525031 kJ/mol
# GULP energy per Si atom -5567.047657 kJ/mol
# Density = 1.659789 g / cm^3
# Si number density = 16.635750 Si / 1000 Ang^3
#
#
#
# Elastic Constant Matrix: (Units=GPa)
#
#
# Indices 1 2 3 4 5 6 
#
# 1 45.5444 26.3590 5.4035 0.0010 1.1585 0.0006
# 2 26.3590 34.6862 9.1678 -0.0010 -0.3521 -0.0002
# 3 5.4035 9.1678 62.9216 -0.0015 10.9468 -0.0004
# 4 0.0010 -0.0010 -0.0015 3.6377 -0.0010 4.6810
# 5 1.1585 -0.3521 10.9468 -0.0010 11.1255 -0.0002
# 6 0.0006 -0.0002 -0.0004 4.6810 -0.0002 13.5254
#
#
#
# Elastic Compliance Matrix: (Units=1/GPa)
#
#
# Indices 1 2 3 4 5 6 
#
# 1 0.039759 -0.030922 0.002391 -0.000032 -0.007471 0.000009
# 2 -0.030922 0.054408 -0.007398 0.000038 0.012221 -0.000011
# 3 0.002391 -0.007398 0.020329 0.000000 -0.020486 0.000000
# 4 -0.000032 0.000038 0.000000 0.495632 0.000048 -0.171534
# 5 -0.007471 0.012221 -0.020486 0.000048 0.111206 -0.000015
# 6 0.000009 -0.000011 0.000000 -0.171534 -0.000015 0.133301
#
#
# Mechanical properties :
#
#
# Convention : Reuss Voigt Hill
#
# Bulk Modulus (GPa) = 23.45315 25.00141 24.22728
# Shear Modulus (GPa) = 5.31516 12.47251 8.89383
#
# Velocity S-wave (km/s) = 1.78940 2.74111 2.31470
# Velocity P-wave (km/s) = 4.28928 5.00795 4.66248
#
# Compressibility (1/GPa) = 0.04263819
#
# Stress axis : x y z
#
# Youngs Moduli (GPa) = 25.15144 18.37976 49.18976
#
# Poissons Ratio (x) = 0.56834 -0.11760
# Poissons Ratio (y) = 0.77773 0.36391
# Poissons Ratio (z) = -0.06013 0.13597
#
# Static dielectric constant tensor:
#      x y z
#    x 1.612550 0.000000 0.025340 
#    y 0.000000 1.538670 0.000000 
#    z 0.025340 0.000000 1.654140 
# 
# From -- ./inp_files/385224.got.cif
#   From: 2010.05.17/outbox.cif.g08.bks.cpg/sg12_193_cif.got.tgz:385224.got - 2010.06.03 13:09:07.
