data_PCOD9190825
_publ_section_title
;
Structure prediction by ZEFSAII (Michael W. Deem and Ramdas Pophale) SiO2 
 PCOD9190825
Probable space group: C 2/M
;
_chemical_formula_sum "Si O2"
_cell_formula_units_Z 56
_cell_length_a 14.950471
_cell_length_b 7.457869
_cell_length_c 25.608203
_cell_angle_alpha 90.000000
_cell_angle_beta 115.738147
_cell_angle_gamma 90.000000
_cell_volume 2572.002387
_symmetry_space_group_name_H-M "C 2/M"
_symmetry_group_IT_number 12
_symmetry_cell_setting 'monoclinic'
loop_
_space_group_symop_operation_xyz
x,y,z
-x,y,-z
-x,-y,-z
x,-y,z
1/2+x,1/2+y,z
1/2-x,1/2+y,-z
1/2-x,1/2-y,-z
1/2+x,1/2-y,z
loop_
_atom_site_type_symbol
_atom_site_label
_atom_site_fract_x
_atom_site_fract_y
_atom_site_fract_z
Si Si1 0.813913 0.783174 0.090598
Si Si2 0.824422 0.783296 0.312475
Si Si3 0.384356 0.710629 0.685034
Si Si4 0.240483 0.213888 0.436902
Si Si5 0.558562 0.700620 0.563331
Si Si6 0.902364 0.212039 0.004244
Si Si7 0.905673 0.780555 0.222832
O O1 0.698393 0.734395 0.054516
O O2 0.860605 0.719622 0.156651
O O3 0.818071 0.000000 0.090902
O O4 0.873911 0.716727 0.054678
O O5 0.716485 0.731255 0.307003
O O6 0.914115 0.718745 0.373416
O O7 0.842643 0.727641 0.257804
O O8 0.830050 0.000000 0.316260
O O9 0.404508 0.500000 0.684296
O O10 0.356723 0.774698 0.619537
O O11 0.481983 0.783282 0.737592
O O12 0.250000 0.250000 0.500000
O O13 0.331651 0.309985 0.432549
O O14 0.251072 0.000000 0.431518
O O15 0.500000 0.788623 0.500000
O O16 0.514089 0.500000 0.559677
O O17 0.919934 0.000000 0.015674
O O18 0.000000 0.285648 0.000000
O O19 0.904910 0.000000 0.220662
#
# Coordination Sequence:
#
# PCOD9190825 Si02
#       7
#     8   8   8   8   8   8   8
#     4   9  18  33  52  77 105 133 173 212 244 295
#     4   9  18  33  51  71  98 128 165 210 253 304
#     4   9  19  35  53  72  99 132 169 210 257 310
#     4  10  20  32  49  71  97 126 163 210 259 311
#     4   9  18  31  50  71  92 122 163 206 256 314
#     4   9  18  33  53  77 107 139 169 206 251 293
#     4   9  18  33  54  75  99 137 172 204 251 307
#
# _framework density 21.772919000000002
#
# number of rings (size 3 to 8) (size 9 to 14) (size 15 to 20)
#    0.000    2.857    0.000    0.429    2.000    2.286 
#    0.000    3.571    0.000    0.000    0.000    0.000 
#    0.000    0.000    0.000    0.000    0.000    0.000 
#
# Total GULP energy -156105.094366 kJ/mol
# GULP energy per Si atom -5575.181942 kJ/mol
# Density = 2.172336 g / cm^3
# Si number density = 21.772919 Si / 1000 Ang^3
#
#
#
# Elastic Constant Matrix: (Units=GPa)
#
#
# Indices 1 2 3 4 5 6 
#
# 1 121.4421 -10.1007 85.4110 0.0000 0.7603 0.0000
# 2 -10.1007 67.4512 -6.1476 0.0000 -2.6667 0.0000
# 3 85.4110 -6.1476 221.5750 0.0000 -3.5907 0.0000
# 4 0.0000 0.0000 0.0000 -13.3574 0.0000 4.2429
# 5 0.7603 -2.6667 -3.5907 0.0000 18.5748 0.0000
# 6 0.0000 0.0000 0.0000 4.2429 0.0000 9.2045
#
#
#
# Elastic Compliance Matrix: (Units=1/GPa)
#
#
# Indices 1 2 3 4 5 6 
#
# 1 0.011435 0.001267 -0.004391 0.000000 -0.001135 0.000000
# 2 0.001267 0.015095 -0.000036 0.000000 0.002108 0.000000
# 3 -0.004391 -0.000036 0.006227 0.000000 0.001378 0.000000
# 4 0.000000 0.000000 0.000000 -0.065303 0.000000 0.030102
# 5 -0.001135 0.002108 0.001378 0.000000 0.054452 0.000000
# 6 0.000000 0.000000 0.000000 0.030102 0.000000 0.094766
#
#
# Mechanical properties :
#
#
# Convention : Reuss Voigt Hill
#
# Bulk Modulus (GPa) = 37.82285 60.97707 49.39996
# Shear Modulus (GPa) = 37.93483 25.63809 31.78646
#
# Velocity S-wave (km/s) = 4.17861 3.43523 3.82502
# Velocity P-wave (km/s) = 6.37889 6.61824 6.49967
#
# Compressibility (1/GPa) = 0.02643904
#
# Stress axis : x y z
#
# Youngs Moduli (GPa) = 87.44892 66.24523 160.58635
#
# Poissons Ratio (x) = -0.08395 0.70517
# Poissons Ratio (y) = -0.11083 0.00570
# Poissons Ratio (z) = 0.38401 0.00235
#
# Static dielectric constant tensor:
#      x y z
#    x 1.767050 0.000000 -0.001240 
#    y 0.000000 1.843750 0.000000 
#    z -0.001240 0.000000 1.820060 
# 
# From -- ./inp_files/342035.got.cif
#   From: 2010.05.17/outbox.cif.g08.bks.cpg/sg12_172_cif.got.tgz:342035.got - 2010.06.03 13:09:07.
