data_PCOD9190026
_publ_section_title
;
Structure prediction by ZEFSAII (Michael W. Deem and Ramdas Pophale) SiO2 
 PCOD9190026
Probable space group: C 2/M
;
_chemical_formula_sum "Si O2"
_cell_formula_units_Z 56
_cell_length_a 15.740975
_cell_length_b 29.147785
_cell_length_c 9.106273
_cell_angle_alpha 90.000000
_cell_angle_beta 135.448494
_cell_angle_gamma 90.000000
_cell_volume 2931.140112
_symmetry_space_group_name_H-M "C 2/M"
_symmetry_group_IT_number 12
_symmetry_cell_setting 'monoclinic'
loop_
_space_group_symop_operation_xyz
x,y,z
-x,y,-z
-x,-y,-z
x,-y,z
1/2+x,1/2+y,z
1/2-x,1/2+y,-z
1/2-x,1/2-y,-z
1/2+x,1/2-y,z
loop_
_atom_site_type_symbol
_atom_site_label
_atom_site_fract_x
_atom_site_fract_y
_atom_site_fract_z
Si Si1 0.134627 0.500000 0.746384
Si Si2 0.048325 0.333230 0.223451
Si Si3 0.816184 0.842616 0.948461
Si Si4 0.913417 0.599838 0.254761
Si Si5 0.996237 0.088412 0.320921
Si Si6 0.830923 0.154177 0.616703
Si Si7 0.413415 0.500000 0.035770
Si Si8 0.983782 0.234661 0.156236
O O1 0.137183 0.548648 0.835198
O O2 0.000000 0.500000 0.500000
O O3 0.266605 0.500000 0.824575
O O4 0.192497 0.335294 0.411242
O O5 0.004008 0.285375 0.242713
O O6 0.992230 0.378379 0.224806
O O7 0.000000 0.332128 0.000000
O O8 0.685672 0.862219 0.823749
O O9 0.843785 0.852087 0.809501
O O10 0.901652 0.872274 0.159004
O O11 0.854898 0.790012 0.023156
O O12 0.000000 0.595303 0.500000
O O13 0.950744 0.043972 0.178169
O O14 0.000000 0.081501 0.500000
O O15 0.120728 0.109226 0.407940
O O16 0.912937 0.197964 0.671725
O O17 0.500000 0.500000 0.000000
O O18 0.000000 0.238074 0.000000
#
# Coordination Sequence:
#
# PCOD9190026 Si02
#       8
#     4   8   8   8   8   8   4   8
#     4  10  24  41  67  95 127 157 210 272 318 357
#     4  11  23  37  59  91 125 169 205 253 325 383
#     4  10  19  39  64  86 118 163 215 254 308 377
#     4  11  22  40  63  89 122 164 212 262 314 381
#     4  11  24  38  61  94 125 157 203 274 328 366
#     4  10  20  39  63  85 122 165 214 256 307 385
#     4  12  23  41  70  95 122 171 220 263 319 397
#     4   8  18  36  59  88 120 163 206 262 309 371
#
# _framework density 19.105193
#
# number of rings (size 3 to 8) (size 9 to 14) (size 15 to 20)
#    0.000    1.714    2.857    2.786    2.000    0.571 
#    0.000    3.214    0.000    0.000    0.000    0.000 
#    0.000    0.000    0.000    0.000    0.000    0.000 
#
# Total GULP energy -155978.038392 kJ/mol
# GULP energy per Si atom -5570.644228 kJ/mol
# Density = 1.906171 g / cm^3
# Si number density = 19.105193 Si / 1000 Ang^3
#
#
#
# Elastic Constant Matrix: (Units=GPa)
#
#
# Indices 1 2 3 4 5 6 
#
# 1 63.5172 43.0191 44.4945 0.0000 14.0203 0.0000
# 2 43.0191 101.5000 23.5998 0.0000 20.0054 0.0000
# 3 44.4945 23.5998 80.9437 0.0000 6.5219 0.0000
# 4 0.0000 0.0000 0.0000 26.6443 0.0000 6.9627
# 5 14.0203 20.0054 6.5219 0.0000 31.0858 0.0000
# 6 0.0000 0.0000 0.0000 6.9627 0.0000 36.8069
#
#
#
# Elastic Compliance Matrix: (Units=1/GPa)
#
#
# Indices 1 2 3 4 5 6 
#
# 1 0.034835 -0.009909 -0.015774 0.000000 -0.006025 0.000000
# 2 -0.009909 0.014738 0.001581 0.000000 -0.005347 0.000000
# 3 -0.015774 0.001581 0.020418 0.000000 0.001813 0.000000
# 4 0.000000 0.000000 0.000000 0.039483 0.000000 -0.007469
# 5 -0.006025 -0.005347 0.001813 0.000000 0.037947 0.000000
# 6 0.000000 0.000000 0.000000 -0.007469 0.000000 0.028582
#
#
# Mechanical properties :
#
#
# Convention : Reuss Voigt Hill
#
# Bulk Modulus (GPa) = 45.89965 52.02084 48.96025
# Shear Modulus (GPa) = 21.60101 27.89723 24.74912
#
# Velocity S-wave (km/s) = 3.36614 3.82539 3.60309
# Velocity P-wave (km/s) = 6.25977 6.84100 6.55683
#
# Compressibility (1/GPa) = 0.02178666
#
# Stress axis : x y z
#
# Youngs Moduli (GPa) = 28.70698 67.84976 48.97585
#
# Poissons Ratio (x) = 0.67233 0.77255
# Poissons Ratio (y) = 0.28446 -0.07742
# Poissons Ratio (z) = 0.45283 -0.10725
#
# Static dielectric constant tensor:
#      x y z
#    x 1.663230 0.000000 0.010820 
#    y 0.000000 1.718940 0.000000 
#    z 0.010820 0.000000 1.625310 
# 
# From -- ./inp_files/68337.got.cif
#   From: 2010.05.17/outbox.cif.g08.bks.cpg/sg12_35_cif.got.tgz:68337.got - 2010.06.03 13:09:07.
