data_PCOD9190611
_publ_section_title
;
Structure prediction by ZEFSAII (Michael W. Deem and Ramdas Pophale) SiO2 
 PCOD9190611
Probable space group: C 2/M
;
_chemical_formula_sum "Si O2"
_cell_formula_units_Z 64
_cell_length_a 21.633821
_cell_length_b 8.938494
_cell_length_c 23.066609
_cell_angle_alpha 90.000000
_cell_angle_beta 142.034176
_cell_angle_gamma 90.000000
_cell_volume 2744.046998
_symmetry_space_group_name_H-M "C 2/M"
_symmetry_group_IT_number 12
_symmetry_cell_setting 'monoclinic'
loop_
_space_group_symop_operation_xyz
x,y,z
-x,y,-z
-x,-y,-z
x,-y,z
1/2+x,1/2+y,z
1/2-x,1/2+y,-z
1/2-x,1/2-y,-z
1/2+x,1/2-y,z
loop_
_atom_site_type_symbol
_atom_site_label
_atom_site_fract_x
_atom_site_fract_y
_atom_site_fract_z
Si Si1 0.377455 0.330398 0.916118
Si Si2 0.352714 0.326477 0.494434
Si Si3 0.437616 0.821778 0.314832
Si Si4 0.579771 0.678314 0.815429
Si Si5 0.382313 0.169835 0.037420
Si Si6 0.881633 0.667269 0.400222
Si Si7 0.153793 0.173761 0.337491
Si Si8 0.123786 0.333026 0.200105
O O1 0.340420 0.500000 0.880485
O O2 0.347102 0.219545 0.842201
O O3 0.500000 0.336421 0.000000
O O4 0.348554 0.268880 0.957917
O O5 0.365729 0.500000 0.516626
O O6 0.448555 0.238601 0.590701
O O7 0.352477 0.291050 0.425325
O O8 0.242960 0.268627 0.431345
O O9 0.389384 0.742874 0.223694
O O10 0.376880 0.792446 0.329288
O O11 0.441878 0.000000 0.309701
O O12 0.590723 0.500000 0.827207
O O13 0.629238 0.755321 0.908083
O O14 0.459714 0.713192 0.728919
O O15 0.502807 0.160275 0.115810
O O16 0.342270 0.000000 0.006652
O O17 0.838563 0.500000 0.379156
O O18 0.000000 0.651167 0.500000
O O19 0.154576 0.209609 0.269512
O O20 0.170460 0.000000 0.361632
O O21 0.160929 0.500000 0.241613
#
# Coordination Sequence:
#
# PCOD9190611 Si02
#       8
#     8   8   8   8   8   8   8   8
#     4   9  15  23  37  57  81 111 147 183 219 261
#     4  11  21  32  49  70  90 115 149 189 228 266
#     4  10  20  34  51  68  89 118 149 184 227 272
#     4  10  20  32  46  65  90 121 155 189 224 265
#     4   9  16  26  40  58  83 115 148 183 222 263
#     4   8  16  32  51  69  88 111 141 180 228 274
#     4  10  20  33  46  62  90 125 155 185 224 269
#     4   9  16  26  40  59  83 112 148 186 222 262
#
# _framework density 23.323215999999999
#
# number of rings (size 3 to 8) (size 9 to 14) (size 15 to 20)
#    0.000    2.500    0.000    4.125    0.000    9.250 
#    0.000    0.000    0.000    0.000    0.000    0.000 
#    0.000    1.000    0.000    3.750    0.000    6.125 
#
# Total GULP energy -178855.789151 kJ/mol
# GULP energy per Si atom -5589.243411 kJ/mol
# Density = 2.327013 g / cm^3
# Si number density = 23.323216 Si / 1000 Ang^3
#
#
#
# Elastic Constant Matrix: (Units=GPa)
#
#
# Indices 1 2 3 4 5 6 
#
# 1 44.7517 24.1912 65.0400 0.0000 -0.4472 0.0000
# 2 24.1912 95.9078 25.2669 0.0000 -16.1954 0.0000
# 3 65.0400 25.2669 67.3205 0.0000 -39.1959 0.0000
# 4 0.0000 0.0000 0.0000 27.1210 0.0000 -7.0607
# 5 -0.4472 -16.1954 -39.1959 0.0000 66.0242 0.0000
# 6 0.0000 0.0000 0.0000 -7.0607 0.0000 9.9459
#
#
#
# Elastic Compliance Matrix: (Units=1/GPa)
#
#
# Indices 1 2 3 4 5 6 
#
# 1 -0.019798 0.000244 0.029024 0.000000 0.017156 0.000000
# 2 0.000244 0.011575 -0.004472 0.000000 0.000186 0.000000
# 3 0.029024 -0.004472 -0.018389 0.000000 -0.011817 0.000000
# 4 0.000000 0.000000 0.000000 0.045231 0.000000 0.032110
# 5 0.017156 0.000186 -0.011817 0.000000 0.008293 0.000000
# 6 0.000000 0.000000 0.000000 0.032110 0.000000 0.123339
#
#
# Mechanical properties :
#
#
# Convention : Reuss Voigt Hill
#
# Bulk Modulus (GPa) = 43.51269 48.55290 46.03280
# Shear Modulus (GPa) = 46.16047 26.85035 36.50541
#
# Velocity S-wave (km/s) = 4.45361 3.39666 3.96055
# Velocity P-wave (km/s) = 6.71886 6.02044 6.37921
#
# Compressibility (1/GPa) = 0.02298180
#
# Stress axis : x y z
#
# Youngs Moduli (GPa) = -50.51050 86.39604 -54.38136
#
# Poissons Ratio (x) = -0.02111 1.57839
# Poissons Ratio (y) = 0.01234 -0.24319
# Poissons Ratio (z) = 1.46604 0.38636
#
# Static dielectric constant tensor:
#      x y z
#    x 1.951670 0.000000 0.033120 
#    y 0.000000 1.796420 0.000000 
#    z 0.033120 0.000000 1.888820 
# 
# From -- ./inp_files/324157.got.cif
#   From: 2010.05.17/outbox.cif.g08.bks.cpg/sg12_163_cif.got.tgz:324157.got - 2010.06.03 13:09:07.
