data_PCOD9190509
_publ_section_title
;
Structure prediction by ZEFSAII (Michael W. Deem and Ramdas Pophale) SiO2 
 PCOD9190509
Probable space group: C 2/M
;
_chemical_formula_sum "Si O2"
_cell_formula_units_Z 64
_cell_length_a 8.536636
_cell_length_b 32.111590
_cell_length_c 11.889064
_cell_angle_alpha 90.000000
_cell_angle_beta 86.204844
_cell_angle_gamma 90.000000
_cell_volume 3251.942175
_symmetry_space_group_name_H-M "C 2/M"
_symmetry_group_IT_number 12
_symmetry_cell_setting 'monoclinic'
loop_
_space_group_symop_operation_xyz
x,y,z
-x,y,-z
-x,-y,-z
x,-y,z
1/2+x,1/2+y,z
1/2-x,1/2+y,-z
1/2-x,1/2-y,-z
1/2+x,1/2-y,z
loop_
_atom_site_type_symbol
_atom_site_label
_atom_site_fract_x
_atom_site_fract_y
_atom_site_fract_z
Si Si1 0.050614 0.843241 0.630512
Si Si2 0.257567 0.112332 0.326938
Si Si3 0.838595 0.048597 0.833539
Si Si4 0.797087 0.724969 0.637970
Si Si5 0.122514 0.302069 0.625597
Si Si6 0.342112 0.048967 0.937986
Si Si7 0.186049 0.546230 0.496958
Si Si8 0.816808 0.923338 0.268503
O O1 0.137736 0.801105 0.659861
O O2 0.168276 0.879468 0.666689
O O3 0.000000 0.841438 0.500000
O O4 0.891611 0.858968 0.695209
O O5 0.280142 0.079990 0.225076
O O6 0.374048 0.148287 0.361974
O O7 0.229345 0.080833 0.431539
O O8 0.013585 0.061351 0.785866
O O9 0.811436 0.000000 0.807321
O O10 0.801271 0.052960 0.966866
O O11 0.844967 0.712297 0.506056
O O12 0.758820 0.772576 0.668933
O O13 0.957978 0.711502 0.686989
O O14 0.302397 0.075488 0.830000
O O15 0.353229 0.000000 0.904293
O O16 0.500000 0.058880 0.000000
O O17 0.205010 0.500000 0.545099
O O18 0.255313 0.546897 0.369362
O O19 0.000000 0.555614 0.500000
#
# Coordination Sequence:
#
# PCOD9190509 Si02
#       8
#     8   8   8   8   8   8   8   8
#     4  11  20  35  51  81 114 147 184 231 282 349
#     4  11  22  35  54  80 116 152 191 234 284 350
#     4  10  22  38  59  83 112 151 199 250 294 340
#     4  10  20  32  50  75 111 147 189 230 279 337
#     4  10  20  31  51  76 106 154 188 232 279 339
#     4  10  22  39  60  83 107 143 198 256 301 338
#     4  11  24  35  51  79 116 157 196 235 286 345
#     4  11  22  38  60  80 113 155 196 244 292 348
#
# _framework density 19.680546
#
# number of rings (size 3 to 8) (size 9 to 14) (size 15 to 20)
#    0.000    1.500    2.500    2.625    7.000    1.000 
#    0.000    1.875    0.000    0.000    0.000    0.875 
#    0.000    0.000    0.000    0.000    0.000    0.000 
#
# Total GULP energy -178160.601879 kJ/mol
# GULP energy per Si atom -5567.518809 kJ/mol
# Density = 1.963575 g / cm^3
# Si number density = 19.680546 Si / 1000 Ang^3
#
#
#
# Elastic Constant Matrix: (Units=GPa)
#
#
# Indices 1 2 3 4 5 6 
#
# 1 71.9967 21.5040 11.5713 0.0000 -2.4039 0.0000
# 2 21.5040 122.3926 23.2898 0.0000 13.0397 0.0000
# 3 11.5713 23.2898 58.7893 0.0000 13.2956 0.0000
# 4 0.0000 0.0000 0.0000 5.0139 0.0000 12.1437
# 5 -2.4039 13.0397 13.2956 0.0000 18.9358 0.0000
# 6 0.0000 0.0000 0.0000 12.1437 0.0000 18.0672
#
#
#
# Elastic Compliance Matrix: (Units=1/GPa)
#
#
# Indices 1 2 3 4 5 6 
#
# 1 0.015454 -0.002737 -0.003361 0.000000 0.006207 0.000000
# 2 -0.002737 0.009628 -0.002018 0.000000 -0.005561 0.000000
# 3 -0.003361 -0.002018 0.021699 0.000000 -0.014273 0.000000
# 4 0.000000 0.000000 0.000000 -0.317629 0.000000 0.213491
# 5 0.006207 -0.005561 -0.014273 0.000000 0.067448 0.000000
# 6 0.000000 0.000000 0.000000 0.213491 0.000000 -0.088146
#
#
# Mechanical properties :
#
#
# Convention : Reuss Voigt Hill
#
# Bulk Modulus (GPa) = 32.73455 40.65654 36.69555
# Shear Modulus (GPa) = -18.85861 21.52428 1.33284
#
# Velocity S-wave (km/s) = -3.09890 3.31068 0.82384
# Velocity P-wave (km/s) = 1.96592 5.94283 4.42617
#
# Compressibility (1/GPa) = 0.03054876
#
# Stress axis : x y z
#
# Youngs Moduli (GPa) = 64.70624 103.86711 46.08562
#
# Poissons Ratio (x) = 0.28428 0.15491
# Poissons Ratio (y) = 0.17710 0.09299
# Poissons Ratio (z) = 0.21750 0.20959
#
# Static dielectric constant tensor:
#      x y z
#    x 1.802930 0.000000 0.043350 
#    y 0.000000 1.744770 0.000000 
#    z 0.043350 0.000000 1.699180 
# 
# From -- ./inp_files/125774.got.cif
#   From: 2010.05.17/outbox.cif.g08.bks.cpg/sg12_63_cif.got.tgz:125774.got - 2010.06.03 13:09:07.
