data_PCOD9190993
_publ_section_title
;
Structure prediction by ZEFSAII (Michael W. Deem and Ramdas Pophale) SiO2 
 PCOD9190993
Probable space group: C 2/M
;
_chemical_formula_sum "Si O2"
_cell_formula_units_Z 64
_cell_length_a 12.161363
_cell_length_b 19.197814
_cell_length_c 18.175450
_cell_angle_alpha 90.000000
_cell_angle_beta 128.252734
_cell_angle_gamma 90.000000
_cell_volume 3332.328646
_symmetry_space_group_name_H-M "C 2/M"
_symmetry_group_IT_number 12
_symmetry_cell_setting 'monoclinic'
loop_
_space_group_symop_operation_xyz
x,y,z
-x,y,-z
-x,-y,-z
x,-y,z
1/2+x,1/2+y,z
1/2-x,1/2+y,-z
1/2-x,1/2-y,-z
1/2+x,1/2-y,z
loop_
_atom_site_type_symbol
_atom_site_label
_atom_site_fract_x
_atom_site_fract_y
_atom_site_fract_z
Si Si1 0.925920 0.921915 0.825156
Si Si2 0.447332 0.346687 0.253715
Si Si3 0.756716 0.234278 0.622069
Si Si4 0.134552 0.355508 0.698166
Si Si5 0.321455 0.143666 0.547505
Si Si6 0.947577 0.787030 0.052078
Si Si7 0.026408 0.081122 0.427837
Si Si8 0.658384 0.779992 0.860263
O O1 0.762335 0.908714 0.739820
O O2 0.016998 0.907438 0.789526
O O3 0.971183 0.858450 0.897164
O O4 0.947681 0.000000 0.861762
O O5 0.588105 0.299237 0.311300
O O6 0.438365 0.376271 0.331528
O O7 0.327085 0.296210 0.172792
O O8 0.675147 0.210371 0.661836
O O9 0.679344 0.197125 0.521479
O O10 0.782484 0.312761 0.605293
O O11 0.133645 0.331060 0.782659
O O12 0.979658 0.383337 0.617278
O O13 0.191869 0.092239 0.480362
O O14 0.958449 0.737489 0.126945
O O15 0.788052 0.803734 0.964069
O O16 0.000000 0.751958 0.000000
O O17 0.000000 0.105183 0.500000
O O18 0.991061 0.000000 0.408306
#
# Coordination Sequence:
#
# PCOD9190993 Si02
#       8
#     8   8   8   8   8   8   8   8
#     4  10  21  36  57  82 112 150 183 219 276 341
#     4   9  18  36  55  78 106 144 186 231 266 318
#     4   9  19  31  49  78 112 139 176 224 275 320
#     4  11  20  33  53  82 112 141 184 228 269 329
#     4  10  20  32  51  77 109 151 181 224 273 316
#     4  10  20  37  54  77 110 139 170 226 279 338
#     4  10  22  37  52  75 109 150 193 228 266 316
#     4  10  20  33  54  80 108 133 176 224 282 327
#
# _framework density 19.205787999999998
#
# number of rings (size 3 to 8) (size 9 to 14) (size 15 to 20)
#    0.000    2.125    2.500    0.750    1.750    0.750 
#    0.000    0.000    0.000    4.500    0.000    0.000 
#    0.000    7.000    0.000    0.000    0.000    0.000 
#
# Total GULP energy -178221.848405 kJ/mol
# GULP energy per Si atom -5569.432763 kJ/mol
# Density = 1.916207 g / cm^3
# Si number density = 19.205788 Si / 1000 Ang^3
#
#
#
# Elastic Constant Matrix: (Units=GPa)
#
#
# Indices 1 2 3 4 5 6 
#
# 1 40.7397 6.6272 16.9911 0.0000 -13.0056 0.0000
# 2 6.6272 26.4997 2.0124 0.0000 3.3249 0.0000
# 3 16.9911 2.0124 72.5176 0.0000 -4.4650 0.0000
# 4 0.0000 0.0000 0.0000 13.8191 0.0000 2.8931
# 5 -13.0056 3.3249 -4.4650 0.0000 47.8497 0.0000
# 6 0.0000 0.0000 0.0000 2.8931 0.0000 8.7797
#
#
#
# Elastic Compliance Matrix: (Units=1/GPa)
#
#
# Indices 1 2 3 4 5 6 
#
# 1 0.031378 -0.008413 -0.006595 0.000000 0.008498 0.000000
# 2 -0.008413 0.040432 0.000538 0.000000 -0.005046 0.000000
# 3 -0.006595 0.000538 0.015295 0.000000 -0.000403 0.000000
# 4 0.000000 0.000000 0.000000 0.077726 0.000000 -0.025613
# 5 0.008498 -0.005046 -0.000403 0.000000 0.023521 0.000000
# 6 0.000000 0.000000 0.000000 -0.025613 0.000000 0.122339
#
#
# Mechanical properties :
#
#
# Convention : Reuss Voigt Hill
#
# Bulk Modulus (GPa) = 17.19195 21.22427 19.20811
# Shear Modulus (GPa) = 13.92678 21.69810 17.81244
#
# Velocity S-wave (km/s) = 2.69575 3.36485 3.04871
# Velocity P-wave (km/s) = 4.31976 5.11578 4.73453
#
# Compressibility (1/GPa) = 0.05816676
#
# Stress axis : x y z
#
# Youngs Moduli (GPa) = 31.86941 24.73264 65.37953
#
# Poissons Ratio (x) = 0.20807 0.43120
# Poissons Ratio (y) = 0.26810 -0.03520
# Poissons Ratio (z) = 0.21019 -0.01332
#
# Static dielectric constant tensor:
#      x y z
#    x 1.740960 0.000000 0.008850 
#    y 0.000000 1.672790 0.000000 
#    z 0.008850 0.000000 1.708980 
# 
# From -- ./inp_files/265117.got.cif
#   From: 2010.05.17/outbox.cif.g08.bks.cpg/sg12_133_cif.got.tgz:265117.got - 2010.06.03 13:09:07.
