data_PCOD9190527
_publ_section_title
;
Structure prediction by ZEFSAII (Michael W. Deem and Ramdas Pophale) SiO2 
 PCOD9190527
Probable space group: C 2/M
;
_chemical_formula_sum "Si O2"
_cell_formula_units_Z 40
_cell_length_a 17.313965
_cell_length_b 24.083439
_cell_length_c 6.974398
_cell_angle_alpha 90.000000
_cell_angle_beta 143.671686
_cell_angle_gamma 90.000000
_cell_volume 1722.840819
_symmetry_space_group_name_H-M "C 2/M"
_symmetry_group_IT_number 12
_symmetry_cell_setting 'monoclinic'
loop_
_space_group_symop_operation_xyz
x,y,z
-x,y,-z
-x,-y,-z
x,-y,z
1/2+x,1/2+y,z
1/2-x,1/2+y,-z
1/2-x,1/2-y,-z
1/2+x,1/2-y,z
loop_
_atom_site_type_symbol
_atom_site_label
_atom_site_fract_x
_atom_site_fract_y
_atom_site_fract_z
Si Si1 0.967966 0.641396 0.708918
Si Si2 0.250001 0.767508 0.220266
Si Si3 0.967964 0.141396 0.162943
Si Si4 0.250001 0.644998 0.272994
Si Si5 0.249999 0.434825 0.643884
O O1 0.878166 0.695031 0.500526
O O2 0.877675 0.587543 0.502498
O O3 0.000000 0.642859 0.000000
O O4 0.109026 0.639779 0.889587
O O5 0.250001 0.709790 0.338121
O O6 0.250000 0.750000 0.000000
O O7 0.121836 0.804969 0.987868
O O8 0.109023 0.139779 0.546510
O O9 0.877672 0.087543 0.008198
O O10 0.000000 0.142858 0.000000
O O11 0.250000 0.599147 0.441823
O O12 0.249999 0.500000 0.614904
#
# Coordination Sequence:
#
# PCOD9190527 Si02
#       5
#     8   8   8   8   8
#     4   9  20  35  56  85 116 153 197 245 298 352
#     4  11  23  38  56  84 126 165 191 231 303 379
#     4   9  20  35  56  85 116 153 197 245 298 352
#     4  10  20  31  52  82 112 146 193 245 291 344
#     4   9  19  36  56  82 117 155 198 250 304 357
#
# _framework density 23.217469000000001
#
# number of rings (size 3 to 8) (size 9 to 14) (size 15 to 20)
#    0.000    2.400    0.000    2.400    0.000   28.000 
#    0.000    0.000    0.000    4.800    0.000   22.400 
#    0.000    0.000    0.000    0.000    0.000    0.000 
#
# Total GULP energy -111701.274767 kJ/mol
# GULP energy per Si atom -5585.063738 kJ/mol
# Density = 2.316462 g / cm^3
# Si number density = 23.217469 Si / 1000 Ang^3
#
#
#
# Elastic Constant Matrix: (Units=GPa)
#
#
# Indices 1 2 3 4 5 6 
#
# 1 56.5352 46.4470 61.6652 0.0000 19.7307 0.0000
# 2 46.4470 221.7669 79.3311 0.0000 29.5388 0.0000
# 3 61.6652 79.3311 160.0930 0.0000 73.2982 0.0000
# 4 0.0000 0.0000 0.0000 13.8539 0.0000 -3.6539
# 5 19.7307 29.5388 73.2982 0.0000 56.5392 0.0000
# 6 0.0000 0.0000 0.0000 -3.6539 0.0000 17.9214
#
#
#
# Elastic Compliance Matrix: (Units=1/GPa)
#
#
# Indices 1 2 3 4 5 6 
#
# 1 0.034910 -0.002589 -0.017728 0.000000 0.012153 0.000000
# 2 -0.002589 0.005734 -0.002180 0.000000 0.000735 0.000000
# 3 -0.017728 -0.002180 0.026575 0.000000 -0.027127 0.000000
# 4 0.000000 0.000000 0.000000 0.076284 0.000000 0.015553
# 5 0.012153 0.000735 -0.027127 0.000000 0.048230 0.000000
# 6 0.000000 0.000000 0.000000 0.015553 0.000000 0.058970
#
#
# Mechanical properties :
#
#
# Convention : Reuss Voigt Hill
#
# Bulk Modulus (GPa) = 44.99460 90.36465 67.67962
# Shear Modulus (GPa) = 16.49588 34.39302 25.44445
#
# Velocity S-wave (km/s) = 2.66840 3.85300 3.31406
# Velocity P-wave (km/s) = 5.37732 7.66809 6.62250
#
# Compressibility (1/GPa) = 0.02222489
#
# Stress axis : x y z
#
# Youngs Moduli (GPa) = 28.64480 174.41289 37.62868
#
# Poissons Ratio (x) = 0.45148 0.66709
# Poissons Ratio (y) = 0.07415 0.08205
# Poissons Ratio (z) = 0.50782 0.38029
#
# Static dielectric constant tensor:
#      x y z
#    x 1.981770 0.000000 0.004600 
#    y 0.000000 1.796880 0.000000 
#    z 0.004600 0.000000 1.986890 
# 
# From -- ./inp_files/90750.got.cif
#   From: 2010.05.17/outbox.cif.g08.bks.cpg/sg12_46_cif.got.tgz:90750.got - 2010.06.03 13:09:07.
