data_PCOD9190708
_publ_section_title
;
Structure prediction by ZEFSAII (Michael W. Deem and Ramdas Pophale) SiO2 
 PCOD9190708
Probable space group: C 2/M
;
_chemical_formula_sum "Si O2"
_cell_formula_units_Z 56
_cell_length_a 9.218717
_cell_length_b 15.286791
_cell_length_c 19.132514
_cell_angle_alpha 90.000000
_cell_angle_beta 90.000000
_cell_angle_gamma 90.000000
_cell_volume 2696.241884
_symmetry_space_group_name_H-M "C 2/M"
_symmetry_group_IT_number 12
_symmetry_cell_setting 'monoclinic'
loop_
_space_group_symop_operation_xyz
x,y,z
-x,y,-z
-x,-y,-z
x,-y,z
1/2+x,1/2+y,z
1/2-x,1/2+y,-z
1/2-x,1/2-y,-z
1/2+x,1/2-y,z
loop_
_atom_site_type_symbol
_atom_site_label
_atom_site_fract_x
_atom_site_fract_y
_atom_site_fract_z
Si Si1 0.173194 0.155919 0.423461
Si Si2 0.823378 0.897888 0.000000
Si Si3 0.331368 0.607550 0.848039
Si Si4 0.331368 0.607550 0.151961
Si Si5 0.338638 0.896737 0.713163
Si Si6 0.338638 0.896737 0.286837
Si Si7 0.326806 0.344081 0.423461
O O1 0.241601 0.112208 0.355685
O O2 0.250000 0.250000 0.425330
O O3 0.201950 0.114052 0.500000
O O4 1.000000 0.163504 0.416319
O O5 0.777576 0.861847 0.924558
O O6 0.780017 0.000000 0.000000
O O7 0.777576 0.861847 0.075442
O O8 0.000000 0.896046 0.000000
O O9 0.328805 0.500000 0.849384
O O10 0.500000 0.631810 0.839027
O O11 0.238230 0.639116 0.782530
O O12 0.328805 0.500000 0.150616
O O13 0.238230 0.639116 0.217470
O O14 0.500000 0.859268 0.702180
O O15 0.241601 0.887792 0.644315
O O16 0.352970 0.000000 0.725516
O O17 0.352970 0.000000 0.274484
#
# Coordination Sequence:
#
# PCOD9190708 Si02
#       7
#     8   8   8   8   8   8   8
#     4  10  21  37  56  75  95 122 158 199 242 290
#     4   7  10  18  35  59  86 119 158 197 236 277
#     4   8  13  23  40  62  90 124 161 199 238 280
#     4   8  13  23  40  62  90 124 161 199 238 280
#     4  10  20  32  47  71 103 134 163 198 240 283
#     4  10  20  32  47  71 103 134 163 198 240 283
#     4  10  21  37  56  75  95 122 158 199 242 290
#
# _framework density 20.769649000000001
#
# number of rings (size 3 to 8) (size 9 to 14) (size 15 to 20)
#    0.000    3.000    0.000    3.429    0.000    4.000 
#    0.000    3.571    0.000    4.286    0.000    1.000 
#    0.000    0.000    0.000    0.000    0.000    0.000 
#
# Total GULP energy -156006.528918 kJ/mol
# GULP energy per Si atom -5571.661747 kJ/mol
# Density = 2.072238 g / cm^3
# Si number density = 20.769649 Si / 1000 Ang^3
#
#
#
# Elastic Constant Matrix: (Units=GPa)
#
#
# Indices 1 2 3 4 5 6 
#
# 1 113.8354 4.0494 102.2235 0.0000 -0.0001 0.0000
# 2 4.0494 22.8913 9.8169 0.0000 0.0000 0.0000
# 3 102.2235 9.8169 230.7495 0.0000 -0.0001 0.0000
# 4 0.0000 0.0000 0.0000 12.7057 0.0000 0.0000
# 5 -0.0001 0.0000 -0.0001 0.0000 50.0732 0.0000
# 6 0.0000 0.0000 0.0000 0.0000 0.0000 14.4642
#
#
#
# Elastic Compliance Matrix: (Units=1/GPa)
#
#
# Indices 1 2 3 4 5 6 
#
# 1 0.014589 0.000194 -0.006471 0.000000 0.000000 0.000000
# 2 0.000194 0.044499 -0.001979 0.000000 0.000000 0.000000
# 3 -0.006471 -0.001979 0.007285 0.000000 0.000000 0.000000
# 4 0.000000 0.000000 0.000000 0.078705 0.000000 0.000000
# 5 0.000000 0.000000 0.000000 0.000000 0.019971 0.000000
# 6 0.000000 0.000000 0.000000 0.000000 0.000000 0.069136
#
#
# Mechanical properties :
#
#
# Convention : Reuss Voigt Hill
#
# Bulk Modulus (GPa) = 20.05596 66.62843 43.34220
# Shear Modulus (GPa) = 18.70441 32.20772 25.45606
#
# Velocity S-wave (km/s) = 3.00420 3.94218 3.50471
# Velocity P-wave (km/s) = 4.65950 7.27120 6.10661
#
# Compressibility (1/GPa) = 0.04986050
#
# Stress axis : x y z
#
# Youngs Moduli (GPa) = 68.54579 22.47236 137.27420
#
# Poissons Ratio (x) = -0.00437 0.88833
# Poissons Ratio (y) = -0.01333 0.27171
# Poissons Ratio (z) = 0.44357 0.04448
#
# Static dielectric constant tensor:
#      x y z
#    x 1.714560 0.000000 0.000000 
#    y 0.000000 1.809800 0.000000 
#    z 0.000000 0.000000 1.787840 
# 
# From -- ./inp_files/257633.got.cif
#   From: 2010.05.17/outbox.cif.g08.bks.cpg/sg12_129_cif.got.tgz:257633.got - 2010.06.03 13:09:07.
