data_PCOD9190064
_publ_section_title
;
Structure prediction by ZEFSAII (Michael W. Deem and Ramdas Pophale) SiO2 
 PCOD9190064
Probable space group: C 2/M
;
_chemical_formula_sum "Si O2"
_cell_formula_units_Z 64
_cell_length_a 13.936499
_cell_length_b 28.712646
_cell_length_c 10.064655
_cell_angle_alpha 90.000000
_cell_angle_beta 59.644353
_cell_angle_gamma 90.000000
_cell_volume 3475.272391
_symmetry_space_group_name_H-M "C 2/M"
_symmetry_group_IT_number 12
_symmetry_cell_setting 'monoclinic'
loop_
_space_group_symop_operation_xyz
x,y,z
-x,y,-z
-x,-y,-z
x,-y,z
1/2+x,1/2+y,z
1/2-x,1/2+y,-z
1/2-x,1/2-y,-z
1/2+x,1/2-y,z
loop_
_atom_site_type_symbol
_atom_site_label
_atom_site_fract_x
_atom_site_fract_y
_atom_site_fract_z
Si Si1 0.573612 0.624252 0.819734
Si Si2 0.256921 0.053751 0.712480
Si Si3 0.226637 0.555529 0.780759
Si Si4 0.741362 0.810971 0.406534
Si Si5 0.084679 0.126776 0.318860
Si Si6 0.401536 0.054386 0.860381
Si Si7 0.883622 0.603345 0.394968
Si Si8 0.632371 0.718876 0.416672
O O1 0.636372 0.574997 0.769009
O O2 0.679553 0.658287 0.741097
O O3 0.492932 0.633136 0.753342
O O4 0.500000 0.628868 0.000000
O O5 0.295339 0.059659 0.838024
O O6 0.349310 0.076812 0.553257
O O7 0.256258 0.000000 0.681424
O O8 0.240886 0.500000 0.749996
O O9 0.336333 0.582461 0.751520
O O10 0.192317 0.581994 0.669774
O O11 0.135059 0.561285 0.961766
O O12 0.649058 0.843504 0.544867
O O13 0.690374 0.768717 0.358297
O O14 0.822531 0.794238 0.468538
O O15 0.152841 0.174091 0.307698
O O16 0.000000 0.119331 0.500000
O O17 0.494089 0.089823 0.741105
O O18 0.440875 0.000000 0.819586
O O19 0.500000 0.725385 0.500000
#
# Coordination Sequence:
#
# PCOD9190064 Si02
#       8
#     8   8   8   8   8   8   8   8
#     4  11  22  37  59  86 120 152 188 243 297 338
#     4  10  21  36  54  82 117 160 205 237 274 339
#     4  11  22  35  55  87 123 158 196 238 288 341
#     4  10  21  37  63  87 111 145 194 238 290 349
#     4  11  20  39  61  83 112 158 198 235 291 341
#     4  10  21  36  54  80 124 166 191 235 296 340
#     4  11  20  35  58  87 112 150 199 247 285 338
#     4  10  19  39  66  85 107 147 189 237 289 347
#
# _framework density 18.415821000000001
#
# number of rings (size 3 to 8) (size 9 to 14) (size 15 to 20)
#    0.000    1.500    3.750    3.375    0.000    5.000 
#    0.000    0.625    5.500    0.000    0.000    0.000 
#    0.000    0.000    0.000    0.000    0.000    0.000 
#
# Total GULP energy -178398.954362 kJ/mol
# GULP energy per Si atom -5574.967324 kJ/mol
# Density = 1.837391 g / cm^3
# Si number density = 18.415821 Si / 1000 Ang^3
#
#
#
# Elastic Constant Matrix: (Units=GPa)
#
#
# Indices 1 2 3 4 5 6 
#
# 1 56.1802 32.1001 0.8950 0.0000 -7.7604 0.0000
# 2 32.1001 75.1254 9.8873 0.0000 -11.3418 0.0000
# 3 0.8950 9.8873 61.4249 0.0000 -10.0976 0.0000
# 4 0.0000 0.0000 0.0000 7.1637 0.0000 0.8479
# 5 -7.7604 -11.3418 -10.0976 0.0000 19.8609 0.0000
# 6 0.0000 0.0000 0.0000 0.8479 0.0000 32.4668
#
#
#
# Elastic Compliance Matrix: (Units=1/GPa)
#
#
# Indices 1 2 3 4 5 6 
#
# 1 0.024038 -0.009810 0.002021 0.000000 0.004818 0.000000
# 2 -0.009810 0.018635 -0.001896 0.000000 0.005845 0.000000
# 3 0.002021 -0.001896 0.018013 0.000000 0.008865 0.000000
# 4 0.000000 0.000000 0.000000 0.140026 0.000000 -0.003657
# 5 0.004818 0.005845 0.008865 0.000000 0.060078 0.000000
# 6 0.000000 0.000000 0.000000 -0.003657 0.000000 0.030896
#
#
# Mechanical properties :
#
#
# Convention : Reuss Voigt Hill
#
# Bulk Modulus (GPa) = 24.20345 30.94392 27.57368
# Shear Modulus (GPa) = 15.39278 21.88815 18.64047
#
# Velocity S-wave (km/s) = 2.89424 3.45128 3.18496
# Velocity P-wave (km/s) = 4.93357 5.72024 5.34140
#
# Compressibility (1/GPa) = 0.04131643
#
# Stress axis : x y z
#
# Youngs Moduli (GPa) = 41.60019 53.66368 55.51513
#
# Poissons Ratio (x) = 0.52643 -0.11219
# Poissons Ratio (y) = 0.40809 0.10525
# Poissons Ratio (z) = -0.08407 0.10174
#
# Static dielectric constant tensor:
#      x y z
#    x 1.659630 0.000000 0.005210 
#    y 0.000000 1.678360 0.000000 
#    z 0.005210 0.000000 1.596000 
# 
# From -- ./inp_files/68233.got.cif
#   From: 2010.05.17/outbox.cif.g08.bks.cpg/sg12_35_cif.got.tgz:68233.got - 2010.06.03 13:09:07.
