data_PCOD9190333
_publ_section_title
;
Structure prediction by ZEFSAII (Michael W. Deem and Ramdas Pophale) SiO2 
 PCOD9190333
Probable space group: C 2/M
;
_chemical_formula_sum "Si O2"
_cell_formula_units_Z 64
_cell_length_a 19.941624
_cell_length_b 7.355634
_cell_length_c 35.210475
_cell_angle_alpha 90.000000
_cell_angle_beta 147.374296
_cell_angle_gamma 90.000000
_cell_volume 2784.588711
_symmetry_space_group_name_H-M "C 2/M"
_symmetry_group_IT_number 12
_symmetry_cell_setting 'monoclinic'
loop_
_space_group_symop_operation_xyz
x,y,z
-x,y,-z
-x,-y,-z
x,-y,z
1/2+x,1/2+y,z
1/2-x,1/2+y,-z
1/2-x,1/2-y,-z
1/2+x,1/2-y,z
loop_
_atom_site_type_symbol
_atom_site_label
_atom_site_fract_x
_atom_site_fract_y
_atom_site_fract_z
Si Si1 0.072464 0.221409 0.448888
Si Si2 0.702154 0.278463 0.655079
Si Si3 0.583182 0.221815 0.184313
Si Si4 0.692934 0.216988 0.931338
Si Si5 0.500494 0.715286 0.666823
Si Si6 0.772420 0.720383 0.819137
Si Si7 0.865227 0.210027 0.945772
Si Si8 0.728510 0.782785 0.395404
O O1 0.070652 0.285571 0.404488
O O2 0.181266 0.287643 0.528277
O O3 0.937416 0.272969 0.400567
O O4 0.080089 0.000000 0.452514
O O5 0.703893 0.500000 0.656245
O O6 0.805154 0.221252 0.734685
O O7 0.735562 0.215117 0.628912
O O8 0.619464 0.276299 0.158692
O O9 0.581334 0.000000 0.183478
O O10 0.449110 0.285204 0.134816
O O11 0.684016 0.000000 0.921048
O O12 0.750000 0.250000 0.000000
O O13 0.782825 0.288528 0.940815
O O14 0.514325 0.500000 0.667471
O O15 0.639715 0.783773 0.739387
O O16 0.412934 0.745612 0.660903
O O17 0.771574 0.500000 0.819705
O O18 0.791567 0.784265 0.871034
O O19 0.889503 0.000000 0.968213
O O20 0.000000 0.292741 0.000000
O O21 0.744665 0.000000 0.401947
#
# Coordination Sequence:
#
# PCOD9190333 Si02
#       8
#     8   8   8   8   8   8   8   8
#     4   9  16  31  51  75 103 135 177 222 265 311
#     4   9  16  29  51  77 104 132 172 224 267 303
#     4   9  17  32  53  76 101 135 178 219 257 301
#     4  10  21  36  57  82 108 139 174 210 254 305
#     4  10  20  34  51  72 106 144 173 213 269 318
#     4  10  20  35  56  78 101 139 185 221 255 302
#     4  10  22  38  56  82 116 145 166 203 266 321
#     4  10  20  30  51  81 104 132 176 224 267 315
#
# _framework density 22.983646
#
# number of rings (size 3 to 8) (size 9 to 14) (size 15 to 20)
#    0.000    2.375    1.250    1.500    1.750    2.750 
#    0.000    0.000    0.000    3.000    0.000    0.000 
#    0.000    0.000    0.000    0.000    0.000    0.000 
#
# Total GULP energy -178843.655328 kJ/mol
# GULP energy per Si atom -5588.864229 kJ/mol
# Density = 2.293133 g / cm^3
# Si number density = 22.983646 Si / 1000 Ang^3
#
#
#
# Elastic Constant Matrix: (Units=GPa)
#
#
# Indices 1 2 3 4 5 6 
#
# 1 184.3719 -1.6235 52.5845 0.0000 6.9573 -0.0009
# 2 -1.6235 83.4250 -2.6187 -0.0001 4.1902 -0.0018
# 3 52.5845 -2.6187 89.7997 0.0003 5.2105 -0.0003
# 4 0.0000 -0.0001 0.0003 21.5926 0.0000 -14.2030
# 5 6.9573 4.1902 5.2105 0.0000 39.3309 -0.0001
# 6 -0.0009 -0.0018 -0.0003 -14.2030 -0.0001 13.2376
#
#
#
# Elastic Compliance Matrix: (Units=1/GPa)
#
#
# Indices 1 2 3 4 5 6 
#
# 1 0.006528 0.000041 -0.003783 0.000001 -0.000658 0.000001
# 2 0.000041 0.012068 0.000406 0.000004 -0.001347 0.000006
# 3 -0.003783 0.000406 0.013430 0.000000 -0.001153 0.000000
# 4 0.000001 0.000004 0.000000 0.157384 0.000000 0.168861
# 5 -0.000658 -0.001347 -0.001153 0.000000 0.025838 0.000000
# 6 0.000001 0.000006 0.000000 0.168861 0.000000 0.256718
#
#
# Mechanical properties :
#
#
# Convention : Reuss Voigt Hill
#
# Bulk Modulus (GPa) = 39.44163 50.47569 44.95866
# Shear Modulus (GPa) = 10.26506 35.44919 22.85712
#
# Velocity S-wave (km/s) = 2.11564 3.93156 3.15698
# Velocity P-wave (km/s) = 4.81310 6.52831 5.73518
#
# Compressibility (1/GPa) = 0.02535392
#
# Stress axis : x y z
#
# Youngs Moduli (GPa) = 153.18542 82.86375 74.45991
#
# Poissons Ratio (x) = -0.00342 0.28170
# Poissons Ratio (y) = -0.00633 -0.03022
# Poissons Ratio (z) = 0.57954 -0.03363
#
# Static dielectric constant tensor:
#      x y z
#    x 1.847590 0.000000 0.003840 
#    y 0.000000 1.949230 0.000000 
#    z 0.003840 0.000000 1.813020 
# 
# From -- ./inp_files/376075.got.cif
#   From: 2010.05.17/outbox.cif.g08.bks.cpg/sg12_189_cif.got.tgz:376075.got - 2010.06.03 13:09:07.
