data_PCOD9190466
_publ_section_title
;
Structure prediction by ZEFSAII (Michael W. Deem and Ramdas Pophale) SiO2 
 PCOD9190466
Probable space group: C 2/M
;
_chemical_formula_sum "Si O2"
_cell_formula_units_Z 48
_cell_length_a 15.264515
_cell_length_b 7.516644
_cell_length_c 15.681525
_cell_angle_alpha 90.000000
_cell_angle_beta 91.405029
_cell_angle_gamma 90.000000
_cell_volume 1798.724676
_symmetry_space_group_name_H-M "C 2/M"
_symmetry_group_IT_number 12
_symmetry_cell_setting 'monoclinic'
loop_
_space_group_symop_operation_xyz
x,y,z
-x,y,-z
-x,-y,-z
x,-y,z
1/2+x,1/2+y,z
1/2-x,1/2+y,-z
1/2-x,1/2-y,-z
1/2+x,1/2-y,z
loop_
_atom_site_type_symbol
_atom_site_label
_atom_site_fract_x
_atom_site_fract_y
_atom_site_fract_z
Si Si1 0.159743 0.287283 0.451835
Si Si2 0.675626 0.790902 0.793806
Si Si3 0.408643 0.792835 0.712951
Si Si4 0.818028 0.213531 0.925794
Si Si5 0.498079 0.699695 0.885247
Si Si6 0.091062 0.289642 0.621242
O O1 0.145976 0.500000 0.440248
O O2 0.250000 0.250000 0.500000
O O3 0.161538 0.217272 0.355001
O O4 0.097666 0.217522 0.526025
O O5 0.762513 0.718397 0.842145
O O6 0.589816 0.779330 0.854149
O O7 0.648079 0.712809 0.701336
O O8 0.690685 0.000000 0.782727
O O9 0.438600 0.694384 0.797720
O O10 0.492985 0.782780 0.652937
O O11 0.396249 0.000000 0.735920
O O12 0.918996 0.279070 0.942431
O O13 0.825914 0.000000 0.920894
O O14 0.750000 0.250000 0.000000
O O15 0.520816 0.500000 0.912093
O O16 0.113493 0.500000 0.615082
#
# Coordination Sequence:
#
# PCOD9190466 Si02
#       6
#     8   8   8   8   8   8
#     4  10  20  31  48  76 107 142 182 225 270 316
#     4   9  19  38  61  83 109 149 192 224 269 337
#     4   9  18  34  54  76 103 143 189 224 266 327
#     4  10  23  40  60  86 114 147 184 224 278 340
#     4  10  21  37  59  87 114 144 184 233 284 325
#     4   8  15  31  55  74  96 137 186 224 256 311
#
# _framework density 26.685573999999999
#
# number of rings (size 3 to 8) (size 9 to 14) (size 15 to 20)
#    0.000    2.667    0.000    2.000    2.333    5.333 
#    0.000    6.667    0.000    5.000    0.000    0.000 
#    0.000    0.000    0.000    0.000    0.000    0.000 
#
# Total GULP energy -133937.872876 kJ/mol
# GULP energy per Si atom -5580.744703 kJ/mol
# Density = 2.662484 g / cm^3
# Si number density = 26.685574 Si / 1000 Ang^3
#
#
#
# Elastic Constant Matrix: (Units=GPa)
#
#
# Indices 1 2 3 4 5 6 
#
# 1 148.2258 -1.5774 -19.1359 0.0000 -6.1203 0.0000
# 2 -1.5774 79.2015 6.3283 0.0000 -3.5479 0.0000
# 3 -19.1359 6.3283 60.4470 0.0000 2.2399 0.0000
# 4 0.0000 0.0000 0.0000 10.7929 0.0000 4.7613
# 5 -6.1203 -3.5479 2.2399 0.0000 53.9609 0.0000
# 6 0.0000 0.0000 0.0000 4.7613 0.0000 12.3191
#
#
#
# Elastic Compliance Matrix: (Units=1/GPa)
#
#
# Indices 1 2 3 4 5 6 
#
# 1 0.007061 -0.000004 0.002209 0.000000 0.000709 0.000000
# 2 -0.000004 0.012776 -0.001372 0.000000 0.000896 0.000000
# 3 0.002209 -0.001372 0.017407 0.000000 -0.000562 0.000000
# 4 0.000000 0.000000 0.000000 0.111698 0.000000 -0.043171
# 5 0.000709 0.000896 -0.000562 0.000000 0.018695 0.000000
# 6 0.000000 0.000000 0.000000 -0.043171 0.000000 0.097860
#
#
# Mechanical properties :
#
#
# Convention : Reuss Voigt Hill
#
# Bulk Modulus (GPa) = 25.70000 28.78938 27.24469
# Shear Modulus (GPa) = 18.06355 35.56521 26.81438
#
# Velocity S-wave (km/s) = 2.60456 3.65465 3.17334
# Velocity P-wave (km/s) = 4.32395 5.34980 4.86400
#
# Compressibility (1/GPa) = 0.03891051
#
# Stress axis : x y z
#
# Youngs Moduli (GPa) = 141.62443 78.27345 57.44705
#
# Poissons Ratio (x) = 0.00033 -0.12693
# Poissons Ratio (y) = 0.00059 0.07882
# Poissons Ratio (z) = -0.31291 0.10739
#
# Static dielectric constant tensor:
#      x y z
#    x 2.286780 0.000000 -0.039050 
#    y 0.000000 2.010420 0.000000 
#    z -0.039050 0.000000 2.390550 
# 
# From -- ./inp_files/221559.got.cif
#   From: 2010.05.17/outbox.cif.g08.bks.cpg/sg12_111_cif.got.tgz:221559.got - 2010.06.03 13:09:07.
