data_PCOD9190923
_publ_section_title
;
Structure prediction by ZEFSAII (Michael W. Deem and Ramdas Pophale) SiO2 
 PCOD9190923
Probable space group: C 2/M
;
_chemical_formula_sum "Si O2"
_cell_formula_units_Z 56
_cell_length_a 9.771949
_cell_length_b 21.525538
_cell_length_c 18.411164
_cell_angle_alpha 90.000000
_cell_angle_beta 132.931150
_cell_angle_gamma 90.000000
_cell_volume 2835.502186
_symmetry_space_group_name_H-M "C 2/M"
_symmetry_group_IT_number 12
_symmetry_cell_setting 'monoclinic'
loop_
_space_group_symop_operation_xyz
x,y,z
-x,y,-z
-x,-y,-z
x,-y,z
1/2+x,1/2+y,z
1/2-x,1/2+y,-z
1/2-x,1/2-y,-z
1/2+x,1/2-y,z
loop_
_atom_site_type_symbol
_atom_site_label
_atom_site_fract_x
_atom_site_fract_y
_atom_site_fract_z
Si Si1 0.184241 0.265765 0.100433
Si Si2 0.893748 0.097808 0.797124
Si Si3 0.774459 0.568381 0.418354
Si Si4 0.714856 0.426485 0.088505
Si Si5 0.781617 0.709250 0.440374
Si Si6 0.817835 0.400148 0.974086
Si Si7 0.410655 0.745248 0.776450
O O1 0.192353 0.330693 0.061039
O O2 0.377170 0.231923 0.154444
O O3 0.175326 0.276996 0.183510
O O4 0.000000 0.234129 0.000000
O O5 0.804016 0.071709 0.691829
O O6 0.759972 0.084797 0.817241
O O7 0.907486 0.172186 0.796153
O O8 0.107855 0.073578 0.884300
O O9 0.716678 0.500000 0.428452
O O10 0.716485 0.636970 0.427769
O O11 0.000000 0.568326 0.500000
O O12 0.722046 0.500000 0.079318
O O13 0.500000 0.405578 0.000000
O O14 0.838908 0.399572 0.068609
O O15 0.750000 0.750000 0.500000
O O16 0.685125 0.743501 0.336721
O O17 0.000000 0.706039 0.500000
O O18 0.000000 0.428278 0.000000
#
# Coordination Sequence:
#
# PCOD9190923 Si02
#       7
#     8   8   8   8   8   8   8
#     4  10  20  33  48  71 104 141 176 214 260 314
#     4   9  18  32  52  75 100 132 174 223 267 313
#     4   9  18  34  57  83 107 137 182 231 276 323
#     4   9  17  30  48  68  91 124 166 210 252 298
#     4  10  20  36  58  85 112 141 179 229 282 332
#     4   9  19  33  47  71 105 138 173 210 260 319
#     4  10  20  32  50  75 103 137 177 215 266 326
#
# _framework density 19.749587999999999
#
# number of rings (size 3 to 8) (size 9 to 14) (size 15 to 20)
#    0.000    2.571    0.000    1.714    0.000    6.000 
#    0.000    0.000    0.000    0.429    0.000    5.000 
#    0.000    0.000    0.000    0.000    0.000    0.000 
#
# Total GULP energy -155920.702371 kJ/mol
# GULP energy per Si atom -5568.596513 kJ/mol
# Density = 1.970464 g / cm^3
# Si number density = 19.749588 Si / 1000 Ang^3
#
#
#
# Elastic Constant Matrix: (Units=GPa)
#
#
# Indices 1 2 3 4 5 6 
#
# 1 132.9316 36.8763 39.3709 0.0000 -22.4221 0.0000
# 2 36.8763 101.4043 41.5477 0.0000 -24.4297 0.0000
# 3 39.3709 41.5477 90.2258 0.0000 -10.7742 0.0000
# 4 0.0000 0.0000 0.0000 -8.6220 0.0000 -7.0438
# 5 -22.4221 -24.4297 -10.7742 0.0000 32.7662 0.0000
# 6 0.0000 0.0000 0.0000 -7.0438 0.0000 7.0599
#
#
#
# Elastic Compliance Matrix: (Units=1/GPa)
#
#
# Indices 1 2 3 4 5 6 
#
# 1 0.009532 -0.001057 -0.003110 0.000000 0.004712 0.000000
# 2 -0.001057 0.014356 -0.005160 0.000000 0.008283 0.000000
# 3 -0.003110 -0.005160 0.014679 0.000000 -0.001149 0.000000
# 4 0.000000 0.000000 0.000000 -0.063899 0.000000 -0.063753
# 5 0.004712 0.008283 -0.001149 0.000000 0.039542 0.000000
# 6 0.000000 0.000000 0.000000 -0.063753 0.000000 0.078037
#
#
# Mechanical properties :
#
#
# Convention : Reuss Voigt Hill
#
# Bulk Modulus (GPa) = 50.21922 62.23907 56.22914
# Shear Modulus (GPa) = 42.53942 20.02529 31.28236
#
# Velocity S-wave (km/s) = 4.64609 3.18773 3.98420
# Velocity P-wave (km/s) = 7.36646 6.71799 7.04968
#
# Compressibility (1/GPa) = 0.01991269
#
# Stress axis : x y z
#
# Youngs Moduli (GPa) = 104.91292 69.65875 68.12254
#
# Poissons Ratio (x) = 0.07362 0.21185
# Poissons Ratio (y) = 0.11088 0.35153
# Poissons Ratio (z) = 0.32627 0.35946
#
# Static dielectric constant tensor:
#      x y z
#    x 1.720140 0.000000 0.017230 
#    y 0.000000 1.756770 0.000000 
#    z 0.017230 0.000000 1.726310 
# 
# From -- ./inp_files/259239.got.cif
#   From: 2010.05.17/outbox.cif.g08.bks.cpg/sg12_130_cif.got.tgz:259239.got - 2010.06.03 13:09:07.
