data_PCOD9190608
_publ_section_title
;
Structure prediction by ZEFSAII (Michael W. Deem and Ramdas Pophale) SiO2 
 PCOD9190608
Probable space group: C 2/M
;
_chemical_formula_sum "Si O2"
_cell_formula_units_Z 56
_cell_length_a 13.729638
_cell_length_b 7.927466
_cell_length_c 20.960292
_cell_angle_alpha 90.000000
_cell_angle_beta 109.943252
_cell_angle_gamma 90.000000
_cell_volume 2144.534007
_symmetry_space_group_name_H-M "C 2/M"
_symmetry_group_IT_number 12
_symmetry_cell_setting 'monoclinic'
loop_
_space_group_symop_operation_xyz
x,y,z
-x,y,-z
-x,-y,-z
x,-y,z
1/2+x,1/2+y,z
1/2-x,1/2+y,-z
1/2-x,1/2-y,-z
1/2+x,1/2-y,z
loop_
_atom_site_type_symbol
_atom_site_label
_atom_site_fract_x
_atom_site_fract_y
_atom_site_fract_z
Si Si1 0.793756 0.701039 0.721136
Si Si2 0.654777 0.299149 0.130894
Si Si3 0.599807 0.799136 0.845125
Si Si4 0.718179 0.814298 0.420864
Si Si5 0.131182 0.199473 0.988761
Si Si6 0.559119 0.197628 0.703500
Si Si7 0.071289 0.301705 0.576059
O O1 0.780595 0.500000 0.713228
O O2 0.859534 0.727233 0.801115
O O3 0.831839 0.757570 0.658304
O O4 0.682640 0.786632 0.713155
O O5 0.637121 0.500000 0.132113
O O6 0.777526 0.273021 0.141698
O O7 0.604643 0.230640 0.053363
O O8 0.547220 0.722973 0.770079
O O9 0.584653 0.000000 0.843574
O O10 0.573504 0.735645 0.909444
O O11 0.750000 0.750000 0.500000
O O12 0.833147 0.815379 0.417167
O O13 0.672819 0.000000 0.421715
O O14 0.127199 0.000000 0.996210
O O15 0.250000 0.250000 0.000000
O O16 0.512010 0.256794 0.626180
O O17 0.533539 0.000000 0.705094
O O18 0.102848 0.500000 0.589789
O O19 0.000000 0.294384 0.500000
#
# Coordination Sequence:
#
# PCOD9190608 Si02
#       7
#     8   8   8   8   8   8   8
#     4   9  16  24  36  54  72  94 129 168 202 240
#     4   8  14  22  30  42  63  92 123 156 196 239
#     4   8  13  20  29  42  62  90 123 157 192 230
#     4  10  20  32  46  65  88 114 145 181 219 258
#     4   9  15  20  26  39  60  87 121 157 191 230
#     4   8  14  24  36  51  73 100 130 163 200 245
#     4   9  17  30  48  67  87 114 146 179 218 262
#
# _framework density 26.112898999999999
#
# number of rings (size 3 to 8) (size 9 to 14) (size 15 to 20)
#    0.000    3.286    0.000    3.000    0.000    7.714 
#    0.000    0.000    0.000    0.000    0.000    0.000 
#    0.000    0.000    0.000    1.286    0.000   28.286 
#
# Total GULP energy -155971.102745 kJ/mol
# GULP energy per Si atom -5570.396527 kJ/mol
# Density = 2.605347 g / cm^3
# Si number density = 26.112899 Si / 1000 Ang^3
#
#
#
# Elastic Constant Matrix: (Units=GPa)
#
#
# Indices 1 2 3 4 5 6 
#
# 1 58.2789 11.3603 43.8181 0.0000 -26.9894 0.0000
# 2 11.3603 26.8069 41.6410 0.0000 12.0058 0.0000
# 3 43.8181 41.6410 368.3782 0.0000 0.1183 0.0000
# 4 0.0000 0.0000 0.0000 40.5063 0.0000 1.9682
# 5 -26.9894 12.0058 0.1183 0.0000 54.4835 0.0000
# 6 0.0000 0.0000 0.0000 1.9682 0.0000 1.5688
#
#
#
# Elastic Compliance Matrix: (Units=1/GPa)
#
#
# Indices 1 2 3 4 5 6 
#
# 1 0.031403 -0.019931 -0.001489 0.000000 0.019951 0.000000
# 2 -0.019931 0.064037 -0.004860 0.000000 -0.023973 0.000000
# 3 -0.001489 -0.004860 0.003441 0.000000 0.000326 0.000000
# 4 0.000000 0.000000 0.000000 0.026290 0.000000 -0.032984
# 5 0.019951 -0.023973 0.000326 0.000000 0.033519 0.000000
# 6 0.000000 0.000000 0.000000 -0.032984 0.000000 0.678818
#
#
# Mechanical properties :
#
#
# Convention : Reuss Voigt Hill
#
# Bulk Modulus (GPa) = 21.58847 71.90029 46.74438
# Shear Modulus (GPa) = 5.52176 43.08802 24.30489
#
# Velocity S-wave (km/s) = 1.45573 4.06651 3.05415
# Velocity P-wave (km/s) = 3.33330 7.04577 5.51152
#
# Compressibility (1/GPa) = 0.04632102
#
# Stress axis : x y z
#
# Youngs Moduli (GPa) = 31.84425 15.61608 290.61538
#
# Poissons Ratio (x) = 0.31124 0.43266
# Poissons Ratio (y) = 0.63468 1.41244
# Poissons Ratio (z) = 0.04741 0.07590
#
# Static dielectric constant tensor:
#      x y z
#    x 2.240090 0.000000 0.122780 
#    y 0.000000 3.200560 0.000000 
#    z 0.122780 0.000000 2.233230 
# 
# From -- ./inp_files/287052.got.cif
#   From: 2010.05.17/outbox.cif.g08.bks.cpg/sg12_144_cif.got.tgz:287052.got - 2010.06.03 13:09:07.
