data_PCOD9190129
_publ_section_title
;
Structure prediction by ZEFSAII (Michael W. Deem and Ramdas Pophale) SiO2 
 PCOD9190129
Probable space group: C 2/M
;
_chemical_formula_sum "Si O2"
_cell_formula_units_Z 46
_cell_length_a 17.759404
_cell_length_b 22.193410
_cell_length_c 5.162543
_cell_angle_alpha 90.000000
_cell_angle_beta 103.815382
_cell_angle_gamma 90.000000
_cell_volume 1975.908070
_symmetry_space_group_name_H-M "C 2/M"
_symmetry_group_IT_number 12
_symmetry_cell_setting 'monoclinic'
loop_
_space_group_symop_operation_xyz
x,y,z
-x,y,-z
-x,-y,-z
x,-y,z
1/2+x,1/2+y,z
1/2-x,1/2+y,-z
1/2-x,1/2-y,-z
1/2+x,1/2-y,z
loop_
_atom_site_type_symbol
_atom_site_label
_atom_site_fract_x
_atom_site_fract_y
_atom_site_fract_z
Si Si1 0.053977 0.500000 0.791456
Si Si2 0.906627 0.807674 0.906349
Si Si3 0.242932 0.069343 0.648185
Si Si4 0.899340 0.068033 0.136493
Si Si5 0.000000 0.000000 0.000000
Si Si6 0.094063 0.731939 0.595379
Si Si7 0.672763 0.107701 0.795726
O O1 0.106645 0.559160 0.808367
O O2 0.000000 0.500000 0.500000
O O3 0.000000 0.500000 0.000000
O O4 0.879339 0.874586 0.949754
O O5 0.882856 0.765492 0.123711
O O6 0.882968 0.775666 0.622000
O O7 0.000000 0.808946 0.000000
O O8 0.152621 0.070759 0.653258
O O9 0.270970 0.082427 0.382806
O O10 0.267263 0.000000 0.727433
O O11 0.282937 0.112770 0.893695
O O12 0.990215 0.055498 0.214910
O O13 0.888172 0.000000 0.988679
O O14 0.134612 0.667447 0.646393
O O15 0.000000 0.724354 0.500000
#
# Coordination Sequence:
#
# PCOD9190129 Si02
#       7
#     4   8   8   8   2   8   8
#     4  12  24  36  63  90 118 151 212 273 304 350
#     4  10  19  40  61  92 123 162 200 258 315 361
#     4  11  22  40  63  88 125 170 199 253 313 380
#     4   9  19  37  69  97 125 155 211 251 316 363
#     4   8  16  36  70  98 124 146 196 268 296 362
#     4  10  23  38  63  85 123 165 208 253 308 369
#     4  12  23  43  59  89 125 167 209 251 316 358
#
# _framework density 23.280436000000002
#
# number of rings (size 3 to 8) (size 9 to 14) (size 15 to 20)
#    0.522    1.043    2.609    2.609    0.000    3.478 
#    0.000    7.826    0.000    7.304    0.000    0.000 
#    0.000    0.000    0.000    0.000    0.000    0.000 
#
# Total GULP energy -128169.763273 kJ/mol
# GULP energy per Si atom -5572.598403 kJ/mol
# Density = 2.322745 g / cm^3
# Si number density = 23.280436 Si / 1000 Ang^3
#
#
#
# Elastic Constant Matrix: (Units=GPa)
#
#
# Indices 1 2 3 4 5 6 
#
# 1 87.8453 35.5872 48.5273 0.0000 -27.0430 0.0000
# 2 35.5872 138.4488 21.3441 0.0000 -33.4509 0.0000
# 3 48.5273 21.3441 141.8162 0.0000 -46.4086 0.0000
# 4 0.0000 0.0000 0.0000 9.9658 0.0000 -11.8256
# 5 -27.0430 -33.4509 -46.4086 0.0000 40.1262 0.0000
# 6 0.0000 0.0000 0.0000 -11.8256 0.0000 -6.6511
#
#
#
# Elastic Compliance Matrix: (Units=1/GPa)
#
#
# Indices 1 2 3 4 5 6 
#
# 1 0.015693 -0.002407 -0.003545 0.000000 0.004469 0.000000
# 2 -0.002407 0.009702 0.002380 0.000000 0.009218 0.000000
# 3 -0.003545 0.002380 0.012508 0.000000 0.014061 0.000000
# 4 0.000000 0.000000 0.000000 0.032267 0.000000 -0.057370
# 5 0.004469 0.009218 0.014061 0.000000 0.051881 0.000000
# 6 0.000000 0.000000 0.000000 -0.057370 0.000000 -0.048348
#
#
# Mechanical properties :
#
#
# Convention : Reuss Voigt Hill
#
# Bulk Modulus (GPa) = 32.51152 64.33641 48.42396
# Shear Modulus (GPa) = 54.88478 26.19829 40.54154
#
# Velocity S-wave (km/s) = 4.86073 3.35824 4.17759
# Velocity P-wave (km/s) = 6.74520 6.53700 6.64192
#
# Compressibility (1/GPa) = 0.03075833
#
# Stress axis : x y z
#
# Youngs Moduli (GPa) = 63.72199 103.07117 79.95166
#
# Poissons Ratio (x) = 0.24814 0.28343
# Poissons Ratio (y) = 0.15341 -0.19031
# Poissons Ratio (z) = 0.22590 -0.24534
#
# Static dielectric constant tensor:
#      x y z
#    x 2.148700 0.000000 -0.021650 
#    y 0.000000 1.939930 0.000000 
#    z -0.021650 0.000000 1.925700 
# 
# From -- ./inp_files/20954.got.cif
#   From: 2010.05.17/outbox.cif.g08.bks.cpg/sg12_11_cif.got.tgz:20954.got - 2010.06.03 13:09:07.
