data_PCOD9190374
_publ_section_title
;
Structure prediction by ZEFSAII (Michael W. Deem and Ramdas Pophale) SiO2 
 PCOD9190374
Probable space group: C 2/M
;
_chemical_formula_sum "Si O2"
_cell_formula_units_Z 40
_cell_length_a 17.038077
_cell_length_b 14.082491
_cell_length_c 9.855836
_cell_angle_alpha 90.000000
_cell_angle_beta 134.972401
_cell_angle_gamma 90.000000
_cell_volume 1672.967967
_symmetry_space_group_name_H-M "C 2/M"
_symmetry_group_IT_number 12
_symmetry_cell_setting 'monoclinic'
loop_
_space_group_symop_operation_xyz
x,y,z
-x,y,-z
-x,-y,-z
x,-y,z
1/2+x,1/2+y,z
1/2-x,1/2+y,-z
1/2-x,1/2-y,-z
1/2+x,1/2-y,z
loop_
_atom_site_type_symbol
_atom_site_label
_atom_site_fract_x
_atom_site_fract_y
_atom_site_fract_z
Si Si1 0.275766 0.385950 0.622965
Si Si2 0.415454 0.392254 0.045509
Si Si3 0.040201 0.309282 0.839799
Si Si4 0.338672 0.889810 0.261384
Si Si5 0.337662 0.112421 0.767694
O O1 0.259800 0.500000 0.596111
O O2 0.385744 0.375874 0.848731
O O3 0.180370 0.350107 0.610173
O O4 0.262277 0.354280 0.452448
O O5 0.456336 0.500000 0.116545
O O6 0.288598 0.388448 0.949836
O O7 0.477794 0.303060 0.182444
O O8 0.077909 0.342319 0.739203
O O9 0.942305 0.366261 0.795782
O O10 0.142177 0.330462 0.070147
O O11 0.369954 0.000000 0.310796
O O12 0.332072 0.000000 0.791298
#
# Coordination Sequence:
#
# PCOD9190374 Si02
#       5
#     8   8   8   8   8
#     4   7  15  31  46  63  92 119 143 179 223 261
#     4   8  17  32  48  66  87 116 155 189 212 252
#     4  11  18  27  47  70  92 118 146 180 226 266
#     4   8  15  29  48  69  89 113 148 185 219 261
#     4  10  20  31  42  68 100 118 138 180 230 271
#
# _framework density 23.909602
#
# number of rings (size 3 to 8) (size 9 to 14) (size 15 to 20)
#    1.200    2.000    0.000    3.000    0.000    1.600 
#    0.000    5.000    0.000    0.000    0.000    7.000 
#    0.000    0.000    0.000    0.000    0.000    0.000 
#
# Total GULP energy -111520.362171 kJ/mol
# GULP energy per Si atom -5576.018109 kJ/mol
# Density = 2.385518 g / cm^3
# Si number density = 23.909602 Si / 1000 Ang^3
#
#
#
# Elastic Constant Matrix: (Units=GPa)
#
#
# Indices 1 2 3 4 5 6 
#
# 1 73.3220 25.2995 13.6282 0.0000 -4.1387 0.0000
# 2 25.2995 128.8632 5.1494 0.0000 -2.1036 0.0000
# 3 13.6282 5.1494 86.5999 0.0000 -7.9302 0.0000
# 4 0.0000 0.0000 0.0000 18.7301 0.0000 -10.7200
# 5 -4.1387 -2.1036 -7.9302 0.0000 25.4659 0.0000
# 6 0.0000 0.0000 0.0000 -10.7200 0.0000 21.4844
#
#
#
# Elastic Compliance Matrix: (Units=1/GPa)
#
#
# Indices 1 2 3 4 5 6 
#
# 1 0.015096 -0.002856 -0.002062 0.000000 0.001576 0.000000
# 2 -0.002856 0.008325 -0.000026 0.000000 0.000216 0.000000
# 3 -0.002062 -0.000026 0.012190 0.000000 0.003459 0.000000
# 4 0.000000 0.000000 0.000000 0.074732 0.000000 0.037289
# 5 0.001576 0.000216 0.003459 0.000000 0.040619 0.000000
# 6 0.000000 0.000000 0.000000 0.037289 0.000000 0.065152
#
#
# Mechanical properties :
#
#
# Convention : Reuss Voigt Hill
#
# Bulk Modulus (GPa) = 38.87256 41.88214 40.37735
# Shear Modulus (GPa) = 21.31510 29.44994 25.38252
#
# Velocity S-wave (km/s) = 2.98902 3.51339 3.26176
# Velocity P-wave (km/s) = 5.31091 5.83211 5.57760
#
# Compressibility (1/GPa) = 0.02572509
#
# Stress axis : x y z
#
# Youngs Moduli (GPa) = 66.24308 120.11483 82.03407
#
# Poissons Ratio (x) = 0.34301 0.16912
# Poissons Ratio (y) = 0.18917 0.00213
# Poissons Ratio (z) = 0.13656 0.00311
#
# Static dielectric constant tensor:
#      x y z
#    x 1.978310 0.000000 0.106400 
#    y 0.000000 1.880300 0.000000 
#    z 0.106400 0.000000 2.025820 
# 
# From -- ./inp_files/166006.got.cif
#   From: 2010.05.17/outbox.cif.g08.bks.cpg/sg12_84_cif.got.tgz:166006.got - 2010.06.03 13:09:07.
