data_PCOD9190182
_publ_section_title
;
Structure prediction by ZEFSAII (Michael W. Deem and Ramdas Pophale) SiO2 
 PCOD9190182
Probable space group: C 2/M
;
_chemical_formula_sum "Si O2"
_cell_formula_units_Z 60
_cell_length_a 16.081724
_cell_length_b 20.059760
_cell_length_c 15.875879
_cell_angle_alpha 90.000000
_cell_angle_beta 37.257588
_cell_angle_gamma 90.000000
_cell_volume 3100.545470
_symmetry_space_group_name_H-M "C 2/M"
_symmetry_group_IT_number 12
_symmetry_cell_setting 'monoclinic'
loop_
_space_group_symop_operation_xyz
x,y,z
-x,y,-z
-x,-y,-z
x,-y,z
1/2+x,1/2+y,z
1/2-x,1/2+y,-z
1/2-x,1/2-y,-z
1/2+x,1/2-y,z
loop_
_atom_site_type_symbol
_atom_site_label
_atom_site_fract_x
_atom_site_fract_y
_atom_site_fract_z
Si Si1 0.209774 0.698423 0.918854
Si Si2 0.660389 0.290654 0.368460
Si Si3 0.000000 0.393017 0.000000
Si Si4 0.885782 0.159432 0.932158
Si Si5 0.086694 0.578042 0.605726
Si Si6 0.793651 0.426961 0.307690
Si Si7 0.723924 0.920266 0.199898
Si Si8 0.789656 0.156250 0.321070
O O1 0.290842 0.710359 0.767328
O O2 0.306057 0.661299 0.908133
O O3 0.152814 0.768587 0.997689
O O4 0.081403 0.653009 0.999457
O O5 0.500000 0.275822 0.500000
O O6 0.694519 0.363745 0.377458
O O7 0.744417 0.233029 0.347979
O O8 0.111518 0.428874 0.852139
O O9 0.048527 0.152074 0.791428
O O10 0.825542 0.104746 0.044686
O O11 0.105474 0.500000 0.567899
O O12 0.113869 0.583728 0.683521
O O13 0.196736 0.621552 0.466729
O O14 0.931693 0.596251 0.704126
O O15 0.726190 0.500000 0.371454
O O16 0.758166 0.881316 0.258154
O O17 0.733760 0.000000 0.203988
#
# Coordination Sequence:
#
# PCOD9190182 Si02
#       8
#     8   8   4   8   8   8   8   8
#     4  10  22  40  63  91 126 163 200 265 316 362
#     4  11  24  41  64  91 123 162 214 255 315 384
#     4  10  19  40  68  92 121 160 208 256 311 384
#     4  11  23  39  63  91 129 163 209 260 317 364
#     4  10  23  42  63  92 129 169 211 257 311 375
#     4  10  22  40  65  92 124 161 204 262 318 371
#     4  11  23  40  64  92 128 172 214 255 308 376
#     4  12  24  39  64  93 127 168 210 260 314 373
#
# _framework density 19.351434000000001
#
# number of rings (size 3 to 8) (size 9 to 14) (size 15 to 20)
#    0.000    1.333    1.333    4.600    1.867    4.533 
#    0.000    2.667    0.000    0.000    0.000    0.000 
#    0.000    0.000    0.000    0.000    0.000    0.000 
#
# Total GULP energy -167643.813550 kJ/mol
# GULP energy per Si atom -5588.127118 kJ/mol
# Density = 1.930739 g / cm^3
# Si number density = 19.351434 Si / 1000 Ang^3
#
#
#
# Elastic Constant Matrix: (Units=GPa)
#
#
# Indices 1 2 3 4 5 6 
#
# 1 101.4671 44.1952 13.6350 -0.0001 -13.8775 0.0000
# 2 44.1952 88.7098 29.9871 0.0014 -7.2014 -0.0010
# 3 13.6350 29.9871 64.4725 0.0012 -21.9971 -0.0008
# 4 -0.0001 0.0014 0.0012 40.5357 -0.0011 -1.1757
# 5 -13.8775 -7.2014 -21.9971 -0.0011 33.1405 0.0007
# 6 0.0000 -0.0010 -0.0008 -1.1757 0.0007 23.8562
#
#
#
# Elastic Compliance Matrix: (Units=1/GPa)
#
#
# Indices 1 2 3 4 5 6 
#
# 1 0.013355 -0.006990 0.002348 0.000000 0.005632 0.000000
# 2 -0.006990 0.017099 -0.008022 0.000000 -0.004536 0.000001
# 3 0.002348 -0.008022 0.023898 0.000000 0.015102 0.000000
# 4 0.000000 0.000000 0.000000 0.024705 0.000001 0.001218
# 5 0.005632 -0.004536 0.015102 0.000001 0.041572 -0.000001
# 6 0.000000 0.000001 0.000000 0.001218 -0.000001 0.041978
#
#
# Mechanical properties :
#
#
# Convention : Reuss Voigt Hill
#
# Bulk Modulus (GPa) = 34.45480 47.80934 41.13207
# Shear Modulus (GPa) = 25.30266 30.62863 27.96564
#
# Velocity S-wave (km/s) = 3.61991 3.98270 3.80563
# Velocity P-wave (km/s) = 5.94265 6.77560 6.37275
#
# Compressibility (1/GPa) = 0.02902353
#
# Stress axis : x y z
#
# Youngs Moduli (GPa) = 74.88012 58.48409 41.84471
#
# Poissons Ratio (x) = 0.40880 -0.09827
# Poissons Ratio (y) = 0.52341 0.33569
# Poissons Ratio (z) = -0.17585 0.46918
#
# Static dielectric constant tensor:
#      x y z
#    x 1.657980 0.000000 0.004720 
#    y 0.000000 1.686200 0.000000 
#    z 0.004720 0.000000 1.660390 
# 
# From -- ./inp_files/217909.got.cif
#   From: 2010.05.17/outbox.cif.g08.bks.cpg/sg12_109_cif.got.tgz:217909.got - 2010.06.03 13:09:07.
