data_PCOD9190237
_publ_section_title
;
Structure prediction by ZEFSAII (Michael W. Deem and Ramdas Pophale) SiO2 
 PCOD9190237
Probable space group: C 2/M
;
_chemical_formula_sum "Si O2"
_cell_formula_units_Z 36
_cell_length_a 16.380666
_cell_length_b 14.731966
_cell_length_c 19.236954
_cell_angle_alpha 90.000000
_cell_angle_beta 22.149666
_cell_angle_gamma 90.000000
_cell_volume 1750.255021
_symmetry_space_group_name_H-M "C 2/M"
_symmetry_group_IT_number 12
_symmetry_cell_setting 'monoclinic'
loop_
_space_group_symop_operation_xyz
x,y,z
-x,y,-z
-x,-y,-z
x,-y,z
1/2+x,1/2+y,z
1/2-x,1/2+y,-z
1/2-x,1/2-y,-z
1/2+x,1/2-y,z
loop_
_atom_site_type_symbol
_atom_site_label
_atom_site_fract_x
_atom_site_fract_y
_atom_site_fract_z
Si Si1 0.028659 0.182922 0.796151
Si Si2 0.239801 0.500000 0.202636
Si Si3 0.756437 0.706696 0.106276
Si Si4 0.248354 0.500000 0.034969
Si Si5 0.474171 0.183712 0.594816
Si Si6 0.128099 0.500000 0.974347
O O1 0.276886 0.167523 0.581183
O O2 0.915578 0.227406 0.818694
O O3 0.977376 0.249038 0.901954
O O4 0.900722 0.089000 0.910029
O O5 0.161785 0.500000 0.182871
O O6 0.148663 0.588241 0.312432
O O7 0.500000 0.500000 0.000000
O O8 0.668012 0.756709 0.242532
O O9 0.764605 0.599432 0.112956
O O10 0.087393 0.500000 0.093761
O O11 0.500000 0.229161 0.500000
O O12 0.000000 0.500000 0.000000
#
# Coordination Sequence:
#
# PCOD9190237 Si02
#       6
#     8   4   8   4   8   4
#     4  10  21  42  68  94 127 168 220 266 332 395
#     4  12  24  41  63 100 139 174 216 268 338 405
#     4  10  23  43  66  91 126 172 220 275 322 391
#     4  10  19  42  69  96 129 172 208 270 334 395
#     4  12  25  38  64  98 132 170 210 272 333 400
#     4  10  24  41  68  92 126 173 223 268 325 379
#
# _framework density 20.568432000000001
#
# number of rings (size 3 to 8) (size 9 to 14) (size 15 to 20)
#    0.000    1.333    2.222    3.000    3.111    0.000 
#    0.000    1.667    0.000    0.000    0.000    0.000 
#    0.000    0.000    0.000    0.000    0.000    0.000 
#
# Total GULP energy -100287.324664 kJ/mol
# GULP energy per Si atom -5571.518037 kJ/mol
# Density = 2.052162 g / cm^3
# Si number density = 20.568432 Si / 1000 Ang^3
#
#
#
# Elastic Constant Matrix: (Units=GPa)
#
#
# Indices 1 2 3 4 5 6 
#
# 1 109.4728 6.2858 30.3217 0.0031 22.2982 0.0128
# 2 6.2858 122.3938 44.7676 -0.0029 23.2563 0.0141
# 3 30.3217 44.7676 98.8666 0.0134 -0.1217 0.0691
# 4 0.0031 -0.0029 0.0134 21.7009 -0.0089 -2.8452
# 5 22.2982 23.2563 -0.1217 -0.0089 37.6321 -0.0320
# 6 0.0128 0.0141 0.0691 -2.8452 -0.0320 -21.9061
#
#
#
# Elastic Compliance Matrix: (Units=1/GPa)
#
#
# Indices 1 2 3 4 5 6 
#
# 1 0.012232 0.002969 -0.005107 -0.000001 -0.009099 0.000006
# 2 0.002969 0.012125 -0.006412 0.000002 -0.009273 0.000003
# 3 -0.005107 -0.006412 0.014593 -0.000002 0.007036 0.000029
# 4 -0.000001 0.000002 -0.000002 0.045310 0.000005 -0.005885
# 5 -0.009099 -0.009273 0.007036 0.000005 0.037718 -0.000045
# 6 0.000006 0.000003 0.000029 -0.005885 -0.000045 -0.044885
#
#
# Mechanical properties :
#
#
# Convention : Reuss Voigt Hill
#
# Bulk Modulus (GPa) = 45.76803 54.83148 50.29976
# Shear Modulus (GPa) = 49.27202 24.10925 36.69063
#
# Velocity S-wave (km/s) = 4.89971 3.42738 4.22813
# Velocity P-wave (km/s) = 7.36949 6.50988 6.95298
#
# Compressibility (1/GPa) = 0.02184931
#
# Stress axis : x y z
#
# Youngs Moduli (GPa) = 81.75208 82.47203 68.52545
#
# Poissons Ratio (x) = -0.24483 0.34996
# Poissons Ratio (y) = -0.24270 0.43941
# Poissons Ratio (z) = 0.41750 0.52884
#
# Static dielectric constant tensor:
#      x y z
#    x 1.858690 0.000000 -0.024880 
#    y 0.000000 1.707640 0.000010 
#    z -0.024880 0.000010 1.729300 
# 
# From -- ./inp_files/15364.got.cif
#   From: 2010.05.17/outbox.cif.g08.bks.cpg/sg12_8_cif.got.tgz:15364.got - 2010.06.03 13:09:07.
