data_PCOD9190755
_publ_section_title
;
Structure prediction by ZEFSAII (Michael W. Deem and Ramdas Pophale) SiO2 
 PCOD9190755
Probable space group: C 2/M
;
_chemical_formula_sum "Si O2"
_cell_formula_units_Z 56
_cell_length_a 19.108314
_cell_length_b 8.978157
_cell_length_c 19.173090
_cell_angle_alpha 90.000000
_cell_angle_beta 61.295150
_cell_angle_gamma 90.000000
_cell_volume 2885.051136
_symmetry_space_group_name_H-M "C 2/M"
_symmetry_group_IT_number 12
_symmetry_cell_setting 'monoclinic'
loop_
_space_group_symop_operation_xyz
x,y,z
-x,y,-z
-x,-y,-z
x,-y,z
1/2+x,1/2+y,z
1/2-x,1/2+y,-z
1/2-x,1/2-y,-z
1/2+x,1/2-y,z
loop_
_atom_site_type_symbol
_atom_site_label
_atom_site_fract_x
_atom_site_fract_y
_atom_site_fract_z
Si Si1 0.326376 0.323055 0.997343
Si Si2 0.663965 0.822514 0.750619
Si Si3 0.822799 0.323440 0.736328
Si Si4 0.494128 0.821934 0.583338
Si Si5 0.079551 0.179370 0.917083
Si Si6 0.905279 0.174983 0.821442
Si Si7 0.422771 0.323923 0.330284
O O1 0.315289 0.500000 0.006075
O O2 0.396282 0.293908 0.907550
O O3 0.250000 0.250000 0.000000
O O4 0.350366 0.274675 0.062748
O O5 0.748103 0.760399 0.738667
O O6 0.597340 0.761388 0.836773
O O7 0.643478 0.758105 0.684065
O O8 0.663596 0.000000 0.749882
O O9 0.807096 0.500000 0.743551
O O10 0.904565 0.292735 0.654428
O O11 0.844348 0.269704 0.803994
O O12 0.500000 0.777041 0.500000
O O13 0.557621 0.741328 0.602993
O O14 0.506973 0.000000 0.582161
O O15 0.081314 0.000000 0.904169
O O16 0.000000 0.210038 0.000000
O O17 0.993823 0.200298 0.751058
O O18 0.886648 0.000000 0.819810
O O19 0.407007 0.500000 0.340845
#
# Coordination Sequence:
#
# PCOD9190755 Si02
#       7
#     8   8   8   8   8   8   8
#     4  10  20  32  48  71  99 133 173 220 272 320
#     4  12  24  37  54  79 113 149 189 234 277 325
#     4  10  20  35  57  83 111 146 184 222 272 331
#     4   9  19  38  63  90 118 144 174 219 274 331
#     4  10  21  38  57  76 103 143 189 235 284 332
#     4   9  18  34  54  76 103 137 179 226 274 325
#     4  10  20  36  59  83 108 142 184 225 269 326
#
# _framework density 19.410401
#
# number of rings (size 3 to 8) (size 9 to 14) (size 15 to 20)
#    0.000    2.000    0.000    3.857    0.000    7.429 
#    0.000    2.143    0.000    0.000    0.000    0.000 
#    0.000    0.000    0.000    0.000    0.000    0.000 
#
# Total GULP energy -156377.692107 kJ/mol
# GULP energy per Si atom -5584.917575 kJ/mol
# Density = 1.936622 g / cm^3
# Si number density = 19.410401 Si / 1000 Ang^3
#
#
#
# Elastic Constant Matrix: (Units=GPa)
#
#
# Indices 1 2 3 4 5 6 
#
# 1 98.6509 57.7624 25.4151 0.0000 30.4498 0.0000
# 2 57.7624 60.2993 29.5115 0.0000 18.3400 -0.0001
# 3 25.4151 29.5115 75.9843 0.0000 31.3102 0.0000
# 4 0.0000 0.0000 0.0000 26.0844 0.0000 6.3647
# 5 30.4498 18.3400 31.3102 0.0000 32.1237 0.0000
# 6 0.0000 -0.0001 0.0000 6.3647 0.0000 26.2235
#
#
#
# Elastic Compliance Matrix: (Units=1/GPa)
#
#
# Indices 1 2 3 4 5 6 
#
# 1 0.030598 -0.027083 0.009800 0.000000 -0.023093 0.000000
# 2 -0.027083 0.045316 -0.014137 0.000000 0.013579 0.000000
# 3 0.009800 -0.014137 0.026531 0.000000 -0.027078 0.000000
# 4 0.000000 0.000000 0.000000 0.040750 0.000000 -0.009891
# 5 -0.023093 0.013579 -0.027078 0.000000 0.071659 0.000000
# 6 0.000000 0.000000 0.000000 -0.009891 0.000000 0.040534
#
#
# Mechanical properties :
#
#
# Convention : Reuss Voigt Hill
#
# Bulk Modulus (GPa) = 25.24901 51.14584 38.19743
# Shear Modulus (GPa) = 15.08616 25.03601 20.06108
#
# Velocity S-wave (km/s) = 2.79089 3.59531 3.21833
# Velocity P-wave (km/s) = 4.83959 6.60620 5.79066
#
# Compressibility (1/GPa) = 0.03960551
#
# Stress axis : x y z
#
# Youngs Moduli (GPa) = 32.68230 22.06708 37.69191
#
# Poissons Ratio (x) = 0.59764 -0.36939
# Poissons Ratio (y) = 0.88513 0.53285
# Poissons Ratio (z) = -0.32030 0.31196
#
# Static dielectric constant tensor:
#      x y z
#    x 1.716050 0.000000 -0.000720 
#    y 0.000000 1.644980 0.000000 
#    z -0.000720 0.000000 1.703170 
# 
# From -- ./inp_files/275006.got.cif
#   From: 2010.05.17/outbox.cif.g08.bks.cpg/sg12_138_cif.got.tgz:275006.got - 2010.06.03 13:09:07.
