data_PCOD9190069
_publ_section_title
;
Structure prediction by ZEFSAII (Michael W. Deem and Ramdas Pophale) SiO2 
 PCOD9190069
Probable space group: C 2/M
;
_chemical_formula_sum "Si O2"
_cell_formula_units_Z 58
_cell_length_a 27.827672
_cell_length_b 14.616144
_cell_length_c 12.100502
_cell_angle_alpha 90.000000
_cell_angle_beta 30.380398
_cell_angle_gamma 90.000000
_cell_volume 2489.082109
_symmetry_space_group_name_H-M "C 2/M"
_symmetry_group_IT_number 12
_symmetry_cell_setting 'monoclinic'
loop_
_space_group_symop_operation_xyz
x,y,z
-x,y,-z
-x,-y,-z
x,-y,z
1/2+x,1/2+y,z
1/2-x,1/2+y,-z
1/2-x,1/2-y,-z
1/2+x,1/2-y,z
loop_
_atom_site_type_symbol
_atom_site_label
_atom_site_fract_x
_atom_site_fract_y
_atom_site_fract_z
Si Si1 0.610451 0.888013 0.775646
Si Si2 0.701033 0.109793 0.824483
Si Si3 0.750509 0.891174 0.310972
Si Si4 0.500000 0.500000 0.500000
Si Si5 0.196939 0.311725 0.193726
Si Si6 0.587445 0.650428 0.502798
Si Si7 0.538192 0.609745 0.041731
Si Si8 0.918393 0.601709 0.738402
O O1 0.670171 0.857100 0.764644
O O2 0.663566 0.857894 0.558986
O O3 0.613439 0.000000 0.768795
O O4 0.500000 0.862079 0.000000
O O5 0.808739 0.124796 0.650882
O O6 0.689564 0.000000 0.846138
O O7 0.625375 0.145871 0.065450
O O8 0.754367 0.842144 0.186179
O O9 0.738934 0.000000 0.315017
O O10 0.849275 0.877548 0.177010
O O11 0.548718 0.580582 0.485696
O O12 0.110549 0.249874 0.408958
O O13 0.166716 0.398544 0.181420
O O14 0.250000 0.250000 0.000000
O O15 0.513306 0.651694 0.750347
O O16 0.519323 0.500000 0.087022
O O17 0.500000 0.642154 0.000000
O O18 0.951457 0.500000 0.703776
O O19 0.000000 0.642113 0.500000
#
# Coordination Sequence:
#
# PCOD9190069 Si02
#       8
#     8   8   8   2   8   8   8   8
#     4   9  19  37  67 102 134 177 230 283 333 412
#     4  10  19  39  66  94 132 176 227 280 342 400
#     4  10  23  43  70 103 142 186 230 291 352 422
#     4  12  28  44  74 108 134 180 242 270 360 414
#     4  12  27  43  65  97 143 181 228 291 350 405
#     4  12  25  43  69 100 137 179 229 291 340 423
#     4  10  21  42  73 105 137 182 240 294 353 417
#     4  10  23  41  65  94 128 183 228 277 340 421
#
# _framework density 23.301762
#
# number of rings (size 3 to 8) (size 9 to 14) (size 15 to 20)
#    0.000    1.517    2.759    1.241    4.828    2.207 
#    0.000    3.448    0.000    0.000    0.000    0.000 
#    0.000    0.000    0.000    0.000    0.000    0.000 
#
# Total GULP energy -161702.414236 kJ/mol
# GULP energy per Si atom -5575.945318 kJ/mol
# Density = 2.324873 g / cm^3
# Si number density = 23.301762 Si / 1000 Ang^3
#
#
#
# Elastic Constant Matrix: (Units=GPa)
#
#
# Indices 1 2 3 4 5 6 
#
# 1 164.5043 22.9334 47.3620 0.0000 6.9458 0.0000
# 2 22.9334 61.9175 11.4233 0.0000 1.4129 0.0000
# 3 47.3620 11.4233 138.1904 0.0000 16.8954 0.0000
# 4 0.0000 0.0000 0.0000 13.7419 0.0000 11.8567
# 5 6.9458 1.4129 16.8954 0.0000 27.5856 0.0000
# 6 0.0000 0.0000 0.0000 11.8567 0.0000 14.8357
#
#
#
# Elastic Compliance Matrix: (Units=1/GPa)
#
#
# Indices 1 2 3 4 5 6 
#
# 1 0.007028 -0.002192 -0.002189 0.000000 -0.000317 0.000000
# 2 -0.002192 0.017084 -0.000672 0.000000 0.000088 0.000000
# 3 -0.002189 -0.000672 0.008616 0.000000 -0.004691 0.000000
# 4 0.000000 0.000000 0.000000 0.234415 0.000000 -0.187345
# 5 -0.000317 0.000088 -0.004691 0.000000 0.039199 0.000000
# 6 0.000000 0.000000 0.000000 -0.187345 0.000000 0.217133
#
#
# Mechanical properties :
#
#
# Convention : Reuss Voigt Hill
#
# Bulk Modulus (GPa) = 44.20317 58.67216 51.43767
# Shear Modulus (GPa) = 9.24008 30.09221 19.66615
#
# Velocity S-wave (km/s) = 1.99349 3.59752 2.90828
# Velocity P-wave (km/s) = 4.93049 6.51845 5.77927
#
# Compressibility (1/GPa) = 0.02262281
#
# Stress axis : x y z
#
# Youngs Moduli (GPa) = 142.28807 58.53314 116.06777
#
# Poissons Ratio (x) = 0.12831 0.25405
# Poissons Ratio (y) = 0.31190 0.07797
# Poissons Ratio (z) = 0.31144 0.03932
#
# Static dielectric constant tensor:
#      x y z
#    x 1.865910 0.000000 -0.027800 
#    y 0.000000 1.968660 0.000000 
#    z -0.027800 0.000000 1.870660 
# 
# From -- ./inp_files/184414.got.cif
#   From: 2010.05.17/outbox.cif.g08.bks.cpg/sg12_93_cif.got.tgz:184414.got - 2010.06.03 13:09:07.
