data_PCOD9190437
_publ_section_title
;
Structure prediction by ZEFSAII (Michael W. Deem and Ramdas Pophale) SiO2 
 PCOD9190437
Probable space group: C 2/M
;
_chemical_formula_sum "Si O2"
_cell_formula_units_Z 56
_cell_length_a 28.449638
_cell_length_b 7.500146
_cell_length_c 14.033131
_cell_angle_alpha 90.000000
_cell_angle_beta 118.953805
_cell_angle_gamma 90.000000
_cell_volume 2620.077927
_symmetry_space_group_name_H-M "C 2/M"
_symmetry_group_IT_number 12
_symmetry_cell_setting 'monoclinic'
loop_
_space_group_symop_operation_xyz
x,y,z
-x,y,-z
-x,-y,-z
x,-y,z
1/2+x,1/2+y,z
1/2-x,1/2+y,-z
1/2-x,1/2-y,-z
1/2+x,1/2-y,z
loop_
_atom_site_type_symbol
_atom_site_label
_atom_site_fract_x
_atom_site_fract_y
_atom_site_fract_z
Si Si1 0.312525 0.705194 0.951122
Si Si2 0.976284 0.782161 0.829617
Si Si3 0.886106 0.794022 0.612933
Si Si4 0.918804 0.782200 0.969282
Si Si5 0.713995 0.788868 0.370937
Si Si6 0.692057 0.788910 0.846936
Si Si7 0.684167 0.714289 0.630878
O O1 0.305783 0.500000 0.915620
O O2 0.331972 0.709605 0.080363
O O3 0.359126 0.784825 0.931891
O O4 0.253012 0.785958 0.895466
O O5 0.941886 0.717079 0.706065
O O6 0.943657 0.729523 0.892744
O O7 0.975811 0.000000 0.826775
O O8 0.037630 0.728133 0.907857
O O9 0.843541 0.791054 0.659282
O O10 0.855050 0.715902 0.491045
O O11 0.896271 0.000000 0.598823
O O12 0.916915 0.000000 0.968344
O O13 0.750000 0.750000 0.500000
O O14 0.754226 0.722034 0.327897
O O15 0.706011 0.000000 0.352847
O O16 0.665642 0.756432 0.718882
O O17 0.694834 0.000000 0.865845
O O18 0.686784 0.500000 0.622625
#
# Coordination Sequence:
#
# PCOD9190437 Si02
#       7
#     8   8   8   8   8   8   8
#     4   9  18  32  49  69  93 119 150 192 237 276
#     4   8  14  25  45  73  99 120 151 190 227 276
#     4   9  17  28  45  68  96 126 153 188 231 275
#     4   8  14  26  46  72  96 120 151 191 235 272
#     4   9  17  28  41  61  90 124 157 187 223 268
#     4  10  20  31  47  70  91 119 157 192 230 279
#     4   9  18  30  42  62  93 125 153 186 228 269
#
# _framework density 21.373411000000001
#
# number of rings (size 3 to 8) (size 9 to 14) (size 15 to 20)
#    0.000    3.143    0.000    2.571    2.000    3.429 
#    0.000    0.000    0.000    1.714    0.000    8.000 
#    0.000    0.000    0.000    0.000    0.000    0.000 
#
# Total GULP energy -156073.689681 kJ/mol
# GULP energy per Si atom -5574.060346 kJ/mol
# Density = 2.132476 g / cm^3
# Si number density = 21.373411 Si / 1000 Ang^3
#
#
#
# Elastic Constant Matrix: (Units=GPa)
#
#
# Indices 1 2 3 4 5 6 
#
# 1 34.7570 1.2542 -8.1635 0.0000 3.9599 0.0000
# 2 1.2542 67.3852 3.8787 0.0000 3.1548 0.0000
# 3 -8.1635 3.8787 81.6820 0.0000 5.2179 0.0000
# 4 0.0000 0.0000 0.0000 5.5338 0.0000 -7.3636
# 5 3.9599 3.1548 5.2179 0.0000 29.4845 0.0000
# 6 0.0000 0.0000 0.0000 -7.3636 0.0000 6.6249
#
#
#
# Elastic Compliance Matrix: (Units=1/GPa)
#
#
# Indices 1 2 3 4 5 6 
#
# 1 0.030093 -0.000537 0.003325 0.000000 -0.004573 0.000000
# 2 -0.000537 0.014955 -0.000674 0.000000 -0.001409 0.000000
# 3 0.003325 -0.000674 0.012775 0.000000 -0.002635 0.000000
# 4 0.000000 0.000000 0.000000 -0.377235 0.000000 -0.419299
# 5 -0.004573 -0.001409 -0.002635 0.000000 0.035147 0.000000
# 6 0.000000 0.000000 0.000000 -0.419299 0.000000 -0.315108
#
#
# Mechanical properties :
#
#
# Convention : Reuss Voigt Hill
#
# Bulk Modulus (GPa) = 16.11594 19.75143 17.93369
# Shear Modulus (GPa) = -8.57754 20.78564 6.10405
#
# Velocity S-wave (km/s) = -2.00547 3.12188 1.69178
# Velocity P-wave (km/s) = 1.48122 4.71763 3.49643
#
# Compressibility (1/GPa) = 0.06205038
#
# Stress axis : x y z
#
# Youngs Moduli (GPa) = 33.23081 66.86823 78.27621
#
# Poissons Ratio (x) = 0.03594 -0.26028
# Poissons Ratio (y) = 0.01786 0.05275
# Poissons Ratio (z) = -0.11050 0.04506
#
# Static dielectric constant tensor:
#      x y z
#    x 1.772860 0.000000 0.006990 
#    y 0.000000 1.803880 0.000000 
#    z 0.006990 0.000000 1.831400 
# 
# From -- ./inp_files/248583.got.cif
#   From: 2010.05.17/outbox.cif.g08.bks.cpg/sg12_125_cif.got.tgz:248583.got - 2010.06.03 13:09:07.
