data_PCOD9190283
_publ_section_title
;
Structure prediction by ZEFSAII (Michael W. Deem and Ramdas Pophale) SiO2 
 PCOD9190283
Probable space group: C 2/M
;
_chemical_formula_sum "Si O2"
_cell_formula_units_Z 52
_cell_length_a 23.430811
_cell_length_b 8.470072
_cell_length_c 15.272353
_cell_angle_alpha 90.000000
_cell_angle_beta 140.551116
_cell_angle_gamma 90.000000
_cell_volume 1925.841127
_symmetry_space_group_name_H-M "C 2/M"
_symmetry_group_IT_number 12
_symmetry_cell_setting 'monoclinic'
loop_
_space_group_symop_operation_xyz
x,y,z
-x,y,-z
-x,-y,-z
x,-y,z
1/2+x,1/2+y,z
1/2-x,1/2+y,-z
1/2-x,1/2-y,-z
1/2+x,1/2-y,z
loop_
_atom_site_type_symbol
_atom_site_label
_atom_site_fract_x
_atom_site_fract_y
_atom_site_fract_z
Si Si1 0.453246 0.180251 0.254150
Si Si2 0.423556 0.500000 0.482742
Si Si3 0.599921 0.500000 0.157560
Si Si4 0.104335 0.665209 0.154559
Si Si5 0.204731 0.690570 0.036242
Si Si6 0.639887 0.186265 0.675186
Si Si7 0.350023 0.833774 0.586636
Si Si8 0.135201 0.000000 0.403407
O O1 0.423913 0.233630 0.316098
O O2 0.557161 0.175057 0.357554
O O3 0.420143 0.000000 0.218839
O O4 0.398458 0.239589 0.104233
O O5 0.500000 0.500000 0.500000
O O6 0.373184 0.333481 0.405577
O O7 0.438846 0.500000 0.606292
O O8 0.643491 0.336086 0.180234
O O9 0.595068 0.500000 0.258391
O O10 0.500000 0.500000 0.000000
O O11 0.143651 0.500000 0.165689
O O12 0.114537 0.658183 0.271590
O O13 0.000000 0.665836 0.000000
O O14 0.217182 0.500000 0.063665
O O15 0.259883 0.789688 0.171160
O O16 0.250000 0.750000 0.000000
O O17 0.622136 0.000000 0.630211
O O18 0.307848 0.661521 0.520003
O O19 0.306469 0.000000 0.507621
#
# Coordination Sequence:
#
# PCOD9190283 Si02
#       8
#     8   4   4   8   8   8   8   4
#     4   8  15  26  44  64  82 110 144 184 228 268
#     4  12  24  34  46  62  86 124 160 192 215 248
#     4   8  14  26  42  58  80 106 136 178 216 252
#     4   8  13  21  36  56  78 110 141 155 196 254
#     4   9  15  27  45  65  83 105 144 188 234 277
#     4  10  20  34  46  60  83 112 154 194 227 259
#     4   9  16  28  41  58  88 113 141 178 215 253
#     4  10  20  30  42  64  84 118 158 174 212 262
#
# _framework density 27.001187999999999
#
# number of rings (size 3 to 8) (size 9 to 14) (size 15 to 20)
#    0.000    2.923    0.769    2.308    0.000    0.923 
#    2.769    0.000    0.000    0.000    0.000    0.000 
#    0.000    0.000    0.000   22.154   36.000    2.000 
#
# Total GULP energy -145075.493829 kJ/mol
# GULP energy per Si atom -5579.826686 kJ/mol
# Density = 2.693973 g / cm^3
# Si number density = 27.001188 Si / 1000 Ang^3
#
#
#
# Elastic Constant Matrix: (Units=GPa)
#
#
# Indices 1 2 3 4 5 6 
#
# 1 104.0270 40.4096 45.4437 0.0000 -28.9823 0.0000
# 2 40.4096 273.9517 31.3746 0.0000 6.3861 0.0000
# 3 45.4437 31.3746 126.1977 0.0000 -13.6246 0.0000
# 4 0.0000 0.0000 0.0000 36.6277 0.0000 3.0280
# 5 -28.9823 6.3861 -13.6246 0.0000 20.5990 0.0000
# 6 0.0000 0.0000 0.0000 3.0280 0.0000 16.8905
#
#
#
# Elastic Compliance Matrix: (Units=1/GPa)
#
#
# Indices 1 2 3 4 5 6 
#
# 1 0.019688 -0.003122 -0.003466 0.000000 0.026377 0.000000
# 2 -0.003122 0.004324 -0.000614 0.000000 -0.006139 0.000000
# 3 -0.003466 -0.000614 0.009497 0.000000 0.001595 0.000000
# 4 0.000000 0.000000 0.000000 0.027712 0.000000 -0.004968
# 5 0.026377 -0.006139 0.001595 0.000000 0.088616 0.000000
# 6 0.000000 0.000000 0.000000 -0.004968 0.000000 0.060096
#
#
# Mechanical properties :
#
#
# Convention : Reuss Voigt Hill
#
# Bulk Modulus (GPa) = 52.33878 82.07025 67.20451
# Shear Modulus (GPa) = 21.67270 40.61999 31.14634
#
# Velocity S-wave (km/s) = 2.83619 3.88284 3.40003
# Velocity P-wave (km/s) = 5.49102 7.11076 6.35273
#
# Compressibility (1/GPa) = 0.01910629
#
# Stress axis : x y z
#
# Youngs Moduli (GPa) = 50.79149 231.25734 105.29738
#
# Poissons Ratio (x) = 0.72200 0.36495
# Poissons Ratio (y) = 0.15858 0.06461
# Poissons Ratio (z) = 0.17604 0.14190
#
# Static dielectric constant tensor:
#      x y z
#    x 2.084110 0.000000 0.028940 
#    y 0.000000 2.195660 0.000000 
#    z 0.028940 0.000000 2.152640 
# 
# From -- ./inp_files/250220.got.cif
#   From: 2010.05.17/outbox.cif.g08.bks.cpg/sg12_126_cif.got.tgz:250220.got - 2010.06.03 13:09:07.
