data_PCOD9190564
_publ_section_title
;
Structure prediction by ZEFSAII (Michael W. Deem and Ramdas Pophale) SiO2 
 PCOD9190564
Probable space group: C 2/M
;
_chemical_formula_sum "Si O2"
_cell_formula_units_Z 28
_cell_length_a 8.648958
_cell_length_b 28.717578
_cell_length_c 5.454842
_cell_angle_alpha 90.000000
_cell_angle_beta 86.086951
_cell_angle_gamma 90.000000
_cell_volume 1351.699483
_symmetry_space_group_name_H-M "C 2/M"
_symmetry_group_IT_number 12
_symmetry_cell_setting 'monoclinic'
loop_
_space_group_symop_operation_xyz
x,y,z
-x,y,-z
-x,-y,-z
x,-y,z
1/2+x,1/2+y,z
1/2-x,1/2+y,-z
1/2-x,1/2-y,-z
1/2+x,1/2-y,z
loop_
_atom_site_type_symbol
_atom_site_label
_atom_site_fract_x
_atom_site_fract_y
_atom_site_fract_z
Si Si1 0.310864 0.553892 0.019318
Si Si2 0.000000 0.749130 0.000000
Si Si3 0.228449 0.207563 0.319255
Si Si4 0.311914 0.395187 0.518172
O O1 0.263265 0.500000 0.037796
O O2 0.260605 0.581747 0.268099
O O3 0.500000 0.554664 0.000000
O O4 0.261187 0.577013 0.768033
O O5 0.862999 0.715985 0.106267
O O6 0.066329 0.783254 0.200903
O O7 0.250000 0.250000 0.500000
O O8 0.238592 0.158099 0.446025
O O9 0.500000 0.395930 0.500000
#
# Coordination Sequence:
#
# PCOD9190564 Si02
#       4
#     8   4   8   8
#     4   9  18  32  50  80 115 149 192 243 297 351
#     4  10  24  38  60  80 124 156 200 244 296 340
#     4  11  23  39  58  87 120 159 199 245 291 359
#     4  10  20  31  56  81 115 156 191 240 298 351
#
# _framework density 20.714662000000001
#
# number of rings (size 3 to 8) (size 9 to 14) (size 15 to 20)
#    0.000    2.000    0.000    3.429   14.000    3.429 
#    0.000    0.000    0.000    0.000    0.000    6.000 
#    0.000    0.000    0.000    0.000    0.000    0.000 
#
# Total GULP energy -78220.848769 kJ/mol
# GULP energy per Si atom -5587.203484 kJ/mol
# Density = 2.066751 g / cm^3
# Si number density = 20.714662 Si / 1000 Ang^3
#
#
#
# Elastic Constant Matrix: (Units=GPa)
#
#
# Indices 1 2 3 4 5 6 
#
# 1 23.8950 10.3432 13.7652 0.0000 4.5575 0.0000
# 2 10.3432 211.5483 113.1427 0.0000 6.9491 0.0000
# 3 13.7652 113.1427 171.2896 0.0000 14.2047 0.0000
# 4 0.0000 0.0000 0.0000 45.8525 0.0000 -1.4187
# 5 4.5575 6.9491 14.2047 0.0000 19.9156 0.0000
# 6 0.0000 0.0000 0.0000 -1.4187 0.0000 14.2657
#
#
#
# Elastic Compliance Matrix: (Units=1/GPa)
#
#
# Indices 1 2 3 4 5 6 
#
# 1 0.045157 -0.000561 -0.002570 0.000000 -0.008305 0.000000
# 2 -0.000561 0.007333 -0.004886 0.000000 0.001055 0.000000
# 3 -0.002570 -0.004886 0.009653 0.000000 -0.004592 0.000000
# 4 0.000000 0.000000 0.000000 0.021876 0.000000 0.002176
# 5 -0.008305 0.001055 -0.004592 0.000000 0.055020 0.000000
# 6 0.000000 0.000000 0.000000 0.002176 0.000000 0.070315
#
#
# Mechanical properties :
#
#
# Convention : Reuss Voigt Hill
#
# Bulk Modulus (GPa) = 21.68746 75.69278 48.69012
# Shear Modulus (GPa) = 20.76785 33.97220 27.37003
#
# Velocity S-wave (km/s) = 3.16977 4.05409 3.63890
# Velocity P-wave (km/s) = 4.88763 7.65077 6.41963
#
# Compressibility (1/GPa) = 0.04610959
#
# Stress axis : x y z
#
# Youngs Moduli (GPa) = 22.14501 136.36806 103.59615
#
# Poissons Ratio (x) = 0.07644 0.26623
# Poissons Ratio (y) = 0.01241 0.50619
# Poissons Ratio (z) = 0.05691 0.66632
#
# Static dielectric constant tensor:
#      x y z
#    x 1.772110 0.000000 -0.006600 
#    y 0.000000 1.699230 0.000000 
#    z -0.006600 0.000000 1.788180 
# 
# From -- ./inp_files/3072.got.cif
#   From: 2010.05.17/outbox.cif.g08.bks.cpg/sg12_2_cif.got.tgz:3072.got - 2010.06.03 13:09:07.
