data_PCOD9190669
_publ_section_title
;
Structure prediction by ZEFSAII (Michael W. Deem and Ramdas Pophale) SiO2 
 PCOD9190669
Probable space group: C 2/M
;
_chemical_formula_sum "Si O2"
_cell_formula_units_Z 48
_cell_length_a 21.112348
_cell_length_b 7.501121
_cell_length_c 21.145022
_cell_angle_alpha 90.000000
_cell_angle_beta 48.451899
_cell_angle_gamma 90.000000
_cell_volume 2506.133187
_symmetry_space_group_name_H-M "C 2/M"
_symmetry_group_IT_number 12
_symmetry_cell_setting 'monoclinic'
loop_
_space_group_symop_operation_xyz
x,y,z
-x,y,-z
-x,-y,-z
x,-y,z
1/2+x,1/2+y,z
1/2-x,1/2+y,-z
1/2-x,1/2-y,-z
1/2+x,1/2-y,z
loop_
_atom_site_type_symbol
_atom_site_label
_atom_site_fract_x
_atom_site_fract_y
_atom_site_fract_z
Si Si1 0.901931 0.217733 0.557830
Si Si2 0.283094 0.797433 0.082971
Si Si3 0.129594 0.711169 0.093146
Si Si4 0.662575 0.281531 0.265504
Si Si5 0.492707 0.285619 0.721836
Si Si6 0.155136 0.786505 0.541811
O O1 0.849776 0.274230 0.654192
O O2 0.865263 0.279547 0.515299
O O3 0.000000 0.270713 0.500000
O O4 0.901342 0.000000 0.558243
O O5 0.199760 0.797889 0.092645
O O6 0.245376 0.717546 0.172381
O O7 0.308659 0.000000 0.080795
O O8 0.354280 0.720622 0.988780
O O9 0.148015 0.500000 0.080202
O O10 0.040407 0.735216 0.186788
O O11 0.664292 0.500000 0.262834
O O12 0.579246 0.226865 0.280826
O O13 0.493057 0.500000 0.719897
O O14 0.583562 0.220277 0.638041
O O15 0.250000 0.750000 0.500000
O O16 0.145270 0.000000 0.545870
#
# Coordination Sequence:
#
# PCOD9190669 Si02
#       6
#     8   8   8   8   8   8
#     4   9  14  24  45  70  87 108 149 189 216 253
#     4   8  14  23  35  56  86 115 139 171 217 261
#     4   9  15  22  35  57  85 114 142 173 213 260
#     4   8  12  21  40  63  85 107 139 181 215 249
#     4   9  16  27  42  60  83 114 147 178 216 257
#     4  10  20  32  47  67  91 118 148 184 223 265
#
# _framework density 19.153012
#
# number of rings (size 3 to 8) (size 9 to 14) (size 15 to 20)
#    0.000    3.167    1.667    1.500    0.000    1.333 
#    0.000    0.000    0.000    4.500    0.000    1.167 
#    0.000    9.333    0.000    0.000    0.000    0.000 
#
# Total GULP energy -133626.519549 kJ/mol
# GULP energy per Si atom -5567.771648 kJ/mol
# Density = 1.910942 g / cm^3
# Si number density = 19.153012 Si / 1000 Ang^3
#
#
#
# Elastic Constant Matrix: (Units=GPa)
#
#
# Indices 1 2 3 4 5 6 
#
# 1 69.5357 0.0562 68.8879 -0.0003 1.2537 0.0007
# 2 0.0562 56.3139 4.9771 -0.0005 0.6688 0.0011
# 3 68.8879 4.9771 255.1466 -0.0002 11.2937 0.0004
# 4 -0.0003 -0.0005 -0.0002 14.7249 0.0002 -3.4607
# 5 1.2537 0.6688 11.2937 0.0002 16.1024 -0.0005
# 6 0.0007 0.0011 0.0004 -3.4607 -0.0005 7.3684
#
#
#
# Elastic Compliance Matrix: (Units=1/GPa)
#
#
# Indices 1 2 3 4 5 6 
#
# 1 0.019723 0.000434 -0.005433 0.000000 0.002257 -0.000002
# 2 0.000434 0.017802 -0.000444 0.000000 -0.000462 -0.000003
# 3 -0.005433 -0.000444 0.005548 0.000000 -0.003449 0.000000
# 4 0.000000 0.000000 0.000000 0.076339 0.000000 0.035855
# 5 0.002257 -0.000462 -0.003449 0.000000 0.064365 0.000005
# 6 -0.000002 -0.000003 0.000000 0.035855 0.000005 0.152555
#
#
# Mechanical properties :
#
#
# Convention : Reuss Voigt Hill
#
# Bulk Modulus (GPa) = 31.07021 58.75984 44.91502
# Shear Modulus (GPa) = 13.96853 28.11081 21.03967
#
# Velocity S-wave (km/s) = 2.70351 3.83521 3.31796
# Velocity P-wave (km/s) = 5.09927 7.09630 6.17900
#
# Compressibility (1/GPa) = 0.03218517
#
# Stress axis : x y z
#
# Youngs Moduli (GPa) = 50.70263 56.17378 180.25675
#
# Poissons Ratio (x) = -0.02436 0.97941
# Poissons Ratio (y) = -0.02199 0.08002
# Poissons Ratio (z) = 0.27549 0.02494
#
# Static dielectric constant tensor:
#      x y z
#    x 1.599880 0.000000 0.012360 
#    y 0.000000 1.756260 0.000000 
#    z 0.012360 0.000000 1.759110 
# 
# From -- ./inp_files/318980.got.cif
#   From: 2010.05.17/outbox.cif.g08.bks.cpg/sg12_160_cif.got.tgz:318980.got - 2010.06.03 13:09:07.
