data_PCOD9190114
_publ_section_title
;
Structure prediction by ZEFSAII (Michael W. Deem and Ramdas Pophale) SiO2 
 PCOD9190114
Probable space group: C 2/M
;
_chemical_formula_sum "Si O2"
_cell_formula_units_Z 42
_cell_length_a 12.892715
_cell_length_b 18.959387
_cell_length_c 7.892285
_cell_angle_alpha 90.000000
_cell_angle_beta 62.927801
_cell_angle_gamma 90.000000
_cell_volume 1717.801750
_symmetry_space_group_name_H-M "C 2/M"
_symmetry_group_IT_number 12
_symmetry_cell_setting 'monoclinic'
loop_
_space_group_symop_operation_xyz
x,y,z
-x,y,-z
-x,-y,-z
x,-y,z
1/2+x,1/2+y,z
1/2-x,1/2+y,-z
1/2-x,1/2-y,-z
1/2+x,1/2-y,z
loop_
_atom_site_type_symbol
_atom_site_label
_atom_site_fract_x
_atom_site_fract_y
_atom_site_fract_z
Si Si1 0.000000 0.000000 0.000000
Si Si2 0.854510 0.421927 0.470337
Si Si3 0.718713 0.421634 0.215202
Si Si4 0.567483 0.855392 0.130873
Si Si5 0.433113 0.301590 0.795394
Si Si6 0.646005 0.639205 0.789207
O O1 0.084809 0.062802 0.856308
O O2 0.858735 0.500000 0.541331
O O3 0.778777 0.425144 0.352697
O O4 0.779165 0.370746 0.642257
O O5 0.980400 0.397648 0.315959
O O6 0.670171 0.500000 0.205603
O O7 0.624963 0.359497 0.281487
O O8 0.819899 0.400013 0.007761
O O9 0.590082 0.780567 0.202507
O O10 0.500000 0.841465 0.000000
O O11 0.570268 0.317048 0.710036
O O12 0.376307 0.321318 0.018948
#
# Coordination Sequence:
#
# PCOD9190114 Si02
#       6
#     2   8   8   8   8   8
#     4   8  16  32  56  82 116 144 192 230 278 344
#     4  10  21  37  62  90 116 148 196 245 290 344
#     4  10  22  36  60  88 117 156 189 245 296 343
#     4  10  19  40  59  83 119 158 198 231 292 358
#     4  10  21  37  59  85 116 158 194 235 293 347
#     4  10  20  35  61  88 110 155 198 238 287 340
#
# _framework density 24.449852
#
# number of rings (size 3 to 8) (size 9 to 14) (size 15 to 20)
#    0.000    2.286    2.857    1.143    5.333    3.810 
#    0.000    2.857    4.190    2.286    0.000    0.000 
#    0.000    0.000    0.000    0.000    0.000    0.000 
#
# Total GULP energy -117316.412415 kJ/mol
# GULP energy per Si atom -5586.495829 kJ/mol
# Density = 2.439420 g / cm^3
# Si number density = 24.449852 Si / 1000 Ang^3
#
#
#
# Elastic Constant Matrix: (Units=GPa)
#
#
# Indices 1 2 3 4 5 6 
#
# 1 70.5659 27.1847 20.7721 0.0000 -3.3147 0.0000
# 2 27.1847 126.1680 18.5613 0.0000 6.2579 0.0000
# 3 20.7721 18.5613 88.5208 0.0000 -14.9401 0.0000
# 4 0.0000 0.0000 0.0000 10.1999 0.0000 1.7116
# 5 -3.3147 6.2579 -14.9401 0.0000 27.7509 0.0000
# 6 0.0000 0.0000 0.0000 1.7116 0.0000 28.0814
#
#
#
# Elastic Compliance Matrix: (Units=1/GPa)
#
#
# Indices 1 2 3 4 5 6 
#
# 1 0.016305 -0.003124 -0.002996 0.000000 0.001039 0.000000
# 2 -0.003124 0.009017 -0.001720 0.000000 -0.003333 0.000000
# 3 -0.002996 -0.001720 0.013601 0.000000 0.007353 0.000000
# 4 0.000000 0.000000 0.000000 0.099054 0.000000 -0.006037
# 5 0.001039 -0.003333 0.007353 0.000000 0.040869 0.000000
# 6 0.000000 0.000000 0.000000 -0.006037 0.000000 0.035979
#
#
# Mechanical properties :
#
#
# Convention : Reuss Voigt Hill
#
# Bulk Modulus (GPa) = 43.02149 46.47679 44.74914
# Shear Modulus (GPa) = 20.98609 27.78889 24.38749
#
# Velocity S-wave (km/s) = 2.93291 3.37496 3.16167
# Velocity P-wave (km/s) = 5.39475 5.85127 5.62764
#
# Compressibility (1/GPa) = 0.02324420
#
# Stress axis : x y z
#
# Youngs Moduli (GPa) = 61.32979 110.89638 73.52204
#
# Poissons Ratio (x) = 0.34644 0.22025
# Poissons Ratio (y) = 0.19160 0.12647
# Poissons Ratio (z) = 0.18373 0.19076
#
# Static dielectric constant tensor:
#      x y z
#    x 2.113320 0.000000 0.140800 
#    y 0.000000 1.896140 0.000000 
#    z 0.140800 0.000000 1.987620 
# 
# From -- ./inp_files/61643.got.cif
#   From: 2010.05.17/outbox.cif.g08.bks.cpg/sg12_31_cif.got.tgz:61643.got - 2010.06.03 13:09:07.
