data_PCOD9190777
_publ_section_title
;
Structure prediction by ZEFSAII (Michael W. Deem and Ramdas Pophale) SiO2 
 PCOD9190777
Probable space group: C 2/M
;
_chemical_formula_sum "Si O2"
_cell_formula_units_Z 56
_cell_length_a 23.668175
_cell_length_b 9.081234
_cell_length_c 19.130719
_cell_angle_alpha 90.000000
_cell_angle_beta 127.223675
_cell_angle_gamma 90.000000
_cell_volume 3274.211674
_symmetry_space_group_name_H-M "C 2/M"
_symmetry_group_IT_number 12
_symmetry_cell_setting 'monoclinic'
loop_
_space_group_symop_operation_xyz
x,y,z
-x,y,-z
-x,-y,-z
x,-y,z
1/2+x,1/2+y,z
1/2-x,1/2+y,-z
1/2-x,1/2-y,-z
1/2+x,1/2-y,z
loop_
_atom_site_type_symbol
_atom_site_label
_atom_site_fract_x
_atom_site_fract_y
_atom_site_fract_z
Si Si1 0.928125 0.824672 0.244467
Si Si2 0.629879 0.322406 0.026850
Si Si3 0.284116 0.168882 0.125721
Si Si4 0.009496 0.824246 0.168781
Si Si5 0.720661 0.168760 0.707579
Si Si6 0.136290 0.325108 0.183462
Si Si7 0.436297 0.177641 0.400864
O O1 0.852052 0.766570 0.159690
O O2 0.943100 0.750662 0.330103
O O3 0.987747 0.789785 0.231826
O O4 0.923671 0.000000 0.248763
O O5 0.634463 0.500000 0.040522
O O6 0.704912 0.278372 0.047200
O O7 0.623836 0.245428 0.097402
O O8 0.560538 0.291421 0.929739
O O9 0.281406 0.167868 0.208967
O O10 0.294579 0.000000 0.110250
O O11 0.075908 0.736570 0.189034
O O12 0.022723 0.000000 0.172665
O O13 0.785835 0.270180 0.734992
O O14 0.641591 0.216849 0.627315
O O15 0.733331 0.000000 0.694767
O O16 0.133923 0.500000 0.176977
O O17 0.500000 0.218140 0.500000
O O18 0.435967 0.000000 0.391841
#
# Coordination Sequence:
#
# PCOD9190777 Si02
#       7
#     8   8   8   8   8   8   8
#     4  10  20  32  48  73 101 128 159 196 241 289
#     4   9  18  33  50  66  90 130 173 206 240 284
#     4   8  15  29  48  68  93 127 163 198 239 286
#     4  10  21  35  48  64  94 136 172 200 238 288
#     4   8  15  30  51  72  96 127 157 187 232 288
#     4  11  21  31  47  72  98 125 165 212 245 272
#     4   9  18  34  57  81 101 123 152 187 233 292
#
# _framework density 17.103354
#
# number of rings (size 3 to 8) (size 9 to 14) (size 15 to 20)
#    0.000    2.714    0.000    3.857    0.000    9.429 
#    0.000    0.000    0.000    0.857    0.000    0.000 
#    0.000    0.000    0.000    0.000    0.000    0.000 
#
# Total GULP energy -156140.682967 kJ/mol
# GULP energy per Si atom -5576.452963 kJ/mol
# Density = 1.706443 g / cm^3
# Si number density = 17.103354 Si / 1000 Ang^3
#
#
#
# Elastic Constant Matrix: (Units=GPa)
#
#
# Indices 1 2 3 4 5 6 
#
# 1 100.4097 48.8450 59.0140 0.0000 8.9752 0.0000
# 2 48.8450 45.8563 40.5122 0.0000 4.0758 0.0000
# 3 59.0140 40.5122 100.9733 0.0000 21.1185 0.0000
# 4 0.0000 0.0000 0.0000 10.5272 0.0000 5.9146
# 5 8.9752 4.0758 21.1185 0.0000 17.2539 0.0000
# 6 0.0000 0.0000 0.0000 5.9146 0.0000 24.4533
#
#
#
# Elastic Compliance Matrix: (Units=1/GPa)
#
#
# Indices 1 2 3 4 5 6 
#
# 1 0.022467 -0.019203 -0.005283 0.000000 -0.000684 0.000000
# 2 -0.019203 0.052006 -0.012315 0.000000 0.012777 0.000000
# 3 -0.005283 -0.012315 0.022512 0.000000 -0.021897 0.000000
# 4 0.000000 0.000000 0.000000 0.109931 0.000000 -0.026590
# 5 -0.000684 0.012777 -0.021897 0.000000 0.082098 0.000000
# 6 0.000000 0.000000 0.000000 -0.026590 0.000000 0.047326
#
#
# Mechanical properties :
#
#
# Convention : Reuss Voigt Hill
#
# Bulk Modulus (GPa) = 42.76614 60.44240 51.60427
# Shear Modulus (GPa) = 11.96931 17.03808 14.50369
#
# Velocity S-wave (km/s) = 2.64829 3.15966 2.91521
# Velocity P-wave (km/s) = 5.86601 6.98051 6.44738
#
# Compressibility (1/GPa) = 0.02338298
#
# Stress axis : x y z
#
# Youngs Moduli (GPa) = 44.51013 19.22864 44.42067
#
# Poissons Ratio (x) = 0.36925 0.23468
# Poissons Ratio (y) = 0.85472 0.54703
# Poissons Ratio (z) = 0.23515 0.23680
#
# Static dielectric constant tensor:
#      x y z
#    x 1.581850 0.000000 0.019030 
#    y 0.000000 1.567880 0.000000 
#    z 0.019030 0.000000 1.589480 
# 
# From -- ./inp_files/320196.got.cif
#   From: 2010.05.17/outbox.cif.g08.bks.cpg/sg12_161_cif.got.tgz:320196.got - 2010.06.03 13:09:07.
