data_PCOD9190020
_publ_section_title
;
Structure prediction by ZEFSAII (Michael W. Deem and Ramdas Pophale) SiO2 
 PCOD9190020
Probable space group: C 2/M
;
_chemical_formula_sum "Si O2"
_cell_formula_units_Z 44
_cell_length_a 14.155633
_cell_length_b 24.190186
_cell_length_c 11.875126
_cell_angle_alpha 90.000000
_cell_angle_beta 150.188098
_cell_angle_gamma 90.000000
_cell_volume 2021.612203
_symmetry_space_group_name_H-M "C 2/M"
_symmetry_group_IT_number 12
_symmetry_cell_setting 'monoclinic'
loop_
_space_group_symop_operation_xyz
x,y,z
-x,y,-z
-x,-y,-z
x,-y,z
1/2+x,1/2+y,z
1/2-x,1/2+y,-z
1/2-x,1/2-y,-z
1/2+x,1/2-y,z
loop_
_atom_site_type_symbol
_atom_site_label
_atom_site_fract_x
_atom_site_fract_y
_atom_site_fract_z
Si Si1 0.724300 0.000000 0.722399
Si Si2 0.618087 0.500000 0.864333
Si Si3 0.000000 0.400789 0.000000
Si Si4 0.500000 0.323041 0.000000
Si Si5 0.879665 0.909645 0.713079
Si Si6 0.594691 0.167350 0.302641
Si Si7 0.771540 0.000000 0.257092
Si Si8 0.860947 0.252609 0.456311
O O1 0.500000 0.000000 0.500000
O O2 0.807022 0.051460 0.738797
O O3 0.793247 0.000000 0.920828
O O4 0.485893 0.445975 0.730134
O O5 0.764835 0.500000 0.915451
O O6 0.032530 0.360588 0.925902
O O7 0.826796 0.443963 0.800191
O O8 0.515156 0.362944 0.907011
O O9 0.313993 0.287410 0.779281
O O10 0.693050 0.881935 0.471055
O O11 0.762456 0.200369 0.412149
O O12 0.534594 0.211016 0.337767
O O13 0.000000 0.000000 0.500000
O O14 0.000000 0.237681 0.500000
#
# Coordination Sequence:
#
# PCOD9190020 Si02
#       8
#     4   4   4   4   8   8   4   8
#     4  11  23  35  62  97 131 158 208 265 311 384
#     4  11  21  38  60  95 121 166 213 249 317 374
#     4  11  25  46  65  90 135 174 217 255 322 378
#     4  10  19  39  63  90 129 165 205 264 322 380
#     4  10  20  39  61  89 133 164 201 261 323 368
#     4  10  23  42  66  93 127 171 211 269 316 384
#     4  11  26  43  64  95 130 174 220 261 303 387
#     4  10  23  43  67  96 128 162 219 271 326 376
#
# _framework density 21.764807000000001
#
# number of rings (size 3 to 8) (size 9 to 14) (size 15 to 20)
#    0.000    1.636    1.818    2.182    2.545    8.000 
#    0.000   12.727    0.000    0.000    0.000    0.000 
#    0.000    0.000    0.000    0.000    0.000    0.000 
#
# Total GULP energy -122811.221896 kJ/mol
# GULP energy per Si atom -5582.328268 kJ/mol
# Density = 2.171527 g / cm^3
# Si number density = 21.764807 Si / 1000 Ang^3
#
#
#
# Elastic Constant Matrix: (Units=GPa)
#
#
# Indices 1 2 3 4 5 6 
#
# 1 91.9625 4.3409 -4.3985 0.0000 -9.6426 0.0000
# 2 4.3409 52.8861 7.9976 0.0000 -5.6154 0.0000
# 3 -4.3985 7.9976 70.9653 -0.0001 -12.3051 0.0000
# 4 0.0000 0.0000 -0.0001 11.7502 0.0000 5.9983
# 5 -9.6426 -5.6154 -12.3051 0.0000 36.5367 0.0000
# 6 0.0000 0.0000 0.0000 5.9983 0.0000 6.7024
#
#
#
# Elastic Compliance Matrix: (Units=1/GPa)
#
#
# Indices 1 2 3 4 5 6 
#
# 1 0.011325 -0.000783 0.001367 0.000000 0.003329 0.000000
# 2 -0.000783 0.019485 -0.001870 0.000000 0.002158 0.000000
# 3 0.001367 -0.001870 0.015293 0.000000 0.005224 0.000000
# 4 0.000000 0.000000 0.000000 0.156692 0.000000 -0.140232
# 5 0.003329 0.002158 0.005224 0.000000 0.030339 0.000000
# 6 0.000000 0.000000 0.000000 -0.140232 0.000000 0.274702
#
#
# Mechanical properties :
#
#
# Convention : Reuss Voigt Hill
#
# Bulk Modulus (GPa) = 22.97177 25.74376 24.35777
# Shear Modulus (GPa) = 9.52529 24.85612 17.19071
#
# Velocity S-wave (km/s) = 2.09427 3.38306 2.81346
# Velocity P-wave (km/s) = 4.05283 5.20711 4.66580
#
# Compressibility (1/GPa) = 0.04353169
#
# Stress axis : x y z
#
# Youngs Moduli (GPa) = 88.29687 51.32205 65.39058
#
# Poissons Ratio (x) = 0.04018 -0.08942
# Poissons Ratio (y) = 0.06913 0.12229
# Poissons Ratio (z) = -0.12074 0.09598
#
# Static dielectric constant tensor:
#      x y z
#    x 1.777240 0.000000 -0.035300 
#    y 0.000000 1.821540 0.000000 
#    z -0.035300 0.000000 1.841990 
# 
# From -- ./inp_files/149589.got.cif
#   From: 2010.05.17/outbox.cif.g08.bks.cpg/sg12_75_cif.got.tgz:149589.got - 2010.06.03 13:09:07.
