data_PCOD9190798
_publ_section_title
;
Structure prediction by ZEFSAII (Michael W. Deem and Ramdas Pophale) SiO2 
 PCOD9190798
Probable space group: C 2/M
;
_chemical_formula_sum "Si O2"
_cell_formula_units_Z 64
_cell_length_a 31.292689
_cell_length_b 9.090168
_cell_length_c 26.244614
_cell_angle_alpha 90.000000
_cell_angle_beta 150.089038
_cell_angle_gamma 90.000000
_cell_volume 3722.664789
_symmetry_space_group_name_H-M "C 2/M"
_symmetry_group_IT_number 12
_symmetry_cell_setting 'monoclinic'
loop_
_space_group_symop_operation_xyz
x,y,z
-x,y,-z
-x,-y,-z
x,-y,z
1/2+x,1/2+y,z
1/2-x,1/2+y,-z
1/2-x,1/2-y,-z
1/2+x,1/2-y,z
loop_
_atom_site_type_symbol
_atom_site_label
_atom_site_fract_x
_atom_site_fract_y
_atom_site_fract_z
Si Si1 0.186982 0.324482 0.721595
Si Si2 0.466331 0.325836 0.377470
Si Si3 0.614773 0.174920 0.800717
Si Si4 0.382945 0.672742 0.653084
Si Si5 0.831958 0.825436 0.401979
Si Si6 0.705750 0.172876 0.531259
Si Si7 0.442913 0.174702 0.143775
Si Si8 0.792786 0.825348 0.931248
O O1 0.179225 0.500000 0.708331
O O2 0.098386 0.258829 0.652163
O O3 0.205909 0.249632 0.687432
O O4 0.257603 0.294129 0.838238
O O5 0.448966 0.500000 0.362479
O O6 0.445584 0.265809 0.299617
O O7 0.565231 0.301156 0.492822
O O8 0.595248 0.205077 0.839173
O O9 0.712428 0.209043 0.885472
O O10 0.601980 0.000000 0.777920
O O11 0.396987 0.500000 0.658069
O O12 0.360062 0.753866 0.576604
O O13 0.299534 0.688166 0.602755
O O14 0.465926 0.745271 0.763792
O O15 0.798568 0.752722 0.419237
O O16 0.816745 0.000000 0.386363
O O17 0.686307 0.000000 0.516547
O O18 0.453495 0.000000 0.149611
O O19 0.375413 0.236121 0.033520
O O20 0.809654 0.000000 0.952661
#
# Coordination Sequence:
#
# PCOD9190798 Si02
#       8
#     8   8   8   8   8   8   8   8
#     4  10  21  36  53  73 101 139 178 216 257 301
#     4  10  20  32  48  74 106 138 172 210 254 304
#     4   9  19  33  48  72 105 139 174 210 252 304
#     4  10  21  37  56  79 108 138 167 206 257 307
#     4  11  22  34  52  78 106 137 173 213 258 307
#     4  10  21  37  57  80 106 136 170 208 253 307
#     4  11  21  32  52  79 104 135 175 214 255 307
#     4   9  19  35  51  70 101 138 175 215 257 300
#
# _framework density 17.191986
#
# number of rings (size 3 to 8) (size 9 to 14) (size 15 to 20)
#    0.000    2.000    0.000    4.500    0.000   10.500 
#    0.000    0.000    0.000    0.750    0.000    5.250 
#    0.000    0.000    0.000    0.000    0.000    0.000 
#
# Total GULP energy -178760.730282 kJ/mol
# GULP energy per Si atom -5586.272821 kJ/mol
# Density = 1.715286 g / cm^3
# Si number density = 17.191986 Si / 1000 Ang^3
#
#
#
# Elastic Constant Matrix: (Units=GPa)
#
#
# Indices 1 2 3 4 5 6 
#
# 1 65.6559 53.4062 35.1680 0.0000 -19.9441 0.0000
# 2 53.4062 94.1225 71.5015 0.0000 -8.5951 0.0000
# 3 35.1680 71.5015 95.0405 0.0000 -1.3692 0.0000
# 4 0.0000 0.0000 0.0000 33.3011 0.0000 -2.3447
# 5 -19.9441 -8.5951 -1.3692 0.0000 17.8252 0.0000
# 6 0.0000 0.0000 0.0000 -2.3447 0.0000 27.1379
#
#
#
# Elastic Compliance Matrix: (Units=1/GPa)
#
#
# Indices 1 2 3 4 5 6 
#
# 1 0.045429 -0.022876 0.000975 0.000000 0.039874 0.000000
# 2 -0.022876 0.038462 -0.020596 0.000000 -0.008632 0.000000
# 3 0.000975 -0.020596 0.025557 0.000000 -0.006877 0.000000
# 4 0.000000 0.000000 0.000000 0.030213 0.000000 0.002610
# 5 0.039874 -0.008632 -0.006877 0.000000 0.096024 0.000000
# 6 0.000000 0.000000 0.000000 0.002610 0.000000 0.037074
#
#
# Mechanical properties :
#
#
# Convention : Reuss Voigt Hill
#
# Bulk Modulus (GPa) = 40.89342 63.88557 52.38950
# Shear Modulus (GPa) = 13.66474 21.96906 17.81690
#
# Velocity S-wave (km/s) = 2.82234 3.57860 3.22273
# Velocity P-wave (km/s) = 5.87016 7.36994 6.66238
#
# Compressibility (1/GPa) = 0.02445381
#
# Stress axis : x y z
#
# Youngs Moduli (GPa) = 22.01214 25.99955 39.12875
#
# Poissons Ratio (x) = 0.59478 -0.03814
# Poissons Ratio (y) = 0.50356 0.80588
# Poissons Ratio (z) = -0.02145 0.53547
#
# Static dielectric constant tensor:
#      x y z
#    x 1.576340 0.000000 -0.001820 
#    y 0.000000 1.570780 0.000000 
#    z -0.001820 0.000000 1.566540 
# 
# From -- ./inp_files/243826.got.cif
#   From: 2010.05.17/outbox.cif.g08.bks.cpg/sg12_122_cif.got.tgz:243826.got - 2010.06.03 13:09:07.
