data_PCOD9190627
_publ_section_title
;
Structure prediction by ZEFSAII (Michael W. Deem and Ramdas Pophale) SiO2 
 PCOD9190627
Probable space group: C 2/M
;
_chemical_formula_sum "Si O2"
_cell_formula_units_Z 40
_cell_length_a 5.265659
_cell_length_b 23.645662
_cell_length_c 17.957761
_cell_angle_alpha 90.000000
_cell_angle_beta 75.294862
_cell_angle_gamma 90.000000
_cell_volume 2162.683097
_symmetry_space_group_name_H-M "C 2/M"
_symmetry_group_IT_number 12
_symmetry_cell_setting 'monoclinic'
loop_
_space_group_symop_operation_xyz
x,y,z
-x,y,-z
-x,-y,-z
x,-y,z
1/2+x,1/2+y,z
1/2-x,1/2+y,-z
1/2-x,1/2-y,-z
1/2+x,1/2-y,z
loop_
_atom_site_type_symbol
_atom_site_label
_atom_site_fract_x
_atom_site_fract_y
_atom_site_fract_z
Si Si1 0.710393 0.931309 0.544813
Si Si2 0.867491 0.432000 0.277130
Si Si3 0.224799 0.935882 0.032479
Si Si4 0.955859 0.895943 0.190926
Si Si5 0.410290 0.284198 0.092757
O O1 0.500000 0.911202 0.500000
O O2 0.642510 0.916952 0.634711
O O3 0.000000 0.912238 0.500000
O O4 0.710008 0.000000 0.541902
O O5 0.823123 0.500000 0.273064
O O6 0.634991 0.398898 0.251403
O O7 0.159651 0.417618 0.225674
O O8 0.123687 0.935784 0.123062
O O9 0.256975 0.000000 0.000854
O O10 0.500000 0.905721 0.000000
O O11 0.000000 0.909683 0.000000
O O12 0.940280 0.837501 0.145858
O O13 0.610813 0.237014 0.109949
O O14 0.500000 0.292676 0.000000
#
# Coordination Sequence:
#
# PCOD9190627 Si02
#       5
#     8   8   8   8   8
#     4   9  17  31  50  72 105 148 183 208 241 297
#     4  11  22  34  52  82 117 148 176 211 260 319
#     4  10  20  32  46  66  96 137 176 203 239 303
#     4  12  22  35  54  77 108 139 176 224 278 318
#     4  10  22  40  59  77  99 134 184 237 282 321
#
# _framework density 18.495543000000001
#
# number of rings (size 3 to 8) (size 9 to 14) (size 15 to 20)
#    0.000    1.600    0.000    6.000    0.000    7.200 
#    0.000    0.000    0.000    0.000    0.000    0.000 
#    0.000   56.000    0.000    0.000    0.000    0.000 
#
# Total GULP energy -111538.088642 kJ/mol
# GULP energy per Si atom -5576.904432 kJ/mol
# Density = 1.845345 g / cm^3
# Si number density = 18.495543 Si / 1000 Ang^3
#
#
#
# Elastic Constant Matrix: (Units=GPa)
#
#
# Indices 1 2 3 4 5 6 
#
# 1 146.5092 24.1997 47.7314 0.0000 15.7228 0.0000
# 2 24.1997 55.0290 25.0603 0.0000 11.3718 0.0000
# 3 47.7314 25.0603 102.1784 0.0000 16.2597 0.0000
# 4 0.0000 0.0000 0.0000 26.3153 0.0000 32.3636
# 5 15.7228 11.3718 16.2597 0.0000 41.5074 0.0000
# 6 0.0000 0.0000 0.0000 32.3636 0.0000 52.7586
#
#
#
# Elastic Compliance Matrix: (Units=1/GPa)
#
#
# Indices 1 2 3 4 5 6 
#
# 1 0.008334 -0.001922 -0.003203 0.000000 -0.001376 0.000000
# 2 -0.001922 0.021504 -0.003791 0.000000 -0.003678 0.000000
# 3 -0.003203 -0.003791 0.012642 0.000000 -0.002701 0.000000
# 4 0.000000 0.000000 0.000000 0.154737 0.000000 -0.094920
# 5 -0.001376 -0.003678 -0.002701 0.000000 0.026679 0.000000
# 6 0.000000 0.000000 0.000000 -0.094920 0.000000 0.077181
#
#
# Mechanical properties :
#
#
# Convention : Reuss Voigt Hill
#
# Bulk Modulus (GPa) = 40.56973 55.29993 47.93483
# Shear Modulus (GPa) = 15.28465 37.89793 26.59129
#
# Velocity S-wave (km/s) = 2.87783 4.53153 3.79583
# Velocity P-wave (km/s) = 5.74674 7.57256 6.72193
#
# Compressibility (1/GPa) = 0.02464892
#
# Stress axis : x y z
#
# Youngs Moduli (GPa) = 119.98912 46.50294 79.09852
#
# Poissons Ratio (x) = 0.08939 0.25334
# Poissons Ratio (y) = 0.23064 0.29985
# Poissons Ratio (z) = 0.38430 0.17628
#
# Static dielectric constant tensor:
#      x y z
#    x 1.690720 0.000000 0.024310 
#    y 0.000000 1.641450 0.000000 
#    z 0.024310 0.000000 1.641260 
# 
# From -- ./inp_files/191472.got.cif
#   From: 2010.05.17/outbox.cif.g08.bks.cpg/sg12_96_cif.got.tgz:191472.got - 2010.06.03 13:09:07.
