data_PCOD9190573
_publ_section_title
;
Structure prediction by ZEFSAII (Michael W. Deem and Ramdas Pophale) SiO2 
 PCOD9190573
Probable space group: C 2/M
;
_chemical_formula_sum "Si O2"
_cell_formula_units_Z 40
_cell_length_a 18.868465
_cell_length_b 27.739166
_cell_length_c 20.133756
_cell_angle_alpha 90.000000
_cell_angle_beta 165.596812
_cell_angle_gamma 90.000000
_cell_volume 2621.241292
_symmetry_space_group_name_H-M "C 2/M"
_symmetry_group_IT_number 12
_symmetry_cell_setting 'monoclinic'
loop_
_space_group_symop_operation_xyz
x,y,z
-x,y,-z
-x,-y,-z
x,-y,z
1/2+x,1/2+y,z
1/2-x,1/2+y,-z
1/2-x,1/2-y,-z
1/2+x,1/2-y,z
loop_
_atom_site_type_symbol
_atom_site_label
_atom_site_fract_x
_atom_site_fract_y
_atom_site_fract_z
Si Si1 0.682834 0.555196 0.233170
Si Si2 0.511840 0.812263 0.236583
Si Si3 0.000463 0.695795 0.421572
Si Si4 0.899272 0.777643 0.235174
Si Si5 0.588462 0.355674 0.946738
O O1 0.696270 0.500000 0.270282
O O2 0.545980 0.592683 0.159783
O O3 0.000000 0.570496 0.500000
O O4 0.500000 0.555442 0.000000
O O5 0.849572 0.816610 0.541943
O O6 0.458830 0.765838 0.236548
O O7 0.315740 0.852195 0.093528
O O8 0.392318 0.799992 0.055406
O O9 0.922107 0.749254 0.324917
O O10 0.319821 0.679939 0.689315
O O11 0.000000 0.691541 0.500000
O O12 0.765383 0.662274 0.172090
#
# Coordination Sequence:
#
# PCOD9190573 Si02
#       5
#     8   8   8   8   8
#     4  10  20  32  43  55  75 101 127 160 201 235
#     4   9  16  26  40  54  70  95 122 155 187 216
#     4  11  20  27  39  57  77 100 126 158 189 220
#     4   9  16  27  38  53  75  95 120 151 187 222
#     4  11  19  28  42  57  73  95 131 165 189 221
#
# _framework density 15.259945999999999
#
# number of rings (size 3 to 8) (size 9 to 14) (size 15 to 20)
#    0.000    2.000    0.000    9.600    0.000    0.000 
#    0.000    0.000    0.000    0.000    0.000    0.000 
#    0.000    0.000    0.000    0.000    0.000    6.000 
#
# Total GULP energy -111467.207377 kJ/mol
# GULP energy per Si atom -5573.360369 kJ/mol
# Density = 1.522521 g / cm^3
# Si number density = 15.259946 Si / 1000 Ang^3
#
#
#
# Elastic Constant Matrix: (Units=GPa)
#
#
# Indices 1 2 3 4 5 6 
#
# 1 25.0125 28.7635 12.1843 0.0045 -5.9832 -0.0032
# 2 28.7635 60.2263 15.8103 -0.0008 7.0959 0.0033
# 3 12.1843 15.8103 92.2216 0.0194 -4.2603 -0.0335
# 4 0.0045 -0.0008 0.0194 18.1628 0.0057 1.4836
# 5 -5.9832 7.0959 -4.2603 0.0057 23.7269 0.0106
# 6 -0.0032 0.0033 -0.0335 1.4836 0.0106 37.6330
#
#
#
# Elastic Compliance Matrix: (Units=1/GPa)
#
#
# Indices 1 2 3 4 5 6 
#
# 1 0.135394 -0.070215 -0.003331 -0.000051 0.054543 0.000001
# 2 -0.070215 0.054624 -0.001674 0.000033 -0.034343 -0.000004
# 3 -0.003331 -0.001674 0.011652 -0.000013 0.001753 0.000010
# 4 -0.000051 0.000033 -0.000013 0.055236 -0.000037 -0.002178
# 5 0.054543 -0.034343 0.001753 -0.000037 0.066486 -0.000008
# 6 0.000001 -0.000004 0.000010 -0.002178 -0.000008 0.026658
#
#
# Mechanical properties :
#
#
# Convention : Reuss Voigt Hill
#
# Bulk Modulus (GPa) = 19.52012 32.33072 25.92542
# Shear Modulus (GPa) = 9.66059 23.95136 16.80598
#
# Velocity S-wave (km/s) = 2.51881 3.96606 3.32220
# Velocity P-wave (km/s) = 4.61289 6.49658 5.63402
#
# Compressibility (1/GPa) = 0.05122921
#
# Stress axis : x y z
#
# Youngs Moduli (GPa) = 7.38583 18.30704 85.82533
#
# Poissons Ratio (x) = 1.28543 0.28589
# Poissons Ratio (y) = 0.51860 0.14370
# Poissons Ratio (z) = 0.02460 0.03065
#
# Static dielectric constant tensor:
#      x y z
#    x 1.540470 -0.000010 0.001800 
#    y -0.000010 1.524250 0.000000 
#    z 0.001800 0.000000 1.554930 
# 
# From -- ./inp_files/350266.got.cif
#   From: 2010.05.17/outbox.cif.g08.bks.cpg/sg12_176_cif.got.tgz:350266.got - 2010.06.03 13:09:07.
