data_PCOD9190464
_publ_section_title
;
Structure prediction by ZEFSAII (Michael W. Deem and Ramdas Pophale) SiO2 
 PCOD9190464
Probable space group: C 2/M
;
_chemical_formula_sum "Si O2"
_cell_formula_units_Z 56
_cell_length_a 23.149126
_cell_length_b 7.373092
_cell_length_c 14.673494
_cell_angle_alpha 90.000000
_cell_angle_beta 82.946733
_cell_angle_gamma 90.000000
_cell_volume 2485.528428
_symmetry_space_group_name_H-M "C 2/M"
_symmetry_group_IT_number 12
_symmetry_cell_setting 'monoclinic'
loop_
_space_group_symop_operation_xyz
x,y,z
-x,y,-z
-x,-y,-z
x,-y,z
1/2+x,1/2+y,z
1/2-x,1/2+y,-z
1/2-x,1/2-y,-z
1/2+x,1/2-y,z
loop_
_atom_site_type_symbol
_atom_site_label
_atom_site_fract_x
_atom_site_fract_y
_atom_site_fract_z
Si Si1 0.405578 0.712794 0.770636
Si Si2 0.012039 0.778650 0.395143
Si Si3 0.228134 0.718453 0.216889
Si Si4 0.057407 0.222037 0.043586
Si Si5 0.900143 0.779429 0.303282
Si Si6 0.849876 0.220632 0.118880
Si Si7 0.278194 0.715872 0.397608
O O1 0.419355 0.500000 0.767080
O O2 0.429508 0.781372 0.668963
O O3 0.336683 0.729287 0.796982
O O4 0.438134 0.786415 0.853502
O O5 0.000000 0.714505 0.500000
O O6 0.959538 0.722606 0.338617
O O7 0.012401 0.000000 0.401044
O O8 0.229397 0.500000 0.215973
O O9 0.282981 0.779702 0.144995
O O10 0.241938 0.782699 0.317356
O O11 0.056560 0.000000 0.044900
O O12 0.114773 0.278236 0.976465
O O13 0.000000 0.278476 0.000000
O O14 0.885818 0.724724 0.202583
O O15 0.844482 0.720193 0.373583
O O16 0.901956 0.000000 0.301672
O O17 0.849182 0.000000 0.118724
O O18 0.280947 0.500000 0.386229
O O19 0.250000 0.750000 0.500000
#
# Coordination Sequence:
#
# PCOD9190464 Si02
#       7
#     8   8   8   8   8   8   8
#     4  10  20  31  48  76 100 122 160 206 245 281
#     4   9  17  27  41  65  96 124 151 193 246 288
#     4   9  19  34  48  67  99 136 164 188 232 297
#     4   9  16  27  47  75 102 123 153 206 255 281
#     4   8  14  26  43  64  89 120 157 190 229 286
#     4   8  14  27  46  65  91 128 161 190 234 291
#     4   9  18  30  48  70  91 121 161 199 235 278
#
# _framework density 22.530422000000002
#
# number of rings (size 3 to 8) (size 9 to 14) (size 15 to 20)
#    0.000    3.143    0.000    2.571    2.000    4.571 
#    0.000    0.000    0.000    1.714    0.000    4.000 
#    0.000    0.000    0.000    0.000    0.000    0.000 
#
# Total GULP energy -156267.338263 kJ/mol
# GULP energy per Si atom -5580.976367 kJ/mol
# Density = 2.247914 g / cm^3
# Si number density = 22.530422 Si / 1000 Ang^3
#
#
#
# Elastic Constant Matrix: (Units=GPa)
#
#
# Indices 1 2 3 4 5 6 
#
# 1 113.8062 -4.3355 62.2757 0.0000 -2.9164 0.0000
# 2 -4.3355 75.5732 7.3011 0.0000 -1.1639 0.0000
# 3 62.2757 7.3011 141.9839 0.0000 -27.7518 0.0000
# 4 0.0000 0.0000 0.0000 -1.0600 0.0000 -2.9690
# 5 -2.9164 -1.1639 -27.7518 0.0000 25.7132 0.0000
# 6 0.0000 0.0000 0.0000 -2.9690 0.0000 4.3975
#
#
#
# Elastic Compliance Matrix: (Units=1/GPa)
#
#
# Indices 1 2 3 4 5 6 
#
# 1 0.012272 0.001250 -0.006544 0.000000 -0.005615 0.000000
# 2 0.001250 0.013426 -0.001384 0.000000 -0.000744 0.000000
# 3 -0.006544 -0.001384 0.012455 0.000000 0.012637 0.000000
# 4 0.000000 0.000000 0.000000 -0.326301 0.000000 -0.220308
# 5 -0.005615 -0.000744 0.012637 0.000000 0.051859 0.000000
# 6 0.000000 0.000000 0.000000 -0.220308 0.000000 0.078657
#
#
# Mechanical properties :
#
#
# Convention : Reuss Voigt Hill
#
# Bulk Modulus (GPa) = 40.32987 51.31619 45.82303
# Shear Modulus (GPa) = -36.76172 23.55160 -6.60506
#
# Velocity S-wave (km/s) = -4.04375 3.23665 -1.71405
# Velocity P-wave (km/s) = 1.96558 6.06579 4.05773
#
# Compressibility (1/GPa) = 0.02479552
#
# Stress axis : x y z
#
# Youngs Moduli (GPa) = 81.48891 74.48151 80.29184
#
# Poissons Ratio (x) = -0.09308 0.52544
# Poissons Ratio (y) = -0.10184 0.11113
# Poissons Ratio (z) = 0.53327 0.10308
#
# Static dielectric constant tensor:
#      x y z
#    x 1.814380 0.000000 -0.024950 
#    y 0.000000 1.897900 0.000000 
#    z -0.024950 0.000000 1.827880 
# 
# From -- ./inp_files/173863.got.cif
#   From: 2010.05.17/outbox.cif.g08.bks.cpg/sg12_87_cif.got.tgz:173863.got - 2010.06.03 13:09:07.
