data_PCOD9190403
_publ_section_title
;
Structure prediction by ZEFSAII (Michael W. Deem and Ramdas Pophale) SiO2 
 PCOD9190403
Probable space group: C 2/M
;
_chemical_formula_sum "Si O2"
_cell_formula_units_Z 56
_cell_length_a 22.873313
_cell_length_b 7.626048
_cell_length_c 22.132394
_cell_angle_alpha 90.000000
_cell_angle_beta 51.089362
_cell_angle_gamma 90.000000
_cell_volume 3004.050505
_symmetry_space_group_name_H-M "C 2/M"
_symmetry_group_IT_number 12
_symmetry_cell_setting 'monoclinic'
loop_
_space_group_symop_operation_xyz
x,y,z
-x,y,-z
-x,-y,-z
x,-y,z
1/2+x,1/2+y,z
1/2-x,1/2+y,-z
1/2-x,1/2-y,-z
1/2+x,1/2-y,z
loop_
_atom_site_type_symbol
_atom_site_label
_atom_site_fract_x
_atom_site_fract_y
_atom_site_fract_z
Si Si1 0.124298 0.799641 0.064559
Si Si2 0.759429 0.708501 0.907035
Si Si3 0.684840 0.208161 0.459203
Si Si4 0.649008 0.711318 0.617290
Si Si5 0.991472 0.215274 0.768607
Si Si6 0.423682 0.295464 0.577095
Si Si7 0.376098 0.711504 0.738404
O O1 0.183086 0.796351 0.082809
O O2 0.049616 0.721762 0.143464
O O3 0.106167 0.000000 0.059985
O O4 0.175550 0.725523 0.977139
O O5 0.760398 0.500000 0.918958
O O6 0.795579 0.736031 0.818230
O O7 0.644264 0.243027 0.549505
O O8 0.770213 0.275948 0.411533
O O9 0.639650 0.285775 0.432867
O O10 0.687988 0.000000 0.448099
O O11 0.650280 0.500000 0.619921
O O12 0.576249 0.772639 0.701040
O O13 0.939571 0.268517 0.745406
O O14 0.990502 0.000000 0.770658
O O15 0.500000 0.216227 0.500000
O O16 0.440590 0.500000 0.578875
O O17 0.395522 0.221371 0.659183
O O18 0.376611 0.500000 0.737535
#
# Coordination Sequence:
#
# PCOD9190403 Si02
#       7
#     8   8   8   8   8   8   8
#     4   8  14  24  38  57  82 112 143 172 203 245
#     4   9  15  23  37  58  85 113 137 168 212 254
#     4  10  20  31  45  67  91 113 140 180 224 255
#     4   9  17  31  49  65  85 116 148 176 211 258
#     4   8  13  25  45  64  82 108 145 179 202 240
#     4  10  20  34  50  64  82 115 153 180 208 255
#     4   9  17  28  43  62  83 111 145 176 207 249
#
# _framework density 18.641496
#
# number of rings (size 3 to 8) (size 9 to 14) (size 15 to 20)
#    0.000    3.000    0.000    2.571    0.000    4.286 
#    0.000    5.714    0.000    0.000    0.000    1.000 
#    0.000    8.000    0.000    0.000    0.000    0.000 
#
# Total GULP energy -155934.547318 kJ/mol
# GULP energy per Si atom -5569.090976 kJ/mol
# Density = 1.859907 g / cm^3
# Si number density = 18.641496 Si / 1000 Ang^3
#
#
#
# Elastic Constant Matrix: (Units=GPa)
#
#
# Indices 1 2 3 4 5 6 
#
# 1 36.8638 -4.0300 48.5615 0.0003 -4.7714 -0.0003
# 2 -4.0300 43.6505 4.5805 -0.0014 -0.5983 -0.0018
# 3 48.5615 4.5805 201.0296 0.0001 -25.7636 0.0003
# 4 0.0003 -0.0014 0.0001 16.6915 0.0000 3.6882
# 5 -4.7714 -0.5983 -25.7636 0.0000 26.2300 0.0000
# 6 -0.0003 -0.0018 0.0003 3.6882 0.0000 0.5047
#
#
#
# Elastic Compliance Matrix: (Units=1/GPa)
#
#
# Indices 1 2 3 4 5 6 
#
# 1 0.040924 0.004827 -0.010328 0.000018 -0.002590 -0.000083
# 2 0.004827 0.023533 -0.001740 0.000028 -0.000294 -0.000119
# 3 -0.010328 -0.001740 0.008309 -0.000006 0.006243 0.000029
# 4 0.000018 0.000028 -0.000006 -0.097447 -0.000003 0.712141
# 5 -0.002590 -0.000294 0.006243 -0.000003 0.043778 0.000013
# 6 -0.000083 -0.000119 0.000029 0.712141 0.000013 -3.222869
#
#
# Mechanical properties :
#
#
# Convention : Reuss Voigt Hill
#
# Bulk Modulus (GPa) = 17.15722 42.19644 29.67683
# Shear Modulus (GPa) = -1.57736 24.18068 11.30166
#
# Velocity S-wave (km/s) = -0.92086 3.60549 2.46491
# Velocity P-wave (km/s) = 2.84484 6.32595 4.90463
#
# Compressibility (1/GPa) = 0.05828450
#
# Stress axis : x y z
#
# Youngs Moduli (GPa) = 24.43543 42.49286 120.35299
#
# Poissons Ratio (x) = -0.20509 1.24296
# Poissons Ratio (y) = -0.11794 0.20939
# Poissons Ratio (z) = 0.25236 0.07393
#
# Static dielectric constant tensor:
#      x y z
#    x 1.606160 0.000000 -0.037300 
#    y 0.000000 1.716860 0.000000 
#    z -0.037300 0.000000 1.714410 
# 
# From -- ./inp_files/291670.got.cif
#   From: 2010.05.17/outbox.cif.g08.bks.cpg/sg12_146_cif.got.tgz:291670.got - 2010.06.03 13:09:07.
