data_PCOD9190982
_publ_section_title
;
Structure prediction by ZEFSAII (Michael W. Deem and Ramdas Pophale) SiO2 
 PCOD9190982
Probable space group: C 2/M
;
_chemical_formula_sum "Si O2"
_cell_formula_units_Z 56
_cell_length_a 16.943845
_cell_length_b 21.706053
_cell_length_c 21.620955
_cell_angle_alpha 90.000000
_cell_angle_beta 154.898482
_cell_angle_gamma 90.000000
_cell_volume 3373.357254
_symmetry_space_group_name_H-M "C 2/M"
_symmetry_group_IT_number 12
_symmetry_cell_setting 'monoclinic'
loop_
_space_group_symop_operation_xyz
x,y,z
-x,y,-z
-x,-y,-z
x,-y,z
1/2+x,1/2+y,z
1/2-x,1/2+y,-z
1/2-x,1/2-y,-z
1/2+x,1/2-y,z
loop_
_atom_site_type_symbol
_atom_site_label
_atom_site_fract_x
_atom_site_fract_y
_atom_site_fract_z
Si Si1 0.716916 0.000000 0.833008
Si Si2 0.035114 0.180062 0.320615
Si Si3 0.838832 0.372909 0.144714
Si Si4 0.711533 0.804165 0.386612
Si Si5 0.533388 0.619419 0.193617
Si Si6 0.373103 0.500000 0.812221
Si Si7 0.193584 0.723439 0.656340
Si Si8 0.717644 0.257357 0.141926
O O1 0.631349 0.936744 0.797754
O O2 0.731406 0.000000 0.769027
O O3 0.925541 0.000000 0.010463
O O4 0.138974 0.168369 0.459147
O O5 0.138879 0.239793 0.365020
O O6 0.047395 0.127804 0.277219
O O7 0.824044 0.202873 0.181710
O O8 0.757497 0.320859 0.133704
O O9 0.031662 0.347354 0.255298
O O10 0.680471 0.381609 0.980495
O O11 0.786906 0.783264 0.373555
O O12 0.631445 0.560071 0.233752
O O13 0.633836 0.678762 0.234785
O O14 0.187351 0.738001 0.723791
O O15 0.000000 0.691907 0.500000
O O16 0.500000 0.248323 0.000000
#
# Coordination Sequence:
#
# PCOD9190982 Si02
#       8
#     4   8   8   8   8   4   8   8
#     4   9  18  32  53  72 101 130 171 204 238 280
#     4   9  19  33  47  68 102 134 159 202 253 296
#     4  10  20  32  51  74  99 135 169 203 240 292
#     4   9  19  33  48  68  99 134 165 197 251 301
#     4  10  20  33  51  71 102 134 168 204 241 293
#     4   9  18  34  50  75  98 133 168 204 243 280
#     4  11  20  32  50  73 101 133 162 203 255 296
#     4  11  20  30  50  78 102 126 167 207 246 293
#
# _framework density 16.600673
#
# number of rings (size 3 to 8) (size 9 to 14) (size 15 to 20)
#    0.000    2.143    2.857    0.857    6.000    1.714 
#    0.000    1.071    0.000    0.000    0.000    2.000 
#    0.000    0.000    0.000    0.000    0.000    0.000 
#
# Total GULP energy -156041.242587 kJ/mol
# GULP energy per Si atom -5572.901521 kJ/mol
# Density = 1.656289 g / cm^3
# Si number density = 16.600673 Si / 1000 Ang^3
#
#
#
# Elastic Constant Matrix: (Units=GPa)
#
#
# Indices 1 2 3 4 5 6 
#
# 1 57.1565 29.4411 12.0925 0.0044 -12.6562 0.0004
# 2 29.4411 63.1776 19.5874 0.0094 -7.2412 0.0043
# 3 12.0925 19.5874 57.7504 0.0156 -4.2962 0.0047
# 4 0.0044 0.0094 0.0156 6.6766 0.0031 -10.5365
# 5 -12.6562 -7.2412 -4.2962 0.0031 28.6728 -0.0023
# 6 0.0004 0.0043 0.0047 -10.5365 -0.0023 15.2186
#
#
#
# Elastic Compliance Matrix: (Units=1/GPa)
#
#
# Indices 1 2 3 4 5 6 
#
# 1 0.024850 -0.010299 -0.001100 -0.000032 0.008203 -0.000018
# 2 -0.010299 0.022334 -0.005397 0.000204 0.000286 0.000137
# 3 -0.001100 -0.005397 0.019456 0.000480 0.001067 0.000328
# 4 -0.000032 0.000204 0.000480 -1.617482 0.000194 -1.119853
# 5 0.008203 0.000286 0.001067 0.000194 0.038729 0.000139
# 6 -0.000018 0.000137 0.000328 -1.119853 0.000139 -0.709614
#
#
# Mechanical properties :
#
#
# Convention : Reuss Voigt Hill
#
# Bulk Modulus (GPa) = 30.25974 33.36962 31.81468
# Shear Modulus (GPa) = -2.29661 17.91117 7.80728
#
# Velocity S-wave (km/s) = -1.17748 3.28829 2.17099
# Velocity P-wave (km/s) = 4.05204 5.87896 5.04882
#
# Compressibility (1/GPa) = 0.03304721
#
# Stress axis : x y z
#
# Youngs Moduli (GPa) = 40.24156 44.77511 51.39792
#
# Poissons Ratio (x) = 0.46114 0.05654
# Poissons Ratio (y) = 0.41445 0.27741
# Poissons Ratio (z) = 0.04427 0.24167
#
# Static dielectric constant tensor:
#      x y z
#    x 1.561290 0.000000 -0.007210 
#    y 0.000000 1.537670 -0.000010 
#    z -0.007210 -0.000010 1.587910 
# 
# From -- ./inp_files/90477.got.cif
#   From: 2010.05.17/outbox.cif.g08.bks.cpg/sg12_46_cif.got.tgz:90477.got - 2010.06.03 13:09:07.
