data_PCOD9190274
_publ_section_title
;
Structure prediction by ZEFSAII (Michael W. Deem and Ramdas Pophale) SiO2 
 PCOD9190274
Probable space group: C 2/M
;
_chemical_formula_sum "Si O2"
_cell_formula_units_Z 44
_cell_length_a 8.581965
_cell_length_b 23.748089
_cell_length_c 15.737971
_cell_angle_alpha 90.000000
_cell_angle_beta 137.724852
_cell_angle_gamma 90.000000
_cell_volume 2157.645915
_symmetry_space_group_name_H-M "C 2/M"
_symmetry_group_IT_number 12
_symmetry_cell_setting 'monoclinic'
loop_
_space_group_symop_operation_xyz
x,y,z
-x,y,-z
-x,-y,-z
x,-y,z
1/2+x,1/2+y,z
1/2-x,1/2+y,-z
1/2-x,1/2-y,-z
1/2+x,1/2-y,z
loop_
_atom_site_type_symbol
_atom_site_label
_atom_site_fract_x
_atom_site_fract_y
_atom_site_fract_z
Si Si1 0.547025 0.802419 0.833532
Si Si2 0.156312 0.000000 0.431039
Si Si3 0.265249 0.705751 0.638770
Si Si4 0.142037 0.619950 0.728693
Si Si5 0.000000 0.725440 0.000000
Si Si6 0.384975 0.623461 0.542715
Si Si7 0.677761 0.000000 0.696510
O O1 0.367929 0.765892 0.704955
O O2 0.597751 0.859814 0.805643
O O3 0.778799 0.765233 0.922053
O O4 0.474696 0.808205 0.901943
O O5 0.033954 0.940071 0.399839
O O6 0.396122 0.000000 0.581572
O O7 0.236140 0.000000 0.365637
O O8 0.274862 0.667298 0.727620
O O9 0.405400 0.671430 0.622825
O O10 0.000000 0.711543 0.500000
O O11 0.252632 0.558692 0.767373
O O12 0.891823 0.617952 0.581691
O O13 0.500000 0.638530 0.500000
#
# Coordination Sequence:
#
# PCOD9190274 Si02
#       7
#     8   4   8   8   4   8   4
#     4  11  22  41  59  86 114 149 198 244 286 347
#     4   9  15  30  50  72 118 156 203 215 268 343
#     4  10  21  36  56  87 123 157 183 230 297 353
#     4  10  20  35  57  81 116 154 193 230 285 346
#     4  10  24  40  62  80 108 158 198 242 288 332
#     4  10  20  29  50  84 120 158 183 233 285 343
#     4   9  16  32  56  78 106 162 191 230 270 350
#
# _framework density 20.392596000000001
#
# number of rings (size 3 to 8) (size 9 to 14) (size 15 to 20)
#    0.000    2.000    3.636    0.273    2.545    3.636 
#    0.000    0.000    0.000    1.091    0.000    0.000 
#    0.000    0.000    0.000    0.000    0.000    0.000 
#
# Total GULP energy -122844.226333 kJ/mol
# GULP energy per Si atom -5583.828470 kJ/mol
# Density = 2.034618 g / cm^3
# Si number density = 20.392596 Si / 1000 Ang^3
#
#
#
# Elastic Constant Matrix: (Units=GPa)
#
#
# Indices 1 2 3 4 5 6 
#
# 1 75.4859 35.1638 22.1113 -0.0005 -24.9022 -0.0002
# 2 35.1638 87.7654 24.6777 0.0002 -25.9401 0.0001
# 3 22.1113 24.6777 50.4611 -0.0011 -18.5964 -0.0004
# 4 -0.0005 0.0002 -0.0011 4.1769 -0.0004 -7.2149
# 5 -24.9022 -25.9401 -18.5964 -0.0004 38.0821 -0.0001
# 6 -0.0002 0.0001 -0.0004 -7.2149 -0.0001 28.1672
#
#
#
# Elastic Compliance Matrix: (Units=1/GPa)
#
#
# Indices 1 2 3 4 5 6 
#
# 1 0.018766 -0.004314 -0.003261 0.000005 0.007740 0.000001
# 2 -0.004314 0.016005 -0.003608 -0.000003 0.006319 -0.000001
# 3 -0.003261 -0.003608 0.025997 0.000014 0.008106 0.000004
# 4 0.000005 -0.000003 0.000014 0.429388 0.000012 0.109985
# 5 0.007740 0.006319 0.008106 0.000012 0.039583 0.000004
# 6 0.000001 -0.000001 0.000004 0.109985 0.000004 0.063674
#
#
# Mechanical properties :
#
#
# Convention : Reuss Voigt Hill
#
# Bulk Modulus (GPa) = 26.03985 41.95754 33.99870
# Shear Modulus (GPa) = 7.95445 22.86923 15.41184
#
# Velocity S-wave (km/s) = 1.97715 3.35244 2.75209
# Velocity P-wave (km/s) = 4.24372 5.96696 5.17754
#
# Compressibility (1/GPa) = 0.03840268
#
# Stress axis : x y z
#
# Youngs Moduli (GPa) = 53.28875 62.48229 38.46525
#
# Poissons Ratio (x) = 0.26955 0.12542
# Poissons Ratio (y) = 0.22989 0.13878
# Poissons Ratio (z) = 0.17375 0.22543
#
# Static dielectric constant tensor:
#      x y z
#    x 1.756650 0.000000 0.011560 
#    y 0.000000 1.751770 0.000000 
#    z 0.011560 0.000000 1.743590 
# 
# From -- ./inp_files/120777.got.cif
#   From: 2010.05.17/outbox.cif.g08.bks.cpg/sg12_61_cif.got.tgz:120777.got - 2010.06.03 13:09:07.
