data_PCOD9190939
_publ_section_title
;
Structure prediction by ZEFSAII (Michael W. Deem and Ramdas Pophale) SiO2 
 PCOD9190939
Probable space group: C 2/M
;
_chemical_formula_sum "Si O2"
_cell_formula_units_Z 56
_cell_length_a 33.247937
_cell_length_b 16.950313
_cell_length_c 6.982773
_cell_angle_alpha 90.000000
_cell_angle_beta 54.962460
_cell_angle_gamma 90.000000
_cell_volume 3222.073824
_symmetry_space_group_name_H-M "C 2/M"
_symmetry_group_IT_number 12
_symmetry_cell_setting 'monoclinic'
loop_
_space_group_symop_operation_xyz
x,y,z
-x,y,-z
-x,-y,-z
x,-y,z
1/2+x,1/2+y,z
1/2-x,1/2+y,-z
1/2-x,1/2-y,-z
1/2+x,1/2-y,z
loop_
_atom_site_type_symbol
_atom_site_label
_atom_site_fract_x
_atom_site_fract_y
_atom_site_fract_z
Si Si1 0.867840 0.722296 0.041983
Si Si2 0.282107 0.671937 0.367930
Si Si3 0.289386 0.909575 0.177023
Si Si4 0.881343 0.823320 0.639689
Si Si5 0.219014 0.095110 0.043782
Si Si6 0.555395 0.720208 0.907357
Si Si7 0.448542 0.410111 0.751516
O O1 0.877304 0.749182 0.797218
O O2 0.915670 0.715240 0.043113
O O3 0.837287 0.795139 0.221284
O O4 0.832251 0.647453 0.130733
O O5 0.250000 0.750000 0.500000
O O6 0.260331 0.606507 0.566879
O O7 0.275588 0.635541 0.176497
O O8 0.269596 0.890936 0.019404
O O9 0.304066 0.000000 0.150948
O O10 0.827939 0.859389 0.737411
O O11 0.908092 0.886616 0.704545
O O12 0.913595 0.802071 0.366890
O O13 0.210947 0.000000 0.058042
O O14 0.552344 0.646539 0.062978
O O15 0.500000 0.742046 0.000000
O O16 0.500000 0.401308 0.500000
O O17 0.442090 0.500000 0.830201
#
# Coordination Sequence:
#
# PCOD9190939 Si02
#       7
#     8   8   8   8   8   8   8
#     4   9  21  34  52  78 105 136 174 219 258 305
#     4   9  18  33  52  76 106 139 171 207 252 304
#     4  10  20  35  55  79 106 137 173 214 264 314
#     4  10  20  35  51  73 105 139 175 215 252 303
#     4  10  20  32  50  76 107 142 175 209 253 307
#     4  11  21  35  54  75 100 139 184 216 259 308
#     4  10  20  33  49  73 105 136 171 214 253 294
#
# _framework density 17.380110999999999
#
# number of rings (size 3 to 8) (size 9 to 14) (size 15 to 20)
#    0.000    2.143    1.429    1.714    0.000    8.857 
#    0.000    3.571    0.000    0.429    0.000    1.000 
#    0.000    0.000    0.000    0.000    0.000    0.000 
#
# Total GULP energy -156012.644378 kJ/mol
# GULP energy per Si atom -5571.880156 kJ/mol
# Density = 1.734055 g / cm^3
# Si number density = 17.380111 Si / 1000 Ang^3
#
#
#
# Elastic Constant Matrix: (Units=GPa)
#
#
# Indices 1 2 3 4 5 6 
#
# 1 131.4334 53.8682 30.3929 0.0000 1.9173 0.0000
# 2 53.8682 47.4435 18.6888 0.0000 -1.1429 0.0000
# 3 30.3929 18.6888 72.3519 0.0000 4.3219 0.0000
# 4 0.0000 0.0000 0.0000 17.7602 0.0000 -1.3434
# 5 1.9173 -1.1429 4.3219 0.0000 14.8675 0.0000
# 6 0.0000 0.0000 0.0000 -1.3434 0.0000 19.4301
#
#
#
# Elastic Compliance Matrix: (Units=1/GPa)
#
#
# Indices 1 2 3 4 5 6 
#
# 1 0.014592 -0.015893 -0.001872 0.000000 -0.002559 0.000000
# 2 -0.015893 0.040968 -0.004291 0.000000 0.006446 0.000000
# 3 -0.001872 -0.004291 0.015999 0.000000 -0.004739 0.000000
# 4 0.000000 0.000000 0.000000 0.056602 0.000000 0.003913
# 5 -0.002559 0.006446 -0.004739 0.000000 0.069464 0.000000
# 6 0.000000 0.000000 0.000000 0.003913 0.000000 0.051737
#
#
# Mechanical properties :
#
#
# Convention : Reuss Voigt Hill
#
# Bulk Modulus (GPa) = 36.43220 50.79207 43.61214
# Shear Modulus (GPa) = 16.52218 20.29681 18.40950
#
# Velocity S-wave (km/s) = 3.08659 3.42104 3.25811
# Velocity P-wave (km/s) = 5.80605 6.70018 6.26908
#
# Compressibility (1/GPa) = 0.02744824
#
# Stress axis : x y z
#
# Youngs Moduli (GPa) = 68.52978 24.40915 62.50325
#
# Poissons Ratio (x) = 0.38793 0.11699
# Poissons Ratio (y) = 1.08912 0.26822
# Poissons Ratio (z) = 0.12827 0.10475
#
# Static dielectric constant tensor:
#      x y z
#    x 1.622860 0.000000 -0.009920 
#    y 0.000000 1.576230 0.000000 
#    z -0.009920 0.000000 1.624830 
# 
# From -- ./inp_files/28763.got.cif
#   From: 2010.05.17/outbox.cif.g08.bks.cpg/sg12_15_cif.got.tgz:28763.got - 2010.06.03 13:09:07.
