data_PCOD9190757
_publ_section_title
;
Structure prediction by ZEFSAII (Michael W. Deem and Ramdas Pophale) SiO2 
 PCOD9190757
Probable space group: C 2/M
;
_chemical_formula_sum "Si O2"
_cell_formula_units_Z 64
_cell_length_a 14.964317
_cell_length_b 7.646725
_cell_length_c 27.145350
_cell_angle_alpha 90.000000
_cell_angle_beta 102.871685
_cell_angle_gamma 90.000000
_cell_volume 3028.134409
_symmetry_space_group_name_H-M "C 2/M"
_symmetry_group_IT_number 12
_symmetry_cell_setting 'monoclinic'
loop_
_space_group_symop_operation_xyz
x,y,z
-x,y,-z
-x,-y,-z
x,-y,z
1/2+x,1/2+y,z
1/2-x,1/2+y,-z
1/2-x,1/2-y,-z
1/2+x,1/2-y,z
loop_
_atom_site_type_symbol
_atom_site_label
_atom_site_fract_x
_atom_site_fract_y
_atom_site_fract_z
Si Si1 0.563981 0.213598 0.360904
Si Si2 0.868233 0.297653 0.181402
Si Si3 0.729671 0.702659 0.927957
Si Si4 0.450041 0.213547 0.751485
Si Si5 0.597646 0.297464 0.996431
Si Si6 0.739021 0.711823 0.734157
Si Si7 0.039518 0.293567 0.555694
Si Si8 0.773976 0.210701 0.378341
O O1 0.531399 0.270377 0.302669
O O2 0.506473 0.279120 0.400166
O O3 0.670676 0.264337 0.378662
O O4 0.560680 0.000000 0.359834
O O5 0.876345 0.500000 0.168309
O O6 0.807750 0.212649 0.131642
O O7 0.819144 0.284064 0.228177
O O8 0.970366 0.224218 0.202508
O O9 0.743474 0.500000 0.942858
O O10 0.827428 0.789662 0.950725
O O11 0.652563 0.776811 0.955986
O O12 0.346186 0.262548 0.751689
O O13 0.452867 0.000000 0.751907
O O14 0.578894 0.500000 0.981252
O O15 0.500000 0.218717 0.000000
O O16 0.734613 0.500000 0.735253
O O17 0.706915 0.768794 0.675697
O O18 0.017747 0.500000 0.552925
O O19 0.147960 0.273118 0.575407
O O20 0.000000 0.219448 0.500000
O O21 0.775060 0.000000 0.378234
#
# Coordination Sequence:
#
# PCOD9190757 Si02
#       8
#     8   8   8   8   8   8   8   8
#     4   8  15  31  51  69  95 131 166 200 248 304
#     4  11  21  33  52  78 108 139 170 207 250 296
#     4  10  21  36  54  79 110 141 173 210 254 302
#     4   8  16  31  51  72  96 132 171 203 243 303
#     4   9  19  38  61  81 104 136 175 219 260 295
#     4   9  18  34  53  74  99 129 169 210 252 302
#     4  10  20  32  48  72 100 129 163 205 252 302
#     4   9  18  33  53  72  94 129 168 207 250 301
#
# _framework density 21.135127000000001
#
# number of rings (size 3 to 8) (size 9 to 14) (size 15 to 20)
#    0.000    2.750    0.000    3.000    0.000    4.000 
#    0.000    4.375    0.000    2.250    0.000    0.000 
#    0.000    0.000    0.000    0.000    0.000    0.000 
#
# Total GULP energy -178573.336165 kJ/mol
# GULP energy per Si atom -5580.416755 kJ/mol
# Density = 2.108702 g / cm^3
# Si number density = 21.135127 Si / 1000 Ang^3
#
#
#
# Elastic Constant Matrix: (Units=GPa)
#
#
# Indices 1 2 3 4 5 6 
#
# 1 83.6642 -4.2433 31.6043 0.0000 19.2589 0.0000
# 2 -4.2433 39.3468 -2.6965 0.0000 -4.6257 0.0000
# 3 31.6043 -2.6965 70.9705 0.0000 28.8729 0.0000
# 4 0.0000 0.0000 0.0000 1.7853 0.0000 -3.6238
# 5 19.2589 -4.6257 28.8729 0.0000 20.2367 0.0000
# 6 0.0000 0.0000 0.0000 -3.6238 0.0000 8.8901
#
#
#
# Elastic Compliance Matrix: (Units=1/GPa)
#
#
# Indices 1 2 3 4 5 6 
#
# 1 0.015442 0.000156 -0.002161 0.000000 -0.011577 0.000000
# 2 0.000156 0.026472 -0.003492 0.000000 0.010884 0.000000
# 3 -0.002161 -0.003492 0.034341 0.000000 -0.047739 0.000000
# 4 0.000000 0.000000 0.000000 3.244440 0.000000 1.322494
# 5 -0.011577 0.010884 -0.047739 0.000000 0.131032 0.000000
# 6 0.000000 0.000000 0.000000 1.322494 0.000000 0.651558
#
#
# Mechanical properties :
#
#
# Convention : Reuss Voigt Hill
#
# Bulk Modulus (GPa) = 15.32266 27.03448 21.17857
# Shear Modulus (GPa) = 1.20889 17.47025 9.33957
#
# Velocity S-wave (km/s) = 0.75711 2.87818 2.10442
# Velocity P-wave (km/s) = 2.83371 4.88511 3.99338
#
# Compressibility (1/GPa) = 0.06526284
#
# Stress axis : x y z
#
# Youngs Moduli (GPa) = 64.76024 37.77553 29.11949
#
# Poissons Ratio (x) = -0.00590 0.06291
# Poissons Ratio (y) = -0.01011 0.10168
# Poissons Ratio (z) = 0.13991 0.13190
#
# Static dielectric constant tensor:
#      x y z
#    x 1.758860 0.000000 -0.001050 
#    y 0.000000 1.793460 0.000000 
#    z -0.001050 0.000000 1.744250 
# 
# From -- ./inp_files/359928.got.cif
#   From: 2010.05.17/outbox.cif.g08.bks.cpg/sg12_180_cif.got.tgz:359928.got - 2010.06.03 13:09:07.
