data_PCOD9190844
_publ_section_title
;
Structure prediction by ZEFSAII (Michael W. Deem and Ramdas Pophale) SiO2 
 PCOD9190844
Probable space group: C 2/M
;
_chemical_formula_sum "Si O2"
_cell_formula_units_Z 48
_cell_length_a 20.869722
_cell_length_b 23.256561
_cell_length_c 17.710118
_cell_angle_alpha 90.000000
_cell_angle_beta 160.923452
_cell_angle_gamma 90.000000
_cell_volume 2809.357295
_symmetry_space_group_name_H-M "C 2/M"
_symmetry_group_IT_number 12
_symmetry_cell_setting 'monoclinic'
loop_
_space_group_symop_operation_xyz
x,y,z
-x,y,-z
-x,-y,-z
x,-y,z
1/2+x,1/2+y,z
1/2-x,1/2+y,-z
1/2-x,1/2-y,-z
1/2+x,1/2-y,z
loop_
_atom_site_type_symbol
_atom_site_label
_atom_site_fract_x
_atom_site_fract_y
_atom_site_fract_z
Si Si1 0.265062 0.106694 0.247806
Si Si2 0.385149 0.433723 0.756319
Si Si3 0.366055 0.837276 0.600163
Si Si4 0.308998 0.280061 0.447062
Si Si5 0.762094 0.258245 0.236949
Si Si6 0.254687 0.298186 0.070538
O O1 0.500000 0.100156 0.500000
O O2 0.203214 0.079605 0.258853
O O3 0.212904 0.174504 0.187684
O O4 0.118323 0.079051 0.022912
O O5 0.354628 0.500000 0.703117
O O6 0.267018 0.390423 0.571279
O O7 0.342051 0.786205 0.511379
O O8 0.294806 0.811271 0.599863
O O9 0.599201 0.845811 0.871120
O O10 0.207754 0.274408 0.253316
O O11 0.517190 0.312100 0.668295
O O12 0.693072 0.230746 0.081553
O O13 0.000000 0.256579 0.500000
O O14 0.250000 0.250000 0.000000
#
# Coordination Sequence:
#
# PCOD9190844 Si02
#       6
#     8   8   8   8   8   8
#     4  10  21  35  55  73 101 142 176 210 251 301
#     4  11  24  37  49  72 104 139 184 221 244 295
#     4  10  20  32  49  74 100 136 169 209 258 298
#     4   9  18  32  49  76 102 131 167 203 257 313
#     4   9  17  31  51  79 106 135 163 203 256 314
#     4   9  19  30  49  75 106 131 161 203 254 315
#
# _framework density 17.085757999999998
#
# number of rings (size 3 to 8) (size 9 to 14) (size 15 to 20)
#    0.000    2.333    1.667    1.000    9.333    2.000 
#    0.000    0.000    0.000    0.000    0.000    2.333 
#    0.000    4.000    0.000    0.000    0.000    0.000 
#
# Total GULP energy -133762.503677 kJ/mol
# GULP energy per Si atom -5573.437653 kJ/mol
# Density = 1.704687 g / cm^3
# Si number density = 17.085758 Si / 1000 Ang^3
#
#
#
# Elastic Constant Matrix: (Units=GPa)
#
#
# Indices 1 2 3 4 5 6 
#
# 1 77.1439 8.3486 33.7040 0.0001 -18.4652 0.0000
# 2 8.3486 65.9197 55.9258 0.0002 -11.6303 0.0000
# 3 33.7040 55.9258 126.7162 0.0005 -0.7377 0.0003
# 4 0.0001 0.0002 0.0005 -13.0779 0.0001 3.8243
# 5 -18.4652 -11.6303 -0.7377 0.0001 27.3463 0.0000
# 6 0.0000 0.0000 0.0003 3.8243 0.0000 6.4764
#
#
#
# Elastic Compliance Matrix: (Units=1/GPa)
#
#
# Indices 1 2 3 4 5 6 
#
# 1 0.019782 0.007618 -0.008529 0.000000 0.016367 0.000000
# 2 0.007618 0.030284 -0.015289 0.000000 0.017611 0.000000
# 3 -0.008529 -0.015289 0.016839 0.000000 -0.011807 -0.000001
# 4 0.000000 0.000000 0.000000 -0.065205 0.000000 0.038503
# 5 0.016367 0.017611 -0.011807 0.000000 0.054791 0.000000
# 6 0.000000 0.000000 -0.000001 0.038503 0.000000 0.131671
#
#
# Mechanical properties :
#
#
# Convention : Reuss Voigt Hill
#
# Bulk Modulus (GPa) = 28.98110 51.74851 40.36480
# Shear Modulus (GPa) = 21.54580 15.60237 18.57409
#
# Velocity S-wave (km/s) = 3.55496 3.02516 3.30071
# Velocity P-wave (km/s) = 5.81802 6.52345 6.18081
#
# Compressibility (1/GPa) = 0.03450525
#
# Stress axis : x y z
#
# Youngs Moduli (GPa) = 50.55055 33.02112 59.38526
#
# Poissons Ratio (x) = -0.25155 0.50647
# Poissons Ratio (y) = -0.38509 0.90796
# Poissons Ratio (z) = 0.43112 0.50487
#
# Static dielectric constant tensor:
#      x y z
#    x 1.610920 0.000000 0.026850 
#    y 0.000000 1.534050 0.000000 
#    z 0.026850 0.000000 1.669140 
# 
# From -- ./inp_files/285945.got.cif
#   From: 2010.05.17/outbox.cif.g08.bks.cpg/sg12_143_cif.got.tgz:285945.got - 2010.06.03 13:09:07.
