data_PCOD9190484
_publ_section_title
;
Structure prediction by ZEFSAII (Michael W. Deem and Ramdas Pophale) SiO2 
 PCOD9190484
Probable space group: C 2/M
;
_chemical_formula_sum "Si O2"
_cell_formula_units_Z 56
_cell_length_a 18.046337
_cell_length_b 11.645904
_cell_length_c 25.794433
_cell_angle_alpha 90.000000
_cell_angle_beta 154.844540
_cell_angle_gamma 90.000000
_cell_volume 2304.382737
_symmetry_space_group_name_H-M "C 2/M"
_symmetry_group_IT_number 12
_symmetry_cell_setting 'monoclinic'
loop_
_space_group_symop_operation_xyz
x,y,z
-x,y,-z
-x,-y,-z
x,-y,z
1/2+x,1/2+y,z
1/2-x,1/2+y,-z
1/2-x,1/2-y,-z
1/2+x,1/2-y,z
loop_
_atom_site_type_symbol
_atom_site_label
_atom_site_fract_x
_atom_site_fract_y
_atom_site_fract_z
Si Si1 0.145947 0.370219 0.653454
Si Si2 0.897198 0.626856 0.068281
Si Si3 0.275392 0.224649 0.403873
Si Si4 0.205123 0.667331 0.805865
Si Si5 0.408473 0.374370 0.210099
Si Si6 0.698438 0.126818 0.439347
Si Si7 0.380433 0.372482 0.022353
O O1 0.165216 0.500000 0.645831
O O2 0.199934 0.285098 0.641821
O O3 0.239773 0.361132 0.768368
O O4 0.939992 0.345528 0.531254
O O5 0.986132 0.500000 0.119607
O O6 0.731801 0.622270 0.924694
O O7 0.968610 0.753642 0.098127
O O8 0.810289 0.632606 0.070084
O O9 0.089533 0.171953 0.302091
O O10 0.272791 0.348802 0.428884
O O11 0.340092 0.630484 0.935570
O O12 0.176059 0.801397 0.797509
O O13 0.011124 0.621961 0.694947
O O14 0.437379 0.500000 0.247784
O O15 0.750000 0.250000 0.500000
O O16 0.753947 0.000000 0.493182
O O17 0.450161 0.500000 0.081028
#
# Coordination Sequence:
#
# PCOD9190484 Si02
#       7
#     8   8   8   8   8   8   8
#     4  11  20  33  49  70  98 133 173 207 242 295
#     4   8  15  26  43  67  96 123 152 192 244 294
#     4  10  21  34  49  70  93 132 171 201 242 287
#     4  10  20  31  49  76  97 127 167 205 242 290
#     4   9  17  31  49  73  99 126 162 204 250 295
#     4  11  22  36  54  76 102 130 164 207 249 293
#     4   9  15  26  44  67  95 124 153 195 241 286
#
# _framework density 24.301518999999999
#
# number of rings (size 3 to 8) (size 9 to 14) (size 15 to 20)
#    0.000    2.286    1.429    3.000    0.000    2.857 
#    0.000    2.143    0.000    0.857    0.000    4.000 
#    0.000    0.000    0.000   62.143    0.000    8.857 
#
# Total GULP energy -156202.006160 kJ/mol
# GULP energy per Si atom -5578.643077 kJ/mol
# Density = 2.424621 g / cm^3
# Si number density = 24.301519 Si / 1000 Ang^3
#
#
#
# Elastic Constant Matrix: (Units=GPa)
#
#
# Indices 1 2 3 4 5 6 
#
# 1 96.2867 45.3479 15.3289 -0.0015 -24.2467 0.0001
# 2 45.3479 202.4594 20.6380 -0.0071 -5.6342 -0.0008
# 3 15.3289 20.6380 81.6676 -0.0217 -11.3393 -0.0026
# 4 -0.0015 -0.0071 -0.0217 6.8381 -0.0062 -2.5768
# 5 -24.2467 -5.6342 -11.3393 -0.0062 41.7137 0.0001
# 6 0.0001 -0.0008 -0.0026 -2.5768 0.0001 -0.2237
#
#
#
# Elastic Compliance Matrix: (Units=1/GPa)
#
#
# Indices 1 2 3 4 5 6 
#
# 1 0.013676 -0.002772 -0.000847 0.000003 0.007345 -0.000003
# 2 -0.002772 0.005637 -0.001062 -0.000001 -0.001139 -0.000004
# 3 -0.000847 -0.001062 0.013077 -0.000002 0.002919 -0.000120
# 4 0.000003 -0.000001 -0.000002 0.027381 0.000006 -0.315419
# 5 0.007345 -0.001139 0.002919 0.000006 0.028882 -0.000080
# 6 -0.000003 -0.000004 -0.000120 -0.315419 -0.000080 -0.837039
#
#
# Mechanical properties :
#
#
# Convention : Reuss Voigt Hill
#
# Bulk Modulus (GPa) = 43.42624 60.33815 51.88220
# Shear Modulus (GPa) = -6.83669 29.60555 11.38443
#
# Velocity S-wave (km/s) = -1.67910 3.49414 2.16675
# Velocity P-wave (km/s) = 3.76157 6.41573 5.25885
#
# Compressibility (1/GPa) = 0.02302755
#
# Stress axis : x y z
#
# Youngs Moduli (GPa) = 73.12265 177.40452 76.46763
#
# Poissons Ratio (x) = 0.49185 0.06473
# Poissons Ratio (y) = 0.20273 0.08123
# Poissons Ratio (z) = 0.06190 0.18844
#
# Static dielectric constant tensor:
#      x y z
#    x 1.968210 0.000000 -0.042350 
#    y 0.000000 1.977860 0.000000 
#    z -0.042350 0.000000 1.986550 
# 
# From -- ./inp_files/343146.got.cif
#   From: 2010.05.17/outbox.cif.g08.bks.cpg/sg12_172_cif.got.tgz:343146.got - 2010.06.03 13:09:07.
