data_PCOD9190625
_publ_section_title
;
Structure prediction by ZEFSAII (Michael W. Deem and Ramdas Pophale) SiO2 
 PCOD9190625
Probable space group: C 2/M
;
_chemical_formula_sum "Si O2"
_cell_formula_units_Z 56
_cell_length_a 16.114666
_cell_length_b 7.283380
_cell_length_c 17.478103
_cell_angle_alpha 90.000000
_cell_angle_beta 101.003092
_cell_angle_gamma 90.000000
_cell_volume 2013.680629
_symmetry_space_group_name_H-M "C 2/M"
_symmetry_group_IT_number 12
_symmetry_cell_setting 'monoclinic'
loop_
_space_group_symop_operation_xyz
x,y,z
-x,y,-z
-x,-y,-z
x,-y,z
1/2+x,1/2+y,z
1/2-x,1/2+y,-z
1/2-x,1/2-y,-z
1/2+x,1/2-y,z
loop_
_atom_site_type_symbol
_atom_site_label
_atom_site_fract_x
_atom_site_fract_y
_atom_site_fract_z
Si Si1 0.704816 0.722100 0.589921
Si Si2 0.505661 0.717495 0.834988
Si Si3 0.821066 0.279903 0.735546
Si Si4 0.925576 0.779907 0.549728
Si Si5 0.882179 0.222479 0.018204
Si Si6 0.440037 0.276367 0.312537
Si Si7 0.750515 0.790353 0.124456
O O1 0.706722 0.500000 0.584332
O O2 0.790717 0.786743 0.646684
O O3 0.661848 0.790281 0.503380
O O4 0.634851 0.769827 0.642775
O O5 0.517605 0.500000 0.843016
O O6 0.413480 0.743077 0.783957
O O7 0.531823 0.782866 0.924017
O O8 0.564947 0.785305 0.775800
O O9 0.811716 0.500000 0.731564
O O10 0.761217 0.209571 0.793809
O O11 0.971031 0.711821 0.634369
O O12 0.000000 0.747428 0.500000
O O13 0.918009 0.000000 0.554359
O O14 0.813802 0.282001 0.071367
O O15 0.883039 0.000000 0.008851
O O16 0.841614 0.290818 0.932683
O O17 0.442064 0.500000 0.312064
O O18 0.778330 0.000000 0.140695
#
# Coordination Sequence:
#
# PCOD9190625 Si02
#       7
#     8   8   8   8   8   8   8
#     4   8  13  24  44  67  89 115 150 190 226 260
#     4  10  20  32  46  66  94 124 151 181 220 267
#     4  10  20  32  46  66  94 124 151 181 220 267
#     4   7  10  18  37  66  91 109 140 189 232 258
#     4   9  18  33  52  71  89 113 148 188 227 265
#     4   8  13  24  44  67  89 115 150 190 226 260
#     4   9  18  33  52  71  89 113 148 188 227 265
#
# _framework density 27.809773
#
# number of rings (size 3 to 8) (size 9 to 14) (size 15 to 20)
#    0.000    3.286    0.000    2.571    0.000    5.143 
#    0.000    3.571    0.000    2.571    0.000    0.000 
#    0.000    3.429    0.000    0.000    0.000    0.000 
#
# Total GULP energy -156452.935398 kJ/mol
# GULP energy per Si atom -5587.604836 kJ/mol
# Density = 2.774648 g / cm^3
# Si number density = 27.809773 Si / 1000 Ang^3
#
#
#
# Elastic Constant Matrix: (Units=GPa)
#
#
# Indices 1 2 3 4 5 6 
#
# 1 91.4154 -7.9357 26.7814 0.0000 30.2427 0.0000
# 2 -7.9357 120.8789 0.6560 0.0000 0.3203 0.0000
# 3 26.7814 0.6560 232.6085 0.0000 26.4215 0.0000
# 4 0.0000 0.0000 0.0000 2.7458 0.0000 7.4929
# 5 30.2427 0.3203 26.4215 0.0000 61.3395 0.0000
# 6 0.0000 0.0000 0.0000 7.4929 0.0000 4.9426
#
#
#
# Elastic Compliance Matrix: (Units=1/GPa)
#
#
# Indices 1 2 3 4 5 6 
#
# 1 0.013315 0.000895 -0.000830 0.000000 -0.006212 0.000000
# 2 0.000895 0.008333 -0.000075 0.000000 -0.000452 0.000000
# 3 -0.000830 -0.000075 0.004572 0.000000 -0.001560 0.000000
# 4 0.000000 0.000000 0.000000 -0.116098 0.000000 0.176003
# 5 -0.006212 -0.000452 -0.001560 0.000000 0.020040 0.000000
# 6 0.000000 0.000000 0.000000 0.176003 0.000000 -0.064496
#
#
# Mechanical properties :
#
#
# Convention : Reuss Voigt Hill
#
# Bulk Modulus (GPa) = 38.16777 53.76735 45.96756
# Shear Modulus (GPa) = -39.81521 42.16564 1.17522
#
# Velocity S-wave (km/s) = -3.78788 3.89809 0.65078
# Velocity P-wave (km/s) = 2.31870 6.29572 4.13882
#
# Compressibility (1/GPa) = 0.02620011
#
# Stress axis : x y z
#
# Youngs Moduli (GPa) = 75.10314 120.00320 218.72230
#
# Poissons Ratio (x) = -0.10741 0.18153
# Poissons Ratio (y) = -0.06722 0.01644
# Poissons Ratio (z) = 0.06233 0.00902
#
# Static dielectric constant tensor:
#      x y z
#    x 2.289740 0.000000 0.037790 
#    y 0.000000 2.130620 0.000000 
#    z 0.037790 0.000000 2.156260 
# 
# From -- ./inp_files/309502.got.cif
#   From: 2010.05.17/outbox.cif.g08.bks.cpg/sg12_155_cif.got.tgz:309502.got - 2010.06.03 13:09:07.
