data_PCOD9190512
_publ_section_title
;
Structure prediction by ZEFSAII (Michael W. Deem and Ramdas Pophale) SiO2 
 PCOD9190512
Probable space group: C 2/M
;
_chemical_formula_sum "Si O2"
_cell_formula_units_Z 48
_cell_length_a 21.288530
_cell_length_b 14.569509
_cell_length_c 13.064117
_cell_angle_alpha 90.000000
_cell_angle_beta 41.800032
_cell_angle_gamma 90.000000
_cell_volume 2700.798809
_symmetry_space_group_name_H-M "C 2/M"
_symmetry_group_IT_number 12
_symmetry_cell_setting 'monoclinic'
loop_
_space_group_symop_operation_xyz
x,y,z
-x,y,-z
-x,-y,-z
x,-y,z
1/2+x,1/2+y,z
1/2-x,1/2+y,-z
1/2-x,1/2-y,-z
1/2+x,1/2-y,z
loop_
_atom_site_type_symbol
_atom_site_label
_atom_site_fract_x
_atom_site_fract_y
_atom_site_fract_z
Si Si1 0.040221 0.730220 0.689116
Si Si2 0.760436 0.761920 0.609217
Si Si3 0.908815 0.609416 0.181645
Si Si4 0.263742 0.397162 0.208510
Si Si5 0.924734 0.606012 0.684142
Si Si6 0.522605 0.396520 0.092491
O O1 0.126906 0.764480 0.513080
O O2 0.071812 0.649860 0.729124
O O3 0.958367 0.682889 0.722816
O O4 0.015769 0.816650 0.789743
O O5 0.750000 0.750000 0.500000
O O6 0.689408 0.841806 0.731409
O O7 0.729248 0.671224 0.705869
O O8 0.899116 0.500000 0.193930
O O9 0.000000 0.632933 0.000000
O O10 0.244538 0.500000 0.270458
O O11 0.177971 0.373928 0.237624
O O12 0.364710 0.396723 0.032294
O O13 0.924542 0.500000 0.724878
O O14 0.000000 0.607117 0.500000
O O15 0.486881 0.500000 0.158952
O O16 0.500000 0.379473 0.000000
#
# Coordination Sequence:
#
# PCOD9190512 Si02
#       6
#     8   8   8   8   8   8
#     4  11  20  34  57  83 110 141 182 229 278 328
#     4  10  20  31  51  80 105 137 177 223 275 328
#     4  10  21  36  53  77 111 145 178 223 279 334
#     4  10  20  36  57  80 109 144 186 230 273 322
#     4  10  20  35  56  83 112 144 185 233 277 320
#     4  10  21  37  57  82 114 149 184 226 275 330
#
# _framework density 17.772518999999999
#
# number of rings (size 3 to 8) (size 9 to 14) (size 15 to 20)
#    0.000    1.833    1.667    4.000    0.000    4.000 
#    0.000    0.000    0.000    1.500    0.000    0.000 
#    0.000    0.000    0.000    0.000    0.000    0.000 
#
# Total GULP energy -133763.826419 kJ/mol
# GULP energy per Si atom -5573.492767 kJ/mol
# Density = 1.773207 g / cm^3
# Si number density = 17.772519 Si / 1000 Ang^3
#
#
#
# Elastic Constant Matrix: (Units=GPa)
#
#
# Indices 1 2 3 4 5 6 
#
# 1 66.5168 44.7158 13.1122 0.0000 -18.1011 0.0000
# 2 44.7158 127.5125 43.8204 0.0000 3.6610 0.0000
# 3 13.1122 43.8204 62.5793 0.0000 -15.3733 0.0000
# 4 0.0000 0.0000 0.0000 5.3764 0.0000 -2.4213
# 5 -18.1011 3.6610 -15.3733 0.0000 26.8389 0.0000
# 6 0.0000 0.0000 0.0000 -2.4213 0.0000 32.6645
#
#
#
# Elastic Compliance Matrix: (Units=1/GPa)
#
#
# Indices 1 2 3 4 5 6 
#
# 1 0.031982 -0.016333 0.012315 0.000000 0.030852 0.000000
# 2 -0.016333 0.019730 -0.016015 0.000000 -0.022880 0.000000
# 3 0.012315 -0.016015 0.031643 0.000000 0.028615 0.000000
# 4 0.000000 0.000000 0.000000 0.192422 0.000000 0.014264
# 5 0.030852 -0.022880 0.028615 0.000000 0.077579 0.000000
# 6 0.000000 0.000000 0.000000 0.014264 0.000000 0.031672
#
#
# Mechanical properties :
#
#
# Convention : Reuss Voigt Hill
#
# Bulk Modulus (GPa) = 23.10008 51.10061 37.10034
# Shear Modulus (GPa) = 11.37598 23.30663 17.34131
#
# Velocity S-wave (km/s) = 2.53274 3.62524 3.12707
# Velocity P-wave (km/s) = 4.64531 6.80721 5.82739
#
# Compressibility (1/GPa) = 0.04328990
#
# Stress axis : x y z
#
# Youngs Moduli (GPa) = 31.26780 50.68300 31.60261
#
# Poissons Ratio (x) = 0.82782 -0.38919
# Poissons Ratio (y) = 0.51070 0.50610
# Poissons Ratio (z) = -0.38507 0.81166
#
# Static dielectric constant tensor:
#      x y z
#    x 1.632070 0.000000 -0.045860 
#    y 0.000000 1.616070 0.000000 
#    z -0.045860 0.000000 1.642200 
# 
# From -- ./inp_files/167545.got.cif
#   From: 2010.05.17/outbox.cif.g08.bks.cpg/sg12_84_cif.got.tgz:167545.got - 2010.06.03 13:09:07.
