data_PCOD9190873
_publ_section_title
;
Structure prediction by ZEFSAII (Michael W. Deem and Ramdas Pophale) SiO2 
 PCOD9190873
Probable space group: C 2/M
;
_chemical_formula_sum "Si O2"
_cell_formula_units_Z 48
_cell_length_a 30.874684
_cell_length_b 9.470919
_cell_length_c 7.034575
_cell_angle_alpha 90.000000
_cell_angle_beta 94.142893
_cell_angle_gamma 90.000000
_cell_volume 2051.616589
_symmetry_space_group_name_H-M "C 2/M"
_symmetry_group_IT_number 12
_symmetry_cell_setting 'monoclinic'
loop_
_space_group_symop_operation_xyz
x,y,z
-x,y,-z
-x,-y,-z
x,-y,z
1/2+x,1/2+y,z
1/2-x,1/2+y,-z
1/2-x,1/2-y,-z
1/2+x,1/2-y,z
loop_
_atom_site_type_symbol
_atom_site_label
_atom_site_fract_x
_atom_site_fract_y
_atom_site_fract_z
Si Si1 0.859405 0.659815 0.875351
Si Si2 0.535228 0.338501 0.736611
Si Si3 0.938928 0.162144 0.806229
Si Si4 0.614624 0.159527 0.672524
Si Si5 0.197816 0.841836 0.646787
Si Si6 0.774404 0.840428 0.780124
O O1 0.848672 0.500000 0.810038
O O2 0.899247 0.730289 0.772998
O O3 0.817891 0.761076 0.856990
O O4 0.875177 0.652277 0.098055
O O5 0.540793 0.500000 0.673438
O O6 0.484215 0.303267 0.716555
O O7 0.568484 0.236126 0.643209
O O8 0.548570 0.337158 0.964747
O O9 0.926023 0.000000 0.756844
O O10 0.654044 0.253236 0.609254
O O11 0.614426 0.000000 0.599500
O O12 0.218918 0.854410 0.445665
O O13 0.231851 0.756581 0.787713
O O14 0.188561 0.000000 0.714890
O O15 0.768865 0.000000 0.853149
#
# Coordination Sequence:
#
# PCOD9190873 Si02
#       6
#     8   8   8   8   8   8
#     4  10  20  32  49  76 106 134 165 202 245 291
#     4   8  14  26  45  69  98 132 167 202 242 288
#     4   8  14  26  45  69  98 132 167 202 242 288
#     4  10  20  32  49  76 106 134 165 202 245 291
#     4  10  21  37  56  75  96 127 166 205 248 298
#     4  10  21  37  56  75  96 127 166 205 248 298
#
# _framework density 23.396184999999999
#
# number of rings (size 3 to 8) (size 9 to 14) (size 15 to 20)
#    0.000    2.667    0.000    3.000    0.000    5.333 
#    0.000    3.333    0.000    1.000    0.000    7.000 
#    0.000    0.000    0.000    0.000    0.000    0.000 
#
# Total GULP energy -134290.291263 kJ/mol
# GULP energy per Si atom -5595.428803 kJ/mol
# Density = 2.334293 g / cm^3
# Si number density = 23.396185 Si / 1000 Ang^3
#
#
#
# Elastic Constant Matrix: (Units=GPa)
#
#
# Indices 1 2 3 4 5 6 
#
# 1 142.5020 121.8234 12.7762 0.0000 0.2752 0.0000
# 2 121.8234 214.5544 10.0209 0.0000 2.8414 0.0000
# 3 12.7762 10.0209 59.2603 0.0000 7.1946 0.0000
# 4 0.0000 0.0000 0.0000 16.5204 0.0000 1.6421
# 5 0.2752 2.8414 7.1946 0.0000 39.4101 0.0000
# 6 0.0000 0.0000 0.0000 1.6421 0.0000 37.9697
#
#
#
# Elastic Compliance Matrix: (Units=1/GPa)
#
#
# Indices 1 2 3 4 5 6 
#
# 1 0.013821 -0.007776 -0.001760 0.000000 0.000785 0.000000
# 2 -0.007776 0.009074 0.000220 0.000000 -0.000640 0.000000
# 3 -0.001760 0.000220 0.017608 0.000000 -0.003218 0.000000
# 4 0.000000 0.000000 0.000000 0.060793 0.000000 -0.002629
# 5 0.000785 -0.000640 -0.003218 0.000000 0.026002 0.000000
# 6 0.000000 0.000000 0.000000 -0.002629 0.000000 0.026451
#
#
# Mechanical properties :
#
#
# Convention : Reuss Voigt Hill
#
# Bulk Modulus (GPa) = 45.72409 78.39529 62.05969
# Shear Modulus (GPa) = 27.82857 36.89310 32.36084
#
# Velocity S-wave (km/s) = 3.45258 3.97531 3.72313
# Velocity P-wave (km/s) = 5.95647 7.39265 6.71308
#
# Compressibility (1/GPa) = 0.02187031
#
# Stress axis : x y z
#
# Youngs Moduli (GPa) = 72.35245 110.20332 56.79324
#
# Poissons Ratio (x) = 0.85692 0.09997
# Poissons Ratio (y) = 0.56260 -0.01248
# Poissons Ratio (z) = 0.12736 -0.02421
#
# Static dielectric constant tensor:
#      x y z
#    x 1.804350 0.000000 -0.003040 
#    y 0.000000 1.837180 0.000000 
#    z -0.003040 0.000000 1.995180 
# 
# From -- ./inp_files/108734.got.cif
#   From: 2010.05.17/outbox.cif.g08.bks.cpg/sg12_55_cif.got.tgz:108734.got - 2010.06.03 13:09:07.
