data_PCOD9190994
_publ_section_title
;
Structure prediction by ZEFSAII (Michael W. Deem and Ramdas Pophale) SiO2 
 PCOD9190994
Probable space group: C 2/M
;
_chemical_formula_sum "Si O2"
_cell_formula_units_Z 40
_cell_length_a 14.373344
_cell_length_b 7.572159
_cell_length_c 20.238101
_cell_angle_alpha 90.000000
_cell_angle_beta 69.386490
_cell_angle_gamma 90.000000
_cell_volume 2061.637335
_symmetry_space_group_name_H-M "C 2/M"
_symmetry_group_IT_number 12
_symmetry_cell_setting 'monoclinic'
loop_
_space_group_symop_operation_xyz
x,y,z
-x,y,-z
-x,-y,-z
x,-y,z
1/2+x,1/2+y,z
1/2-x,1/2+y,-z
1/2-x,1/2-y,-z
1/2+x,1/2-y,z
loop_
_atom_site_type_symbol
_atom_site_label
_atom_site_fract_x
_atom_site_fract_y
_atom_site_fract_z
Si Si1 0.702657 0.706183 0.908885
Si Si2 0.092622 0.701389 0.811435
Si Si3 0.438307 0.000000 0.413115
Si Si4 0.900621 0.714459 0.934765
Si Si5 0.346396 0.000000 0.582491
Si Si6 0.812221 0.702328 0.345913
O O1 0.714987 0.500000 0.891490
O O2 0.675076 0.797871 0.847899
O O3 0.803028 0.771146 0.918583
O O4 0.617208 0.728338 0.985542
O O5 0.064497 0.500000 0.801147
O O6 0.135169 0.776551 0.733104
O O7 0.996966 0.781308 0.871975
O O8 0.394657 0.834034 0.382191
O O9 0.388258 0.000000 0.497562
O O10 0.556734 0.000000 0.394036
O O11 0.904187 0.500000 0.936073
O O12 0.276414 0.170213 0.610986
O O13 0.775503 0.500000 0.340925
#
# Coordination Sequence:
#
# PCOD9190994 Si02
#       6
#     8   8   4   8   4   8
#     4  10  20  32  51  78 102 141 193 237 281 342
#     4  10  20  36  53  74 109 148 184 232 294 347
#     4   9  22  42  65  99 126 159 212 246 299 383
#     4   9  19  35  52  70 105 148 185 234 290 336
#     4  11  20  42  71  91 126 171 196 252 315 357
#     4   9  22  40  59  94 130 157 205 257 299 370
#
# _framework density 19.402055000000001
#
# number of rings (size 3 to 8) (size 9 to 14) (size 15 to 20)
#    0.600    1.800    0.000    1.800    1.400    5.600 
#    1.800    1.000    0.000    0.000    0.000    0.000 
#    0.000    0.000    0.000    0.000    0.000    0.000 
#
# Total GULP energy -111464.773699 kJ/mol
# GULP energy per Si atom -5573.238685 kJ/mol
# Density = 1.935789 g / cm^3
# Si number density = 19.402055 Si / 1000 Ang^3
#
#
#
# Elastic Constant Matrix: (Units=GPa)
#
#
# Indices 1 2 3 4 5 6 
#
# 1 112.0290 20.3581 54.9379 0.0000 12.5601 0.0000
# 2 20.3581 66.4713 15.8836 0.0000 -3.6742 0.0000
# 3 54.9379 15.8836 118.0688 0.0000 18.5214 0.0000
# 4 0.0000 0.0000 0.0000 11.7735 0.0000 2.1465
# 5 12.5601 -3.6742 18.5214 0.0000 11.7387 0.0000
# 6 0.0000 0.0000 0.0000 2.1465 0.0000 23.1522
#
#
#
# Elastic Compliance Matrix: (Units=1/GPa)
#
#
# Indices 1 2 3 4 5 6 
#
# 1 0.012408 -0.003249 -0.004112 0.000000 -0.007805 0.000000
# 2 -0.003249 0.017509 -0.002988 0.000000 0.013672 0.000000
# 3 -0.004112 -0.002988 0.013610 0.000000 -0.018010 0.000000
# 4 0.000000 0.000000 0.000000 0.086397 0.000000 -0.008010
# 5 -0.007805 0.013672 -0.018010 0.000000 0.126235 0.000000
# 6 0.000000 0.000000 0.000000 -0.008010 0.000000 0.043935
#
#
# Mechanical properties :
#
#
# Convention : Reuss Voigt Hill
#
# Bulk Modulus (GPa) = 43.80499 53.21427 48.50963
# Shear Modulus (GPa) = 15.22520 23.02552 19.12536
#
# Velocity S-wave (km/s) = 2.80433 3.44867 3.14305
# Velocity P-wave (km/s) = 5.75432 6.58365 6.18290
#
# Compressibility (1/GPa) = 0.02282845
#
# Stress axis : x y z
#
# Youngs Moduli (GPa) = 80.59096 57.11361 73.47425
#
# Poissons Ratio (x) = 0.18557 0.30214
# Poissons Ratio (y) = 0.26185 0.21956
# Poissons Ratio (z) = 0.33140 0.17067
#
# Static dielectric constant tensor:
#      x y z
#    x 1.685530 0.000000 -0.009040 
#    y 0.000000 1.728690 0.000000 
#    z -0.009040 0.000000 1.669960 
# 
# From -- ./inp_files/307935.got.cif
#   From: 2010.05.17/outbox.cif.g08.bks.cpg/sg12_154_cif.got.tgz:307935.got - 2010.06.03 13:09:07.
