data_PCOD9190354
_publ_section_title
;
Structure prediction by ZEFSAII (Michael W. Deem and Ramdas Pophale) SiO2 
 PCOD9190354
Probable space group: C 2/M
;
_chemical_formula_sum "Si O2"
_cell_formula_units_Z 44
_cell_length_a 9.583884
_cell_length_b 17.557381
_cell_length_c 15.343582
_cell_angle_alpha 90.000000
_cell_angle_beta 91.368486
_cell_angle_gamma 90.000000
_cell_volume 2581.095967
_symmetry_space_group_name_H-M "C 2/M"
_symmetry_group_IT_number 12
_symmetry_cell_setting 'monoclinic'
loop_
_space_group_symop_operation_xyz
x,y,z
-x,y,-z
-x,-y,-z
x,-y,z
1/2+x,1/2+y,z
1/2-x,1/2+y,-z
1/2-x,1/2-y,-z
1/2+x,1/2-y,z
loop_
_atom_site_type_symbol
_atom_site_label
_atom_site_fract_x
_atom_site_fract_y
_atom_site_fract_z
Si Si1 0.463066 0.296308 0.174264
Si Si2 0.287254 0.407989 0.508165
Si Si3 0.508217 0.325892 0.622268
Si Si4 0.740068 0.193420 0.916719
Si Si5 0.347037 0.583821 0.043360
Si Si6 0.000000 0.318148 0.500000
O O1 0.468134 0.315125 0.275696
O O2 0.389761 0.217313 0.144538
O O3 0.618168 0.299106 0.136620
O O4 0.367623 0.358897 0.123605
O O5 0.289659 0.500000 0.506215
O O6 0.371816 0.374456 0.592620
O O7 0.369135 0.371242 0.426706
O O8 0.134776 0.371433 0.506256
O O9 0.494953 0.241691 0.580108
O O10 0.750000 0.250000 0.000000
O O11 0.743093 0.113113 0.966659
O O12 0.311523 0.500000 0.073053
O O13 0.500000 0.583205 0.000000
#
# Coordination Sequence:
#
# PCOD9190354 Si02
#       6
#     8   8   8   8   8   4
#     4  10  20  30  57  77 107 133 183 223 266 304
#     4  10  21  38  57  79 112 149 177 222 285 335
#     4  10  20  35  56  83 109 144 189 226 263 331
#     4   9  18  33  51  79 103 141 174 221 265 319
#     4   8  15  30  49  73 102 137 172 209 259 311
#     4  10  21  36  59  78 112 142 182 224 279 328
#
# _framework density 17.047021999999998
#
# number of rings (size 3 to 8) (size 9 to 14) (size 15 to 20)
#    0.000    2.727    0.000    5.182    5.091    1.455 
#    0.000    0.000    0.000    8.727    0.000    0.000 
#    0.000    0.000    0.000    0.000    0.000    0.000 
#
# Total GULP energy -122479.245684 kJ/mol
# GULP energy per Si atom -5567.238440 kJ/mol
# Density = 1.700822 g / cm^3
# Si number density = 17.047022 Si / 1000 Ang^3
#
#
#
# Elastic Constant Matrix: (Units=GPa)
#
#
# Indices 1 2 3 4 5 6 
#
# 1 80.8554 30.2083 34.3360 0.0000 14.0540 0.0000
# 2 30.2083 81.9593 41.4816 0.0000 10.7331 0.0000
# 3 34.3360 41.4816 143.0383 0.0000 23.1841 0.0000
# 4 0.0000 0.0000 0.0000 11.6705 0.0000 0.2313
# 5 14.0540 10.7331 23.1841 0.0000 7.3768 0.0000
# 6 0.0000 0.0000 0.0000 0.2313 0.0000 32.5711
#
#
#
# Elastic Compliance Matrix: (Units=1/GPa)
#
#
# Indices 1 2 3 4 5 6 
#
# 1 0.019644 -0.003253 0.003112 0.000000 -0.042473 0.000000
# 2 -0.003253 0.015809 -0.002202 0.000000 -0.009884 0.000000
# 3 0.003112 -0.002202 0.014930 0.000000 -0.049647 0.000000
# 4 0.000000 0.000000 0.000000 0.085698 0.000000 -0.000609
# 5 -0.042473 -0.009884 -0.049647 0.000000 0.386893 0.000000
# 6 0.000000 0.000000 0.000000 -0.000609 0.000000 0.030706
#
#
# Mechanical properties :
#
#
# Convention : Reuss Voigt Hill
#
# Bulk Modulus (GPa) = 21.88338 57.54499 39.71419
# Shear Modulus (GPa) = 8.71690 23.64547 16.18119
#
# Velocity S-wave (km/s) = 2.26375 3.72838 3.08427
# Velocity P-wave (km/s) = 4.43821 7.23632 6.00258
#
# Compressibility (1/GPa) = 0.04569677
#
# Stress axis : x y z
#
# Youngs Moduli (GPa) = 50.90576 63.25509 66.98131
#
# Poissons Ratio (x) = 0.20579 -0.20845
# Poissons Ratio (y) = 0.16562 0.14747
# Poissons Ratio (z) = -0.15842 0.13926
#
# Static dielectric constant tensor:
#      x y z
#    x 1.594430 0.000000 0.005860 
#    y 0.000000 1.601370 0.000000 
#    z 0.005860 0.000000 1.559850 
# 
# From -- ./inp_files/195525.got.cif
#   From: 2010.05.17/outbox.cif.g08.bks.cpg/sg12_98_cif.got.tgz:195525.got - 2010.06.03 13:09:07.
