data_PCOD9190891
_publ_section_title
;
Structure prediction by ZEFSAII (Michael W. Deem and Ramdas Pophale) SiO2 
 PCOD9190891
Probable space group: C 2/M
;
_chemical_formula_sum "Si O2"
_cell_formula_units_Z 32
_cell_length_a 12.094331
_cell_length_b 13.400271
_cell_length_c 16.708659
_cell_angle_alpha 90.000000
_cell_angle_beta 36.244486
_cell_angle_gamma 90.000000
_cell_volume 1601.013468
_symmetry_space_group_name_H-M "C 2/M"
_symmetry_group_IT_number 12
_symmetry_cell_setting 'monoclinic'
loop_
_space_group_symop_operation_xyz
x,y,z
-x,y,-z
-x,-y,-z
x,-y,z
1/2+x,1/2+y,z
1/2-x,1/2+y,-z
1/2-x,1/2-y,-z
1/2+x,1/2-y,z
loop_
_atom_site_type_symbol
_atom_site_label
_atom_site_fract_x
_atom_site_fract_y
_atom_site_fract_z
Si Si1 0.899609 0.382891 0.972502
Si Si2 0.035243 0.755152 0.211687
Si Si3 0.799629 0.886627 0.152005
Si Si4 0.784006 0.386750 0.614473
O O1 0.899745 0.500000 0.951274
O O2 0.995009 0.314463 0.848827
O O3 0.688649 0.340420 0.101450
O O4 0.000000 0.373359 0.000000
O O5 0.138304 0.684913 0.215098
O O6 0.847570 0.807512 0.351823
O O7 0.801680 0.888658 0.246135
O O8 0.765601 0.000000 0.143619
O O9 0.000000 0.855526 0.000000
O O10 0.777898 0.500000 0.584904
O O11 0.000000 0.359168 0.500000
#
# Coordination Sequence:
#
# PCOD9190891 Si02
#       4
#     8   8   8   8
#     4  10  20  32  49  79 112 135 165 215 268 313
#     4  11  19  32  55  77 101 140 180 213 258 312
#     4  10  20  35  56  82 109 137 174 218 262 312
#     4  10  22  38  54  76 107 141 178 219 262 311
#
# _framework density 19.98734
#
# number of rings (size 3 to 8) (size 9 to 14) (size 15 to 20)
#    0.000    1.750    0.000    6.750    0.000    3.000 
#    0.000    0.000    0.000    3.750    0.000    0.000 
#    0.000    0.000    0.000    0.000    0.000    0.000 
#
# Total GULP energy -89398.074953 kJ/mol
# GULP energy per Si atom -5587.379685 kJ/mol
# Density = 1.994185 g / cm^3
# Si number density = 19.987340 Si / 1000 Ang^3
#
#
#
# Elastic Constant Matrix: (Units=GPa)
#
#
# Indices 1 2 3 4 5 6 
#
# 1 74.6482 35.6361 5.4678 -0.0001 -17.8939 0.0000
# 2 35.6361 147.3275 30.7829 -0.0004 -39.5032 0.0001
# 3 5.4678 30.7829 59.6809 -0.0014 -28.8484 0.0005
# 4 -0.0001 -0.0004 -0.0014 16.5906 0.0003 -0.2978
# 5 -17.8939 -39.5032 -28.8484 0.0003 34.7720 0.0000
# 6 0.0000 0.0001 0.0005 -0.2978 0.0000 15.6283
#
#
#
# Elastic Compliance Matrix: (Units=1/GPa)
#
#
# Indices 1 2 3 4 5 6 
#
# 1 0.016436 -0.002375 0.004179 0.000000 0.009228 0.000000
# 2 -0.002375 0.010115 -0.000060 0.000000 0.010219 0.000000
# 3 0.004179 -0.000060 0.029068 0.000002 0.026199 -0.000001
# 4 0.000000 0.000000 0.000002 0.060296 0.000001 0.001149
# 5 0.009228 0.010219 0.026199 0.000001 0.066853 -0.000001
# 6 0.000000 0.000000 -0.000001 0.001149 -0.000001 0.064008
#
#
# Mechanical properties :
#
#
# Convention : Reuss Voigt Hill
#
# Bulk Modulus (GPa) = 16.91813 47.27002 32.09408
# Shear Modulus (GPa) = 19.01236 27.38284 23.19760
#
# Velocity S-wave (km/s) = 3.08753 3.70538 3.41048
# Velocity P-wave (km/s) = 4.60361 6.48134 5.62143
#
# Compressibility (1/GPa) = 0.05910818
#
# Stress axis : x y z
#
# Youngs Moduli (GPa) = 60.84370 98.86750 34.40266
#
# Poissons Ratio (x) = 0.23476 -0.14378
# Poissons Ratio (y) = 0.14447 0.00205
# Poissons Ratio (z) = -0.25429 0.00590
#
# Static dielectric constant tensor:
#      x y z
#    x 1.745810 0.000000 0.008000 
#    y 0.000000 1.750980 0.000000 
#    z 0.008000 0.000000 1.695510 
# 
# From -- ./inp_files/57820.got.cif
#   From: 2010.05.17/outbox.cif.g08.bks.cpg/sg12_29_cif.got.tgz:57820.got - 2010.06.03 13:09:07.
