data_PCOD9190205
_publ_section_title
;
Structure prediction by ZEFSAII (Michael W. Deem and Ramdas Pophale) SiO2 
 PCOD9190205
Probable space group: C 2/M
;
_chemical_formula_sum "Si O2"
_cell_formula_units_Z 32
_cell_length_a 18.807313
_cell_length_b 14.125739
_cell_length_c 12.023479
_cell_angle_alpha 90.000000
_cell_angle_beta 31.688324
_cell_angle_gamma 90.000000
_cell_volume 1677.930775
_symmetry_space_group_name_H-M "C 2/M"
_symmetry_group_IT_number 12
_symmetry_cell_setting 'monoclinic'
loop_
_space_group_symop_operation_xyz
x,y,z
-x,y,-z
-x,-y,-z
x,-y,z
1/2+x,1/2+y,z
1/2-x,1/2+y,-z
1/2-x,1/2-y,-z
1/2+x,1/2-y,z
loop_
_atom_site_type_symbol
_atom_site_label
_atom_site_fract_x
_atom_site_fract_y
_atom_site_fract_z
Si Si1 0.000000 0.161783 0.500000
Si Si2 0.409507 0.204746 0.421648
Si Si3 0.288547 0.500000 0.773000
Si Si4 0.986629 0.500000 0.268080
Si Si5 0.779977 0.000000 0.518451
Si Si6 0.105889 0.178920 0.764502
O O1 0.033129 0.227219 0.560937
O O2 0.125651 0.092323 0.306821
O O3 0.246073 0.210677 0.635324
O O4 0.449688 0.240396 0.244298
O O5 0.455838 0.096740 0.374907
O O6 0.285610 0.500000 0.642877
O O7 0.138650 0.500000 0.021173
O O8 0.874483 0.500000 0.318905
O O9 0.853116 0.091209 0.368438
O O10 0.000000 0.153139 0.000000
#
# Coordination Sequence:
#
# PCOD9190205 Si02
#       6
#     4   8   4   4   4   8
#     4  11  24  43  62  88 134 163 204 257 314 376
#     4  10  23  41  61  94 128 161 210 258 301 382
#     4  11  23  41  65  94 123 168 203 262 310 366
#     4  10  24  39  65  93 123 166 210 257 311 354
#     4  10  19  41  64  95 126 153 216 263 297 375
#     4  10  21  38  65  93 124 164 207 257 315 359
#
# _framework density 19.071107999999999
#
# number of rings (size 3 to 8) (size 9 to 14) (size 15 to 20)
#    0.000    1.750    2.500    0.750    3.500    1.500 
#    0.000    0.000    0.000    0.000    0.000    0.000 
#    0.000    0.000    0.000    0.000    0.000    0.000 
#
# Total GULP energy -89382.643659 kJ/mol
# GULP energy per Si atom -5586.415229 kJ/mol
# Density = 1.902770 g / cm^3
# Si number density = 19.071108 Si / 1000 Ang^3
#
#
#
# Elastic Constant Matrix: (Units=GPa)
#
#
# Indices 1 2 3 4 5 6 
#
# 1 103.8660 66.5640 44.1549 0.0000 -0.9974 0.0000
# 2 66.5640 152.1364 34.3692 0.0000 -6.6386 0.0000
# 3 44.1549 34.3692 88.4833 0.0000 -1.6712 0.0000
# 4 0.0000 0.0000 0.0000 10.9007 0.0000 2.8744
# 5 -0.9974 -6.6386 -1.6712 0.0000 9.7568 0.0000
# 6 0.0000 0.0000 0.0000 2.8744 0.0000 49.3010
#
#
#
# Elastic Compliance Matrix: (Units=1/GPa)
#
#
# Indices 1 2 3 4 5 6 
#
# 1 0.015667 -0.005719 -0.005658 0.000000 -0.003259 0.000000
# 2 -0.005719 0.009489 -0.000724 0.000000 0.005748 0.000000
# 3 -0.005658 -0.000724 0.014433 0.000000 0.001401 0.000000
# 4 0.000000 0.000000 0.000000 0.093170 0.000000 -0.005432
# 5 -0.003259 0.005748 0.001401 0.000000 0.106311 0.000000
# 6 0.000000 0.000000 0.000000 -0.005432 0.000000 0.020600
#
#
# Mechanical properties :
#
#
# Convention : Reuss Voigt Hill
#
# Bulk Modulus (GPa) = 64.98675 70.51798 67.75236
# Shear Modulus (GPa) = 17.30104 27.28487 22.29295
#
# Velocity S-wave (km/s) = 3.01522 3.78655 3.42268
# Velocity P-wave (km/s) = 6.80236 7.49493 7.15702
#
# Compressibility (1/GPa) = 0.01538775
#
# Stress axis : x y z
#
# Youngs Moduli (GPa) = 63.82943 105.38078 69.28689
#
# Poissons Ratio (x) = 0.60263 0.39205
# Poissons Ratio (y) = 0.36501 0.05014
# Poissons Ratio (z) = 0.36117 0.07626
#
# Static dielectric constant tensor:
#      x y z
#    x 1.640830 0.000000 -0.014760 
#    y 0.000000 1.702880 0.000000 
#    z -0.014760 0.000000 1.628430 
# 
# From -- ./inp_files/45292.got.cif
#   From: 2010.05.17/outbox.cif.g08.bks.cpg/sg12_23_cif.got.tgz:45292.got - 2010.06.03 13:09:07.
