data_PCOD9190598
_publ_section_title
;
Structure prediction by ZEFSAII (Michael W. Deem and Ramdas Pophale) SiO2 
 PCOD9190598
Probable space group: C 2/M
;
_chemical_formula_sum "Si O2"
_cell_formula_units_Z 56
_cell_length_a 8.574557
_cell_length_b 29.568982
_cell_length_c 18.466167
_cell_angle_alpha 90.000000
_cell_angle_beta 134.147477
_cell_angle_gamma 90.000000
_cell_volume 3359.515331
_symmetry_space_group_name_H-M "C 2/M"
_symmetry_group_IT_number 12
_symmetry_cell_setting 'monoclinic'
loop_
_space_group_symop_operation_xyz
x,y,z
-x,y,-z
-x,-y,-z
x,-y,z
1/2+x,1/2+y,z
1/2-x,1/2+y,-z
1/2-x,1/2-y,-z
1/2+x,1/2-y,z
loop_
_atom_site_type_symbol
_atom_site_label
_atom_site_fract_x
_atom_site_fract_y
_atom_site_fract_z
Si Si1 0.512106 0.449132 0.882744
Si Si2 0.136125 0.449132 0.882738
Si Si3 0.811324 0.300967 0.000000
Si Si4 0.772980 0.300597 0.390292
Si Si5 0.016845 0.857562 0.803189
Si Si6 0.897897 0.199406 0.390292
Si Si7 0.607272 0.142439 0.196813
O O1 0.516314 0.500000 0.853007
O O2 0.320594 0.447825 0.880393
O O3 0.479244 0.408413 0.817244
O O4 0.735986 0.442253 0.000004
O O5 0.042706 0.500000 0.852999
O O6 0.972492 0.408412 0.817238
O O7 0.609716 0.328002 0.899960
O O8 0.750000 0.250000 0.000000
O O9 0.000000 0.299781 0.000000
O O10 0.909831 0.328002 0.100039
O O11 0.688273 0.333484 0.300059
O O12 0.806174 0.250002 0.370780
O O13 0.589740 0.299009 0.393159
O O14 0.000000 0.314669 0.500000
O O15 0.206702 0.857913 0.804466
O O16 0.711900 0.166519 0.300059
O O17 0.000000 0.185334 0.500000
#
# Coordination Sequence:
#
# PCOD9190598 Si02
#       7
#     8   8   8   8   8   8   8
#     4   9  18  32  50  74 102 131 165 202 243 296
#     4   9  18  32  50  74 102 131 165 202 243 296
#     4  10  20  32  45  68 101 131 160 195 239 292
#     4  10  20  34  52  74  99 131 171 210 246 291
#     4  10  20  33  50  73 101 131 165 203 246 295
#     4  10  20  34  52  74  99 131 171 210 246 291
#     4  10  20  33  50  73 101 131 165 203 246 295
#
# _framework density 16.669070000000001
#
# number of rings (size 3 to 8) (size 9 to 14) (size 15 to 20)
#    0.000    2.286    1.429    3.429    0.000    4.000 
#    0.000    1.429    0.000    0.857    0.000    0.000 
#    0.000    0.000    0.000    0.000    0.000    0.000 
#
# Total GULP energy -156217.997427 kJ/mol
# GULP energy per Si atom -5579.214194 kJ/mol
# Density = 1.663113 g / cm^3
# Si number density = 16.669070 Si / 1000 Ang^3
#
#
#
# Elastic Constant Matrix: (Units=GPa)
#
#
# Indices 1 2 3 4 5 6 
#
# 1 17.8977 24.0970 30.9308 0.0000 -0.6573 0.0000
# 2 24.0970 153.4165 106.6904 0.0000 -0.9361 0.0000
# 3 30.9308 106.6904 145.7240 0.0000 -0.7909 0.0000
# 4 0.0000 0.0000 0.0000 22.6356 0.0000 0.1091
# 5 -0.6573 -0.9361 -0.7909 0.0000 22.4774 0.0000
# 6 0.0000 0.0000 0.0000 0.1091 0.0000 32.3203
#
#
#
# Elastic Compliance Matrix: (Units=1/GPa)
#
#
# Indices 1 2 3 4 5 6 
#
# 1 0.088542 -0.001697 -0.017540 0.000000 0.001901 0.000000
# 2 -0.001697 0.013313 -0.009386 0.000000 0.000175 0.000000
# 3 -0.017540 -0.009386 0.017455 0.000000 -0.000290 0.000000
# 4 0.000000 0.000000 0.000000 0.044179 0.000000 -0.000149
# 5 0.001901 0.000175 -0.000290 0.000000 0.044542 0.000000
# 6 0.000000 0.000000 0.000000 -0.000149 0.000000 0.030941
#
#
# Mechanical properties :
#
#
# Convention : Reuss Voigt Hill
#
# Bulk Modulus (GPa) = 16.11270 71.16385 43.63827
# Shear Modulus (GPa) = 15.77753 25.84133 20.80943
#
# Velocity S-wave (km/s) = 3.07989 3.94160 3.53708
# Velocity P-wave (km/s) = 4.72597 7.96868 6.55113
#
# Compressibility (1/GPa) = 0.06206286
#
# Stress axis : x y z
#
# Youngs Moduli (GPa) = 11.29413 75.11455 57.28862
#
# Poissons Ratio (x) = 0.12750 1.00487
# Poissons Ratio (y) = 0.01917 0.53770
# Poissons Ratio (z) = 0.19810 0.70501
#
# Static dielectric constant tensor:
#      x y z
#    x 1.571690 0.000000 0.000170 
#    y 0.000000 1.542510 0.000000 
#    z 0.000170 0.000000 1.557180 
# 
# From -- ./inp_files/125338.got.cif
#   From: 2010.05.17/outbox.cif.g08.bks.cpg/sg12_63_cif.got.tgz:125338.got - 2010.06.03 13:09:07.
