data_PCOD9190960
_publ_section_title
;
Structure prediction by ZEFSAII (Michael W. Deem and Ramdas Pophale) SiO2 
 PCOD9190960
Probable space group: C 2/M
;
_chemical_formula_sum "Si O2"
_cell_formula_units_Z 48
_cell_length_a 22.388658
_cell_length_b 13.741352
_cell_length_c 13.813798
_cell_angle_alpha 90.000000
_cell_angle_beta 39.020274
_cell_angle_gamma 90.000000
_cell_volume 2675.667448
_symmetry_space_group_name_H-M "C 2/M"
_symmetry_group_IT_number 12
_symmetry_cell_setting 'monoclinic'
loop_
_space_group_symop_operation_xyz
x,y,z
-x,y,-z
-x,-y,-z
x,-y,z
1/2+x,1/2+y,z
1/2-x,1/2+y,-z
1/2-x,1/2-y,-z
1/2+x,1/2-y,z
loop_
_atom_site_type_symbol
_atom_site_label
_atom_site_fract_x
_atom_site_fract_y
_atom_site_fract_z
Si Si1 0.052721 0.116649 0.635780
Si Si2 0.337828 0.383094 0.849681
Si Si3 0.216153 0.194060 0.292984
Si Si4 0.726890 0.389222 0.863761
Si Si5 0.976162 0.812980 0.916683
Si Si6 0.416260 0.891223 0.026710
O O1 0.133247 0.164412 0.469340
O O2 0.947136 0.146297 0.732219
O O3 0.056145 0.149778 0.743283
O O4 0.060200 0.000000 0.619340
O O5 0.338251 0.500000 0.846800
O O6 0.304527 0.345880 0.788507
O O7 0.271211 0.357768 0.025325
O O8 0.226697 0.309650 0.264206
O O9 0.316000 0.144336 0.197372
O O10 0.760071 0.500000 0.811331
O O11 0.614523 0.382179 0.983136
O O12 0.945933 0.702459 0.925752
O O13 0.000000 0.812751 0.000000
O O14 0.405054 0.000000 0.997885
O O15 0.500000 0.898155 0.000000
#
# Coordination Sequence:
#
# PCOD9190960 Si02
#       6
#     8   8   8   8   8   8
#     4  10  20  32  50  79 105 124 161 214 253 288
#     4   9  17  31  52  76 101 129 162 202 248 295
#     4  11  19  31  53  76 101 133 165 202 254 297
#     4   9  19  33  49  73 102 131 167 207 242 291
#     4   9  18  34  54  72  95 132 170 204 249 296
#     4   9  18  33  51  72 100 131 165 203 239 289
#
# _framework density 17.939449
#
# number of rings (size 3 to 8) (size 9 to 14) (size 15 to 20)
#    0.000    2.500    0.000    4.000    0.000    2.667 
#    0.000    8.333    0.000    6.000    0.000    0.000 
#    0.000    0.000    0.000    0.000    0.000    0.000 
#
# Total GULP energy -133661.227389 kJ/mol
# GULP energy per Si atom -5569.217808 kJ/mol
# Density = 1.789862 g / cm^3
# Si number density = 17.939449 Si / 1000 Ang^3
#
#
#
# Elastic Constant Matrix: (Units=GPa)
#
#
# Indices 1 2 3 4 5 6 
#
# 1 40.6254 5.5938 2.8611 0.0000 2.6281 0.0000
# 2 5.5938 98.4444 41.8413 0.0000 6.5092 0.0000
# 3 2.8611 41.8413 66.2008 0.0000 2.8416 0.0000
# 4 0.0000 0.0000 0.0000 16.2872 0.0000 1.0047
# 5 2.6281 6.5092 2.8416 0.0000 20.9539 0.0000
# 6 0.0000 0.0000 0.0000 1.0047 0.0000 21.3731
#
#
#
# Elastic Compliance Matrix: (Units=1/GPa)
#
#
# Indices 1 2 3 4 5 6 
#
# 1 0.024966 -0.001133 -0.000245 0.000000 -0.002746 0.000000
# 2 -0.001133 0.014149 -0.008762 0.000000 -0.003065 0.000000
# 3 -0.000245 -0.008762 0.020656 0.000000 -0.000049 0.000000
# 4 0.000000 0.000000 0.000000 0.061577 0.000000 -0.002895
# 5 -0.002746 -0.003065 -0.000049 0.000000 0.049027 0.000000
# 6 0.000000 0.000000 0.000000 -0.002895 0.000000 0.046924
#
#
# Mechanical properties :
#
#
# Convention : Reuss Voigt Hill
#
# Bulk Modulus (GPa) = 25.32220 33.98479 29.65349
# Shear Modulus (GPa) = 19.94070 22.05445 20.99757
#
# Velocity S-wave (km/s) = 3.33762 3.51006 3.42492
# Velocity P-wave (km/s) = 5.38507 5.95085 5.67501
#
# Compressibility (1/GPa) = 0.03949104
#
# Stress axis : x y z
#
# Youngs Moduli (GPa) = 40.05441 70.67503 48.41124
#
# Poissons Ratio (x) = 0.08007 0.01187
# Poissons Ratio (y) = 0.04538 0.42420
# Poissons Ratio (z) = 0.00982 0.61928
#
# Static dielectric constant tensor:
#      x y z
#    x 1.654480 0.000000 0.000300 
#    y 0.000000 1.657070 0.000000 
#    z 0.000300 0.000000 1.596850 
# 
# From -- ./inp_files/240610.got.cif
#   From: 2010.05.17/outbox.cif.g08.bks.cpg/sg12_121_cif.got.tgz:240610.got - 2010.06.03 13:09:07.
