data_PCOD9190140
_publ_section_title
;
Structure prediction by ZEFSAII (Michael W. Deem and Ramdas Pophale) SiO2 
 PCOD9190140
Probable space group: C 2/M
;
_chemical_formula_sum "Si O2"
_cell_formula_units_Z 48
_cell_length_a 14.590884
_cell_length_b 14.483641
_cell_length_c 10.512672
_cell_angle_alpha 90.000000
_cell_angle_beta 104.978167
_cell_angle_gamma 90.000000
_cell_volume 2146.152400
_symmetry_space_group_name_H-M "C 2/M"
_symmetry_group_IT_number 12
_symmetry_cell_setting 'monoclinic'
loop_
_space_group_symop_operation_xyz
x,y,z
-x,y,-z
-x,-y,-z
x,-y,z
1/2+x,1/2+y,z
1/2-x,1/2+y,-z
1/2-x,1/2-y,-z
1/2+x,1/2-y,z
loop_
_atom_site_type_symbol
_atom_site_label
_atom_site_fract_x
_atom_site_fract_y
_atom_site_fract_z
Si Si1 0.862952 0.000000 0.814857
Si Si2 0.739786 0.000000 0.515090
Si Si3 0.691477 0.807778 0.581442
Si Si4 0.350273 0.500000 0.286004
Si Si5 0.882180 0.195194 0.788943
Si Si6 0.448342 0.301071 0.300531
Si Si7 0.854228 0.295586 0.026171
Si Si8 0.213113 0.500000 0.988701
O O1 0.820646 0.000000 0.655369
O O2 0.917605 0.095554 0.850617
O O3 0.781109 0.000000 0.890643
O O4 0.678628 0.091373 0.517807
O O5 0.789988 0.000000 0.395772
O O6 0.750000 0.750000 0.500000
O O7 0.769998 0.815170 0.722681
O O8 0.601188 0.758238 0.607943
O O9 0.413136 0.406626 0.303623
O O10 0.278717 0.500000 0.139606
O O11 0.939307 0.208678 0.679008
O O12 0.892713 0.271372 0.900024
O O13 0.411882 0.256948 0.155381
O O14 0.750000 0.250000 0.000000
O O15 0.846000 0.405376 0.037307
#
# Coordination Sequence:
#
# PCOD9190140 Si02
#       8
#     4   4   8   4   8   8   8   4
#     4  10  19  40  62  96 131 163 202 272 331 392
#     4  10  22  38  66  92 128 167 216 255 327 387
#     4  11  22  42  63  88 128 171 209 260 319 382
#     4  12  21  38  64 103 126 162 214 276 326 387
#     4  11  23  40  64  97 129 164 212 266 323 383
#     4  12  24  40  66  96 130 166 215 264 327 381
#     4  12  21  41  64  94 128 168 210 259 320 387
#     4  12  22  38  73  90 128 175 218 257 329 390
#
# _framework density 22.365607000000001
#
# number of rings (size 3 to 8) (size 9 to 14) (size 15 to 20)
#    0.000    0.667    6.667    2.000    0.000    0.667 
#    0.000    6.667    0.000    1.000    0.000    0.000 
#    0.000    0.000    0.000    0.000    0.000    0.000 
#
# Total GULP energy -134206.422316 kJ/mol
# GULP energy per Si atom -5591.934263 kJ/mol
# Density = 2.231470 g / cm^3
# Si number density = 22.365607 Si / 1000 Ang^3
#
#
#
# Elastic Constant Matrix: (Units=GPa)
#
#
# Indices 1 2 3 4 5 6 
#
# 1 90.9911 38.7825 33.1535 0.0000 -33.3727 0.0000
# 2 38.7825 195.9498 45.7202 0.0000 -39.4642 0.0000
# 3 33.1535 45.7202 136.1403 0.0000 -34.1016 0.0000
# 4 0.0000 0.0000 0.0000 34.8224 0.0000 -12.1318
# 5 -33.3727 -39.4642 -34.1016 0.0000 50.0706 0.0000
# 6 0.0000 0.0000 0.0000 -12.1318 0.0000 12.0234
#
#
#
# Elastic Compliance Matrix: (Units=1/GPa)
#
#
# Indices 1 2 3 4 5 6 
#
# 1 0.014909 -0.000990 -0.001211 0.000000 0.008332 0.000000
# 2 -0.000990 0.006250 -0.000952 0.000000 0.003618 0.000000
# 3 -0.001211 -0.000952 0.009127 0.000000 0.004659 0.000000
# 4 0.000000 0.000000 0.000000 0.044285 0.000000 0.044684
# 5 0.008332 0.003618 0.004659 0.000000 0.031550 0.000000
# 6 0.000000 0.000000 0.000000 0.044684 0.000000 0.128258
#
#
# Mechanical properties :
#
#
# Convention : Reuss Voigt Hill
#
# Bulk Modulus (GPa) = 41.70087 73.15483 57.42785
# Shear Modulus (GPa) = 20.10633 39.74495 29.92564
#
# Velocity S-wave (km/s) = 3.00156 4.22009 3.66186
# Velocity P-wave (km/s) = 5.54058 7.51832 6.60391
#
# Compressibility (1/GPa) = 0.02398032
#
# Stress axis : x y z
#
# Youngs Moduli (GPa) = 67.07207 159.99945 109.56682
#
# Poissons Ratio (x) = 0.15843 0.13271
# Poissons Ratio (y) = 0.06642 0.10426
# Poissons Ratio (z) = 0.08124 0.15225
#
# Static dielectric constant tensor:
#      x y z
#    x 1.895020 0.000000 0.039870 
#    y 0.000000 1.819650 0.000000 
#    z 0.039870 0.000000 1.861590 
# 
# From -- ./inp_files/142936.got.cif
#   From: 2010.05.17/outbox.cif.g08.bks.cpg/sg12_72_cif.got.tgz:142936.got - 2010.06.03 13:09:07.
