data_PCOD9190314
_publ_section_title
;
Structure prediction by ZEFSAII (Michael W. Deem and Ramdas Pophale) SiO2 
 PCOD9190314
Probable space group: C 2/M
;
_chemical_formula_sum "Si O2"
_cell_formula_units_Z 56
_cell_length_a 8.418873
_cell_length_b 28.099649
_cell_length_c 16.626226
_cell_angle_alpha 90.000000
_cell_angle_beta 54.624434
_cell_angle_gamma 90.000000
_cell_volume 3207.050477
_symmetry_space_group_name_H-M "C 2/M"
_symmetry_group_IT_number 12
_symmetry_cell_setting 'monoclinic'
loop_
_space_group_symop_operation_xyz
x,y,z
-x,y,-z
-x,-y,-z
x,-y,z
1/2+x,1/2+y,z
1/2-x,1/2+y,-z
1/2-x,1/2-y,-z
1/2+x,1/2-y,z
loop_
_atom_site_type_symbol
_atom_site_label
_atom_site_fract_x
_atom_site_fract_y
_atom_site_fract_z
Si Si1 0.718384 0.199739 0.049194
Si Si2 0.432587 0.746743 0.321588
Si Si3 0.362536 0.945809 0.960042
Si Si4 0.311859 0.306132 0.204663
Si Si5 0.593554 0.619977 0.120553
Si Si6 0.114708 0.821030 0.392395
Si Si7 0.875971 0.366984 0.186391
O O1 0.817362 0.201284 0.107553
O O2 0.497224 0.180337 0.125751
O O3 0.750000 0.250000 0.000000
O O4 0.811821 0.161105 0.962424
O O5 0.441806 0.724967 0.228356
O O6 0.598061 0.786418 0.287085
O O7 0.233543 0.775229 0.390611
O O8 0.471613 0.702365 0.368215
O O9 0.464953 0.909406 0.867497
O O10 0.355460 0.000000 0.934104
O O11 0.500000 0.943727 0.000000
O O12 0.153476 0.926752 0.053086
O O13 0.375186 0.361048 0.197863
O O14 0.710617 0.621067 0.169582
O O15 0.267072 0.854780 0.301028
O O16 0.000000 0.843518 0.500000
#
# Coordination Sequence:
#
# PCOD9190314 Si02
#       7
#     8   8   8   8   8   8   8
#     4  11  22  29  45  71 104 140 171 198 240 288
#     4  10  22  33  49  67  96 144 172 207 252 284
#     4   8  16  33  54  76 102 130 161 200 251 311
#     4  11  20  32  45  66 104 134 176 206 235 285
#     4  10  20  30  47  74 100 133 167 200 235 300
#     4  11  21  37  53  69  96 132 177 219 255 296
#     4  10  20  34  50  74  98 128 171 213 255 292
#
# _framework density 17.461527
#
# number of rings (size 3 to 8) (size 9 to 14) (size 15 to 20)
#    0.000    1.857    2.857    3.000    4.000    2.286 
#    0.000    0.000    0.000    7.286    0.000    0.000 
#    0.000    0.000    0.000   12.286    0.000    0.000 
#
# Total GULP energy -156005.677577 kJ/mol
# GULP energy per Si atom -5571.631342 kJ/mol
# Density = 1.742178 g / cm^3
# Si number density = 17.461527 Si / 1000 Ang^3
#
#
#
# Elastic Constant Matrix: (Units=GPa)
#
#
# Indices 1 2 3 4 5 6 
#
# 1 49.5763 5.2578 8.3089 0.0000 6.5175 0.0000
# 2 5.2578 84.2980 22.8035 0.0000 -2.1021 0.0000
# 3 8.3089 22.8035 84.0586 0.0000 -3.9965 0.0000
# 4 0.0000 0.0000 0.0000 14.9997 0.0000 -2.3193
# 5 6.5175 -2.1021 -3.9965 0.0000 14.6578 0.0000
# 6 0.0000 0.0000 0.0000 -2.3193 0.0000 13.9774
#
#
#
# Elastic Compliance Matrix: (Units=1/GPa)
#
#
# Indices 1 2 3 4 5 6 
#
# 1 0.022077 -0.000987 -0.002419 0.000000 -0.010617 0.000000
# 2 -0.000987 0.012858 -0.003325 0.000000 0.001376 0.000000
# 3 -0.002419 -0.003325 0.013238 0.000000 0.004208 0.000000
# 4 0.000000 0.000000 0.000000 0.068423 0.000000 0.011354
# 5 -0.010617 0.001376 0.004208 0.000000 0.074289 0.000000
# 6 0.000000 0.000000 0.000000 0.011354 0.000000 0.073428
#
#
# Mechanical properties :
#
#
# Convention : Reuss Voigt Hill
#
# Bulk Modulus (GPa) = 28.81064 32.29704 30.55384
# Shear Modulus (GPa) = 17.28036 20.83117 19.05576
#
# Velocity S-wave (km/s) = 3.14924 3.45769 3.30707
# Velocity P-wave (km/s) = 5.45518 5.87172 5.66728
#
# Compressibility (1/GPa) = 0.03470940
#
# Stress axis : x y z
#
# Youngs Moduli (GPa) = 45.29628 77.77219 75.54182
#
# Poissons Ratio (x) = 0.07679 0.18275
# Poissons Ratio (y) = 0.04472 0.25119
# Poissons Ratio (z) = 0.10958 0.25860
#
# Static dielectric constant tensor:
#      x y z
#    x 1.686470 0.000000 -0.033660 
#    y 0.000000 1.598690 0.000000 
#    z -0.033660 0.000000 1.638210 
# 
# From -- ./inp_files/199692.got.cif
#   From: 2010.05.17/outbox.cif.g08.bks.cpg/sg12_100_cif.got.tgz:199692.got - 2010.06.03 13:09:07.
