data_PCOD9190878
_publ_section_title
;
Structure prediction by ZEFSAII (Michael W. Deem and Ramdas Pophale) SiO2 
 PCOD9190878
Probable space group: C 2/M
;
_chemical_formula_sum "Si O2"
_cell_formula_units_Z 48
_cell_length_a 13.147526
_cell_length_b 13.503963
_cell_length_c 22.393866
_cell_angle_alpha 90.000000
_cell_angle_beta 148.222222
_cell_angle_gamma 90.000000
_cell_volume 2093.807518
_symmetry_space_group_name_H-M "C 2/M"
_symmetry_group_IT_number 12
_symmetry_cell_setting 'monoclinic'
loop_
_space_group_symop_operation_xyz
x,y,z
-x,y,-z
-x,-y,-z
x,-y,z
1/2+x,1/2+y,z
1/2-x,1/2+y,-z
1/2-x,1/2-y,-z
1/2+x,1/2-y,z
loop_
_atom_site_type_symbol
_atom_site_label
_atom_site_fract_x
_atom_site_fract_y
_atom_site_fract_z
Si Si1 0.149506 0.381358 0.942648
Si Si2 0.277770 0.298541 0.592271
Si Si3 0.858217 0.616735 0.701264
Si Si4 0.426116 0.267818 0.354821
Si Si5 0.857702 0.268099 0.882626
Si Si6 0.439891 0.618210 0.179850
O O1 0.144942 0.500000 0.941551
O O2 0.064118 0.355251 0.835050
O O3 0.994647 0.340633 0.912621
O O4 0.358587 0.350772 0.073470
O O5 0.322283 0.181995 0.625486
O O6 0.420794 0.327287 0.610179
O O7 0.353929 0.346878 0.691642
O O8 0.058545 0.303060 0.461478
O O9 0.848304 0.500000 0.687648
O O10 0.693604 0.655694 0.664526
O O11 0.277418 0.216661 0.234239
O O12 0.714046 0.335114 0.850796
O O13 0.000000 0.212529 0.000000
O O14 0.434531 0.500000 0.179723
#
# Coordination Sequence:
#
# PCOD9190878 Si02
#       6
#     8   8   8   8   8   8
#     4   8  14  25  44  73 102 128 167 215 257 305
#     4  10  20  32  49  76 110 141 175 216 261 315
#     4  10  20  35  57  81 106 139 177 219 268 315
#     4   9  19  33  47  71 108 138 170 216 258 305
#     4   8  13  24  45  70  97 130 166 209 263 311
#     4   9  16  27  45  70 103 139 170 208 261 312
#
# _framework density 22.924742999999999
#
# number of rings (size 3 to 8) (size 9 to 14) (size 15 to 20)
#    0.000    3.000    0.000    1.000    0.000    8.000 
#    0.000    4.167    0.000    3.000    0.000    0.000 
#    0.000   82.000    0.000    0.000    0.000    0.000 
#
# Total GULP energy -133807.224929 kJ/mol
# GULP energy per Si atom -5575.301039 kJ/mol
# Density = 2.287257 g / cm^3
# Si number density = 22.924743 Si / 1000 Ang^3
#
#
#
# Elastic Constant Matrix: (Units=GPa)
#
#
# Indices 1 2 3 4 5 6 
#
# 1 35.8281 18.9405 21.1885 0.0001 2.3090 0.0000
# 2 18.9405 65.4850 22.5652 0.0001 6.3059 0.0000
# 3 21.1885 22.5652 245.8452 0.0007 -11.7607 0.0002
# 4 0.0001 0.0001 0.0007 28.2186 0.0001 -1.0206
# 5 2.3090 6.3059 -11.7607 0.0001 35.4265 0.0000
# 6 0.0000 0.0000 0.0002 -1.0206 0.0000 4.9048
#
#
#
# Elastic Compliance Matrix: (Units=1/GPa)
#
#
# Indices 1 2 3 4 5 6 
#
# 1 0.034021 -0.008962 -0.002174 0.000000 -0.001344 0.000000
# 2 -0.008962 0.018529 -0.001075 0.000000 -0.003071 0.000000
# 3 -0.002174 -0.001075 0.004440 0.000000 0.001807 0.000000
# 4 0.000000 0.000000 0.000000 0.035706 0.000000 0.007430
# 5 -0.001344 -0.003071 0.001807 0.000000 0.029462 0.000000
# 6 0.000000 0.000000 0.000000 0.007430 0.000000 0.205427
#
#
# Mechanical properties :
#
#
# Convention : Reuss Voigt Hill
#
# Bulk Modulus (GPa) = 30.70445 52.50518 41.60482
# Shear Modulus (GPa) = 13.77934 32.67426 23.22680
#
# Velocity S-wave (km/s) = 2.45433 3.77939 3.18650
# Velocity P-wave (km/s) = 4.63188 6.48059 5.63260
#
# Compressibility (1/GPa) = 0.03256856
#
# Stress axis : x y z
#
# Youngs Moduli (GPa) = 29.39377 53.96975 225.22028
#
# Poissons Ratio (x) = 0.48365 0.48960
# Poissons Ratio (y) = 0.26341 0.24217
# Poissons Ratio (z) = 0.06390 0.05803
#
# Static dielectric constant tensor:
#      x y z
#    x 1.887590 0.000000 -0.024400 
#    y 0.000000 1.805130 0.000000 
#    z -0.024400 0.000000 1.997980 
# 
# From -- ./inp_files/240738.got.cif
#   From: 2010.05.17/outbox.cif.g08.bks.cpg/sg12_121_cif.got.tgz:240738.got - 2010.06.03 13:09:07.
