data_PCOD9190396
_publ_section_title
;
Structure prediction by ZEFSAII (Michael W. Deem and Ramdas Pophale) SiO2 
 PCOD9190396
Probable space group: C 2/M
;
_chemical_formula_sum "Si O2"
_cell_formula_units_Z 64
_cell_length_a 32.369861
_cell_length_b 9.055228
_cell_length_c 16.343238
_cell_angle_alpha 90.000000
_cell_angle_beta 108.864234
_cell_angle_gamma 90.000000
_cell_volume 4533.163418
_symmetry_space_group_name_H-M "C 2/M"
_symmetry_group_IT_number 12
_symmetry_cell_setting 'monoclinic'
loop_
_space_group_symop_operation_xyz
x,y,z
-x,y,-z
-x,-y,-z
x,-y,z
1/2+x,1/2+y,z
1/2-x,1/2+y,-z
1/2-x,1/2-y,-z
1/2+x,1/2-y,z
loop_
_atom_site_type_symbol
_atom_site_label
_atom_site_fract_x
_atom_site_fract_y
_atom_site_fract_z
Si Si1 0.743322 0.325348 0.368092
Si Si2 0.410385 0.321865 0.342552
Si Si3 0.668168 0.323547 0.829081
Si Si4 0.761871 0.676045 0.806069
Si Si5 0.205034 0.676433 0.001721
Si Si6 0.006956 0.169230 0.405909
Si Si7 0.094851 0.675673 0.482464
Si Si8 0.181365 0.824991 0.482667
O O1 0.752354 0.500000 0.370910
O O2 0.730376 0.264456 0.271527
O O3 0.786133 0.240272 0.427847
O O4 0.705860 0.300606 0.412094
O O5 0.409580 0.500000 0.356460
O O6 0.372934 0.285435 0.253723
O O7 0.459320 0.285580 0.342891
O O8 0.402558 0.241354 0.423670
O O9 0.668262 0.500000 0.843070
O O10 0.713098 0.289253 0.808982
O O11 0.669539 0.241850 0.917107
O O12 0.763082 0.500000 0.790970
O O13 0.795381 0.709101 0.901668
O O14 0.207724 0.500000 0.994649
O O15 0.250000 0.750000 0.000000
O O16 0.048482 0.270691 0.416504
O O17 0.000000 0.169631 0.500000
O O18 0.016447 0.000000 0.387912
O O19 0.097143 0.500000 0.486400
O O20 0.135353 0.743986 0.459660
O O21 0.175927 0.000000 0.491864
#
# Coordination Sequence:
#
# PCOD9190396 Si02
#       8
#     8   8   8   8   8   8   8   8
#     4  10  20  31  45  64  81 103 139 177 208 239
#     4   9  17  29  44  61  84 114 142 167 204 250
#     4   9  17  28  42  61  83 109 140 170 200 237
#     4   9  17  28  42  59  83 114 140 165 203 245
#     4   9  17  28  41  58  80 108 138 167 202 240
#     4   8  15  28  43  58  80 111 140 166 202 247
#     4  11  20  28  42  62  82 108 143 177 206 238
#     4  10  20  33  45  58  82 111 137 170 210 248
#
# _framework density 14.118176
#
# number of rings (size 3 to 8) (size 9 to 14) (size 15 to 20)
#    0.000    2.625    0.000    4.500    0.000    7.750 
#    0.000    0.000    0.000    0.000    0.000    0.000 
#    0.000    1.000    0.000   11.250    0.000    5.625 
#
# Total GULP energy -178288.089196 kJ/mol
# GULP energy per Si atom -5571.502787 kJ/mol
# Density = 1.408604 g / cm^3
# Si number density = 14.118176 Si / 1000 Ang^3
#
#
#
# Elastic Constant Matrix: (Units=GPa)
#
#
# Indices 1 2 3 4 5 6 
#
# 1 68.5998 39.6522 24.6511 0.0000 12.6444 0.0000
# 2 39.6522 59.5085 37.9972 0.0000 1.1264 0.0000
# 3 24.6511 37.9972 82.7123 0.0000 9.3846 0.0000
# 4 0.0000 0.0000 0.0000 24.2097 0.0000 1.2075
# 5 12.6444 1.1264 9.3846 0.0000 18.3809 0.0000
# 6 0.0000 0.0000 0.0000 1.2075 0.0000 17.7841
#
#
#
# Elastic Compliance Matrix: (Units=1/GPa)
#
#
# Indices 1 2 3 4 5 6 
#
# 1 0.029632 -0.021537 0.003424 0.000000 -0.020812 0.000000
# 2 -0.021537 0.039769 -0.014070 0.000000 0.019562 0.000000
# 3 0.003424 -0.014070 0.018791 0.000000 -0.011087 0.000000
# 4 0.000000 0.000000 0.000000 0.041446 0.000000 -0.002814
# 5 -0.020812 0.019562 -0.011087 0.000000 0.073183 0.000000
# 6 0.000000 0.000000 0.000000 -0.002814 0.000000 0.056421
#
#
# Mechanical properties :
#
#
# Convention : Reuss Voigt Hill
#
# Bulk Modulus (GPa) = 41.97157 46.15797 44.06477
# Shear Modulus (GPa) = 15.08069 19.30961 17.19515
#
# Velocity S-wave (km/s) = 3.27184 3.70227 3.49369
# Velocity P-wave (km/s) = 6.63826 7.14428 6.89592
#
# Compressibility (1/GPa) = 0.02382565
#
# Stress axis : x y z
#
# Youngs Moduli (GPa) = 33.74756 25.14547 53.21610
#
# Poissons Ratio (x) = 0.54155 -0.18220
# Poissons Ratio (y) = 0.72681 0.74876
# Poissons Ratio (z) = -0.11555 0.35380
#
# Static dielectric constant tensor:
#      x y z
#    x 1.466410 0.000000 0.018280 
#    y 0.000000 1.469590 0.000000 
#    z 0.018280 0.000000 1.468990 
# 
# From -- ./inp_files/248479.got.cif
#   From: 2010.05.17/outbox.cif.g08.bks.cpg/sg12_125_cif.got.tgz:248479.got - 2010.06.03 13:09:07.
