data_PCOD9190351
_publ_section_title
;
Structure prediction by ZEFSAII (Michael W. Deem and Ramdas Pophale) SiO2 
 PCOD9190351
Probable space group: C 2/M
;
_chemical_formula_sum "Si O2"
_cell_formula_units_Z 44
_cell_length_a 22.651105
_cell_length_b 12.701924
_cell_length_c 14.489571
_cell_angle_alpha 90.000000
_cell_angle_beta 154.115056
_cell_angle_gamma 90.000000
_cell_volume 1819.967923
_symmetry_space_group_name_H-M "C 2/M"
_symmetry_group_IT_number 12
_symmetry_cell_setting 'monoclinic'
loop_
_space_group_symop_operation_xyz
x,y,z
-x,y,-z
-x,-y,-z
x,-y,z
1/2+x,1/2+y,z
1/2-x,1/2+y,-z
1/2-x,1/2-y,-z
1/2+x,1/2-y,z
loop_
_atom_site_type_symbol
_atom_site_label
_atom_site_fract_x
_atom_site_fract_y
_atom_site_fract_z
Si Si1 0.347630 0.381638 0.885217
Si Si2 0.322369 0.881558 0.169877
Si Si3 0.000000 0.715636 0.000000
Si Si4 0.448149 0.660918 0.326291
Si Si5 0.614128 0.113431 0.328280
Si Si6 0.106797 0.156519 0.376929
O O1 0.329086 0.500000 0.821847
O O2 0.374275 0.294450 0.844231
O O3 0.488305 0.376875 0.140177
O O4 0.238964 0.361423 0.813232
O O5 0.424483 0.787505 0.293009
O O6 0.377599 0.000000 0.245268
O O7 0.196605 0.876747 0.919755
O O8 0.007579 0.641534 0.098772
O O9 0.500000 0.629994 0.500000
O O10 0.560977 0.623637 0.413015
O O11 0.754809 0.115870 0.470200
O O12 0.609664 0.216485 0.383564
O O13 0.590614 0.000000 0.338018
#
# Coordination Sequence:
#
# PCOD9190351 Si02
#       6
#     8   8   4   8   8   8
#     4   9  17  33  55  78 109 146 186 229 274 330
#     4   9  20  38  57  83 118 154 191 235 287 339
#     4  10  20  30  54  84 112 140 184 224 284 334
#     4  10  21  37  62  84 117 153 191 240 285 338
#     4  10  20  36  55  79 111 145 181 230 281 333
#     4   9  20  36  56  79 108 146 188 228 278 336
#
# _framework density 24.17625
#
# number of rings (size 3 to 8) (size 9 to 14) (size 15 to 20)
#    0.000    2.545    0.000    1.091    2.545    2.182 
#    0.000    0.909    0.000    0.000    0.000    0.000 
#    0.000    0.000    0.000    0.000    0.000    0.000 
#
# Total GULP energy -122934.630570 kJ/mol
# GULP energy per Si atom -5587.937753 kJ/mol
# Density = 2.412122 g / cm^3
# Si number density = 24.176250 Si / 1000 Ang^3
#
#
#
# Elastic Constant Matrix: (Units=GPa)
#
#
# Indices 1 2 3 4 5 6 
#
# 1 84.2679 6.7260 17.4166 0.0000 -10.2540 0.0000
# 2 6.7260 168.9438 2.5014 0.0000 3.5960 0.0000
# 3 17.4166 2.5014 64.3887 0.0000 -18.6000 0.0000
# 4 0.0000 0.0000 0.0000 0.7332 0.0000 0.1489
# 5 -10.2540 3.5960 -18.6000 0.0000 33.5268 0.0000
# 6 0.0000 0.0000 0.0000 0.1489 0.0000 9.2661
#
#
#
# Elastic Compliance Matrix: (Units=1/GPa)
#
#
# Indices 1 2 3 4 5 6 
#
# 1 0.012770 -0.000520 -0.002727 0.000000 0.002449 0.000000
# 2 -0.000520 0.005967 -0.000383 0.000000 -0.001012 0.000000
# 3 -0.002727 -0.000383 0.019118 0.000000 0.009813 0.000000
# 4 0.000000 0.000000 0.000000 1.368377 0.000000 -0.021984
# 5 0.002449 -0.001012 0.009813 0.000000 0.036129 0.000000
# 6 0.000000 0.000000 0.000000 -0.021984 0.000000 0.108274
#
#
# Mechanical properties :
#
#
# Convention : Reuss Voigt Hill
#
# Bulk Modulus (GPa) = 32.68547 41.20982 36.94764
# Shear Modulus (GPa) = 3.18859 28.10231 15.64545
#
# Velocity S-wave (km/s) = 1.14968 3.41309 2.54666
# Velocity P-wave (km/s) = 3.91297 5.71094 4.89521
#
# Compressibility (1/GPa) = 0.03059464
#
# Stress axis : x y z
#
# Youngs Moduli (GPa) = 78.30893 167.58701 52.30699
#
# Poissons Ratio (x) = 0.08717 0.14262
# Poissons Ratio (y) = 0.04073 0.02005
# Poissons Ratio (z) = 0.21352 0.06425
#
# Static dielectric constant tensor:
#      x y z
#    x 1.881140 0.000000 -0.027930 
#    y 0.000000 1.934810 0.000000 
#    z -0.027930 0.000000 1.946580 
# 
# From -- ./inp_files/214666.got.cif
#   From: 2010.05.17/outbox.cif.g08.bks.cpg/sg12_108_cif.got.tgz:214666.got - 2010.06.03 13:09:07.
