data_PCOD9190339
_publ_section_title
;
Structure prediction by ZEFSAII (Michael W. Deem and Ramdas Pophale) SiO2 
 PCOD9190339
Probable space group: C 2/M
;
_chemical_formula_sum "Si O2"
_cell_formula_units_Z 56
_cell_length_a 16.072731
_cell_length_b 25.537375
_cell_length_c 13.294580
_cell_angle_alpha 90.000000
_cell_angle_beta 143.566209
_cell_angle_gamma 90.000000
_cell_volume 3240.776716
_symmetry_space_group_name_H-M "C 2/M"
_symmetry_group_IT_number 12
_symmetry_cell_setting 'monoclinic'
loop_
_space_group_symop_operation_xyz
x,y,z
-x,y,-z
-x,-y,-z
x,-y,z
1/2+x,1/2+y,z
1/2-x,1/2+y,-z
1/2-x,1/2-y,-z
1/2+x,1/2-y,z
loop_
_atom_site_type_symbol
_atom_site_label
_atom_site_fract_x
_atom_site_fract_y
_atom_site_fract_z
Si Si1 0.391150 0.500000 0.984803
Si Si2 0.538046 0.844088 0.720007
Si Si3 0.927500 0.707200 0.030733
Si Si4 0.403602 0.732893 0.308922
Si Si5 0.995618 0.185312 0.797141
Si Si6 0.750212 0.113428 0.638808
Si Si7 0.796880 0.894260 0.920435
Si Si8 0.347763 0.000000 0.405567
O O1 0.388304 0.445126 0.037677
O O2 0.245136 0.500000 0.785140
O O3 0.500000 0.500000 0.000000
O O4 0.542562 0.828101 0.841552
O O5 0.599604 0.794617 0.719166
O O6 0.387918 0.854833 0.525816
O O7 0.635481 0.894418 0.795060
O O8 0.000595 0.763330 0.128190
O O9 0.759300 0.714310 0.850445
O O10 0.000000 0.686895 0.000000
O O11 0.500000 0.724081 0.500000
O O12 0.487948 0.706301 0.299224
O O13 0.871894 0.143939 0.696972
O O14 0.136149 0.154227 0.958517
O O15 0.800046 0.115108 0.803685
O O16 0.701684 0.052249 0.582275
O O17 0.500000 0.000000 0.500000
#
# Coordination Sequence:
#
# PCOD9190339 Si02
#       8
#     4   8   8   8   8   8   8   4
#     4  10  20  30  52  82 111 142 185 229 274 341
#     4  11  22  36  55  81 112 149 193 218 277 340
#     4  11  23  39  56  80 115 147 185 240 275 325
#     4  11  23  39  57  80 115 147 186 237 279 326
#     4  11  22  36  55  82 114 146 191 225 277 335
#     4  11  22  32  58  84 113 154 183 224 273 343
#     4  11  18  36  52  79 114 150 177 224 283 330
#     4  10  20  38  50  82 121 150 185 227 280 331
#
# _framework density 17.279807000000002
#
# number of rings (size 3 to 8) (size 9 to 14) (size 15 to 20)
#    0.000    1.143    2.857    6.857    4.000    1.143 
#    0.000    0.000    0.000    0.000    0.000    6.000 
#    0.000    0.000    0.000    0.000    0.000    0.000 
#
# Total GULP energy -155978.242468 kJ/mol
# GULP energy per Si atom -5570.651517 kJ/mol
# Density = 1.724048 g / cm^3
# Si number density = 17.279807 Si / 1000 Ang^3
#
#
#
# Elastic Constant Matrix: (Units=GPa)
#
#
# Indices 1 2 3 4 5 6 
#
# 1 73.5425 28.5346 19.2915 0.0000 2.7691 0.0000
# 2 28.5346 77.3654 20.2662 0.0000 -2.2535 0.0000
# 3 19.2915 20.2662 61.1991 0.0000 -2.0310 0.0000
# 4 0.0000 0.0000 0.0000 21.0838 0.0000 6.5387
# 5 2.7691 -2.2535 -2.0310 0.0000 34.8924 0.0000
# 6 0.0000 0.0000 0.0000 6.5387 0.0000 17.5270
#
#
#
# Elastic Compliance Matrix: (Units=1/GPa)
#
#
# Indices 1 2 3 4 5 6 
#
# 1 0.016644 -0.005259 -0.003567 0.000000 -0.001868 0.000000
# 2 -0.005259 0.015829 -0.003543 0.000000 0.001233 0.000000
# 3 -0.003567 -0.003543 0.018676 0.000000 0.001141 0.000000
# 4 0.000000 0.000000 0.000000 0.053635 0.000000 -0.020010
# 5 -0.001868 0.001233 0.001141 0.000000 0.028954 0.000000
# 6 0.000000 0.000000 0.000000 -0.020010 0.000000 0.064520
#
#
# Mechanical properties :
#
#
# Convention : Reuss Voigt Hill
#
# Bulk Modulus (GPa) = 37.86337 38.69907 38.28122
# Shear Modulus (GPa) = 21.57029 24.30162 22.93595
#
# Velocity S-wave (km/s) = 3.53695 3.75421 3.64720
# Velocity P-wave (km/s) = 6.21607 6.42155 6.31965
#
# Compressibility (1/GPa) = 0.02641075
#
# Stress axis : x y z
#
# Youngs Moduli (GPa) = 60.08147 63.17364 53.54517
#
# Poissons Ratio (x) = 0.33222 0.19100
# Poissons Ratio (y) = 0.31596 0.18973
# Poissons Ratio (z) = 0.21432 0.22384
#
# Static dielectric constant tensor:
#      x y z
#    x 1.648440 0.000000 -0.002980 
#    y 0.000000 1.745000 0.000000 
#    z -0.002980 0.000000 1.617910 
# 
# From -- ./inp_files/149532.got.cif
#   From: 2010.05.17/outbox.cif.g08.bks.cpg/sg12_75_cif.got.tgz:149532.got - 2010.06.03 13:09:07.
