data_PCOD9190617
_publ_section_title
;
Structure prediction by ZEFSAII (Michael W. Deem and Ramdas Pophale) SiO2 
 PCOD9190617
Probable space group: C 2/M
;
_chemical_formula_sum "Si O2"
_cell_formula_units_Z 48
_cell_length_a 18.129845
_cell_length_b 9.595122
_cell_length_c 18.227097
_cell_angle_alpha 90.000000
_cell_angle_beta 117.885451
_cell_angle_gamma 90.000000
_cell_volume 2802.577150
_symmetry_space_group_name_H-M "C 2/M"
_symmetry_group_IT_number 12
_symmetry_cell_setting 'monoclinic'
loop_
_space_group_symop_operation_xyz
x,y,z
-x,y,-z
-x,-y,-z
x,-y,z
1/2+x,1/2+y,z
1/2-x,1/2+y,-z
1/2-x,1/2-y,-z
1/2+x,1/2-y,z
loop_
_atom_site_type_symbol
_atom_site_label
_atom_site_fract_x
_atom_site_fract_y
_atom_site_fract_z
Si Si1 0.088041 0.839795 0.495699
Si Si2 0.492255 0.839791 0.661412
Si Si3 0.413763 0.336585 0.003282
Si Si4 0.911685 0.667664 0.151702
Si Si5 0.254653 0.331029 0.836505
Si Si6 0.668537 0.161415 0.653908
O O1 0.153150 0.756143 0.576297
O O2 0.000000 0.838023 0.500000
O O3 0.068788 0.760824 0.411031
O O4 0.111661 0.000000 0.495959
O O5 0.516153 0.799144 0.755384
O O6 0.580980 0.839042 0.658842
O O7 0.462707 0.000000 0.646101
O O8 0.397951 0.500000 0.013905
O O9 0.339126 0.286987 0.915372
O O10 0.500000 0.328311 0.000000
O O11 0.418853 0.247302 0.079162
O O12 0.911768 0.500000 0.141932
O O13 0.823987 0.707235 0.149312
O O14 0.254918 0.500000 0.832459
O O15 0.236198 0.285333 0.744533
O O16 0.685077 0.000000 0.641613
#
# Coordination Sequence:
#
# PCOD9190617 Si02
#       6
#     8   8   8   8   8   8
#     4   9  15  21  32  56  89 116 137 168 212 258
#     4   8  14  24  38  57  81 111 145 176 210 253
#     4  10  20  32  46  66  92 119 146 180 226 275
#     4   9  17  30  48  67  87 115 153 191 219 252
#     4   8  15  29  47  66  88 117 153 186 217 259
#     4   8  13  23  39  56  79 113 147 176 207 249
#
# _framework density 17.127094
#
# number of rings (size 3 to 8) (size 9 to 14) (size 15 to 20)
#    0.000    3.333    0.000    3.000    0.000    3.000 
#    0.000    3.333    0.000    0.000    0.000    1.167 
#    0.000    0.000    0.000    0.000    0.000    0.000 
#
# Total GULP energy -133625.605594 kJ/mol
# GULP energy per Si atom -5567.733566 kJ/mol
# Density = 1.708811 g / cm^3
# Si number density = 17.127094 Si / 1000 Ang^3
#
#
#
# Elastic Constant Matrix: (Units=GPa)
#
#
# Indices 1 2 3 4 5 6 
#
# 1 15.3506 19.9576 38.9959 0.0000 2.1694 0.0000
# 2 19.9576 75.7840 95.2377 0.0000 7.1279 0.0000
# 3 38.9959 95.2377 205.5060 0.0000 13.1412 0.0000
# 4 0.0000 0.0000 0.0000 31.4576 0.0000 -4.9106
# 5 2.1694 7.1279 13.1412 0.0000 -4.3392 0.0000
# 6 0.0000 0.0000 0.0000 -4.9106 0.0000 7.6027
#
#
#
# Elastic Compliance Matrix: (Units=1/GPa)
#
#
# Indices 1 2 3 4 5 6 
#
# 1 0.127111 -0.007265 -0.020151 0.000000 -0.009412 0.000000
# 2 -0.007265 0.031807 -0.013798 0.000000 0.006828 0.000000
# 3 -0.020151 -0.013798 0.014391 0.000000 0.010842 0.000000
# 4 0.000000 0.000000 0.000000 0.035353 0.000000 0.022835
# 5 -0.009412 0.006828 0.010842 0.000000 -0.191111 0.000000
# 6 0.000000 0.000000 0.000000 0.022835 0.000000 0.146282
#
#
# Mechanical properties :
#
#
# Convention : Reuss Voigt Hill
#
# Bulk Modulus (GPa) = 11.00361 67.22479 39.11420
# Shear Modulus (GPa) = 18.07964 16.44084 17.26024
#
# Velocity S-wave (km/s) = 3.25255 3.10164 3.17799
# Velocity P-wave (km/s) = 4.53256 7.22237 6.02937
#
# Compressibility (1/GPa) = 0.09087930
#
# Stress axis : x y z
#
# Youngs Moduli (GPa) = 7.86716 31.44004 69.48768
#
# Poissons Ratio (x) = 0.22841 1.40027
# Poissons Ratio (y) = 0.05715 0.95880
# Poissons Ratio (z) = 0.15853 0.43382
#
# Static dielectric constant tensor:
#      x y z
#    x 1.553850 0.000000 0.016330 
#    y 0.000000 1.568440 0.000000 
#    z 0.016330 0.000000 1.594140 
# 
# From -- ./inp_files/280042.got.cif
#   From: 2010.05.17/outbox.cif.g08.bks.cpg/sg12_141_cif.got.tgz:280042.got - 2010.06.03 13:09:07.
