data_PCOD9190965
_publ_section_title
;
Structure prediction by ZEFSAII (Michael W. Deem and Ramdas Pophale) SiO2 
 PCOD9190965
Probable space group: C 2/M
;
_chemical_formula_sum "Si O2"
_cell_formula_units_Z 64
_cell_length_a 11.047483
_cell_length_b 28.732789
_cell_length_c 17.274438
_cell_angle_alpha 90.000000
_cell_angle_beta 34.014407
_cell_angle_gamma 90.000000
_cell_volume 3067.386914
_symmetry_space_group_name_H-M "C 2/M"
_symmetry_group_IT_number 12
_symmetry_cell_setting 'monoclinic'
loop_
_space_group_symop_operation_xyz
x,y,z
-x,y,-z
-x,-y,-z
x,-y,z
1/2+x,1/2+y,z
1/2-x,1/2+y,-z
1/2-x,1/2-y,-z
1/2+x,1/2-y,z
loop_
_atom_site_type_symbol
_atom_site_label
_atom_site_fract_x
_atom_site_fract_y
_atom_site_fract_z
Si Si1 0.970277 0.695945 0.925632
Si Si2 0.066509 0.051741 0.359754
Si Si3 0.720432 0.352992 0.356438
Si Si4 0.966616 0.945653 0.795359
Si Si5 0.812607 0.626584 0.652662
Si Si6 0.582118 0.915573 0.641155
Si Si7 0.985837 0.192275 0.916043
Si Si8 0.195283 0.055149 0.951201
O O1 0.000414 0.751715 0.904686
O O2 0.151793 0.673103 0.776510
O O3 0.741268 0.682051 0.007550
O O4 0.000000 0.682551 0.000000
O O5 0.143863 0.055030 0.229848
O O6 0.803816 0.057222 0.504670
O O7 0.160369 0.095548 0.355539
O O8 0.125870 0.000000 0.356765
O O9 0.500000 0.329214 0.500000
O O10 0.853297 0.364106 0.363339
O O11 0.152060 0.906920 0.690742
O O12 0.040584 0.000000 0.766254
O O13 0.835744 0.931977 0.942340
O O14 0.673955 0.664725 0.771831
O O15 0.000000 0.647599 0.500000
O O16 0.931125 0.590870 0.647670
O O17 0.425331 0.934121 0.791587
O O18 0.000000 0.180158 0.000000
O O19 0.173440 0.000000 0.961645
O O20 0.000000 0.073961 0.000000
#
# Coordination Sequence:
#
# PCOD9190965 Si02
#       8
#     8   8   8   8   8   8   8   8
#     4  10  23  44  70  95 123 168 210 252 323 390
#     4  10  22  41  59  82 125 172 216 257 300 364
#     4  10  24  39  62  90 122 162 215 258 309 362
#     4  10  22  37  55  83 122 161 205 252 301 363
#     4  12  24  37  62  94 126 160 205 252 322 373
#     4  11  22  36  57  88 119 161 203 258 307 366
#     4  10  24  44  68  97 128 161 205 261 323 388
#     4  10  20  32  50  80 112 150 198 245 298 354
#
# _framework density 20.864664999999999
#
# number of rings (size 3 to 8) (size 9 to 14) (size 15 to 20)
#    0.000    1.625    2.500    1.125    5.250    4.000 
#    0.000    0.000    0.000    9.375    0.000    0.000 
#    0.000    0.000    0.000    0.000    0.000    0.000 
#
# Total GULP energy -178601.980738 kJ/mol
# GULP energy per Si atom -5581.311898 kJ/mol
# Density = 2.081718 g / cm^3
# Si number density = 20.864665 Si / 1000 Ang^3
#
#
#
# Elastic Constant Matrix: (Units=GPa)
#
#
# Indices 1 2 3 4 5 6 
#
# 1 73.5756 11.2477 26.6278 0.0001 13.1138 0.0000
# 2 11.2477 63.0036 37.7776 0.0000 -0.1991 0.0000
# 3 26.6278 37.7776 138.1784 0.0001 20.7359 0.0001
# 4 0.0001 0.0000 0.0001 51.1595 -0.0001 22.7819
# 5 13.1138 -0.1991 20.7359 -0.0001 32.3364 -0.0001
# 6 0.0000 0.0000 0.0001 22.7819 -0.0001 15.8493
#
#
#
# Elastic Compliance Matrix: (Units=1/GPa)
#
#
# Indices 1 2 3 4 5 6 
#
# 1 0.015397 -0.001734 -0.001720 0.000000 -0.005152 0.000000
# 2 -0.001734 0.019614 -0.005700 0.000000 0.004479 0.000000
# 3 -0.001720 -0.005700 0.009989 0.000000 -0.005743 0.000000
# 4 0.000000 0.000000 0.000000 0.054311 0.000000 -0.078067
# 5 -0.005152 0.004479 -0.005743 0.000000 0.036725 0.000000
# 6 0.000000 0.000000 0.000000 -0.078067 0.000000 0.175309
#
#
# Mechanical properties :
#
#
# Convention : Reuss Voigt Hill
#
# Bulk Modulus (GPa) = 37.46515 47.34043 42.40279
# Shear Modulus (GPa) = 14.76888 33.14265 23.95576
#
# Velocity S-wave (km/s) = 2.66342 3.98987 3.39211
# Velocity P-wave (km/s) = 5.23962 6.63053 5.97568
#
# Compressibility (1/GPa) = 0.02669147
#
# Stress axis : x y z
#
# Youngs Moduli (GPa) = 64.94661 50.98438 100.11219
#
# Poissons Ratio (x) = 0.08839 0.17219
# Poissons Ratio (y) = 0.11260 0.57069
# Poissons Ratio (z) = 0.11171 0.29064
#
# Static dielectric constant tensor:
#      x y z
#    x 2.039050 0.000000 -0.254030 
#    y 0.000000 1.725220 0.000000 
#    z -0.254030 0.000000 2.011230 
# 
# From -- ./inp_files/266288.got.cif
#   From: 2010.05.17/outbox.cif.g08.bks.cpg/sg12_134_cif.got.tgz:266288.got - 2010.06.03 13:09:07.
