data_PCOD9190943
_publ_section_title
;
Structure prediction by ZEFSAII (Michael W. Deem and Ramdas Pophale) SiO2 
 PCOD9190943
Probable space group: C 2/M
;
_chemical_formula_sum "Si O2"
_cell_formula_units_Z 40
_cell_length_a 23.762595
_cell_length_b 7.730545
_cell_length_c 18.936073
_cell_angle_alpha 90.000000
_cell_angle_beta 36.395713
_cell_angle_gamma 90.000000
_cell_volume 2064.007085
_symmetry_space_group_name_H-M "C 2/M"
_symmetry_group_IT_number 12
_symmetry_cell_setting 'monoclinic'
loop_
_space_group_symop_operation_xyz
x,y,z
-x,y,-z
-x,-y,-z
x,-y,z
1/2+x,1/2+y,z
1/2-x,1/2+y,-z
1/2-x,1/2-y,-z
1/2+x,1/2-y,z
loop_
_atom_site_type_symbol
_atom_site_label
_atom_site_fract_x
_atom_site_fract_y
_atom_site_fract_z
Si Si1 0.609081 0.209347 0.890419
Si Si2 0.704111 0.791993 0.938671
Si Si3 0.803523 0.205549 0.348050
Si Si4 0.896204 0.701483 0.396771
Si Si5 0.394586 0.791667 0.817876
O O1 0.662462 0.271895 0.906874
O O2 0.660927 0.261901 0.766308
O O3 0.608017 0.000000 0.893360
O O4 0.500000 0.268712 0.000000
O O5 0.813518 0.748689 0.843031
O O6 0.695981 0.000000 0.946751
O O7 0.644706 0.727107 0.066643
O O8 0.872258 0.286199 0.337658
O O9 0.696943 0.274487 0.470320
O O10 0.803128 0.000000 0.362217
O O11 0.900697 0.500000 0.412813
O O12 0.000396 0.776897 0.304318
O O13 0.401382 0.000000 0.816576
#
# Coordination Sequence:
#
# PCOD9190943 Si02
#       5
#     8   8   8   8   8
#     4  10  20  35  53  71  98 135 165 194 243 302
#     4   9  18  31  49  74  98 123 161 203 241 285
#     4  10  20  32  50  77 102 125 162 209 246 282
#     4   9  18  34  53  72  98 133 166 196 242 299
#     4   9  17  32  53  72  94 127 163 199 240 289
#
# _framework density 19.379778000000002
#
# number of rings (size 3 to 8) (size 9 to 14) (size 15 to 20)
#    0.000    2.600    0.000    1.800    0.000    6.000 
#    0.000    5.000    0.000    6.000    0.000    0.000 
#    0.000    0.000    0.000    0.000    0.000    0.000 
#
# Total GULP energy -111574.130205 kJ/mol
# GULP energy per Si atom -5578.706510 kJ/mol
# Density = 1.933567 g / cm^3
# Si number density = 19.379778 Si / 1000 Ang^3
#
#
#
# Elastic Constant Matrix: (Units=GPa)
#
#
# Indices 1 2 3 4 5 6 
#
# 1 133.2823 -10.7601 93.8083 0.0005 -11.9532 -0.0007
# 2 -10.7601 28.6886 -0.2556 0.0050 -3.6939 0.0013
# 3 93.8083 -0.2556 115.6361 0.0023 -16.8619 0.0018
# 4 0.0005 0.0050 0.0023 12.6267 -0.0005 1.2657
# 5 -11.9532 -3.6939 -16.8619 -0.0005 35.8785 -0.0013
# 6 -0.0007 0.0013 0.0018 1.2657 -0.0013 20.4744
#
#
#
# Elastic Compliance Matrix: (Units=1/GPa)
#
#
# Indices 1 2 3 4 5 6 
#
# 1 0.018763 0.006876 -0.015236 -0.000001 -0.000201 0.000002
# 2 0.006876 0.037891 -0.004929 -0.000014 0.003875 -0.000001
# 3 -0.015236 -0.004929 0.021667 -0.000001 0.004600 -0.000002
# 4 -0.000001 -0.000014 -0.000001 0.079691 -0.000001 -0.004927
# 5 -0.000201 0.003875 0.004600 -0.000001 0.030366 0.000001
# 6 0.000002 -0.000001 -0.000002 -0.004927 0.000001 0.049146
#
#
# Mechanical properties :
#
#
# Convention : Reuss Voigt Hill
#
# Bulk Modulus (GPa) = 19.32596 49.24357 34.28476
# Shear Modulus (GPa) = 17.77147 26.78352 22.27750
#
# Velocity S-wave (km/s) = 3.03150 3.72161 3.39414
# Velocity P-wave (km/s) = 4.71670 6.62813 5.75236
#
# Compressibility (1/GPa) = 0.05174388
#
# Stress axis : x y z
#
# Youngs Moduli (GPa) = 53.29592 26.39147 46.15258
#
# Poissons Ratio (x) = -0.18146 0.70316
# Poissons Ratio (y) = -0.36645 0.22749
# Poissons Ratio (z) = 0.81199 0.13008
#
# Static dielectric constant tensor:
#      x y z
#    x 1.651510 0.000000 -0.026620 
#    y 0.000000 1.728590 0.000000 
#    z -0.026620 0.000000 1.681450 
# 
# From -- ./inp_files/229488.got.cif
#   From: 2010.05.17/outbox.cif.g08.bks.cpg/sg12_115_cif.got.tgz:229488.got - 2010.06.03 13:09:07.
