data_PCOD9190249
_publ_section_title
;
Structure prediction by ZEFSAII (Michael W. Deem and Ramdas Pophale) SiO2 
 PCOD9190249
Probable space group: C 2/M
;
_chemical_formula_sum "Si O2"
_cell_formula_units_Z 48
_cell_length_a 14.073860
_cell_length_b 5.774330
_cell_length_c 22.504069
_cell_angle_alpha 90.000000
_cell_angle_beta 100.719267
_cell_angle_gamma 90.000000
_cell_volume 1796.927986
_symmetry_space_group_name_H-M "C 2/M"
_symmetry_group_IT_number 12
_symmetry_cell_setting 'monoclinic'
loop_
_space_group_symop_operation_xyz
x,y,z
-x,y,-z
-x,-y,-z
x,-y,z
1/2+x,1/2+y,z
1/2-x,1/2+y,-z
1/2-x,1/2-y,-z
1/2+x,1/2-y,z
loop_
_atom_site_type_symbol
_atom_site_label
_atom_site_fract_x
_atom_site_fract_y
_atom_site_fract_z
Si Si1 0.288674 0.000000 0.617277
Si Si2 0.765765 0.250453 0.730126
Si Si3 0.865755 0.750140 0.012194
Si Si4 0.301312 0.500000 0.502023
Si Si5 0.010800 0.500000 0.428288
Si Si6 0.006508 0.249498 0.137724
Si Si7 0.002618 0.000000 0.572899
Si Si8 0.036744 0.750084 0.726697
O O1 0.286617 0.786101 0.662744
O O2 0.187723 0.000000 0.568720
O O3 0.379118 0.000000 0.582956
O O4 0.800225 0.500000 0.759853
O O5 0.651064 0.247431 0.727497
O O6 0.803716 0.000000 0.754186
O O7 0.894159 0.500000 0.988588
O O8 0.913250 0.750901 0.083275
O O9 0.894125 0.000000 0.988372
O O10 0.750000 0.750000 0.000000
O O11 0.250000 0.750000 0.500000
O O12 0.384082 0.500000 0.560845
O O13 0.966436 0.255600 0.402857
O O14 0.000000 0.500000 0.500000
O O15 0.054201 0.500000 0.131983
O O16 0.976854 0.248451 0.203555
O O17 0.055640 0.000000 0.132331
O O18 0.000000 0.000000 0.500000
O O19 0.995093 0.500000 0.702026
O O20 0.998542 0.000000 0.700073
#
# Coordination Sequence:
#
# PCOD9190249 Si02
#       8
#     4   8   8   4   4   8   4   8
#     4  10  20  28  46  58  86  92 130 146 196 206
#     4   8  16  24  35  50  69  90 108 138 172 209
#     4   8  12  16  20  28  40  55  77 107 143 178
#     4  12  22  32  48  70  86 106 134 166 189 226
#     4  10  20  32  48  62  82 106 132 156 188 227
#     4   8  12  16  24  32  43  62  85 113 142 183
#     4  10  20  36  48  64  86 112 132 158 191 227
#     4   8  12  20  28  39  54  73  98 120 153 194
#
# _framework density 26.712257000000001
#
# number of rings (size 3 to 8) (size 9 to 14) (size 15 to 20)
#    0.500    2.667    1.667    0.000    2.333    0.000 
#    0.000    0.000    0.000    0.000    0.000    0.000 
#    0.000    0.000    0.000    0.000    0.000    0.000 
#
# Total GULP energy -133683.939337 kJ/mol
# GULP energy per Si atom -5570.164139 kJ/mol
# Density = 2.665146 g / cm^3
# Si number density = 26.712257 Si / 1000 Ang^3
#
#
#
# Elastic Constant Matrix: (Units=GPa)
#
#
# Indices 1 2 3 4 5 6 
#
# 1 83.8277 13.8679 46.9933 0.0000 -5.0739 0.0000
# 2 13.8679 386.4150 54.2907 0.0000 -1.8592 0.0000
# 3 46.9933 54.2907 97.6622 0.0000 8.0717 0.0000
# 4 0.0000 0.0000 0.0000 -7.8947 0.0000 51.1413
# 5 -5.0739 -1.8592 8.0717 0.0000 49.6561 0.0000
# 6 0.0000 0.0000 0.0000 51.1413 0.0000 -87.2839
#
#
#
# Elastic Compliance Matrix: (Units=1/GPa)
#
#
# Indices 1 2 3 4 5 6 
#
# 1 0.016929 0.000639 -0.008764 0.000000 0.003178 0.000000
# 2 0.000639 0.002838 -0.001925 0.000000 0.000484 0.000000
# 3 -0.008764 -0.001925 0.015819 0.000000 -0.003539 0.000000
# 4 0.000000 0.000000 0.000000 0.045310 0.000000 0.026548
# 5 0.003178 0.000484 -0.003539 0.000000 0.021057 0.000000
# 6 0.000000 0.000000 0.000000 0.026548 0.000000 0.004098
#
#
# Mechanical properties :
#
#
# Convention : Reuss Voigt Hill
#
# Bulk Modulus (GPa) = 64.57453 88.68986 76.63219
# Shear Modulus (GPa) = 38.07714 21.07904 29.57809
#
# Velocity S-wave (km/s) = 3.77962 2.81217 3.33120
# Velocity P-wave (km/s) = 6.57829 6.61955 6.59895
#
# Compressibility (1/GPa) = 0.01548598
#
# Stress axis : x y z
#
# Youngs Moduli (GPa) = 59.07094 352.39135 63.21525
#
# Poissons Ratio (x) = -0.22519 0.55400
# Poissons Ratio (y) = -0.03775 0.12169
# Poissons Ratio (z) = 0.51768 0.67837
#
# Static dielectric constant tensor:
#      x y z
#    x 2.139490 0.000000 -0.082860 
#    y 0.000000 2.167560 0.000000 
#    z -0.082860 0.000000 2.051010 
# 
# From -- ./inp_files/374717.got.cif
#   From: 2010.05.17/outbox.cif.g08.bks.cpg/sg12_188_cif.got.tgz:374717.got - 2010.06.03 13:09:07.
