data_PCOD9190828
_publ_section_title
;
Structure prediction by ZEFSAII (Michael W. Deem and Ramdas Pophale) SiO2 
 PCOD9190828
Probable space group: C 2/M
;
_chemical_formula_sum "Si O2"
_cell_formula_units_Z 56
_cell_length_a 22.661216
_cell_length_b 8.195073
_cell_length_c 20.936328
_cell_angle_alpha 90.000000
_cell_angle_beta 49.703699
_cell_angle_gamma 90.000000
_cell_volume 2965.487100
_symmetry_space_group_name_H-M "C 2/M"
_symmetry_group_IT_number 12
_symmetry_cell_setting 'monoclinic'
loop_
_space_group_symop_operation_xyz
x,y,z
-x,y,-z
-x,-y,-z
x,-y,z
1/2+x,1/2+y,z
1/2-x,1/2+y,-z
1/2-x,1/2-y,-z
1/2+x,1/2-y,z
loop_
_atom_site_type_symbol
_atom_site_label
_atom_site_fract_x
_atom_site_fract_y
_atom_site_fract_z
Si Si1 0.196097 0.304155 0.125097
Si Si2 0.516588 0.190423 0.918094
Si Si3 0.632523 0.689531 0.041612
Si Si4 0.834403 0.688889 0.257294
Si Si5 0.275312 0.193847 0.552757
Si Si6 0.203662 0.691032 0.262786
Si Si7 0.916266 0.307494 0.538572
O O1 0.187423 0.500000 0.122779
O O2 0.145349 0.216118 0.107696
O O3 0.178394 0.260045 0.210006
O O4 0.285895 0.264577 0.047993
O O5 0.437225 0.205191 0.935606
O O6 0.585726 0.261357 0.826250
O O7 0.537962 0.000000 0.913169
O O8 0.500000 0.262882 0.000000
O O9 0.617262 0.500000 0.038268
O O10 0.846742 0.500000 0.265663
O O11 0.791224 0.767335 0.348265
O O12 0.774293 0.706513 0.241027
O O13 0.250000 0.250000 0.500000
O O14 0.357894 0.258999 0.523995
O O15 0.283682 0.000000 0.544882
O O16 0.228326 0.500000 0.242410
O O17 0.135385 0.701171 0.361578
O O18 0.929416 0.500000 0.513636
O O19 0.000000 0.236805 0.500000
#
# Coordination Sequence:
#
# PCOD9190828 Si02
#       7
#     8   8   8   8   8   8   8
#     4   9  18  33  50  71 100 136 175 212 259 317
#     4  10  21  36  53  75 104 138 177 221 268 318
#     4  10  20  32  49  72 101 135 172 217 263 310
#     4  10  20  34  54  79 106 138 178 219 265 324
#     4  10  20  36  58  81 110 145 182 226 274 328
#     4   9  17  31  53  76  99 132 171 212 259 309
#     4   8  15  30  52  78 103 129 169 216 258 309
#
# _framework density 18.883911999999999
#
# number of rings (size 3 to 8) (size 9 to 14) (size 15 to 20)
#    0.000    2.571    0.000    3.000    0.000    2.571 
#    2.571    0.000    0.000   10.714    0.000    0.000 
#    0.000    0.000    0.000    0.000    0.000    0.000 
#
# Total GULP energy -156002.314493 kJ/mol
# GULP energy per Si atom -5571.511232 kJ/mol
# Density = 1.884093 g / cm^3
# Si number density = 18.883912 Si / 1000 Ang^3
#
#
#
# Elastic Constant Matrix: (Units=GPa)
#
#
# Indices 1 2 3 4 5 6 
#
# 1 109.9401 12.1371 58.9698 0.0007 5.7775 -0.0003
# 2 12.1371 13.6789 14.1892 -0.0010 -0.2585 0.0009
# 3 58.9698 14.1892 60.9659 -0.0002 10.1141 0.0002
# 4 0.0007 -0.0010 -0.0002 -2.1539 0.0005 9.6901
# 5 5.7775 -0.2585 10.1141 0.0005 31.7413 -0.0004
# 6 -0.0003 0.0009 0.0002 9.6901 -0.0004 22.6580
#
#
#
# Elastic Compliance Matrix: (Units=1/GPa)
#
#
# Indices 1 2 3 4 5 6 
#
# 1 0.019231 0.003668 -0.019933 0.000003 0.002881 -0.000001
# 2 0.003668 0.099227 -0.028153 -0.000018 0.009111 0.000004
# 3 -0.019933 -0.028153 0.043998 0.000000 -0.010621 0.000000
# 4 0.000003 -0.000018 0.000000 -0.158779 0.000003 0.067905
# 5 0.002881 0.009111 -0.010621 0.000003 0.034439 -0.000001
# 6 -0.000001 0.000004 0.000000 0.067905 -0.000001 0.015094
#
#
# Mechanical properties :
#
#
# Convention : Reuss Voigt Hill
#
# Bulk Modulus (GPa) = 13.58361 39.46413 26.52387
# Shear Modulus (GPa) = 30.01440 17.06834 23.54137
#
# Velocity S-wave (km/s) = 3.99107 3.00968 3.53460
# Velocity P-wave (km/s) = 5.33358 5.74641 5.54384
#
# Compressibility (1/GPa) = 0.07361814
#
# Stress axis : x y z
#
# Youngs Moduli (GPa) = 51.99828 10.07790 22.72851
#
# Poissons Ratio (x) = -0.03696 0.45305
# Poissons Ratio (y) = -0.19071 0.63988
# Poissons Ratio (z) = 1.03650 0.28373
#
# Static dielectric constant tensor:
#      x y z
#    x 1.655940 0.000000 -0.000630 
#    y 0.000000 1.685440 0.000000 
#    z -0.000630 0.000000 1.656320 
# 
# From -- ./inp_files/319719.got.cif
#   From: 2010.05.17/outbox.cif.g08.bks.cpg/sg12_160_cif.got.tgz:319719.got - 2010.06.03 13:09:07.
