data_PCOD9190663
_publ_section_title
;
Structure prediction by ZEFSAII (Michael W. Deem and Ramdas Pophale) SiO2 
 PCOD9190663
Probable space group: C 2/M
;
_chemical_formula_sum "Si O2"
_cell_formula_units_Z 60
_cell_length_a 5.415829
_cell_length_b 26.713271
_cell_length_c 25.530188
_cell_angle_alpha 90.000000
_cell_angle_beta 76.397292
_cell_angle_gamma 90.000000
_cell_volume 3589.962395
_symmetry_space_group_name_H-M "C 2/M"
_symmetry_group_IT_number 12
_symmetry_cell_setting 'monoclinic'
loop_
_space_group_symop_operation_xyz
x,y,z
-x,y,-z
-x,-y,-z
x,-y,z
1/2+x,1/2+y,z
1/2-x,1/2+y,-z
1/2-x,1/2-y,-z
1/2+x,1/2-y,z
loop_
_atom_site_type_symbol
_atom_site_label
_atom_site_fract_x
_atom_site_fract_y
_atom_site_fract_z
Si Si1 0.559352 0.218783 0.436038
Si Si2 0.560937 0.939955 0.211570
Si Si3 0.575287 0.944001 0.566103
Si Si4 0.000000 0.123364 0.500000
Si Si5 0.216155 0.060930 0.030134
Si Si6 0.150136 0.128250 0.604878
Si Si7 0.708120 0.442105 0.327216
Si Si8 0.877831 0.938867 0.845102
O O1 0.500000 0.204038 0.500000
O O2 0.305694 0.245201 0.427318
O O3 0.640261 0.171028 0.396972
O O4 0.427959 0.932535 0.274138
O O5 0.361272 0.921668 0.177687
O O6 0.849233 0.921619 0.190747
O O7 0.578101 0.000000 0.203674
O O8 0.294622 0.922787 0.582987
O O9 0.680980 0.943172 0.619901
O O10 0.752281 0.909561 0.522367
O O11 0.590376 0.000000 0.546938
O O12 0.973195 0.148140 0.443923
O O13 0.152192 0.075514 0.092778
O O14 0.215985 0.000000 0.028992
O O15 0.500000 0.076933 0.000000
O O16 0.000000 0.077423 0.000000
O O17 0.974837 0.106814 0.659888
O O18 0.607296 0.500000 0.321368
O O19 0.875246 0.000000 0.843141
#
# Coordination Sequence:
#
# PCOD9190663 Si02
#       8
#     8   8   8   4   8   8   8   8
#     4  10  23  38  58  76  94 115 143 179 226 277
#     4   9  17  28  41  57  80 109 145 180 218 265
#     4  10  20  32  47  65  90 118 146 176 222 273
#     4  10  21  32  46  68  94 112 142 174 219 272
#     4   9  15  22  33  50  73  99 134 181 231 271
#     4  11  22  34  52  68  91 115 146 181 227 277
#     4   9  20  33  47  67  91 119 151 188 227 274
#     4   9  16  25  38  54  75 107 143 181 225 269
#
# _framework density 16.713265
#
# number of rings (size 3 to 8) (size 9 to 14) (size 15 to 20)
#    0.000    2.400    0.000    2.600    8.400    5.333 
#    0.000    0.000    0.000    0.000    0.000    0.000 
#    0.000    0.000    0.000    0.000    0.000    0.000 
#
# Total GULP energy -167057.298572 kJ/mol
# GULP energy per Si atom -5568.576619 kJ/mol
# Density = 1.667522 g / cm^3
# Si number density = 16.713265 Si / 1000 Ang^3
#
#
#
# Elastic Constant Matrix: (Units=GPa)
#
#
# Indices 1 2 3 4 5 6 
#
# 1 59.1368 8.4815 7.7835 0.0000 -17.1019 0.0000
# 2 8.4815 33.2684 11.0625 0.0000 -8.2245 0.0000
# 3 7.7835 11.0625 55.6057 0.0000 -18.0463 0.0000
# 4 0.0000 0.0000 0.0000 404.1193 0.0000 -126.4424
# 5 -17.1019 -8.2245 -18.0463 0.0000 25.3349 0.0000
# 6 0.0000 0.0000 0.0000 -126.4424 0.0000 52.1730
#
#
#
# Elastic Compliance Matrix: (Units=1/GPa)
#
#
# Indices 1 2 3 4 5 6 
#
# 1 0.021395 -0.002474 0.002502 0.000000 0.015422 0.000000
# 2 -0.002474 0.033658 -0.004352 0.000000 0.006157 0.000000
# 3 0.002502 -0.004352 0.024178 0.000000 0.017499 0.000000
# 4 0.000000 0.000000 0.000000 0.010237 0.000000 0.024810
# 5 0.015422 0.006157 0.017499 0.000000 0.064345 0.000000
# 6 0.000000 0.000000 0.000000 0.024810 0.000000 0.079294
#
#
# Mechanical properties :
#
#
# Convention : Reuss Voigt Hill
#
# Bulk Modulus (GPa) = 14.16735 22.51845 18.34290
# Shear Modulus (GPa) = 18.84776 104.37100 61.60938
#
# Velocity S-wave (km/s) = 3.36179 7.91098 6.07804
# Velocity P-wave (km/s) = 4.85427 9.84619 7.76245
#
# Compressibility (1/GPa) = 0.07058482
#
# Stress axis : x y z
#
# Youngs Moduli (GPa) = 46.73924 29.71021 41.35934
#
# Poissons Ratio (x) = 0.07351 -0.10350
# Poissons Ratio (y) = 0.11564 0.17999
# Poissons Ratio (z) = -0.11696 0.12929
#
# Static dielectric constant tensor:
#      x y z
#    x 1.649120 0.000000 -0.002940 
#    y 0.000000 1.581130 0.000000 
#    z -0.002940 0.000000 1.579150 
# 
# From -- ./inp_files/355222.got.cif
#   From: 2010.05.17/outbox.cif.g08.bks.cpg/sg12_178_cif.got.tgz:355222.got - 2010.06.03 13:09:07.
