data_PCOD9190040
_publ_section_title
;
Structure prediction by ZEFSAII (Michael W. Deem and Ramdas Pophale) SiO2 
 PCOD9190040
Probable space group: C 2/M
;
_chemical_formula_sum "Si O2"
_cell_formula_units_Z 64
_cell_length_a 18.495364
_cell_length_b 28.959971
_cell_length_c 9.985161
_cell_angle_alpha 90.000000
_cell_angle_beta 36.130928
_cell_angle_gamma 90.000000
_cell_volume 3153.533380
_symmetry_space_group_name_H-M "C 2/M"
_symmetry_group_IT_number 12
_symmetry_cell_setting 'monoclinic'
loop_
_space_group_symop_operation_xyz
x,y,z
-x,y,-z
-x,-y,-z
x,-y,z
1/2+x,1/2+y,z
1/2-x,1/2+y,-z
1/2-x,1/2-y,-z
1/2+x,1/2-y,z
loop_
_atom_site_type_symbol
_atom_site_label
_atom_site_fract_x
_atom_site_fract_y
_atom_site_fract_z
Si Si1 0.995037 0.714267 0.350112
Si Si2 0.122448 0.552950 0.000699
Si Si3 0.721001 0.152379 0.945652
Si Si4 0.741151 0.174156 0.440677
Si Si5 0.341120 0.072331 0.363958
Si Si6 0.624720 0.448910 0.883791
Si Si7 0.132555 0.139596 0.009900
Si Si8 0.401041 0.687276 0.444843
O O1 0.870077 0.698793 0.466678
O O2 0.988924 0.769601 0.347261
O O3 0.000000 0.702091 0.500000
O O4 0.105451 0.687075 0.113968
O O5 0.149838 0.500000 0.006520
O O6 0.181245 0.598805 0.980700
O O7 0.974785 0.560207 0.222792
O O8 0.159992 0.556446 0.787843
O O9 0.780844 0.157312 0.002126
O O10 0.820149 0.169374 0.688812
O O11 0.685146 0.127014 0.586550
O O12 0.810392 0.199046 0.457887
O O13 0.836009 0.162338 0.179766
O O14 0.233082 0.051020 0.613731
O O15 0.600704 0.500000 0.970024
O O16 0.500000 0.431919 0.000000
O O17 0.658952 0.414149 0.948920
O O18 0.992462 0.147564 0.258580
#
# Coordination Sequence:
#
# PCOD9190040 Si02
#       8
#     8   8   8   8   8   8   8   8
#     4  12  26  46  71  99 138 177 218 280 351 403
#     4  11  22  38  66  99 138 177 220 282 345 397
#     4  12  26  45  70  98 141 180 225 280 346 408
#     4  11  22  44  71  97 134 176 222 280 332 398
#     4  10  19  39  64  96 135 174 224 282 338 392
#     4  10  21  38  65  96 133 180 230 276 329 402
#     4  11  24  44  67  95 139 177 220 282 341 398
#     4  12  27  46  70  99 131 179 235 277 331 408
#
# _framework density 20.294695999999998
#
# number of rings (size 3 to 8) (size 9 to 14) (size 15 to 20)
#    0.000    0.875    3.750    4.875    1.750    2.000 
#    2.250    0.000    0.000    4.125    0.000    0.000 
#    0.000    0.000    0.000    0.000    0.000    0.000 
#
# Total GULP energy -178761.719204 kJ/mol
# GULP energy per Si atom -5586.303725 kJ/mol
# Density = 2.024850 g / cm^3
# Si number density = 20.294696 Si / 1000 Ang^3
#
#
#
# Elastic Constant Matrix: (Units=GPa)
#
#
# Indices 1 2 3 4 5 6 
#
# 1 73.9760 19.0795 23.8414 -0.0001 -2.8107 0.0000
# 2 19.0795 99.5705 43.2801 0.0000 -3.5092 0.0000
# 3 23.8414 43.2801 132.0338 -0.0002 -8.4283 0.0000
# 4 -0.0001 0.0000 -0.0002 -12.3700 0.0001 -13.0055
# 5 -2.8107 -3.5092 -8.4283 0.0001 21.8888 0.0000
# 6 0.0000 0.0000 0.0000 -13.0055 0.0000 -0.8274
#
#
#
# Elastic Compliance Matrix: (Units=1/GPa)
#
#
# Indices 1 2 3 4 5 6 
#
# 1 0.014680 -0.001930 -0.001966 0.000000 0.000819 0.000000
# 2 -0.001930 0.011969 -0.003556 0.000000 0.000302 0.000000
# 3 -0.001966 -0.003556 0.009270 0.000000 0.002747 0.000000
# 4 0.000000 0.000000 0.000000 0.005207 0.000000 -0.081843
# 5 0.000819 0.000302 0.002747 0.000000 0.046897 0.000000
# 6 0.000000 0.000000 0.000000 -0.081843 0.000000 0.077843
#
#
# Mechanical properties :
#
#
# Convention : Reuss Voigt Hill
#
# Bulk Modulus (GPa) = 47.58189 53.10915 50.34552
# Shear Modulus (GPa) = 26.62778 16.36357 21.49567
#
# Velocity S-wave (km/s) = 3.62616 2.84262 3.25803
# Velocity P-wave (km/s) = 6.40534 6.08274 6.24613
#
# Compressibility (1/GPa) = 0.02101640
#
# Stress axis : x y z
#
# Youngs Moduli (GPa) = 68.11850 83.54863 107.87816
#
# Poissons Ratio (x) = 0.16121 0.21210
# Poissons Ratio (y) = 0.13144 0.38358
# Poissons Ratio (z) = 0.13393 0.29707
#
# Static dielectric constant tensor:
#      x y z
#    x 1.724270 0.000000 -0.016460 
#    y 0.000000 1.777970 0.000000 
#    z -0.016460 0.000000 1.693270 
# 
# From -- ./inp_files/80729.got.cif
#   From: 2010.05.17/outbox.cif.g08.bks.cpg/sg12_41_cif.got.tgz:80729.got - 2010.06.03 13:09:07.
