data_PCOD9190542
_publ_section_title
;
Structure prediction by ZEFSAII (Michael W. Deem and Ramdas Pophale) SiO2 
 PCOD9190542
Probable space group: C 2/M
;
_chemical_formula_sum "Si O2"
_cell_formula_units_Z 56
_cell_length_a 18.651123
_cell_length_b 26.943871
_cell_length_c 7.906130
_cell_angle_alpha 90.000000
_cell_angle_beta 45.340272
_cell_angle_gamma 90.000000
_cell_volume 2826.037300
_symmetry_space_group_name_H-M "C 2/M"
_symmetry_group_IT_number 12
_symmetry_cell_setting 'monoclinic'
loop_
_space_group_symop_operation_xyz
x,y,z
-x,y,-z
-x,-y,-z
x,-y,z
1/2+x,1/2+y,z
1/2-x,1/2+y,-z
1/2-x,1/2-y,-z
1/2+x,1/2-y,z
loop_
_atom_site_type_symbol
_atom_site_label
_atom_site_fract_x
_atom_site_fract_y
_atom_site_fract_z
Si Si1 0.315934 0.728339 0.038799
Si Si2 0.237568 0.057402 0.599185
Si Si3 0.796977 0.194135 0.561840
Si Si4 0.421325 0.441792 0.841702
Si Si5 0.811486 0.346461 0.585162
Si Si6 0.972246 0.732204 0.235898
Si Si7 0.359019 0.594324 0.587726
O O1 0.275423 0.762215 0.258877
O O2 0.274092 0.673188 0.142567
O O3 0.250000 0.750000 0.000000
O O4 0.431287 0.744138 0.830454
O O5 0.319417 0.094641 0.548330
O O6 0.205170 0.069139 0.458454
O O7 0.266919 0.000000 0.561896
O O8 0.140641 0.065296 0.883042
O O9 0.740239 0.167424 0.506112
O O10 0.898414 0.221079 0.338920
O O11 0.824471 0.151621 0.650531
O O12 0.450848 0.500000 0.784763
O O13 0.523874 0.410223 0.663189
O O14 0.357767 0.429728 0.776479
O O15 0.911676 0.312282 0.430697
O O16 0.000000 0.714695 0.000000
#
# Coordination Sequence:
#
# PCOD9190542 Si02
#       7
#     8   8   8   8   8   8   8
#     4  11  23  35  57  85 117 141 187 239 282 346
#     4  10  21  36  55  80 113 150 194 248 292 338
#     4  10  21  34  52  87 109 149 191 222 280 355
#     4  10  20  33  51  77 110 156 194 235 294 344
#     4  10  21  37  57  86 110 151 196 226 287 349
#     4  11  19  37  62  76 113 156 184 228 288 344
#     4  10  20  31  53  78 115 146 195 238 284 354
#
# _framework density 19.815733000000002
#
# number of rings (size 3 to 8) (size 9 to 14) (size 15 to 20)
#    0.000    1.714    2.857    3.000    4.000    4.571 
#    0.000    0.000    0.000    0.429    0.000    2.000 
#    0.000    0.000    0.000    0.000    0.000    0.000 
#
# Total GULP energy -156027.847497 kJ/mol
# GULP energy per Si atom -5572.423125 kJ/mol
# Density = 1.977063 g / cm^3
# Si number density = 19.815733 Si / 1000 Ang^3
#
#
#
# Elastic Constant Matrix: (Units=GPa)
#
#
# Indices 1 2 3 4 5 6 
#
# 1 74.3428 14.7059 17.3626 0.0000 -5.6495 0.0000
# 2 14.7059 112.1171 10.6974 0.0000 -8.1331 0.0000
# 3 17.3626 10.6974 46.4832 0.0000 -13.8098 0.0000
# 4 0.0000 0.0000 0.0000 17.9665 0.0000 1.6912
# 5 -5.6495 -8.1331 -13.8098 0.0000 29.4350 0.0000
# 6 0.0000 0.0000 0.0000 1.6912 0.0000 19.7428
#
#
#
# Elastic Compliance Matrix: (Units=1/GPa)
#
#
# Indices 1 2 3 4 5 6 
#
# 1 0.014968 -0.001462 -0.005253 0.000000 0.000004 0.000000
# 2 -0.001462 0.009344 -0.001070 0.000000 0.001799 0.000000
# 3 -0.005253 -0.001070 0.027113 0.000000 0.011417 0.000000
# 4 0.000000 0.000000 0.000000 0.056112 0.000000 -0.004806
# 5 0.000004 0.001799 0.011417 0.000000 0.039827 0.000000
# 6 0.000000 0.000000 0.000000 -0.004806 0.000000 0.051063
#
#
# Mechanical properties :
#
#
# Convention : Reuss Voigt Hill
#
# Bulk Modulus (GPa) = 27.88983 35.38610 31.63797
# Shear Modulus (GPa) = 22.12904 26.10733 24.11818
#
# Velocity S-wave (km/s) = 3.34539 3.63368 3.49251
# Velocity P-wave (km/s) = 5.38770 5.95829 5.68017
#
# Compressibility (1/GPa) = 0.03585536
#
# Stress axis : x y z
#
# Youngs Moduli (GPa) = 66.81134 107.02556 36.88223
#
# Poissons Ratio (x) = 0.15644 0.19374
# Poissons Ratio (y) = 0.09766 0.03946
# Poissons Ratio (z) = 0.35096 0.11449
#
# Static dielectric constant tensor:
#      x y z
#    x 1.721390 0.000000 0.028080 
#    y 0.000000 1.685600 0.000000 
#    z 0.028080 0.000000 1.746980 
# 
# From -- ./inp_files/66478.got.cif
#   From: 2010.05.17/outbox.cif.g08.bks.cpg/sg12_34_cif.got.tgz:66478.got - 2010.06.03 13:09:07.
