data_PCOD9190569
_publ_section_title
;
Structure prediction by ZEFSAII (Michael W. Deem and Ramdas Pophale) SiO2 
 PCOD9190569
Probable space group: C 2/M
;
_chemical_formula_sum "Si O2"
_cell_formula_units_Z 48
_cell_length_a 23.009919
_cell_length_b 23.428689
_cell_length_c 9.917450
_cell_angle_alpha 90.000000
_cell_angle_beta 153.560256
_cell_angle_gamma 90.000000
_cell_volume 2380.527827
_symmetry_space_group_name_H-M "C 2/M"
_symmetry_group_IT_number 12
_symmetry_cell_setting 'monoclinic'
loop_
_space_group_symop_operation_xyz
x,y,z
-x,y,-z
-x,-y,-z
x,-y,z
1/2+x,1/2+y,z
1/2-x,1/2+y,-z
1/2-x,1/2-y,-z
1/2+x,1/2-y,z
loop_
_atom_site_type_symbol
_atom_site_label
_atom_site_fract_x
_atom_site_fract_y
_atom_site_fract_z
Si Si1 0.884904 0.347458 0.833190
Si Si2 0.232848 0.159656 0.254643
Si Si3 0.154831 0.694587 0.789486
Si Si4 0.303655 0.641515 0.336710
Si Si5 0.496576 0.269967 0.836379
Si Si6 0.464517 0.567362 0.085105
O O1 0.799508 0.322194 0.533630
O O2 0.792718 0.378081 0.745100
O O3 0.955574 0.294974 0.055561
O O4 0.000000 0.382153 0.000000
O O5 0.323592 0.168065 0.314479
O O6 0.106837 0.199497 0.977406
O O7 0.171611 0.097562 0.157822
O O8 0.000000 0.705192 0.500000
O O9 0.250000 0.750000 0.000000
O O10 0.219394 0.650258 0.028825
O O11 0.362520 0.704231 0.500519
O O12 0.424874 0.598503 0.594813
O O13 0.500000 0.289685 0.000000
O O14 0.461993 0.500000 0.100695
O O15 0.500000 0.577911 0.000000
#
# Coordination Sequence:
#
# PCOD9190569 Si02
#       6
#     8   8   8   8   8   8
#     4  11  21  31  57  84 122 172 221 258 324 398
#     4  11  21  40  59  90 129 170 212 274 331 386
#     4  12  30  43  60  93 144 186 220 264 320 394
#     4  11  22  41  59  91 131 170 217 275 330 388
#     4  10  20  31  58  88 119 163 215 268 310 396
#     4  10  21  42  75 105 124 157 223 299 347 385
#
# _framework density 20.163595000000001
#
# number of rings (size 3 to 8) (size 9 to 14) (size 15 to 20)
#    0.000    1.167    3.333    3.500   14.000    0.000 
#    0.000    1.667    0.000    6.000    0.000    0.000 
#    0.000    0.000    0.000    0.000    0.000    0.000 
#
# Total GULP energy -133888.628259 kJ/mol
# GULP energy per Si atom -5578.692844 kJ/mol
# Density = 2.011770 g / cm^3
# Si number density = 20.163595 Si / 1000 Ang^3
#
#
#
# Elastic Constant Matrix: (Units=GPa)
#
#
# Indices 1 2 3 4 5 6 
#
# 1 124.3924 20.4555 47.1298 0.0000 8.3990 0.0000
# 2 20.4555 83.4181 35.9019 0.0000 4.5277 0.0000
# 3 47.1298 35.9019 114.1557 0.0000 -2.1224 0.0000
# 4 0.0000 0.0000 0.0000 13.8218 0.0000 1.8060
# 5 8.3990 4.5277 -2.1224 0.0000 45.2811 0.0000
# 6 0.0000 0.0000 0.0000 1.8060 0.0000 17.1004
#
#
#
# Elastic Compliance Matrix: (Units=1/GPa)
#
#
# Indices 1 2 3 4 5 6 
#
# 1 0.009733 -0.000622 -0.003859 0.000000 -0.001924 0.000000
# 2 -0.000622 0.014020 -0.004180 0.000000 -0.001482 0.000000
# 3 -0.003859 -0.004180 0.011699 0.000000 0.001682 0.000000
# 4 0.000000 0.000000 0.000000 0.073362 0.000000 -0.007748
# 5 -0.001924 -0.001482 0.001682 0.000000 0.022668 0.000000
# 6 0.000000 0.000000 0.000000 -0.007748 0.000000 0.059296
#
#
# Mechanical properties :
#
#
# Convention : Reuss Voigt Hill
#
# Bulk Modulus (GPa) = 55.15387 58.77118 56.96253
# Shear Modulus (GPa) = 23.34891 29.80593 26.57742
#
# Velocity S-wave (km/s) = 3.40659 3.84891 3.63449
# Velocity P-wave (km/s) = 6.54872 6.99733 6.77674
#
# Compressibility (1/GPa) = 0.01813110
#
# Stress axis : x y z
#
# Youngs Moduli (GPa) = 102.74130 71.32785 85.47766
#
# Poissons Ratio (x) = 0.04434 0.32983
# Poissons Ratio (y) = 0.06386 0.35731
# Poissons Ratio (z) = 0.39645 0.29816
#
# Static dielectric constant tensor:
#      x y z
#    x 1.789510 0.000000 0.030040 
#    y 0.000000 1.731810 0.000000 
#    z 0.030040 0.000000 1.787210 
# 
# From -- ./inp_files/91274.got.cif
#   From: 2010.05.17/outbox.cif.g08.bks.cpg/sg12_46_cif.got.tgz:91274.got - 2010.06.03 13:09:07.
