data_PCOD9190365
_publ_section_title
;
Structure prediction by ZEFSAII (Michael W. Deem and Ramdas Pophale) SiO2 
 PCOD9190365
Probable space group: C 2/M
;
_chemical_formula_sum "Si O2"
_cell_formula_units_Z 64
_cell_length_a 16.097421
_cell_length_b 7.289262
_cell_length_c 19.652267
_cell_angle_alpha 90.000000
_cell_angle_beta 94.695008
_cell_angle_gamma 90.000000
_cell_volume 2298.226367
_symmetry_space_group_name_H-M "C 2/M"
_symmetry_group_IT_number 12
_symmetry_cell_setting 'monoclinic'
loop_
_space_group_symop_operation_xyz
x,y,z
-x,y,-z
-x,-y,-z
x,-y,z
1/2+x,1/2+y,z
1/2-x,1/2+y,-z
1/2-x,1/2-y,-z
1/2+x,1/2-y,z
loop_
_atom_site_type_symbol
_atom_site_label
_atom_site_fract_x
_atom_site_fract_y
_atom_site_fract_z
Si Si1 0.445983 0.788378 0.077777
Si Si2 0.458667 0.224366 0.793049
Si Si3 0.208839 0.222315 0.834769
Si Si4 0.290124 0.780749 0.709064
Si Si5 0.961302 0.724205 0.334006
Si Si6 0.829530 0.281716 0.956152
Si Si7 0.812329 0.716971 0.419743
Si Si8 0.918475 0.714144 0.545117
O O1 0.519473 0.710308 0.129822
O O2 0.368467 0.788710 0.125967
O O3 0.466563 0.000000 0.066144
O O4 0.408043 0.709892 0.005231
O O5 0.374971 0.282967 0.749669
O O6 0.529493 0.279244 0.743295
O O7 0.456578 0.000000 0.796547
O O8 0.219335 0.284383 0.757735
O O9 0.293021 0.279063 0.881435
O O10 0.205369 0.000000 0.836207
O O11 0.271565 0.740172 0.629127
O O12 0.292142 0.000000 0.712606
O O13 0.961426 0.500000 0.335512
O O14 0.042254 0.786714 0.382715
O O15 0.881527 0.787825 0.370716
O O16 0.842211 0.500000 0.950874
O O17 0.750000 0.250000 0.000000
O O18 0.824321 0.500000 0.426939
O O19 0.841374 0.791694 0.495288
O O20 0.899957 0.500000 0.557222
O O21 0.000000 0.720225 0.500000
#
# Coordination Sequence:
#
# PCOD9190365 Si02
#       8
#     8   8   8   8   8   8   8   8
#     4   9  16  28  48  69  84 104 142 184 211 238
#     4   9  17  28  41  60  87 116 144 173 206 247
#     4   9  17  29  44  63  88 115 139 167 211 260
#     4  10  20  31  41  58  89 122 144 166 205 256
#     4   8  13  24  45  68  85 105 138 178 214 247
#     4   8  14  25  42  64  86 106 133 172 213 248
#     4   9  16  28  48  69  84 103 140 184 215 243
#     4   7  11  21  40  66  87 101 128 175 220 249
#
# _framework density 27.847563000000001
#
# number of rings (size 3 to 8) (size 9 to 14) (size 15 to 20)
#    0.000    3.375    0.000    2.250    0.000    1.500 
#    0.000    1.875    0.000    7.875    0.000    0.000 
#    0.000   11.000    0.000    0.000    0.000    0.000 
#
# Total GULP energy -178857.880601 kJ/mol
# GULP energy per Si atom -5589.308769 kJ/mol
# Density = 2.778418 g / cm^3
# Si number density = 27.847563 Si / 1000 Ang^3
#
#
#
# Elastic Constant Matrix: (Units=GPa)
#
#
# Indices 1 2 3 4 5 6 
#
# 1 98.8853 -3.1647 43.1908 0.0000 18.1544 0.0000
# 2 -3.1647 125.8722 5.7824 0.0000 -1.7014 0.0000
# 3 43.1908 5.7824 262.4629 0.0000 15.7194 0.0000
# 4 0.0000 0.0000 0.0000 3.1950 0.0000 8.0212
# 5 18.1544 -1.7014 15.7194 0.0000 63.3536 0.0000
# 6 0.0000 0.0000 0.0000 8.0212 0.0000 -2.3846
#
#
#
# Elastic Compliance Matrix: (Units=1/GPa)
#
#
# Indices 1 2 3 4 5 6 
#
# 1 0.011391 0.000327 -0.001712 0.000000 -0.002830 0.000000
# 2 0.000327 0.007966 -0.000240 0.000000 0.000180 0.000000
# 3 -0.001712 -0.000240 0.004129 0.000000 -0.000540 0.000000
# 4 0.000000 0.000000 0.000000 0.033138 0.000000 0.111469
# 5 -0.002830 0.000180 -0.000540 0.000000 0.016734 0.000000
# 6 0.000000 0.000000 0.000000 0.111469 0.000000 -0.044401
#
#
# Mechanical properties :
#
#
# Convention : Reuss Voigt Hill
#
# Bulk Modulus (GPa) = 49.41789 64.31524 56.86656
# Shear Modulus (GPa) = 128.35759 42.26028 85.30894
#
# Velocity S-wave (km/s) = 6.79654 3.89981 5.54083
# Velocity P-wave (km/s) = 8.90927 6.58966 7.83577
#
# Compressibility (1/GPa) = 0.02023559
#
# Stress axis : x y z
#
# Youngs Moduli (GPa) = 87.79130 125.52970 242.16214
#
# Poissons Ratio (x) = -0.04102 0.41461
# Poissons Ratio (y) = -0.02869 0.05813
# Poissons Ratio (z) = 0.15031 0.03013
#
# Static dielectric constant tensor:
#      x y z
#    x 2.268940 0.000000 0.053580 
#    y 0.000000 1.886090 0.000000 
#    z 0.053580 0.000000 2.155090 
# 
# From -- ./inp_files/345616.got.cif
#   From: 2010.05.17/outbox.cif.g08.bks.cpg/sg12_173_cif.got.tgz:345616.got - 2010.06.03 13:09:07.
