data_PCOD9190735
_publ_section_title
;
Structure prediction by ZEFSAII (Michael W. Deem and Ramdas Pophale) SiO2 
 PCOD9190735
Probable space group: C 2/M
;
_chemical_formula_sum "Si O2"
_cell_formula_units_Z 56
_cell_length_a 23.098080
_cell_length_b 23.978097
_cell_length_c 16.765047
_cell_angle_alpha 90.000000
_cell_angle_beta 21.856431
_cell_angle_gamma 90.000000
_cell_volume 3456.746693
_symmetry_space_group_name_H-M "C 2/M"
_symmetry_group_IT_number 12
_symmetry_cell_setting 'monoclinic'
loop_
_space_group_symop_operation_xyz
x,y,z
-x,y,-z
-x,-y,-z
x,-y,z
1/2+x,1/2+y,z
1/2-x,1/2+y,-z
1/2-x,1/2-y,-z
1/2+x,1/2-y,z
loop_
_atom_site_type_symbol
_atom_site_label
_atom_site_fract_x
_atom_site_fract_y
_atom_site_fract_z
Si Si1 0.732476 0.500000 0.326696
Si Si2 0.874550 0.312386 0.843273
Si Si3 0.390056 0.765846 0.262929
Si Si4 0.840375 0.763089 0.580745
Si Si5 0.785967 0.229242 0.090629
Si Si6 0.639119 0.616410 0.384538
Si Si7 0.039438 0.380715 0.126779
Si Si8 0.957221 0.500000 0.181211
O O1 0.641410 0.556994 0.425849
O O2 0.806078 0.500000 0.319495
O O3 0.885223 0.500000 0.074123
O O4 0.776415 0.319171 0.887761
O O5 0.929777 0.366289 0.820252
O O6 0.022755 0.273107 0.633612
O O7 0.780417 0.280192 0.033882
O O8 0.250000 0.750000 0.500000
O O9 0.318966 0.757535 0.266021
O O10 0.439438 0.830031 0.216477
O O11 0.539311 0.729402 0.098475
O O12 0.817715 0.741811 0.700040
O O13 0.874414 0.829100 0.542542
O O14 0.500000 0.617888 0.500000
O O15 0.801515 0.620084 0.128210
O O16 0.964500 0.441333 0.216585
#
# Coordination Sequence:
#
# PCOD9190735 Si02
#       8
#     4   8   8   8   8   8   8   4
#     4   9  19  34  48  74 107 134 188 221 245 319
#     4  10  20  34  48  74 107 132 179 218 255 321
#     4  11  20  33  48  75 109 138 172 220 261 316
#     4  12  20  32  53  74 104 148 174 209 272 318
#     4  10  20  32  48  70 105 138 167 211 265 314
#     4  11  21  31  51  75 104 150 181 213 261 313
#     4  10  20  36  51  75 107 139 179 224 259 316
#     4   9  18  34  56  72  97 146 178 215 276 307
#
# _framework density 16.200203999999999
#
# number of rings (size 3 to 8) (size 9 to 14) (size 15 to 20)
#    0.000    1.571    5.714    2.786    2.000    1.143 
#    0.000    0.000    0.000    0.000    0.000    2.000 
#    0.000    1.143    0.000    0.000    0.000    0.000 
#
# Total GULP energy -156034.026983 kJ/mol
# GULP energy per Si atom -5572.643821 kJ/mol
# Density = 1.616333 g / cm^3
# Si number density = 16.200204 Si / 1000 Ang^3
#
#
#
# Elastic Constant Matrix: (Units=GPa)
#
#
# Indices 1 2 3 4 5 6 
#
# 1 124.6222 46.3493 16.7661 0.0050 -14.1794 -0.0010
# 2 46.3493 87.1327 29.4027 0.0088 -4.4021 -0.0036
# 3 16.7661 29.4027 49.4305 0.0174 -6.8967 -0.0065
# 4 0.0050 0.0088 0.0174 13.7957 -0.0100 2.8893
# 5 -14.1794 -4.4021 -6.8967 -0.0100 34.3348 0.0013
# 6 -0.0010 -0.0036 -0.0065 2.8893 0.0013 25.4381
#
#
#
# Elastic Compliance Matrix: (Units=1/GPa)
#
#
# Indices 1 2 3 4 5 6 
#
# 1 0.010434 -0.005434 0.000203 0.000002 0.003653 -0.000001
# 2 -0.005434 0.017190 -0.008629 0.000001 -0.001774 0.000000
# 3 0.000203 -0.008629 0.025877 -0.000026 0.004175 0.000008
# 4 0.000002 0.000001 -0.000026 0.074253 0.000018 -0.008434
# 5 0.003653 -0.001774 0.004175 0.000018 0.031245 -0.000003
# 6 -0.000001 0.000000 0.000008 -0.008434 -0.000003 0.040269
#
#
# Mechanical properties :
#
#
# Convention : Reuss Voigt Hill
#
# Bulk Modulus (GPa) = 38.78987 49.58016 44.18501
# Shear Modulus (GPa) = 21.22419 25.95821 23.59120
#
# Velocity S-wave (km/s) = 3.62348 4.00726 3.82020
# Velocity P-wave (km/s) = 6.44222 7.21678 6.84048
#
# Compressibility (1/GPa) = 0.02577993
#
# Stress axis : x y z
#
# Youngs Moduli (GPa) = 95.84461 58.17476 38.64429
#
# Poissons Ratio (x) = 0.31612 -0.00785
# Poissons Ratio (y) = 0.52082 0.33347
# Poissons Ratio (z) = -0.01946 0.50200
#
# Static dielectric constant tensor:
#      x y z
#    x 1.597470 0.000000 -0.023170 
#    y 0.000000 1.545270 0.000000 
#    z -0.023170 0.000000 1.563150 
# 
# From -- ./inp_files/291033.got.cif
#   From: 2010.05.17/outbox.cif.g08.bks.cpg/sg12_146_cif.got.tgz:291033.got - 2010.06.03 13:09:07.
