data_PCOD9190533
_publ_section_title
;
Structure prediction by ZEFSAII (Michael W. Deem and Ramdas Pophale) SiO2 
 PCOD9190533
Probable space group: C 2/M
;
_chemical_formula_sum "Si O2"
_cell_formula_units_Z 40
_cell_length_a 22.753374
_cell_length_b 7.856442
_cell_length_c 16.653585
_cell_angle_alpha 90.000000
_cell_angle_beta 135.451340
_cell_angle_gamma 90.000000
_cell_volume 2088.412406
_symmetry_space_group_name_H-M "C 2/M"
_symmetry_group_IT_number 12
_symmetry_cell_setting 'monoclinic'
loop_
_space_group_symop_operation_xyz
x,y,z
-x,y,-z
-x,-y,-z
x,-y,z
1/2+x,1/2+y,z
1/2-x,1/2+y,-z
1/2-x,1/2-y,-z
1/2+x,1/2-y,z
loop_
_atom_site_type_symbol
_atom_site_label
_atom_site_fract_x
_atom_site_fract_y
_atom_site_fract_z
Si Si1 0.333084 0.296344 0.534720
Si Si2 0.700688 0.695005 0.672371
Si Si3 0.057352 0.303491 0.631445
Si Si4 0.464695 0.000000 0.098487
Si Si5 0.635155 0.000000 0.164430
Si Si6 0.013051 0.196942 0.764583
O O1 0.335594 0.500000 0.528508
O O2 0.250000 0.250000 0.500000
O O3 0.328732 0.226386 0.440381
O O4 0.415855 0.247813 0.662323
O O5 0.667884 0.500000 0.647512
O O6 0.653863 0.790837 0.697463
O O7 0.800606 0.661004 0.766344
O O8 0.034040 0.500000 0.622395
O O9 0.000000 0.242122 0.500000
O O10 0.044520 0.209801 0.703212
O O11 0.448438 0.166677 0.137109
O O12 0.560193 0.000000 0.155879
O O13 0.406231 0.000000 0.963307
O O14 0.019465 0.000000 0.797208
#
# Coordination Sequence:
#
# PCOD9190533 Si02
#       6
#     8   8   8   4   4   8
#     4  10  20  31  52  86 122 154 195 250 309 365
#     4   9  19  36  56  83 116 155 204 241 310 357
#     4  11  21  35  58  91 128 169 204 249 311 384
#     4  11  22  46  67  88 126 160 223 252 302 379
#     4   9  22  42  69  86 116 176 201 266 308 357
#     4  11  23  37  61  94 123 165 202 256 314 367
#
# _framework density 19.153305
#
# number of rings (size 3 to 8) (size 9 to 14) (size 15 to 20)
#    0.600    1.200    3.000    1.800    1.400    1.600 
#    0.000    5.000    0.000    0.000    0.000    0.000 
#    0.000    0.000    0.000    0.000    0.000    0.000 
#
# Total GULP energy -111456.473296 kJ/mol
# GULP energy per Si atom -5572.823665 kJ/mol
# Density = 1.910971 g / cm^3
# Si number density = 19.153305 Si / 1000 Ang^3
#
#
#
# Elastic Constant Matrix: (Units=GPa)
#
#
# Indices 1 2 3 4 5 6 
#
# 1 56.8612 5.0709 1.7587 0.0000 -13.1460 0.0000
# 2 5.0709 63.6105 35.1454 0.0000 -13.3251 0.0000
# 3 1.7587 35.1454 60.2762 0.0000 -17.6778 0.0000
# 4 0.0000 0.0000 0.0000 8.1894 0.0000 1.6304
# 5 -13.1460 -13.3251 -17.6778 0.0000 29.5410 0.0000
# 6 0.0000 0.0000 0.0000 1.6304 0.0000 30.8097
#
#
#
# Elastic Compliance Matrix: (Units=1/GPa)
#
#
# Indices 1 2 3 4 5 6 
#
# 1 0.019954 -0.001158 0.003085 0.000000 0.010204 0.000000
# 2 -0.001158 0.023462 -0.012970 0.000000 0.002306 0.000000
# 3 0.003085 -0.012970 0.027592 0.000000 0.012034 0.000000
# 4 0.000000 0.000000 0.000000 0.123410 0.000000 -0.006531
# 5 0.010204 0.002306 0.012034 0.000000 0.046634 0.000000
# 6 0.000000 0.000000 0.000000 -0.006531 0.000000 0.032803
#
#
# Mechanical properties :
#
#
# Convention : Reuss Voigt Hill
#
# Bulk Modulus (GPa) = 20.44033 29.41089 24.92561
# Shear Modulus (GPa) = 16.01298 22.95954 19.48626
#
# Velocity S-wave (km/s) = 2.89458 3.46602 3.19311
# Velocity P-wave (km/s) = 4.67617 5.60415 5.16106
#
# Compressibility (1/GPa) = 0.04892289
#
# Stress axis : x y z
#
# Youngs Moduli (GPa) = 50.11642 42.62184 36.24232
#
# Poissons Ratio (x) = 0.04936 -0.11183
# Poissons Ratio (y) = 0.05803 0.47006
# Poissons Ratio (z) = -0.15463 0.55280
#
# Static dielectric constant tensor:
#      x y z
#    x 1.678990 0.000000 -0.006360 
#    y 0.000000 1.737340 0.000000 
#    z -0.006360 0.000000 1.643780 
# 
# From -- ./inp_files/230661.got.cif
#   From: 2010.05.17/outbox.cif.g08.bks.cpg/sg12_116_cif.got.tgz:230661.got - 2010.06.03 13:09:07.
