data_PCOD9190801
_publ_section_title
;
Structure prediction by ZEFSAII (Michael W. Deem and Ramdas Pophale) SiO2 
 PCOD9190801
Probable space group: C 2/M
;
_chemical_formula_sum "Si O2"
_cell_formula_units_Z 56
_cell_length_a 18.117986
_cell_length_b 20.855588
_cell_length_c 15.924789
_cell_angle_alpha 90.000000
_cell_angle_beta 150.646269
_cell_angle_gamma 90.000000
_cell_volume 2949.710504
_symmetry_space_group_name_H-M "C 2/M"
_symmetry_group_IT_number 12
_symmetry_cell_setting 'monoclinic'
loop_
_space_group_symop_operation_xyz
x,y,z
-x,y,-z
-x,-y,-z
x,-y,z
1/2+x,1/2+y,z
1/2-x,1/2+y,-z
1/2-x,1/2-y,-z
1/2+x,1/2-y,z
loop_
_atom_site_type_symbol
_atom_site_label
_atom_site_fract_x
_atom_site_fract_y
_atom_site_fract_z
Si Si1 0.597659 0.428978 0.020620
Si Si2 0.886144 0.572206 0.602255
Si Si3 0.828899 0.698566 0.641007
Si Si4 0.744139 0.075886 0.986514
Si Si5 0.681028 0.752423 0.190821
Si Si6 0.833975 0.616549 0.365698
Si Si7 0.690544 0.205003 0.015586
O O1 0.534427 0.500000 0.944099
O O2 0.636820 0.402290 0.967915
O O3 0.760261 0.430124 0.224891
O O4 0.500000 0.400001 0.000000
O O5 0.849298 0.500000 0.592551
O O6 0.815520 0.627336 0.590127
O O7 0.830917 0.585349 0.453582
O O8 0.068927 0.578138 0.782946
O O9 0.750000 0.750000 0.500000
O O10 0.775695 0.705601 0.684690
O O11 0.009321 0.709440 0.825891
O O12 0.745000 0.131590 0.056640
O O13 0.773012 0.000000 0.034896
O O14 0.743336 0.682644 0.274361
O O15 0.500000 0.752904 0.000000
O O16 0.738591 0.772228 0.155804
O O17 0.000000 0.631277 0.500000
O O18 0.750000 0.250000 0.000000
#
# Coordination Sequence:
#
# PCOD9190801 Si02
#       7
#     8   8   8   8   8   8   8
#     4  10  20  32  48  74 110 147 179 221 280 341
#     4  10  20  34  56  83 112 146 187 233 279 330
#     4  10  20  39  57  82 110 148 186 234 276 328
#     4   9  18  35  54  77 110 146 186 233 277 330
#     4  10  22  37  55  82 116 148 183 235 286 329
#     4  12  21  31  54  81 112 146 188 226 281 335
#     4  10  21  35  58  83 110 147 190 229 282 336
#
# _framework density 18.984914
#
# number of rings (size 3 to 8) (size 9 to 14) (size 15 to 20)
#    0.000    1.857    2.857    1.714    2.000    1.714 
#    0.000    0.714    0.000    4.286    0.000    0.000 
#    0.000    3.429    0.000    0.000    0.000    0.000 
#
# Total GULP energy -155956.461837 kJ/mol
# GULP energy per Si atom -5569.873637 kJ/mol
# Density = 1.894170 g / cm^3
# Si number density = 18.984914 Si / 1000 Ang^3
#
#
#
# Elastic Constant Matrix: (Units=GPa)
#
#
# Indices 1 2 3 4 5 6 
#
# 1 99.3731 47.9960 13.7977 0.0000 -17.7786 0.0000
# 2 47.9960 112.4561 15.8972 0.0000 -11.9925 0.0000
# 3 13.7977 15.8972 27.8322 0.0000 -11.9157 0.0000
# 4 0.0000 0.0000 0.0000 21.0838 0.0000 1.7733
# 5 -17.7786 -11.9925 -11.9157 0.0000 24.5372 0.0000
# 6 0.0000 0.0000 0.0000 1.7733 0.0000 7.0547
#
#
#
# Elastic Compliance Matrix: (Units=1/GPa)
#
#
# Indices 1 2 3 4 5 6 
#
# 1 0.013909 -0.005038 -0.000956 0.000000 0.007151 0.000000
# 2 -0.005038 0.011630 -0.004134 0.000000 0.000026 0.000000
# 3 -0.000956 -0.004134 0.047473 0.000000 0.020341 0.000000
# 4 0.000000 0.000000 0.000000 0.048454 0.000000 -0.012180
# 5 0.007151 0.000026 0.020341 0.000000 0.055826 0.000000
# 6 0.000000 0.000000 0.000000 -0.012180 0.000000 0.144811
#
#
# Mechanical properties :
#
#
# Convention : Reuss Voigt Hill
#
# Bulk Modulus (GPa) = 18.95538 43.89367 31.42452
# Shear Modulus (GPa) = 13.89102 21.33318 17.61210
#
# Velocity S-wave (km/s) = 2.70791 3.35579 3.04910
# Velocity P-wave (km/s) = 4.44782 6.17945 5.38371
#
# Compressibility (1/GPa) = 0.05275548
#
# Stress axis : x y z
#
# Youngs Moduli (GPa) = 71.89758 85.98516 21.06455
#
# Poissons Ratio (x) = 0.43323 0.02013
# Poissons Ratio (y) = 0.36225 0.08708
# Poissons Ratio (z) = 0.06872 0.35545
#
# Static dielectric constant tensor:
#      x y z
#    x 1.703830 0.000000 0.068820 
#    y 0.000000 1.685920 0.000000 
#    z 0.068820 0.000000 1.766280 
# 
# From -- ./inp_files/77619.got.cif
#   From: 2010.05.17/outbox.cif.g08.bks.cpg/sg12_39_cif.got.tgz:77619.got - 2010.06.03 13:09:07.
