data_PCOD9190027
_publ_section_title
;
Structure prediction by ZEFSAII (Michael W. Deem and Ramdas Pophale) SiO2 
 PCOD9190027
Probable space group: C 2/M
;
_chemical_formula_sum "Si O2"
_cell_formula_units_Z 56
_cell_length_a 17.960273
_cell_length_b 14.449548
_cell_length_c 12.147662
_cell_angle_alpha 90.000000
_cell_angle_beta 121.443359
_cell_angle_gamma 90.000000
_cell_volume 2689.604884
_symmetry_space_group_name_H-M "C 2/M"
_symmetry_group_IT_number 12
_symmetry_cell_setting 'monoclinic'
loop_
_space_group_symop_operation_xyz
x,y,z
-x,y,-z
-x,-y,-z
x,-y,z
1/2+x,1/2+y,z
1/2-x,1/2+y,-z
1/2-x,1/2-y,-z
1/2+x,1/2-y,z
loop_
_atom_site_type_symbol
_atom_site_label
_atom_site_fract_x
_atom_site_fract_y
_atom_site_fract_z
Si Si1 0.793975 0.350917 0.748634
Si Si2 0.853113 0.705679 0.024203
Si Si3 0.773347 0.106357 0.920659
Si Si4 0.566569 0.195941 0.452848
Si Si5 0.019528 0.396197 0.187862
Si Si6 0.133329 0.900925 0.479558
Si Si7 0.264283 0.353066 0.658666
O O1 0.884981 0.398934 0.792061
O O2 0.707758 0.395702 0.631749
O O3 0.799060 0.251779 0.692418
O O4 0.792604 0.330445 0.877169
O O5 0.815977 0.653733 0.103337
O O6 0.950614 0.672082 0.078561
O O7 0.842827 0.816676 0.017101
O O8 0.776370 0.106804 0.790153
O O9 0.782315 0.000000 0.965416
O O10 0.500000 0.180509 0.500000
O O11 0.532644 0.144206 0.319332
O O12 0.578200 0.306676 0.444369
O O13 0.661900 0.154968 0.553786
O O14 0.982995 0.500000 0.159395
O O15 0.185043 0.898291 0.403205
O O16 0.086568 0.000000 0.452124
#
# Coordination Sequence:
#
# PCOD9190027 Si02
#       7
#     8   8   8   8   8   8   8
#     4  10  20  38  60  84 118 154 197 247 299 349
#     4  10  23  38  57  87 123 155 195 247 296 356
#     4  10  21  39  62  86 115 158 202 243 296 355
#     4  11  23  39  58  90 129 157 194 251 309 354
#     4  12  23  37  58  86 119 156 198 244 302 361
#     4  11  21  38  65  91 117 160 208 244 295 362
#     4  10  19  39  64  87 116 157 202 252 293 353
#
# _framework density 20.820900999999999
#
# number of rings (size 3 to 8) (size 9 to 14) (size 15 to 20)
#    0.000    1.429    2.857    3.429    0.000    5.143 
#    0.000    0.714    0.000    1.714    0.000    0.000 
#    0.000    0.000    0.000    0.000    0.000    0.000 
#
# Total GULP energy -156344.150807 kJ/mol
# GULP energy per Si atom -5583.719672 kJ/mol
# Density = 2.077351 g / cm^3
# Si number density = 20.820901 Si / 1000 Ang^3
#
#
#
# Elastic Constant Matrix: (Units=GPa)
#
#
# Indices 1 2 3 4 5 6 
#
# 1 45.8688 2.1993 8.6475 0.0000 -9.4543 0.0000
# 2 2.1993 131.8902 10.7448 0.0000 8.5341 0.0000
# 3 8.6475 10.7448 56.8998 0.0000 -7.1253 0.0000
# 4 0.0000 0.0000 0.0000 7.2540 0.0000 4.6795
# 5 -9.4543 8.5341 -7.1253 0.0000 29.2541 0.0000
# 6 0.0000 0.0000 0.0000 4.6795 0.0000 7.3824
#
#
#
# Elastic Compliance Matrix: (Units=1/GPa)
#
#
# Indices 1 2 3 4 5 6 
#
# 1 0.023816 -0.000656 -0.002587 0.000000 0.007258 0.000000
# 2 -0.000656 0.007928 -0.001768 0.000000 -0.002955 0.000000
# 3 -0.002587 -0.001768 0.018836 0.000000 0.004267 0.000000
# 4 0.000000 0.000000 0.000000 0.233226 0.000000 -0.147837
# 5 0.007258 -0.002955 0.004267 0.000000 0.038431 0.000000
# 6 0.000000 0.000000 0.000000 -0.147837 0.000000 0.229169
#
#
# Mechanical properties :
#
#
# Convention : Reuss Voigt Hill
#
# Bulk Modulus (GPa) = 24.65478 30.87133 27.76305
# Shear Modulus (GPa) = 8.69646 22.98257 15.83952
#
# Velocity S-wave (km/s) = 2.04594 3.32599 2.76116
# Velocity P-wave (km/s) = 4.17711 5.44140 4.85062
#
# Compressibility (1/GPa) = 0.04056009
#
# Stress axis : x y z
#
# Youngs Moduli (GPa) = 41.98771 126.13152 53.08968
#
# Poissons Ratio (x) = 0.08275 0.13733
# Poissons Ratio (y) = 0.02755 0.09384
# Poissons Ratio (z) = 0.10861 0.22294
#
# Static dielectric constant tensor:
#      x y z
#    x 1.746890 0.000000 -0.011710 
#    y 0.000000 1.762470 0.000000 
#    z -0.011710 0.000000 1.755950 
# 
# From -- ./inp_files/155971.got.cif
#   From: 2010.05.17/outbox.cif.g08.bks.cpg/sg12_78_cif.got.tgz:155971.got - 2010.06.03 13:09:07.
