data_PCOD9190762
_publ_section_title
;
Structure prediction by ZEFSAII (Michael W. Deem and Ramdas Pophale) SiO2 
 PCOD9190762
Probable space group: C 2/M
;
_chemical_formula_sum "Si O2"
_cell_formula_units_Z 64
_cell_length_a 10.186661
_cell_length_b 22.491787
_cell_length_c 32.696282
_cell_angle_alpha 90.000000
_cell_angle_beta 149.791520
_cell_angle_gamma 90.000000
_cell_volume 3769.205477
_symmetry_space_group_name_H-M "C 2/M"
_symmetry_group_IT_number 12
_symmetry_cell_setting 'monoclinic'
loop_
_space_group_symop_operation_xyz
x,y,z
-x,y,-z
-x,-y,-z
x,-y,z
1/2+x,1/2+y,z
1/2-x,1/2+y,-z
1/2-x,1/2-y,-z
1/2+x,1/2-y,z
loop_
_atom_site_type_symbol
_atom_site_label
_atom_site_fract_x
_atom_site_fract_y
_atom_site_fract_z
Si Si1 0.783143 0.161144 0.699680
Si Si2 0.976517 0.249705 0.174295
Si Si3 0.775990 0.258568 0.555355
Si Si4 0.958845 0.163357 0.316820
Si Si5 0.599588 0.359806 0.072078
Si Si6 0.549762 0.929209 0.238766
Si Si7 0.697070 0.645827 0.928152
Si Si8 0.716660 0.429870 0.227891
O O1 0.984262 0.207263 0.775752
O O2 0.506206 0.194285 0.624150
O O3 0.879815 0.146870 0.680207
O O4 0.759949 0.105513 0.723702
O O5 0.235446 0.289850 0.242419
O O6 0.737980 0.295374 0.111869
O O7 0.937202 0.205463 0.125817
O O8 0.500000 0.277530 0.500000
O O9 0.750000 0.250000 0.500000
O O10 0.865441 0.198603 0.603064
O O11 0.804394 0.108480 0.295435
O O12 0.363743 0.360234 0.040597
O O13 0.817557 0.406368 0.146480
O O14 0.500000 0.371580 0.000000
O O15 0.443880 0.914758 0.256017
O O16 0.585122 0.000000 0.245034
O O17 0.548994 0.592477 0.865153
O O18 0.000000 0.647467 0.000000
O O19 0.715947 0.500000 0.233657
#
# Coordination Sequence:
#
# PCOD9190762 Si02
#       8
#     8   8   8   8   8   8   8   8
#     4  10  20  34  56  83 108 137 176 216 256 309
#     4   9  19  32  51  72 106 140 174 213 265 324
#     4  11  22  36  57  88 121 144 164 203 257 312
#     4  10  20  34  56  83 108 137 177 215 256 310
#     4  10  20  32  48  72 102 136 175 221 270 320
#     4   9  20  38  56  73 100 141 183 222 266 313
#     4  10  20  32  48  72 102 136 175 222 271 315
#     4   9  20  38  56  73 100 141 184 222 264 314
#
# _framework density 16.979704999999999
#
# number of rings (size 3 to 8) (size 9 to 14) (size 15 to 20)
#    0.000    2.250    1.250    1.125    1.750   10.000 
#    0.000    0.000    0.000    1.500    0.000    0.000 
#    0.000    0.000    0.000    0.000    0.000    0.000 
#
# Total GULP energy -178493.777162 kJ/mol
# GULP energy per Si atom -5577.930536 kJ/mol
# Density = 1.694106 g / cm^3
# Si number density = 16.979705 Si / 1000 Ang^3
#
#
#
# Elastic Constant Matrix: (Units=GPa)
#
#
# Indices 1 2 3 4 5 6 
#
# 1 143.9024 58.1057 58.5515 0.0008 -16.9758 0.0003
# 2 58.1057 92.0994 26.9497 0.0016 -5.4374 0.0015
# 3 58.5515 26.9497 60.9643 0.0005 -8.7351 0.0007
# 4 0.0008 0.0016 0.0005 6.1245 0.0010 2.1387
# 5 -16.9758 -5.4374 -8.7351 0.0010 27.9685 0.0000
# 6 0.0003 0.0015 0.0007 2.1387 0.0000 19.1860
#
#
#
# Elastic Compliance Matrix: (Units=1/GPa)
#
#
# Indices 1 2 3 4 5 6 
#
# 1 0.013822 -0.005473 -0.010265 0.000000 0.004119 0.000001
# 2 -0.005473 0.014653 -0.001349 -0.000003 -0.000895 -0.000001
# 3 -0.010265 -0.001349 0.027142 -0.000001 0.001984 -0.000001
# 4 0.000000 -0.000003 -0.000001 0.169891 -0.000007 -0.018938
# 5 0.004119 -0.000895 0.001984 -0.000007 0.038701 0.000001
# 6 0.000001 -0.000001 -0.000001 -0.018938 0.000001 0.054232
#
#
# Mechanical properties :
#
#
# Convention : Reuss Voigt Hill
#
# Bulk Modulus (GPa) = 46.63616 64.90888 55.77252
# Shear Modulus (GPa) = 13.89802 20.87976 17.38889
#
# Velocity S-wave (km/s) = 2.86406 3.51050 3.20363
# Velocity P-wave (km/s) = 6.20182 7.39877 6.82658
#
# Compressibility (1/GPa) = 0.02144259
#
# Stress axis : x y z
#
# Youngs Moduli (GPa) = 72.34937 68.24615 36.84269
#
# Poissons Ratio (x) = 0.37353 0.37819
# Poissons Ratio (y) = 0.39599 0.04970
# Poissons Ratio (z) = 0.74267 0.09206
#
# Static dielectric constant tensor:
#      x y z
#    x 1.571810 0.000000 0.000720 
#    y 0.000000 1.559500 0.000000 
#    z 0.000720 0.000000 1.566800 
# 
# From -- ./inp_files/251927.got.cif
#   From: 2010.05.17/outbox.cif.g08.bks.cpg/sg12_126_cif.got.tgz:251927.got - 2010.06.03 13:09:07.
