data_PCOD9190025
_publ_section_title
;
Structure prediction by ZEFSAII (Michael W. Deem and Ramdas Pophale) SiO2 
 PCOD9190025
Probable space group: C 2/M
;
_chemical_formula_sum "Si O2"
_cell_formula_units_Z 64
_cell_length_a 16.504222
_cell_length_b 28.214484
_cell_length_c 9.591788
_cell_angle_alpha 90.000000
_cell_angle_beta 43.609850
_cell_angle_gamma 90.000000
_cell_volume 3080.737465
_symmetry_space_group_name_H-M "C 2/M"
_symmetry_group_IT_number 12
_symmetry_cell_setting 'monoclinic'
loop_
_space_group_symop_operation_xyz
x,y,z
-x,y,-z
-x,-y,-z
x,-y,z
1/2+x,1/2+y,z
1/2-x,1/2+y,-z
1/2-x,1/2-y,-z
1/2+x,1/2-y,z
loop_
_atom_site_type_symbol
_atom_site_label
_atom_site_fract_x
_atom_site_fract_y
_atom_site_fract_z
Si Si1 0.459695 0.556603 0.393123
Si Si2 0.999233 0.280152 0.263621
Si Si3 0.121885 0.596080 0.263545
Si Si4 0.884831 0.797664 0.204712
Si Si5 0.715281 0.390131 0.564993
Si Si6 0.486744 0.113920 0.175913
Si Si7 0.350124 0.554034 0.080943
Si Si8 0.679951 0.204790 0.256787
O O1 0.500000 0.567067 0.500000
O O2 0.437407 0.500000 0.411367
O O3 0.346123 0.586544 0.491340
O O4 0.560718 0.568346 0.153203
O O5 0.939507 0.243075 0.233472
O O6 0.008124 0.329954 0.172662
O O7 0.910064 0.287819 0.503288
O O8 0.122106 0.270138 0.193054
O O9 0.218590 0.558790 0.186376
O O10 0.176824 0.648543 0.223743
O O11 0.000000 0.594286 0.500000
O O12 0.083248 0.590045 0.152999
O O13 0.810763 0.834397 0.388640
O O14 0.803544 0.782050 0.175405
O O15 0.000000 0.822959 0.000000
O O16 0.854767 0.397251 0.391155
O O17 0.654979 0.414621 0.774045
O O18 0.500000 0.101241 0.000000
O O19 0.376115 0.500000 0.087308
#
# Coordination Sequence:
#
# PCOD9190025 Si02
#       8
#     8   8   8   8   8   8   8   8
#     4  10  24  45  64  89 129 167 198 250 323 377
#     4  10  20  40  60  85 121 168 213 248 314 373
#     4  11  18  40  64  90 122 164 204 252 315 365
#     4  12  23  36  61  92 123 159 211 267 305 360
#     4  12  23  42  64  92 124 162 210 260 307 368
#     4  11  23  39  63  92 124 167 207 252 312 374
#     4  11  22  39  69  96 119 161 210 252 303 382
#     4  10  19  39  64  79 121 172 201 254 314 370
#
# _framework density 20.774246999999999
#
# number of rings (size 3 to 8) (size 9 to 14) (size 15 to 20)
#    0.000    1.125    6.250    2.250    1.750    1.750 
#    2.250    0.000    0.000    1.875    0.000    0.000 
#    0.000    0.000    0.000    0.000    0.000    0.000 
#
# Total GULP energy -178696.636595 kJ/mol
# GULP energy per Si atom -5584.269894 kJ/mol
# Density = 2.072696 g / cm^3
# Si number density = 20.774247 Si / 1000 Ang^3
#
#
#
# Elastic Constant Matrix: (Units=GPa)
#
#
# Indices 1 2 3 4 5 6 
#
# 1 201.0598 47.1000 31.3037 0.0000 7.1634 0.0000
# 2 47.1000 45.1328 7.0554 0.0000 5.5583 0.0000
# 3 31.3037 7.0554 48.9533 0.0000 9.5377 0.0000
# 4 0.0000 0.0000 0.0000 5.3322 0.0000 4.2902
# 5 7.1634 5.5583 9.5377 0.0000 36.7702 0.0000
# 6 0.0000 0.0000 0.0000 4.2902 0.0000 36.6598
#
#
#
# Elastic Compliance Matrix: (Units=1/GPa)
#
#
# Indices 1 2 3 4 5 6 
#
# 1 0.007160 -0.006970 -0.003694 0.000000 0.000617 0.000000
# 2 -0.006970 0.029714 0.000827 0.000000 -0.003348 0.000000
# 3 -0.003694 0.000827 0.023755 0.000000 -0.005567 0.000000
# 4 0.000000 0.000000 0.000000 0.207032 0.000000 -0.024228
# 5 0.000617 -0.003348 -0.005567 0.000000 0.029026 0.000000
# 6 0.000000 0.000000 0.000000 -0.024228 0.000000 0.030113
#
#
# Mechanical properties :
#
#
# Convention : Reuss Voigt Hill
#
# Bulk Modulus (GPa) = 24.41730 51.78489 38.10110
# Shear Modulus (GPa) = 13.88404 29.73156 21.80780
#
# Velocity S-wave (km/s) = 2.58801 3.78719 3.24350
# Velocity P-wave (km/s) = 4.55078 6.64118 5.69275
#
# Compressibility (1/GPa) = 0.04095456
#
# Stress axis : x y z
#
# Youngs Moduli (GPa) = 139.67225 33.65420 42.09603
#
# Poissons Ratio (x) = 0.23458 0.15550
# Poissons Ratio (y) = 0.97355 -0.03481
# Poissons Ratio (z) = 0.51594 -0.02783
#
# Static dielectric constant tensor:
#      x y z
#    x 1.772200 0.000000 -0.002070 
#    y 0.000000 1.730960 0.000000 
#    z -0.002070 0.000000 1.740210 
# 
# From -- ./inp_files/68618.got.cif
#   From: 2010.05.17/outbox.cif.g08.bks.cpg/sg12_35_cif.got.tgz:68618.got - 2010.06.03 13:09:07.
