data_PCOD9190468
_publ_section_title
;
Structure prediction by ZEFSAII (Michael W. Deem and Ramdas Pophale) SiO2 
 PCOD9190468
Probable space group: C 2/M
;
_chemical_formula_sum "Si O2"
_cell_formula_units_Z 56
_cell_length_a 14.542645
_cell_length_b 13.635424
_cell_length_c 31.470063
_cell_angle_alpha 90.000000
_cell_angle_beta 147.551637
_cell_angle_gamma 90.000000
_cell_volume 3348.198496
_symmetry_space_group_name_H-M "C 2/M"
_symmetry_group_IT_number 12
_symmetry_cell_setting 'monoclinic'
loop_
_space_group_symop_operation_xyz
x,y,z
-x,y,-z
-x,-y,-z
x,-y,z
1/2+x,1/2+y,z
1/2-x,1/2+y,-z
1/2-x,1/2-y,-z
1/2+x,1/2-y,z
loop_
_atom_site_type_symbol
_atom_site_label
_atom_site_fract_x
_atom_site_fract_y
_atom_site_fract_z
Si Si1 0.726124 0.386185 0.914543
Si Si2 0.243855 0.386624 0.409697
Si Si3 0.902333 0.386598 0.333632
Si Si4 0.405035 0.885733 0.895701
Si Si5 0.749607 0.114445 0.312184
Si Si6 0.909735 0.246277 0.816120
Si Si7 0.066761 0.768743 0.449444
O O1 0.667696 0.500000 0.894757
O O2 0.774537 0.366895 0.883984
O O3 0.586821 0.311794 0.878779
O O4 0.904537 0.379299 0.009866
O O5 0.302495 0.500000 0.437392
O O6 0.221920 0.366442 0.351442
O O7 0.376628 0.313866 0.483855
O O8 0.064032 0.379353 0.364651
O O9 0.865643 0.500000 0.327306
O O10 0.742974 0.331826 0.250137
O O11 0.958158 0.329857 0.398611
O O12 0.392423 0.807768 0.852861
O O13 0.380368 0.000000 0.872270
O O14 0.620029 0.175912 0.233270
O O15 0.944171 0.150841 0.379323
O O16 0.732712 0.000000 0.297517
O O17 0.250000 0.750000 0.500000
#
# Coordination Sequence:
#
# PCOD9190468 Si02
#       7
#     8   8   8   8   8   8   8
#     4   9  19  36  57  78 104 143 181 214 259 319
#     4   9  17  31  50  70  97 130 166 210 259 312
#     4   9  19  32  47  72 103 134 167 208 262 313
#     4   9  19  36  56  79 106 138 180 221 260 309
#     4  10  20  31  48  77 104 130 166 212 267 315
#     4  11  20  31  55  79 107 136 174 219 261 312
#     4   9  17  30  48  68  90 129 172 209 241 298
#
# _framework density 16.725411999999999
#
# number of rings (size 3 to 8) (size 9 to 14) (size 15 to 20)
#    0.000    2.571    0.000    3.000    2.000    1.714 
#    0.000    0.000    0.000    7.714    0.000    6.000 
#    0.000    0.000    0.000    0.000    0.000    0.000 
#
# Total GULP energy -155924.279316 kJ/mol
# GULP energy per Si atom -5568.724261 kJ/mol
# Density = 1.668734 g / cm^3
# Si number density = 16.725412 Si / 1000 Ang^3
#
#
#
# Elastic Constant Matrix: (Units=GPa)
#
#
# Indices 1 2 3 4 5 6 
#
# 1 57.3609 43.7610 21.0408 0.0000 -10.2270 0.0000
# 2 43.7610 121.1113 51.0117 0.0000 -20.0005 0.0000
# 3 21.0408 51.0117 54.4012 0.0000 -9.7582 0.0000
# 4 0.0000 0.0000 0.0000 22.9412 0.0000 -13.1992
# 5 -10.2270 -20.0005 -9.7582 0.0000 24.8096 0.0000
# 6 0.0000 0.0000 0.0000 -13.1992 0.0000 6.9432
#
#
#
# Elastic Compliance Matrix: (Units=1/GPa)
#
#
# Indices 1 2 3 4 5 6 
#
# 1 0.024419 -0.007520 -0.001802 0.000000 0.003295 0.000000
# 2 -0.007520 0.016985 -0.011962 0.000001 0.005888 0.000001
# 3 -0.001802 -0.011962 0.030591 -0.000002 0.001646 -0.000003
# 4 0.000000 0.000001 -0.000002 -0.464929 0.000000 -0.883844
# 5 0.003295 0.005888 0.001646 0.000000 0.047059 0.000000
# 6 0.000000 0.000001 -0.000003 -0.883844 0.000000 -1.536189
#
#
# Mechanical properties :
#
#
# Convention : Reuss Voigt Hill
#
# Bulk Modulus (GPa) = 33.98288 51.61117 42.79703
# Shear Modulus (GPa) = -2.73271 18.74279 8.00504
#
# Velocity S-wave (km/s) = -1.27961 3.35119 2.19010
# Velocity P-wave (km/s) = 4.26368 6.77487 5.66030
#
# Compressibility (1/GPa) = 0.02942658
#
# Stress axis : x y z
#
# Youngs Moduli (GPa) = 40.95146 58.87654 32.68977
#
# Poissons Ratio (x) = 0.44277 0.05890
# Poissons Ratio (y) = 0.30797 0.39103
# Poissons Ratio (z) = 0.07379 0.70427
#
# Static dielectric constant tensor:
#      x y z
#    x 1.571230 0.000000 0.005760 
#    y 0.000000 1.567770 0.000000 
#    z 0.005760 0.000000 1.558210 
# 
# From -- ./inp_files/214222.got.cif
#   From: 2010.05.17/outbox.cif.g08.bks.cpg/sg12_108_cif.got.tgz:214222.got - 2010.06.03 13:09:07.
