data_PCOD9190455
_publ_section_title
;
Structure prediction by ZEFSAII (Michael W. Deem and Ramdas Pophale) SiO2 
 PCOD9190455
Probable space group: C 2/M
;
_chemical_formula_sum "Si O2"
_cell_formula_units_Z 48
_cell_length_a 26.446558
_cell_length_b 24.059716
_cell_length_c 11.617677
_cell_angle_alpha 90.000000
_cell_angle_beta 19.702219
_cell_angle_gamma 90.000000
_cell_volume 2492.175189
_symmetry_space_group_name_H-M "C 2/M"
_symmetry_group_IT_number 12
_symmetry_cell_setting 'monoclinic'
loop_
_space_group_symop_operation_xyz
x,y,z
-x,y,-z
-x,-y,-z
x,-y,z
1/2+x,1/2+y,z
1/2-x,1/2+y,-z
1/2-x,1/2-y,-z
1/2+x,1/2-y,z
loop_
_atom_site_type_symbol
_atom_site_label
_atom_site_fract_x
_atom_site_fract_y
_atom_site_fract_z
Si Si1 0.988874 0.500000 0.220818
Si Si2 0.838591 0.119388 0.226744
Si Si3 0.122673 0.687065 0.839059
Si Si4 0.589548 0.118523 0.554858
Si Si5 0.262122 0.780894 0.854021
Si Si6 0.483424 0.711196 0.801910
Si Si7 0.249278 0.000000 0.521758
O O1 0.954619 0.554955 0.367567
O O2 0.871700 0.500000 0.364026
O O3 0.150630 0.500000 0.809606
O O4 0.769168 0.158395 0.474606
O O5 0.715860 0.119558 0.385559
O O6 0.843996 0.056656 0.261129
O O7 0.980330 0.150967 0.867846
O O8 0.117188 0.748817 0.900822
O O9 0.000000 0.686250 0.000000
O O10 0.056272 0.648349 0.081120
O O11 0.654728 0.159390 0.318290
O O12 0.361696 0.742265 0.554825
O O13 0.250000 0.750000 0.000000
O O14 0.103039 0.790481 0.134256
#
# Coordination Sequence:
#
# PCOD9190455 Si02
#       7
#     4   8   8   8   8   8   4
#     4   9  12  22  40  67  98 122 150 191 237 273
#     4   9  15  24  39  67 100 125 149 181 230 286
#     4   9  15  26  43  70 102 126 149 184 229 291
#     4   8  15  24  42  68  94 120 155 194 237 276
#     4  10  20  35  50  68  92 123 165 210 247 276
#     4  10  20  31  48  72  95 126 159 196 239 285
#     4   9  14  20  40  65  98 134 147 177 232 280
#
# _framework density 19.260283000000001
#
# number of rings (size 3 to 8) (size 9 to 14) (size 15 to 20)
#    0.000    2.833    1.667    2.000    0.000    0.000 
#    0.000    0.000    0.000    1.000    0.000   26.250 
#    0.000    0.000    0.000    0.000    0.000    0.000 
#
# Total GULP energy -133739.110690 kJ/mol
# GULP energy per Si atom -5572.462945 kJ/mol
# Density = 1.921645 g / cm^3
# Si number density = 19.260283 Si / 1000 Ang^3
#
#
#
# Elastic Constant Matrix: (Units=GPa)
#
#
# Indices 1 2 3 4 5 6 
#
# 1 41.1377 13.9618 19.9614 -0.0028 2.8141 0.0043
# 2 13.9618 155.4086 43.6071 -0.0102 19.1596 0.0052
# 3 19.9614 43.6071 45.9924 -0.0188 6.7180 0.0034
# 4 -0.0028 -0.0102 -0.0188 23.2916 -0.0007 7.5072
# 5 2.8141 19.1596 6.7180 -0.0007 21.6555 -0.0011
# 6 0.0043 0.0052 0.0034 7.5072 -0.0011 16.2407
#
#
#
# Elastic Compliance Matrix: (Units=1/GPa)
#
#
# Indices 1 2 3 4 5 6 
#
# 1 0.031010 0.001432 -0.014710 -0.000007 -0.000733 -0.000003
# 2 0.001432 0.009487 -0.008760 -0.000003 -0.005862 -0.000001
# 3 -0.014710 -0.008760 0.036683 0.000029 -0.001718 -0.000014
# 4 -0.000007 -0.000003 0.000029 0.050450 -0.000005 -0.023320
# 5 -0.000733 -0.005862 -0.001718 -0.000005 0.051992 0.000008
# 6 -0.000003 -0.000001 -0.000014 -0.023320 0.000008 0.072353
#
#
# Mechanical properties :
#
#
# Convention : Reuss Voigt Hill
#
# Bulk Modulus (GPa) = 30.20649 44.17770 37.19209
# Shear Modulus (GPa) = 16.28205 23.23812 19.76009
#
# Velocity S-wave (km/s) = 2.91068 3.47728 3.20652
# Velocity P-wave (km/s) = 5.19744 6.25372 5.74989
#
# Compressibility (1/GPa) = 0.03310547
#
# Stress axis : x y z
#
# Youngs Moduli (GPa) = 32.24728 105.41076 27.26023
#
# Poissons Ratio (x) = -0.15094 0.40098
# Poissons Ratio (y) = -0.04618 0.23880
# Poissons Ratio (z) = 0.47434 0.92339
#
# Static dielectric constant tensor:
#      x y z
#    x 1.693920 0.000000 -0.019490 
#    y 0.000000 1.709440 0.000000 
#    z -0.019490 0.000000 1.672960 
# 
# From -- ./inp_files/134511.got.cif
#   From: 2010.05.17/outbox.cif.g08.bks.cpg/sg12_68_cif.got.tgz:134511.got - 2010.06.03 13:09:07.
