data_PCOD9190840
_publ_section_title
;
Structure prediction by ZEFSAII (Michael W. Deem and Ramdas Pophale) SiO2 
 PCOD9190840
Probable space group: C 2/M
;
_chemical_formula_sum "Si O2"
_cell_formula_units_Z 48
_cell_length_a 20.773283
_cell_length_b 9.172414
_cell_length_c 13.477893
_cell_angle_alpha 90.000000
_cell_angle_beta 121.815546
_cell_angle_gamma 90.000000
_cell_volume 2182.236431
_symmetry_space_group_name_H-M "C 2/M"
_symmetry_group_IT_number 12
_symmetry_cell_setting 'monoclinic'
loop_
_space_group_symop_operation_xyz
x,y,z
-x,y,-z
-x,-y,-z
x,-y,z
1/2+x,1/2+y,z
1/2-x,1/2+y,-z
1/2-x,1/2-y,-z
1/2+x,1/2-y,z
loop_
_atom_site_type_symbol
_atom_site_label
_atom_site_fract_x
_atom_site_fract_y
_atom_site_fract_z
Si Si1 0.230122 0.834891 0.884357
Si Si2 0.905484 0.665064 0.992362
Si Si3 0.564273 0.329990 0.391910
Si Si4 0.415912 0.174240 0.231337
Si Si5 0.227627 0.176143 0.585839
Si Si6 0.629539 0.671128 0.221092
O O1 0.313962 0.844739 0.909228
O O2 0.159142 0.747208 0.783551
O O3 0.203632 0.000000 0.879744
O O4 0.250000 0.750000 0.000000
O O5 0.934862 0.500000 0.011951
O O6 0.921499 0.757006 0.906282
O O7 0.921078 0.720102 0.117505
O O8 0.543755 0.500000 0.388021
O O9 0.491709 0.229221 0.345488
O O10 0.637478 0.299049 0.519844
O O11 0.592735 0.311819 0.300503
O O12 0.408616 0.000000 0.226119
O O13 0.250000 0.250000 0.500000
O O14 0.287426 0.255101 0.704869
O O15 0.239157 0.000000 0.595363
O O16 0.638088 0.500000 0.207787
#
# Coordination Sequence:
#
# PCOD9190840 Si02
#       6
#     8   8   8   8   8   8
#     4   9  17  31  50  70  94 125 162 200 237 282
#     4   9  19  33  48  70  98 128 160 194 238 287
#     4   9  19  33  48  70  98 128 160 194 238 287
#     4  10  20  32  49  73  98 128 163 198 240 285
#     4   9  17  31  50  70  94 125 162 200 237 282
#     4  10  20  32  49  73  98 128 163 198 240 285
#
# _framework density 21.995781999999998
#
# number of rings (size 3 to 8) (size 9 to 14) (size 15 to 20)
#    0.000    2.667    0.000    4.000    0.000    8.667 
#    0.000    3.333    0.000    1.000    0.000    7.000 
#    0.000    0.000    0.000    0.000    0.000    0.000 
#
# Total GULP energy -133762.537210 kJ/mol
# GULP energy per Si atom -5573.439050 kJ/mol
# Density = 2.194572 g / cm^3
# Si number density = 21.995782 Si / 1000 Ang^3
#
#
#
# Elastic Constant Matrix: (Units=GPa)
#
#
# Indices 1 2 3 4 5 6 
#
# 1 30.3193 6.7537 16.5311 0.0000 23.3638 0.0000
# 2 6.7537 70.5218 33.9195 0.0000 22.8396 0.0000
# 3 16.5311 33.9195 92.0906 0.0000 25.0798 0.0000
# 4 0.0000 0.0000 0.0000 18.4635 0.0000 10.4746
# 5 23.3638 22.8396 25.0798 0.0000 41.4566 0.0000
# 6 0.0000 0.0000 0.0000 10.4746 0.0000 18.2898
#
#
#
# Elastic Compliance Matrix: (Units=1/GPa)
#
#
# Indices 1 2 3 4 5 6 
#
# 1 0.061675 0.007895 -0.003985 0.000000 -0.036697 0.000000
# 2 0.007895 0.019991 -0.005471 0.000000 -0.012154 0.000000
# 3 -0.003985 -0.005471 0.014555 0.000000 -0.003545 0.000000
# 4 0.000000 0.000000 0.000000 0.080227 0.000000 -0.045946
# 5 -0.036697 -0.012154 -0.003545 0.000000 0.053644 0.000000
# 6 0.000000 0.000000 0.000000 -0.045946 0.000000 0.080988
#
#
# Mechanical properties :
#
#
# Convention : Reuss Voigt Hill
#
# Bulk Modulus (GPa) = 10.74114 34.14891 22.44502
# Shear Modulus (GPa) = 14.48290 24.69046 19.58668
#
# Velocity S-wave (km/s) = 2.56879 3.35402 2.98732
# Velocity P-wave (km/s) = 3.70029 5.52795 4.70374
#
# Compressibility (1/GPa) = 0.09310001
#
# Stress axis : x y z
#
# Youngs Moduli (GPa) = 16.21398 50.02157 68.70599
#
# Poissons Ratio (x) = -0.39493 0.27381
# Poissons Ratio (y) = -0.12801 0.37587
# Poissons Ratio (z) = 0.06462 0.27365
#
# Static dielectric constant tensor:
#      x y z
#    x 2.094340 0.000000 -0.126730 
#    y 0.000000 1.766630 0.000000 
#    z -0.126730 0.000000 1.875540 
# 
# From -- ./inp_files/280788.got.cif
#   From: 2010.05.17/outbox.cif.g08.bks.cpg/sg12_141_cif.got.tgz:280788.got - 2010.06.03 13:09:07.
