data_PCOD9190771
_publ_section_title
;
Structure prediction by ZEFSAII (Michael W. Deem and Ramdas Pophale) SiO2 
 PCOD9190771
Probable space group: C 2/M
;
_chemical_formula_sum "Si O2"
_cell_formula_units_Z 56
_cell_length_a 24.270360
_cell_length_b 8.759812
_cell_length_c 17.173469
_cell_angle_alpha 90.000000
_cell_angle_beta 52.275846
_cell_angle_gamma 90.000000
_cell_volume 2887.930018
_symmetry_space_group_name_H-M "C 2/M"
_symmetry_group_IT_number 12
_symmetry_cell_setting 'monoclinic'
loop_
_space_group_symop_operation_xyz
x,y,z
-x,y,-z
-x,-y,-z
x,-y,z
1/2+x,1/2+y,z
1/2-x,1/2+y,-z
1/2-x,1/2-y,-z
1/2+x,1/2-y,z
loop_
_atom_site_type_symbol
_atom_site_label
_atom_site_fract_x
_atom_site_fract_y
_atom_site_fract_z
Si Si1 0.637558 0.818668 0.758347
Si Si2 0.248006 0.681297 0.124421
Si Si3 0.889793 0.183112 0.793093
Si Si4 0.922231 0.682499 0.595043
Si Si5 0.785314 0.183609 0.675407
Si Si6 0.002068 0.183589 0.823696
Si Si7 0.897327 0.182749 0.043380
O O1 0.719074 0.774908 0.679005
O O2 0.579921 0.746179 0.752364
O O3 0.616143 0.766454 0.864120
O O4 0.633245 0.000000 0.756870
O O5 0.237092 0.500000 0.131315
O O6 0.189056 0.759837 0.123250
O O7 0.232875 0.744285 0.224623
O O8 0.330379 0.709391 0.045154
O O9 0.910879 0.246519 0.690248
O O10 0.948583 0.233908 0.803125
O O11 0.888304 0.000000 0.793238
O O12 0.913612 0.500000 0.606401
O O13 0.861763 0.751522 0.592180
O O14 0.000000 0.717584 0.500000
O O15 0.788107 0.000000 0.679701
O O16 0.004448 0.000000 0.820452
O O17 0.965775 0.228121 0.936932
O O18 0.900075 0.000000 0.056545
#
# Coordination Sequence:
#
# PCOD9190771 Si02
#       7
#     8   8   8   8   8   8   8
#     4  10  20  32  48  72  98 127 168 210 241 273
#     4   9  16  28  47  68  93 127 163 200 242 284
#     4  10  20  33  49  71  99 129 161 196 239 292
#     4  10  20  34  55  81 102 120 148 189 237 291
#     4   9  17  30  49  73  99 125 155 194 238 282
#     4  10  21  34  47  66  96 135 171 202 240 284
#     4   9  18  32  48  67  94 130 171 209 243 281
#
# _framework density 19.391051000000001
#
# number of rings (size 3 to 8) (size 9 to 14) (size 15 to 20)
#    0.000    2.429    0.000    4.286    0.000    7.429 
#    0.000    0.000    0.000    0.857    0.000    0.000 
#    0.000    0.000    0.000    0.000    0.000    0.000 
#
# Total GULP energy -156140.693830 kJ/mol
# GULP energy per Si atom -5576.453351 kJ/mol
# Density = 1.934692 g / cm^3
# Si number density = 19.391051 Si / 1000 Ang^3
#
#
#
# Elastic Constant Matrix: (Units=GPa)
#
#
# Indices 1 2 3 4 5 6 
#
# 1 139.0009 33.5800 25.6126 -0.0030 -45.1705 -0.0013
# 2 33.5800 42.0830 14.6544 -0.0130 -17.0276 -0.0060
# 3 25.6126 14.6544 40.3123 -0.0034 -30.9770 -0.0012
# 4 -0.0030 -0.0130 -0.0034 -121.8083 0.0015 -75.6008
# 5 -45.1705 -17.0276 -30.9770 0.0015 36.7607 0.0006
# 6 -0.0013 -0.0060 -0.0012 -75.6008 0.0006 -3.1870
#
#
#
# Elastic Compliance Matrix: (Units=1/GPa)
#
#
# Indices 1 2 3 4 5 6 
#
# 1 0.014771 -0.005584 0.013064 0.000000 0.026572 0.000000
# 2 -0.005584 0.031360 -0.005568 -0.000002 0.002972 -0.000001
# 3 0.013064 -0.005568 0.081945 0.000000 0.082525 -0.000001
# 4 0.000000 -0.000002 0.000000 0.000598 -0.000001 -0.014191
# 5 0.026572 0.002972 0.082525 -0.000001 0.130772 -0.000001
# 6 0.000000 -0.000001 -0.000001 -0.014191 -0.000001 0.022865
#
#
# Mechanical properties :
#
#
# Convention : Reuss Voigt Hill
#
# Bulk Modulus (GPa) = 7.58158 41.01004 24.29581
# Shear Modulus (GPa) = 15.50606 -7.81032 3.84787
#
# Velocity S-wave (km/s) = 2.83088 -2.00911 1.41020
# Velocity P-wave (km/s) = 3.82145 3.97653 3.89976
#
# Compressibility (1/GPa) = 0.13189854
#
# Stress axis : x y z
#
# Youngs Moduli (GPa) = 67.69993 31.88769 12.20334
#
# Poissons Ratio (x) = 0.17806 -0.15942
# Poissons Ratio (y) = 0.37804 0.06795
# Poissons Ratio (z) = -0.88441 0.17756
#
# Static dielectric constant tensor:
#      x y z
#    x 1.748300 0.000000 -0.031470 
#    y 0.000000 1.646510 0.000000 
#    z -0.031470 0.000000 1.691070 
# 
# From -- ./inp_files/323556.got.cif
#   From: 2010.05.17/outbox.cif.g08.bks.cpg/sg12_162_cif.got.tgz:323556.got - 2010.06.03 13:09:07.
