data_PCOD9190898
_publ_section_title
;
Structure prediction by ZEFSAII (Michael W. Deem and Ramdas Pophale) SiO2 
 PCOD9190898
Probable space group: C 2/M
;
_chemical_formula_sum "Si O2"
_cell_formula_units_Z 56
_cell_length_a 11.306334
_cell_length_b 14.865875
_cell_length_c 18.942611
_cell_angle_alpha 90.000000
_cell_angle_beta 122.341595
_cell_angle_gamma 90.000000
_cell_volume 2689.948174
_symmetry_space_group_name_H-M "C 2/M"
_symmetry_group_IT_number 12
_symmetry_cell_setting 'monoclinic'
loop_
_space_group_symop_operation_xyz
x,y,z
-x,y,-z
-x,-y,-z
x,-y,z
1/2+x,1/2+y,z
1/2-x,1/2+y,-z
1/2-x,1/2-y,-z
1/2+x,1/2-y,z
loop_
_atom_site_type_symbol
_atom_site_label
_atom_site_fract_x
_atom_site_fract_y
_atom_site_fract_z
Si Si1 0.082068 0.230933 0.953883
Si Si2 0.952611 0.901770 0.565239
Si Si3 0.555167 0.604156 0.207552
Si Si4 0.109777 0.760151 0.353495
Si Si5 0.258705 0.347094 0.288743
Si Si6 0.967951 0.400232 0.144367
Si Si7 0.833081 0.326596 0.239287
O O1 0.023088 0.329029 0.914745
O O2 0.035844 0.156371 0.880817
O O3 0.250000 0.250000 0.000000
O O4 0.000000 0.204841 0.000000
O O5 0.098412 0.898880 0.655196
O O6 0.000000 0.890674 0.500000
O O7 0.864377 0.820328 0.569803
O O8 0.885253 0.000000 0.551776
O O9 0.513564 0.500000 0.205490
O O10 0.556381 0.668717 0.276436
O O11 0.717969 0.607757 0.234854
O O12 0.232918 0.708538 0.353106
O O13 0.983723 0.688706 0.324972
O O14 0.268337 0.272409 0.230148
O O15 0.120262 0.402429 0.229401
O O16 0.923280 0.500000 0.110043
O O17 0.866181 0.357547 0.171024
#
# Coordination Sequence:
#
# PCOD9190898 Si02
#       7
#     8   8   8   8   8   8   8
#     4  12  27  42  61  84 125 155 189 251 311 352
#     4  10  20  32  49  81 118 146 181 233 284 335
#     4  11  21  37  62  85 108 150 199 240 288 350
#     4   9  18  34  58  80 109 147 188 234 280 339
#     4   9  18  34  58  79 109 148 192 235 280 337
#     4  11  21  37  61  84 110 153 199 237 285 352
#     4   9  16  34  57  82 109 140 189 241 279 327
#
# _framework density 20.818244
#
# number of rings (size 3 to 8) (size 9 to 14) (size 15 to 20)
#    0.000    1.857    4.286    2.143    0.000    1.714 
#    0.000    2.857    0.000    0.000    0.000    0.000 
#    0.000   27.429    0.000    0.000    0.000    0.000 
#
# Total GULP energy -155963.144834 kJ/mol
# GULP energy per Si atom -5570.112315 kJ/mol
# Density = 2.077086 g / cm^3
# Si number density = 20.818244 Si / 1000 Ang^3
#
#
#
# Elastic Constant Matrix: (Units=GPa)
#
#
# Indices 1 2 3 4 5 6 
#
# 1 80.0552 -0.6387 2.5439 0.0000 2.4045 0.0000
# 2 -0.6387 100.5679 11.7740 0.0000 2.4717 0.0000
# 3 2.5439 11.7740 36.6234 0.0000 -4.8137 0.0000
# 4 0.0000 0.0000 0.0000 9.6022 0.0000 5.2721
# 5 2.4045 2.4717 -4.8137 0.0000 21.8853 0.0000
# 6 0.0000 0.0000 0.0000 5.2721 0.0000 11.1057
#
#
#
# Elastic Compliance Matrix: (Units=1/GPa)
#
#
# Indices 1 2 3 4 5 6 
#
# 1 0.012581 0.000259 -0.001177 0.000000 -0.001670 0.000000
# 2 0.000259 0.010420 -0.003631 0.000000 -0.002004 0.000000
# 3 -0.001177 -0.003631 0.029477 0.000000 0.007023 0.000000
# 4 0.000000 0.000000 0.000000 0.140856 0.000000 -0.066868
# 5 -0.001670 -0.002004 0.007023 0.000000 0.047647 0.000000
# 6 0.000000 0.000000 0.000000 -0.066868 0.000000 0.121788
#
#
# Mechanical properties :
#
#
# Convention : Reuss Voigt Hill
#
# Bulk Modulus (GPa) = 23.05230 27.17833 25.11531
# Shear Modulus (GPa) = 12.94242 22.08980 17.51611
#
# Velocity S-wave (km/s) = 2.49607 3.26095 2.90381
# Velocity P-wave (km/s) = 4.40503 5.22129 4.83043
#
# Compressibility (1/GPa) = 0.04337962
#
# Stress axis : x y z
#
# Youngs Moduli (GPa) = 79.48493 95.97364 33.92465
#
# Poissons Ratio (x) = -0.02483 0.03992
# Poissons Ratio (y) = -0.02056 0.12318
# Poissons Ratio (z) = 0.09352 0.34849
#
# Static dielectric constant tensor:
#      x y z
#    x 1.785190 0.000000 0.003050 
#    y 0.000000 1.741170 0.000000 
#    z 0.003050 0.000000 1.784600 
# 
# From -- ./inp_files/262838.got.cif
#   From: 2010.05.17/outbox.cif.g08.bks.cpg/sg12_132_cif.got.tgz:262838.got - 2010.06.03 13:09:07.
