data_PCOD9190726
_publ_section_title
;
Structure prediction by ZEFSAII (Michael W. Deem and Ramdas Pophale) SiO2 
 PCOD9190726
Probable space group: C 2/M
;
_chemical_formula_sum "Si O2"
_cell_formula_units_Z 36
_cell_length_a 18.946704
_cell_length_b 10.479159
_cell_length_c 11.250771
_cell_angle_alpha 90.000000
_cell_angle_beta 60.773623
_cell_angle_gamma 90.000000
_cell_volume 1949.422898
_symmetry_space_group_name_H-M "C 2/M"
_symmetry_group_IT_number 12
_symmetry_cell_setting 'monoclinic'
loop_
_space_group_symop_operation_xyz
x,y,z
-x,y,-z
-x,-y,-z
x,-y,z
1/2+x,1/2+y,z
1/2-x,1/2+y,-z
1/2-x,1/2-y,-z
1/2+x,1/2-y,z
loop_
_atom_site_type_symbol
_atom_site_label
_atom_site_fract_x
_atom_site_fract_y
_atom_site_fract_z
Si Si1 0.395921 0.850564 0.916343
Si Si2 0.844869 0.855540 0.768163
Si Si3 0.000000 0.208246 0.500000
Si Si4 0.928058 0.350895 0.337021
Si Si5 0.684502 0.153473 0.768804
O O1 0.352665 0.750129 0.864497
O O2 0.491327 0.841003 0.810949
O O3 0.373613 0.000000 0.912122
O O4 0.371868 0.819137 0.070818
O O5 0.774984 0.813048 0.733876
O O6 0.930859 0.861698 0.631296
O O7 0.824695 0.000000 0.827240
O O8 0.950732 0.288450 0.442753
O O9 0.913369 0.500000 0.371622
O O10 0.854361 0.294300 0.320355
O O11 0.683628 0.000000 0.755988
#
# Coordination Sequence:
#
# PCOD9190726 Si02
#       5
#     8   8   4   8   8
#     4   9  17  31  53  77  98 122 155 198 245 289
#     4  10  20  33  50  70  98 134 163 193 235 285
#     4  10  20  32  48  66  95 134 169 196 231 280
#     4   9  17  30  50  75  99 123 157 202 244 283
#     4   9  17  30  50  75  99 124 157 198 244 288
#
# _framework density 18.467003999999999
#
# number of rings (size 3 to 8) (size 9 to 14) (size 15 to 20)
#    0.000    2.667    0.000    2.000    0.000    4.444 
#    0.000    0.000    0.000   18.667    0.000    0.000 
#    0.000    0.000    0.000    0.000    0.000    0.000 
#
# Total GULP energy -100235.900964 kJ/mol
# GULP energy per Si atom -5568.661165 kJ/mol
# Density = 1.842497 g / cm^3
# Si number density = 18.467004 Si / 1000 Ang^3
#
#
#
# Elastic Constant Matrix: (Units=GPa)
#
#
# Indices 1 2 3 4 5 6 
#
# 1 111.2276 48.7602 22.9217 0.0000 44.8049 0.0000
# 2 48.7602 59.5681 14.5273 0.0000 19.1773 0.0000
# 3 22.9217 14.5273 41.6078 0.0000 16.3833 0.0000
# 4 0.0000 0.0000 0.0000 1.8798 0.0000 3.0563
# 5 44.8049 19.1773 16.3833 0.0000 32.9679 0.0000
# 6 0.0000 0.0000 0.0000 3.0563 0.0000 20.7369
#
#
#
# Elastic Compliance Matrix: (Units=1/GPa)
#
#
# Indices 1 2 3 4 5 6 
#
# 1 0.025247 -0.011970 0.001293 0.000000 -0.027992 0.000000
# 2 -0.011970 0.026654 -0.003745 0.000000 0.002625 0.000000
# 3 0.001293 -0.003745 0.030415 0.000000 -0.014693 0.000000
# 4 0.000000 0.000000 0.000000 0.699627 0.000000 -0.103115
# 5 -0.027992 0.002625 -0.014693 0.000000 0.074149 0.000000
# 6 0.000000 0.000000 0.000000 -0.103115 0.000000 0.063421
#
#
# Mechanical properties :
#
#
# Convention : Reuss Voigt Hill
#
# Bulk Modulus (GPa) = 18.70191 42.75799 30.72995
# Shear Modulus (GPa) = 5.17500 19.52985 12.35243
#
# Velocity S-wave (km/s) = 1.67582 3.25553 2.58910
# Velocity P-wave (km/s) = 3.72742 6.11026 5.06108
#
# Compressibility (1/GPa) = 0.05347048
#
# Stress axis : x y z
#
# Youngs Moduli (GPa) = 39.60810 37.51743 32.87862
#
# Poissons Ratio (x) = 0.44909 -0.04250
# Poissons Ratio (y) = 0.47411 0.12314
# Poissons Ratio (z) = -0.05119 0.14052
#
# Static dielectric constant tensor:
#      x y z
#    x 1.666960 0.000000 -0.007490 
#    y 0.000000 1.617110 0.000000 
#    z -0.007490 0.000000 1.638140 
# 
# From -- ./inp_files/70853.got.cif
#   From: 2010.05.17/outbox.cif.g08.bks.cpg/sg12_36_cif.got.tgz:70853.got - 2010.06.03 13:09:07.
