data_PCOD9190778
_publ_section_title
;
Structure prediction by ZEFSAII (Michael W. Deem and Ramdas Pophale) SiO2 
 PCOD9190778
Probable space group: C 2/M
;
_chemical_formula_sum "Si O2"
_cell_formula_units_Z 40
_cell_length_a 16.539900
_cell_length_b 34.371064
_cell_length_c 5.153539
_cell_angle_alpha 90.000000
_cell_angle_beta 128.746508
_cell_angle_gamma 90.000000
_cell_volume 2284.982849
_symmetry_space_group_name_H-M "C 2/M"
_symmetry_group_IT_number 12
_symmetry_cell_setting 'monoclinic'
loop_
_space_group_symop_operation_xyz
x,y,z
-x,y,-z
-x,-y,-z
x,-y,z
1/2+x,1/2+y,z
1/2-x,1/2+y,-z
1/2-x,1/2-y,-z
1/2+x,1/2-y,z
loop_
_atom_site_type_symbol
_atom_site_label
_atom_site_fract_x
_atom_site_fract_y
_atom_site_fract_z
Si Si1 0.874750 0.908624 0.749486
Si Si2 0.126041 0.955761 0.752611
Si Si3 0.935648 0.695203 0.614422
Si Si4 0.699780 0.676911 0.254235
Si Si5 0.844338 0.224704 0.310538
O O1 0.841663 0.925864 0.406577
O O2 0.832927 0.866379 0.737584
O O3 0.842932 0.939190 0.906881
O O4 0.000000 0.906125 0.000000
O O5 0.000000 0.956580 0.500000
O O6 0.160789 0.000000 0.776181
O O7 0.819704 0.678765 0.407159
O O8 0.924340 0.741942 0.553899
O O9 0.000000 0.679901 0.500000
O O10 0.000000 0.687304 0.000000
O O11 0.687374 0.702755 0.489604
O O12 0.633283 0.694668 0.879466
O O13 0.750000 0.250000 0.000000
#
# Coordination Sequence:
#
# PCOD9190778 Si02
#       5
#     8   8   8   8   8
#     4  10  20  32  48  73 101 130 158 191 241 291
#     4   9  17  31  50  71  98 129 158 188 229 291
#     4  11  21  34  51  71  94 129 174 210 246 289
#     4  11  21  35  51  72 102 128 163 212 251 288
#     4  10  20  35  50  66  92 130 168 208 251 287
#
# _framework density 17.505600999999999
#
# number of rings (size 3 to 8) (size 9 to 14) (size 15 to 20)
#    0.000    1.800    0.000    7.800    0.000    4.800 
#    0.000    0.000    0.000    0.000    0.000    0.000 
#    0.000   16.000    0.000    0.000    0.000    0.000 
#
# Total GULP energy -111600.839972 kJ/mol
# GULP energy per Si atom -5580.041999 kJ/mol
# Density = 1.746576 g / cm^3
# Si number density = 17.505601 Si / 1000 Ang^3
#
#
#
# Elastic Constant Matrix: (Units=GPa)
#
#
# Indices 1 2 3 4 5 6 
#
# 1 95.9468 42.7420 28.9124 0.0000 -29.1164 0.0000
# 2 42.7420 90.6702 -1.6699 0.0000 -4.9284 0.0000
# 3 28.9124 -1.6699 48.3584 0.0000 -19.6489 0.0000
# 4 0.0000 0.0000 0.0000 14.4633 0.0000 -11.0941
# 5 -29.1164 -4.9284 -19.6489 0.0000 27.6280 0.0000
# 6 0.0000 0.0000 0.0000 -11.0941 0.0000 30.7588
#
#
#
# Elastic Compliance Matrix: (Units=1/GPa)
#
#
# Indices 1 2 3 4 5 6 
#
# 1 0.021549 -0.009389 -0.006555 0.000000 0.016373 0.000000
# 2 -0.009389 0.015325 0.004547 0.000000 -0.003927 0.000000
# 3 -0.006555 0.004547 0.031332 0.000000 0.016186 0.000000
# 4 0.000000 0.000000 0.000000 0.095585 0.000000 0.034476
# 5 0.016373 -0.003927 0.016186 0.000000 0.064261 0.000000
# 6 0.000000 0.000000 0.000000 0.034476 0.000000 0.044946
#
#
# Mechanical properties :
#
#
# Convention : Reuss Voigt Hill
#
# Bulk Modulus (GPa) = 22.02090 41.66050 31.84070
# Shear Modulus (GPa) = 16.08082 25.56941 20.82511
#
# Velocity S-wave (km/s) = 3.03415 3.82598 3.45284
# Velocity P-wave (km/s) = 4.98812 6.58540 5.84161
#
# Compressibility (1/GPa) = 0.04541141
#
# Stress axis : x y z
#
# Youngs Moduli (GPa) = 46.40590 65.25185 31.91653
#
# Poissons Ratio (x) = 0.61265 0.20922
# Poissons Ratio (y) = 0.43570 -0.14512
# Poissons Ratio (z) = 0.30420 -0.29670
#
# Static dielectric constant tensor:
#      x y z
#    x 1.282700 0.000000 -0.148950 
#    y 0.000000 1.587800 0.000000 
#    z -0.148950 0.000000 1.540000 
# 
# From -- ./inp_files/13013.got.cif
#   From: 2010.05.17/outbox.cif.g08.bks.cpg/sg12_7_cif.got.tgz:13013.got - 2010.06.03 13:09:07.
