data_PCOD9190161
_publ_section_title
;
Structure prediction by ZEFSAII (Michael W. Deem and Ramdas Pophale) SiO2 
 PCOD9190161
Probable space group: C 2/M
;
_chemical_formula_sum "Si O2"
_cell_formula_units_Z 56
_cell_length_a 7.797046
_cell_length_b 27.692432
_cell_length_c 13.307610
_cell_angle_alpha 90.000000
_cell_angle_beta 112.572519
_cell_angle_gamma 90.000000
_cell_volume 2653.252063
_symmetry_space_group_name_H-M "C 2/M"
_symmetry_group_IT_number 12
_symmetry_cell_setting 'monoclinic'
loop_
_space_group_symop_operation_xyz
x,y,z
-x,y,-z
-x,-y,-z
x,-y,z
1/2+x,1/2+y,z
1/2-x,1/2+y,-z
1/2-x,1/2-y,-z
1/2+x,1/2-y,z
loop_
_atom_site_type_symbol
_atom_site_label
_atom_site_fract_x
_atom_site_fract_y
_atom_site_fract_z
Si Si1 0.536172 0.052210 0.282921
Si Si2 0.773004 0.148737 0.353070
Si Si3 0.000000 0.428575 0.500000
Si Si4 0.192717 0.812668 0.194095
Si Si5 0.078372 0.710735 0.174422
Si Si6 0.308056 0.647387 0.588417
Si Si7 0.303227 0.411565 0.917000
Si Si8 0.500000 0.131863 0.000000
O O1 0.641850 0.103771 0.289886
O O2 0.552619 0.047617 0.407101
O O3 0.329174 0.059468 0.190637
O O4 0.606243 0.000000 0.257097
O O5 0.746369 0.197947 0.285699
O O6 0.743550 0.163385 0.462635
O O7 0.980920 0.131516 0.380358
O O8 0.172131 0.396721 0.576215
O O9 0.072515 0.765804 0.140131
O O10 0.395040 0.801537 0.195532
O O11 0.200126 0.819098 0.315892
O O12 0.136672 0.862457 0.128244
O O13 0.100569 0.670169 0.095164
O O14 0.156518 0.397964 0.973910
O O15 0.500000 0.432969 0.000000
#
# Coordination Sequence:
#
# PCOD9190161 Si02
#       8
#     8   8   4   8   8   8   8   4
#     4  11  22  43  68  96 128 163 215 271 328 392
#     4  10  21  40  61  93 125 175 204 266 329 380
#     4  10  19  40  66 100 128 162 202 268 327 390
#     4  11  22  38  60  96 122 170 215 264 319 388
#     4  11  23  37  60  88 128 167 217 265 318 377
#     4  10  20  37  66  88 134 162 210 257 324 397
#     4  11  25  42  67  93 127 179 216 273 332 381
#     4  10  24  42  59  88 132 166 223 278 322 374
#
# _framework density 21.106173999999999
#
# number of rings (size 3 to 8) (size 9 to 14) (size 15 to 20)
#    0.000    1.429    4.286    1.929    5.000    2.000 
#    0.000    8.214    0.000    0.000    0.000    0.000 
#    0.000    0.000    0.000    0.000    0.000    0.000 
#
# Total GULP energy -155931.999254 kJ/mol
# GULP energy per Si atom -5568.999973 kJ/mol
# Density = 2.105814 g / cm^3
# Si number density = 21.106174 Si / 1000 Ang^3
#
#
#
# Elastic Constant Matrix: (Units=GPa)
#
#
# Indices 1 2 3 4 5 6 
#
# 1 36.9281 1.5531 12.8299 0.0000 -2.1051 0.0000
# 2 1.5531 59.3136 17.5447 0.0000 -8.9094 0.0000
# 3 12.8299 17.5447 79.8976 0.0000 0.7890 0.0000
# 4 0.0000 0.0000 0.0000 -2.0742 0.0000 -8.5248
# 5 -2.1051 -8.9094 0.7890 0.0000 30.0654 0.0000
# 6 0.0000 0.0000 0.0000 -8.5248 0.0000 -22.0480
#
#
#
# Elastic Compliance Matrix: (Units=1/GPa)
#
#
# Indices 1 2 3 4 5 6 
#
# 1 0.028876 0.001062 -0.004894 0.000000 0.002465 0.000000
# 2 0.001062 0.019009 -0.004402 0.000000 0.005823 0.000000
# 3 -0.004894 -0.004402 0.014289 0.000000 -0.002022 0.000000
# 4 0.000000 0.000000 0.000000 0.818422 0.000000 -0.316441
# 5 0.002465 0.005823 -0.002022 0.000000 0.035212 0.000000
# 6 0.000000 0.000000 0.000000 -0.316441 0.000000 0.076996
#
#
# Mechanical properties :
#
#
# Convention : Reuss Voigt Hill
#
# Bulk Modulus (GPa) = 21.87999 26.66607 24.27303
# Shear Modulus (GPa) = 4.88040 10.80272 7.84156
#
# Velocity S-wave (km/s) = 1.52228 2.26481 1.92960
# Velocity P-wave (km/s) = 3.67136 4.41598 4.06077
#
# Compressibility (1/GPa) = 0.04570386
#
# Stress axis : x y z
#
# Youngs Moduli (GPa) = 34.63085 52.60804 69.98592
#
# Poissons Ratio (x) = -0.05586 0.34254
# Poissons Ratio (y) = -0.03677 0.30809
# Poissons Ratio (z) = 0.16950 0.23159
#
# Static dielectric constant tensor:
#      x y z
#    x 1.793370 0.000000 0.008090 
#    y 0.000000 1.800810 0.000000 
#    z 0.008090 0.000000 1.869600 
# 
# From -- ./inp_files/199957.got.cif
#   From: 2010.05.17/outbox.cif.g08.bks.cpg/sg12_100_cif.got.tgz:199957.got - 2010.06.03 13:09:07.
