data_PCOD9190063
_publ_section_title
;
Structure prediction by ZEFSAII (Michael W. Deem and Ramdas Pophale) SiO2 
 PCOD9190063
Probable space group: C 2/M
;
_chemical_formula_sum "Si O2"
_cell_formula_units_Z 40
_cell_length_a 16.926598
_cell_length_b 9.772571
_cell_length_c 16.310199
_cell_angle_alpha 90.000000
_cell_angle_beta 133.777812
_cell_angle_gamma 90.000000
_cell_volume 1948.013398
_symmetry_space_group_name_H-M "C 2/M"
_symmetry_group_IT_number 12
_symmetry_cell_setting 'monoclinic'
loop_
_space_group_symop_operation_xyz
x,y,z
-x,y,-z
-x,-y,-z
x,-y,z
1/2+x,1/2+y,z
1/2-x,1/2+y,-z
1/2-x,1/2-y,-z
1/2+x,1/2-y,z
loop_
_atom_site_type_symbol
_atom_site_label
_atom_site_fract_x
_atom_site_fract_y
_atom_site_fract_z
Si Si1 0.156360 0.000000 0.734540
Si Si2 0.797916 0.500000 0.165287
Si Si3 0.756894 0.229257 0.749970
Si Si4 0.836797 0.500000 0.005196
Si Si5 0.983671 0.718411 0.834712
Si Si6 0.768452 0.500000 0.402676
Si Si7 0.486149 0.500000 0.749969
Si Si8 0.947515 0.500000 0.671272
O O1 0.181031 0.862101 0.702598
O O2 0.247805 0.000000 0.871708
O O3 0.043132 0.000000 0.702597
O O4 0.751760 0.634672 0.175801
O O5 0.784493 0.500000 0.058272
O O6 0.929032 0.500000 0.274425
O O7 0.882743 0.269178 0.824198
O O8 0.722708 0.131782 0.649953
O O9 0.916025 0.631531 0.058274
O O10 0.940090 0.630877 0.725573
O O11 0.017414 0.865496 0.824198
O O12 0.645511 0.500000 0.350048
O O13 0.858121 0.500000 0.537180
#
# Coordination Sequence:
#
# PCOD9190063 Si02
#       8
#     4   4   8   4   8   4   4   4
#     4  12  22  37  60  85 115 150 193 257 292 321
#     4   9  20  39  59  86 117 150 193 238 280 354
#     4  10  21  36  57  84 119 146 188 242 285 330
#     4  10  22  39  60  81 112 163 202 221 289 364
#     4   9  20  39  59  86 117 150 193 238 280 354
#     4   9  22  43  60  79 115 165 193 224 292 363
#     4  10  21  36  57  84 119 146 188 242 285 330
#     4  10  19  39  66  81 112 163 199 221 280 364
#
# _framework density 20.533740999999999
#
# number of rings (size 3 to 8) (size 9 to 14) (size 15 to 20)
#    0.000    2.400    0.000    4.200    0.000    9.600 
#    0.000    6.000    0.000   10.800    0.000    0.000 
#    0.000    0.000    0.000    0.000    0.000    0.000 
#
# Total GULP energy -111836.113446 kJ/mol
# GULP energy per Si atom -5591.805672 kJ/mol
# Density = 2.048701 g / cm^3
# Si number density = 20.533741 Si / 1000 Ang^3
#
#
#
# Elastic Constant Matrix: (Units=GPa)
#
#
# Indices 1 2 3 4 5 6 
#
# 1 165.0943 72.5376 19.6394 0.0000 1.3149 0.0000
# 2 72.5376 164.9311 19.8267 0.0000 -4.4207 0.0000
# 3 19.6394 19.8267 109.4774 0.0000 1.3340 0.0000
# 4 0.0000 0.0000 0.0000 4.2481 0.0000 -4.2413
# 5 1.3149 -4.4207 1.3340 0.0000 4.0626 0.0000
# 6 0.0000 0.0000 0.0000 -4.2413 0.0000 46.0052
#
#
#
# Elastic Compliance Matrix: (Units=1/GPa)
#
#
# Indices 1 2 3 4 5 6 
#
# 1 0.007712 -0.003472 -0.000681 0.000000 -0.006050 0.000000
# 2 -0.003472 0.007975 -0.000945 0.000000 0.010111 0.000000
# 3 -0.000681 -0.000945 0.009475 0.000000 -0.003919 0.000000
# 4 0.000000 0.000000 0.000000 0.259264 0.000000 0.023902
# 5 -0.006050 0.010111 -0.003919 0.000000 0.260394 0.000000
# 6 0.000000 0.000000 0.000000 0.023902 0.000000 0.023940
#
#
# Mechanical properties :
#
#
# Convention : Reuss Voigt Hill
#
# Bulk Modulus (GPa) = 66.81480 73.72334 70.26907
# Shear Modulus (GPa) = 8.56246 32.69647 20.62946
#
# Velocity S-wave (km/s) = 2.04426 3.99473 3.17308
# Velocity P-wave (km/s) = 6.17913 7.56694 6.90798
#
# Compressibility (1/GPa) = 0.01496674
#
# Stress axis : x y z
#
# Youngs Moduli (GPa) = 129.67081 125.39621 105.53778
#
# Poissons Ratio (x) = 0.43538 0.07186
# Poissons Ratio (y) = 0.45022 0.09969
# Poissons Ratio (z) = 0.08830 0.11845
#
# Static dielectric constant tensor:
#      x y z
#    x 1.748550 0.000000 -0.001220 
#    y 0.000000 1.748570 0.000000 
#    z -0.001220 0.000000 1.674200 
# 
# From -- ./inp_files/274701.got.cif
#   From: 2010.05.17/outbox.cif.g08.bks.cpg/sg12_138_cif.got.tgz:274701.got - 2010.06.03 13:09:07.
