data_PCOD9190163
_publ_section_title
;
Structure prediction by ZEFSAII (Michael W. Deem and Ramdas Pophale) SiO2 
 PCOD9190163
Probable space group: C 2/M
;
_chemical_formula_sum "Si O2"
_cell_formula_units_Z 58
_cell_length_a 23.037450
_cell_length_b 9.620673
_cell_length_c 17.376784
_cell_angle_alpha 90.000000
_cell_angle_beta 133.093297
_cell_angle_gamma 90.000000
_cell_volume 2812.394197
_symmetry_space_group_name_H-M "C 2/M"
_symmetry_group_IT_number 12
_symmetry_cell_setting 'monoclinic'
loop_
_space_group_symop_operation_xyz
x,y,z
-x,y,-z
-x,-y,-z
x,-y,z
1/2+x,1/2+y,z
1/2-x,1/2+y,-z
1/2-x,1/2-y,-z
1/2+x,1/2-y,z
loop_
_atom_site_type_symbol
_atom_site_label
_atom_site_fract_x
_atom_site_fract_y
_atom_site_fract_z
Si Si1 0.314225 0.666508 0.720203
Si Si2 0.091510 0.662733 0.318599
Si Si3 0.500000 0.000000 0.500000
Si Si4 0.965876 0.759499 0.574203
Si Si5 0.405893 0.163043 0.931864
Si Si6 0.175788 0.841214 0.653511
Si Si7 0.595412 0.838416 0.892189
Si Si8 0.367254 0.655694 0.215065
O O1 0.316564 0.500000 0.719864
O O2 0.352757 0.737606 0.680409
O O3 0.362788 0.732618 0.835491
O O4 0.226741 0.727553 0.654837
O O5 0.114241 0.500000 0.332252
O O6 0.088380 0.712239 0.403449
O O7 0.000239 0.674877 0.205948
O O8 0.500084 0.121085 0.566498
O O9 0.912001 0.835124 0.462298
O O10 0.039810 0.842658 0.675867
O O11 0.383617 0.000000 0.898825
O O12 0.500000 0.170765 0.000000
O O13 0.387999 0.199156 0.004354
O O14 0.175717 0.804329 0.744092
O O15 0.205089 0.000000 0.671511
O O16 0.638297 0.751839 0.864463
O O17 0.614869 0.000000 0.899698
O O18 0.342072 0.500000 0.172657
#
# Coordination Sequence:
#
# PCOD9190163 Si02
#       8
#     8   8   2   8   8   8   8   8
#     4  12  27  40  59  88 121 157 202 251 300 353
#     4  10  20  38  59  88 120 159 196 237 296 356
#     4  12  20  36  62 104 116 158 200 260 290 348
#     4  11  22  36  65  90 123 156 201 249 292 345
#     4  10  19  40  66  88 116 156 198 240 295 365
#     4  11  24  42  61  82 119 168 205 244 298 359
#     4   9  19  34  63  93 117 151 195 244 297 355
#     4  10  21  37  60  92 122 153 196 250 300 350
#
# _framework density 20.622997999999999
#
# number of rings (size 3 to 8) (size 9 to 14) (size 15 to 20)
#    0.000    1.517    3.448    1.655    1.931    5.793 
#    0.000    0.690    0.000    0.000    0.000    0.000 
#    0.000    0.000    0.000    0.000    0.000    0.000 
#
# Total GULP energy -161749.837144 kJ/mol
# GULP energy per Si atom -5577.580591 kJ/mol
# Density = 2.057606 g / cm^3
# Si number density = 20.622998 Si / 1000 Ang^3
#
#
#
# Elastic Constant Matrix: (Units=GPa)
#
#
# Indices 1 2 3 4 5 6 
#
# 1 64.0593 49.8359 17.8926 0.0000 -36.5323 0.0000
# 2 49.8359 109.4868 13.9474 0.0000 -23.0473 0.0000
# 3 17.8926 13.9474 45.3233 0.0000 -17.4243 0.0000
# 4 0.0000 0.0000 0.0000 19.7307 0.0000 -12.1918
# 5 -36.5323 -23.0473 -17.4243 0.0000 41.1348 0.0000
# 6 0.0000 0.0000 0.0000 -12.1918 0.0000 28.0134
#
#
#
# Elastic Compliance Matrix: (Units=1/GPa)
#
#
# Indices 1 2 3 4 5 6 
#
# 1 0.044151 -0.013368 -0.001339 0.000000 0.031154 0.000000
# 2 -0.013368 0.014452 -0.000742 0.000000 -0.004089 0.000000
# 3 -0.001339 -0.000742 0.026523 0.000000 0.009630 0.000000
# 4 0.000000 0.000000 0.000000 0.069325 0.000000 0.030171
# 5 0.031154 -0.004089 0.009630 0.000000 0.053766 0.000000
# 6 0.000000 0.000000 0.000000 0.030171 0.000000 0.048828
#
#
# Mechanical properties :
#
#
# Convention : Reuss Voigt Hill
#
# Bulk Modulus (GPa) = 18.44074 42.46901 30.45487
# Shear Modulus (GPa) = 16.33877 26.92202 21.63040
#
# Velocity S-wave (km/s) = 2.81776 3.61700 3.24211
# Velocity P-wave (km/s) = 4.42127 6.17101 5.36791
#
# Compressibility (1/GPa) = 0.05422776
#
# Stress axis : x y z
#
# Youngs Moduli (GPa) = 22.64940 69.19434 37.70331
#
# Poissons Ratio (x) = 0.92499 0.05049
# Poissons Ratio (y) = 0.30278 0.02798
# Poissons Ratio (z) = 0.03033 0.05135
#
# Static dielectric constant tensor:
#      x y z
#    x 1.775470 0.000000 0.024860 
#    y 0.000000 1.692060 0.000000 
#    z 0.024860 0.000000 1.752290 
# 
# From -- ./inp_files/282207.got.cif
#   From: 2010.05.17/outbox.cif.g08.bks.cpg/sg12_142_cif.got.tgz:282207.got - 2010.06.03 13:09:07.
