data_PCOD9190393
_publ_section_title
;
Structure prediction by ZEFSAII (Michael W. Deem and Ramdas Pophale) SiO2 
 PCOD9190393
Probable space group: C 2/M
;
_chemical_formula_sum "Si O2"
_cell_formula_units_Z 56
_cell_length_a 16.266207
_cell_length_b 7.395577
_cell_length_c 20.721894
_cell_angle_alpha 90.000000
_cell_angle_beta 124.017163
_cell_angle_gamma 90.000000
_cell_volume 2066.208966
_symmetry_space_group_name_H-M "C 2/M"
_symmetry_group_IT_number 12
_symmetry_cell_setting 'monoclinic'
loop_
_space_group_symop_operation_xyz
x,y,z
-x,y,-z
-x,-y,-z
x,-y,z
1/2+x,1/2+y,z
1/2-x,1/2+y,-z
1/2-x,1/2-y,-z
1/2+x,1/2-y,z
loop_
_atom_site_type_symbol
_atom_site_label
_atom_site_fract_x
_atom_site_fract_y
_atom_site_fract_z
Si Si1 0.855044 0.784710 0.476256
Si Si2 0.443692 0.279281 0.379142
Si Si3 0.338384 0.715913 0.668972
Si Si4 0.936624 0.216893 0.236942
Si Si5 0.048919 0.788981 0.948887
Si Si6 0.257132 0.285374 0.907792
Si Si7 0.656360 0.721610 0.189855
O O1 0.891803 0.717116 0.421887
O O2 0.737899 0.750441 0.422306
O O3 0.940171 0.723454 0.562832
O O4 0.864031 0.000000 0.481096
O O5 0.440066 0.500000 0.377809
O O6 0.401031 0.217160 0.292076
O O7 0.345121 0.500000 0.674611
O O8 0.450708 0.783233 0.715775
O O9 0.300604 0.781018 0.722669
O O10 0.860588 0.258988 0.146177
O O11 0.940601 0.000000 0.240084
O O12 0.958922 0.718201 0.866166
O O13 0.058914 0.000000 0.935118
O O14 0.160390 0.711652 0.006098
O O15 0.000000 0.783566 0.000000
O O16 0.272867 0.500000 0.915475
O O17 0.290712 0.215099 0.851885
O O18 0.656823 0.500000 0.188258
#
# Coordination Sequence:
#
# PCOD9190393 Si02
#       7
#     8   8   8   8   8   8   8
#     4   9  17  32  53  69  83 111 152 190 217 250
#     4   8  16  32  51  68  86 114 150 181 216 265
#     4  10  20  31  44  66  95 122 145 174 219 270
#     4  10  20  32  44  62  94 127 146 169 218 276
#     4   7  11  22  43  68  87 107 142 186 223 252
#     4   9  16  28  49  71  86 108 151 196 219 243
#     4   8  14  27  47  68  89 114 146 183 222 262
#
# _framework density 27.102778000000001
#
# number of rings (size 3 to 8) (size 9 to 14) (size 15 to 20)
#    0.000    3.286    0.000    3.429    0.000    1.143 
#    0.000    2.857    0.000    4.714    0.000    0.000 
#    0.000    0.000    0.000    0.000    0.000    0.000 
#
# Total GULP energy -156387.477543 kJ/mol
# GULP energy per Si atom -5585.267055 kJ/mol
# Density = 2.704109 g / cm^3
# Si number density = 27.102778 Si / 1000 Ang^3
#
#
#
# Elastic Constant Matrix: (Units=GPa)
#
#
# Indices 1 2 3 4 5 6 
#
# 1 63.6886 -7.9240 28.4051 0.0000 20.2091 0.0000
# 2 -7.9240 93.8604 -3.5526 0.0000 -3.2333 0.0000
# 3 28.4051 -3.5526 226.1380 0.0000 18.9963 0.0000
# 4 0.0000 0.0000 0.0000 14.6038 0.0000 6.0574
# 5 20.2091 -3.2333 18.9963 0.0000 54.5231 0.0000
# 6 0.0000 0.0000 0.0000 6.0574 0.0000 -2.7970
#
#
#
# Elastic Compliance Matrix: (Units=1/GPa)
#
#
# Indices 1 2 3 4 5 6 
#
# 1 0.018633 0.001291 -0.001799 0.000000 -0.006203 0.000000
# 2 0.001291 0.010768 -0.000007 0.000000 0.000162 0.000000
# 3 -0.001799 -0.000007 0.004730 0.000000 -0.000982 0.000000
# 4 0.000000 0.000000 0.000000 0.036072 0.000000 0.078120
# 5 -0.006203 0.000162 -0.000982 0.000000 0.020992 0.000000
# 6 0.000000 0.000000 0.000000 0.078120 0.000000 -0.188340
#
#
# Mechanical properties :
#
#
# Convention : Reuss Voigt Hill
#
# Bulk Modulus (GPa) = 30.20917 46.39380 38.30148
# Shear Modulus (GPa) = -58.76704 37.71655 -10.52525
#
# Velocity S-wave (km/s) = -4.66156 3.73448 -1.97279
# Velocity P-wave (km/s) = 4.21937 5.97913 2.99557
#
# Compressibility (1/GPa) = 0.03310253
#
# Stress axis : x y z
#
# Youngs Moduli (GPa) = 53.66919 92.86373 211.39763
#
# Poissons Ratio (x) = -0.11991 0.38033
# Poissons Ratio (y) = -0.06930 0.00141
# Poissons Ratio (z) = 0.09656 0.00062
#
# Static dielectric constant tensor:
#      x y z
#    x 2.244470 0.000000 0.048320 
#    y 0.000000 2.029890 0.000000 
#    z 0.048320 0.000000 2.090340 
# 
# From -- ./inp_files/313314.got.cif
#   From: 2010.05.17/outbox.cif.g08.bks.cpg/sg12_157_cif.got.tgz:313314.got - 2010.06.03 13:09:07.
