data_PCOD9190775
_publ_section_title
;
Structure prediction by ZEFSAII (Michael W. Deem and Ramdas Pophale) SiO2 
 PCOD9190775
Probable space group: C 2/M
;
_chemical_formula_sum "Si O2"
_cell_formula_units_Z 56
_cell_length_a 19.060429
_cell_length_b 7.483305
_cell_length_c 23.735107
_cell_angle_alpha 90.000000
_cell_angle_beta 52.173786
_cell_angle_gamma 90.000000
_cell_volume 2674.086254
_symmetry_space_group_name_H-M "C 2/M"
_symmetry_group_IT_number 12
_symmetry_cell_setting 'monoclinic'
loop_
_space_group_symop_operation_xyz
x,y,z
-x,y,-z
-x,-y,-z
x,-y,z
1/2+x,1/2+y,z
1/2-x,1/2+y,-z
1/2-x,1/2-y,-z
1/2+x,1/2-y,z
loop_
_atom_site_type_symbol
_atom_site_label
_atom_site_fract_x
_atom_site_fract_y
_atom_site_fract_z
Si Si1 0.348295 0.286868 0.430925
Si Si2 0.036030 0.781958 0.726381
Si Si3 0.993206 0.781560 0.567295
Si Si4 0.179161 0.210801 0.866300
Si Si5 0.832070 0.785878 0.000871
Si Si6 0.476851 0.280739 0.138787
Si Si7 0.626216 0.284854 0.273822
O O1 0.357617 0.500000 0.424481
O O2 0.250000 0.250000 0.500000
O O3 0.381341 0.223214 0.353384
O O4 0.420030 0.222901 0.441031
O O5 0.038937 0.722072 0.789212
O O6 0.946265 0.727020 0.737403
O O7 0.035194 0.000000 0.728059
O O8 0.000000 0.719604 0.500000
O O9 0.909908 0.726311 0.647129
O O10 0.992087 0.000000 0.566494
O O11 0.181724 0.283777 0.928756
O O12 0.274923 0.230308 0.790396
O O13 0.100161 0.281271 0.865753
O O14 0.161147 0.000000 0.880481
O O15 0.838432 0.000000 0.001033
O O16 0.750000 0.750000 0.000000
O O17 0.925919 0.722782 0.929736
O O18 0.475968 0.500000 0.139490
O O19 0.624106 0.500000 0.274653
#
# Coordination Sequence:
#
# PCOD9190775 Si02
#       7
#     8   8   8   8   8   8   8
#     4   9  17  29  46  68  92 119 154 194 233 274
#     4   8  15  29  48  67  88 121 162 193 221 272
#     4   8  15  29  48  68  92 125 163 197 229 274
#     4  10  20  32  48  73 100 122 150 193 238 277
#     4  10  20  34  53  74  95 123 158 192 229 276
#     4   9  17  31  50  69  93 126 158 187 226 279
#     4   9  17  31  51  71  92 124 163 196 230 277
#
# _framework density 20.941731999999998
#
# number of rings (size 3 to 8) (size 9 to 14) (size 15 to 20)
#    0.000    3.000    0.000    3.000    0.000    4.571 
#    0.000    3.571    0.000    4.286    0.000    0.000 
#    0.000    0.000    0.000    0.000    0.000    0.000 
#
# Total GULP energy -156238.405630 kJ/mol
# GULP energy per Si atom -5579.943058 kJ/mol
# Density = 2.089407 g / cm^3
# Si number density = 20.941732 Si / 1000 Ang^3
#
#
#
# Elastic Constant Matrix: (Units=GPa)
#
#
# Indices 1 2 3 4 5 6 
#
# 1 169.0599 4.2062 149.8283 0.0001 9.7222 0.0010
# 2 4.2062 55.4113 2.7676 0.0004 6.1351 0.0019
# 3 149.8283 2.7676 239.5094 0.0000 11.3072 0.0000
# 4 0.0001 0.0004 0.0000 15.9304 -0.0001 -8.4131
# 5 9.7222 6.1351 11.3072 -0.0001 43.2612 0.0001
# 6 0.0010 0.0019 0.0000 -8.4131 0.0001 10.0450
#
#
#
# Elastic Compliance Matrix: (Units=1/GPa)
#
#
# Indices 1 2 3 4 5 6 
#
# 1 0.013318 -0.000513 -0.008290 -0.000001 -0.000753 -0.000002
# 2 -0.000513 0.018356 0.000229 -0.000004 -0.002548 -0.000007
# 3 -0.008290 0.000229 0.009388 0.000001 -0.000623 0.000002
# 4 -0.000001 -0.000004 0.000001 0.112561 0.000001 0.094275
# 5 -0.000753 -0.002548 -0.000623 0.000001 0.023809 0.000001
# 6 -0.000002 -0.000007 0.000002 0.094275 0.000001 0.178512
#
#
# Mechanical properties :
#
#
# Convention : Reuss Voigt Hill
#
# Bulk Modulus (GPa) = 41.81564 86.39830 64.10697
# Shear Modulus (GPa) = 13.12120 34.32589 23.72354
#
# Velocity S-wave (km/s) = 2.50583 4.05299 3.36941
# Velocity P-wave (km/s) = 5.32759 7.95289 6.76874
#
# Compressibility (1/GPa) = 0.02391450
#
# Stress axis : x y z
#
# Youngs Moduli (GPa) = 75.08761 54.47668 106.52298
#
# Poissons Ratio (x) = 0.02797 0.88303
# Poissons Ratio (y) = 0.03855 -0.02443
# Poissons Ratio (z) = 0.62245 -0.01250
#
# Static dielectric constant tensor:
#      x y z
#    x 1.715400 0.000000 0.011540 
#    y 0.000000 1.813330 0.000000 
#    z 0.011540 0.000000 1.747390 
# 
# From -- ./inp_files/342209.got.cif
#   From: 2010.05.17/outbox.cif.g08.bks.cpg/sg12_172_cif.got.tgz:342209.got - 2010.06.03 13:09:07.
