data_PCOD9190614
_publ_section_title
;
Structure prediction by ZEFSAII (Michael W. Deem and Ramdas Pophale) SiO2 
 PCOD9190614
Probable space group: C 2/M
;
_chemical_formula_sum "Si O2"
_cell_formula_units_Z 56
_cell_length_a 15.755254
_cell_length_b 7.614530
_cell_length_c 17.159777
_cell_angle_alpha 90.000000
_cell_angle_beta 81.450397
_cell_angle_gamma 90.000000
_cell_volume 2035.762222
_symmetry_space_group_name_H-M "C 2/M"
_symmetry_group_IT_number 12
_symmetry_cell_setting 'monoclinic'
loop_
_space_group_symop_operation_xyz
x,y,z
-x,y,-z
-x,-y,-z
x,-y,z
1/2+x,1/2+y,z
1/2-x,1/2+y,-z
1/2-x,1/2-y,-z
1/2+x,1/2-y,z
loop_
_atom_site_type_symbol
_atom_site_label
_atom_site_fract_x
_atom_site_fract_y
_atom_site_fract_z
Si Si1 0.194941 0.291044 0.194845
Si Si2 0.326014 0.793376 0.051087
Si Si3 0.933793 0.289011 0.663869
Si Si4 0.082389 0.285237 0.766861
Si Si5 0.795012 0.703585 0.373995
Si Si6 0.045291 0.714337 0.089495
Si Si7 0.627981 0.294147 0.484665
O O1 0.195141 0.500000 0.200004
O O2 0.284369 0.242921 0.141165
O O3 0.153777 0.223009 0.281001
O O4 0.121279 0.246009 0.141063
O O5 0.338993 0.000000 0.049079
O O6 0.250000 0.750000 0.000000
O O7 0.412534 0.722035 0.997515
O O8 0.931501 0.500000 0.660725
O O9 0.008813 0.241496 0.713185
O O10 0.941323 0.223985 0.574563
O O11 0.088442 0.500000 0.769538
O O12 0.041006 0.225236 0.854245
O O13 0.167169 0.217671 0.710713
O O14 0.776372 0.500000 0.362252
O O15 0.712213 0.782687 0.427649
O O16 0.868477 0.707569 0.431406
O O17 0.037332 0.500000 0.086077
O O18 0.638828 0.500000 0.498422
#
# Coordination Sequence:
#
# PCOD9190614 Si02
#       7
#     8   8   8   8   8   8   8
#     4   8  14  24  37  56  82 110 140 173 210 250
#     4   9  14  20  33  54  82 114 142 170 208 251
#     4   9  17  30  48  67  88 115 146 181 218 257
#     4   8  14  27  47  67  85 110 149 186 211 247
#     4   9  18  33  51  66  82 112 150 181 211 254
#     4   7  11  20  35  57  82 105 134 175 213 240
#     4  10  20  32  46  66  91 114 139 177 221 263
#
# _framework density 27.508126000000001
#
# number of rings (size 3 to 8) (size 9 to 14) (size 15 to 20)
#    0.000    3.429    0.000    3.429    0.000    1.714 
#    0.000    3.571    0.000    4.286    0.000    1.000 
#    0.000    8.000    0.000    0.000    0.000    0.000 
#
# Total GULP energy -156436.775295 kJ/mol
# GULP energy per Si atom -5587.027689 kJ/mol
# Density = 2.744552 g / cm^3
# Si number density = 27.508126 Si / 1000 Ang^3
#
#
#
# Elastic Constant Matrix: (Units=GPa)
#
#
# Indices 1 2 3 4 5 6 
#
# 1 80.0453 -5.3027 26.5768 0.0000 -17.7413 0.0000
# 2 -5.3027 65.9842 6.4674 0.0000 2.2214 0.0000
# 3 26.5768 6.4674 264.7115 0.0000 -8.5712 0.0000
# 4 0.0000 0.0000 0.0000 23.1324 0.0000 3.5218
# 5 -17.7413 2.2214 -8.5712 0.0000 67.2691 0.0000
# 6 0.0000 0.0000 0.0000 3.5218 0.0000 -2.8220
#
#
#
# Elastic Compliance Matrix: (Units=1/GPa)
#
#
# Indices 1 2 3 4 5 6 
#
# 1 0.013757 0.001117 -0.001298 0.000000 0.003426 0.000000
# 2 0.001117 0.015303 -0.000495 0.000000 -0.000274 0.000000
# 3 -0.001298 -0.000495 0.003926 0.000000 0.000174 0.000000
# 4 0.000000 0.000000 0.000000 0.036327 0.000000 0.045335
# 5 0.003426 -0.000274 0.000174 0.000000 0.015800 0.000000
# 6 0.000000 0.000000 0.000000 0.045335 0.000000 -0.297776
#
#
# Mechanical properties :
#
#
# Convention : Reuss Voigt Hill
#
# Bulk Modulus (GPa) = 31.61023 51.80266 41.70645
# Shear Modulus (GPa) = -24.90447 43.04918 9.07236
#
# Velocity S-wave (km/s) = -3.01217 3.96025 1.81803
# Velocity P-wave (km/s) = 0.76246 6.30746 4.42734
#
# Compressibility (1/GPa) = 0.03163533
#
# Stress axis : x y z
#
# Youngs Moduli (GPa) = 72.68962 65.34807 254.73111
#
# Poissons Ratio (x) = -0.07302 0.33053
# Poissons Ratio (y) = -0.08122 0.12607
# Poissons Ratio (z) = 0.09432 0.03234
#
# Static dielectric constant tensor:
#      x y z
#    x 2.356380 0.000000 -0.004440 
#    y 0.000000 1.993110 0.000000 
#    z -0.004440 0.000000 2.172620 
# 
# From -- ./inp_files/319017.got.cif
#   From: 2010.05.17/outbox.cif.g08.bks.cpg/sg12_160_cif.got.tgz:319017.got - 2010.06.03 13:09:07.
