data_PCOD9190428
_publ_section_title
;
Structure prediction by ZEFSAII (Michael W. Deem and Ramdas Pophale) SiO2 
 PCOD9190428
Probable space group: C 2/M
;
_chemical_formula_sum "Si O2"
_cell_formula_units_Z 40
_cell_length_a 19.976142
_cell_length_b 7.438239
_cell_length_c 28.318944
_cell_angle_alpha 90.000000
_cell_angle_beta 27.472881
_cell_angle_gamma 90.000000
_cell_volume 1941.195596
_symmetry_space_group_name_H-M "C 2/M"
_symmetry_group_IT_number 12
_symmetry_cell_setting 'monoclinic'
loop_
_space_group_symop_operation_xyz
x,y,z
-x,y,-z
-x,-y,-z
x,-y,z
1/2+x,1/2+y,z
1/2-x,1/2+y,-z
1/2-x,1/2-y,-z
1/2+x,1/2-y,z
loop_
_atom_site_type_symbol
_atom_site_label
_atom_site_fract_x
_atom_site_fract_y
_atom_site_fract_z
Si Si1 0.839416 0.219419 0.588422
Si Si2 0.439533 0.790997 0.988810
Si Si3 0.816244 0.285680 0.407774
Si Si4 0.608414 0.217669 0.178271
Si Si5 0.954208 0.280758 0.178562
O O1 0.788046 0.279437 0.568832
O O2 0.709595 0.271532 0.704961
O O3 0.000000 0.282224 0.500000
O O4 0.842703 0.000000 0.586725
O O5 0.265801 0.782671 0.094762
O O6 0.485565 0.000000 0.959777
O O7 0.500000 0.712554 0.000000
O O8 0.498294 0.714483 0.902483
O O9 0.823650 0.500000 0.397813
O O10 0.750000 0.250000 0.500000
O O11 0.979121 0.221776 0.294202
O O12 0.559451 0.274251 0.156007
O O13 0.613928 0.000000 0.174947
O O14 0.959345 0.500000 0.175309
#
# Coordination Sequence:
#
# PCOD9190428 Si02
#       5
#     8   8   8   8   8
#     4   8  14  26  46  69  91 120 156 188 223 271
#     4  10  20  31  46  72  99 119 148 196 243 273
#     4   9  18  31  48  71  95 121 155 193 231 272
#     4   9  18  33  50  66  90 127 163 188 220 277
#     4   8  15  29  46  65  92 123 155 189 223 269
#
# _framework density 20.605855999999999
#
# number of rings (size 3 to 8) (size 9 to 14) (size 15 to 20)
#    0.000    3.200    0.000    3.000    0.000    2.800 
#    0.000    4.000    0.000    1.800    0.000    0.000 
#    0.000    0.000    0.000    0.000    0.000    0.000 
#
# Total GULP energy -111559.075278 kJ/mol
# GULP energy per Si atom -5577.953764 kJ/mol
# Density = 2.055896 g / cm^3
# Si number density = 20.605856 Si / 1000 Ang^3
#
#
#
# Elastic Constant Matrix: (Units=GPa)
#
#
# Indices 1 2 3 4 5 6 
#
# 1 164.4415 -1.6390 139.5162 0.0001 9.2734 -0.0007
# 2 -1.6390 59.6323 -8.9302 -0.0003 3.3154 -0.0008
# 3 139.5162 -8.9302 171.0705 0.0005 6.1443 0.0009
# 4 0.0001 -0.0003 0.0005 13.8228 0.0000 0.6641
# 5 9.2734 3.3154 6.1443 0.0000 42.3031 -0.0003
# 6 -0.0007 -0.0008 0.0009 0.6641 -0.0003 -4.9352
#
#
#
# Elastic Compliance Matrix: (Units=1/GPa)
#
#
# Indices 1 2 3 4 5 6 
#
# 1 0.020099 -0.001802 -0.016418 0.000001 -0.001880 -0.000005
# 2 -0.001802 0.017153 0.002411 0.000000 -0.001300 -0.000002
# 3 -0.016418 0.002411 0.019339 -0.000001 0.000601 0.000005
# 4 0.000001 0.000000 -0.000001 0.071880 0.000000 0.009673
# 5 -0.001880 -0.001300 0.000601 0.000000 0.024066 -0.000001
# 6 -0.000005 -0.000002 0.000005 0.009673 -0.000001 -0.201325
#
#
# Mechanical properties :
#
#
# Convention : Reuss Voigt Hill
#
# Bulk Modulus (GPa) = 40.03987 72.55980 56.29983
# Shear Modulus (GPa) = -565.16649 27.98462 -268.59093
#
# Velocity S-wave (km/s) = -16.57921 3.68923 -11.42934
# Velocity P-wave (km/s) = 18.62847 7.31005 12.11576
#
# Compressibility (1/GPa) = 0.02497511
#
# Stress axis : x y z
#
# Youngs Moduli (GPa) = 49.75473 58.29777 51.70788
#
# Poissons Ratio (x) = 0.10503 0.84893
# Poissons Ratio (y) = 0.08964 -0.12469
# Poissons Ratio (z) = 0.81687 -0.14058
#
# Static dielectric constant tensor:
#      x y z
#    x 1.720440 0.000000 0.025420 
#    y 0.000000 1.822790 0.000000 
#    z 0.025420 0.000000 1.719880 
# 
# From -- ./inp_files/152684.got.cif
#   From: 2010.05.17/outbox.cif.g08.bks.cpg/sg12_77_cif.got.tgz:152684.got - 2010.06.03 13:09:07.
