data_PCOD9190221
_publ_section_title
;
Structure prediction by ZEFSAII (Michael W. Deem and Ramdas Pophale) SiO2 
 PCOD9190221
Probable space group: C 2/M
;
_chemical_formula_sum "Si O2"
_cell_formula_units_Z 58
_cell_length_a 19.577663
_cell_length_b 7.810794
_cell_length_c 19.385238
_cell_angle_alpha 90.000000
_cell_angle_beta 51.067158
_cell_angle_gamma 90.000000
_cell_volume 2305.905421
_symmetry_space_group_name_H-M "C 2/M"
_symmetry_group_IT_number 12
_symmetry_cell_setting 'monoclinic'
loop_
_space_group_symop_operation_xyz
x,y,z
-x,y,-z
-x,-y,-z
x,-y,z
1/2+x,1/2+y,z
1/2-x,1/2+y,-z
1/2-x,1/2-y,-z
1/2+x,1/2-y,z
loop_
_atom_site_type_symbol
_atom_site_label
_atom_site_fract_x
_atom_site_fract_y
_atom_site_fract_z
Si Si1 0.770293 0.693989 0.643826
Si Si2 0.912491 0.699394 0.282296
Si Si3 0.500000 0.500000 0.000000
Si Si4 0.094192 0.707553 0.101653
Si Si5 0.877614 0.189975 0.459278
Si Si6 0.568123 0.797396 0.369873
Si Si7 0.692528 0.798036 0.168020
Si Si8 0.622088 0.802457 0.923403
O O1 0.758499 0.500000 0.676512
O O2 0.676283 0.782071 0.705450
O O3 0.807138 0.692202 0.542068
O O4 0.852166 0.770338 0.634107
O O5 0.928541 0.500000 0.286161
O O6 0.893466 0.781915 0.368460
O O7 0.999156 0.766943 0.188978
O O8 0.564334 0.653878 0.927125
O O9 0.094753 0.500000 0.104952
O O10 0.168090 0.770656 0.108058
O O11 0.112959 0.747816 0.010766
O O12 0.973068 0.215347 0.433581
O O13 0.844354 0.000000 0.492552
O O14 0.605083 0.781736 0.268957
O O15 0.557195 0.000000 0.392146
O O16 0.774128 0.711395 0.153539
O O17 0.713703 0.000000 0.150204
O O18 0.594932 0.000000 0.927831
#
# Coordination Sequence:
#
# PCOD9190221 Si02
#       8
#     8   8   2   8   8   8   8   8
#     4  11  24  41  61  92 127 168 217 267 334 399
#     4  11  22  42  66  92 127 170 216 275 332 387
#     4  12  26  48  64  98 136 188 216 268 336 394
#     4   9  20  40  69  98 131 169 217 276 332 390
#     4  12  24  40  63  93 126 169 220 273 326 395
#     4  10  22  41  66  93 129 171 216 272 330 393
#     4  10  19  41  69  99 133 170 218 274 339 392
#     4  11  24  44  69 102 137 180 227 270 327 401
#
# _framework density 25.152809999999999
#
# number of rings (size 3 to 8) (size 9 to 14) (size 15 to 20)
#    0.000    1.379    2.069    3.517    0.000    4.414 
#    6.207    1.379    0.000    0.000    0.000    0.000 
#    0.000    0.000    0.000    0.000    0.000    0.000 
#
# Total GULP energy -162088.625462 kJ/mol
# GULP energy per Si atom -5589.262947 kJ/mol
# Density = 2.509556 g / cm^3
# Si number density = 25.152810 Si / 1000 Ang^3
#
#
#
# Elastic Constant Matrix: (Units=GPa)
#
#
# Indices 1 2 3 4 5 6 
#
# 1 98.5384 7.0158 11.3604 0.0001 -16.6883 0.0005
# 2 7.0158 85.4632 6.8030 0.0003 -3.9693 0.0007
# 3 11.3604 6.8030 67.2068 0.0002 -14.5046 0.0000
# 4 0.0001 0.0003 0.0002 7.6315 -0.0001 -8.0874
# 5 -16.6883 -3.9693 -14.5046 -0.0001 46.4331 0.0000
# 6 0.0005 0.0007 0.0000 -8.0874 0.0000 22.4750
#
#
#
# Elastic Compliance Matrix: (Units=1/GPa)
#
#
# Indices 1 2 3 4 5 6 
#
# 1 0.010913 -0.000650 -0.001013 0.000000 0.003550 0.000000
# 2 -0.000650 0.011855 -0.000988 -0.000001 0.000471 -0.000001
# 3 -0.001013 -0.000988 0.016142 -0.000001 0.004594 0.000000
# 4 0.000000 -0.000001 -0.000001 0.211803 0.000000 0.076215
# 5 0.003550 0.000471 0.004594 0.000000 0.024288 0.000000
# 6 0.000000 -0.000001 0.000000 0.076215 0.000000 0.071919
#
#
# Mechanical properties :
#
#
# Convention : Reuss Voigt Hill
#
# Bulk Modulus (GPa) = 29.75587 33.50746 31.63167
# Shear Modulus (GPa) = 13.75802 30.37653 22.06728
#
# Velocity S-wave (km/s) = 2.34129 3.47894 2.96519
# Velocity P-wave (km/s) = 4.37774 5.43027 4.93216
#
# Compressibility (1/GPa) = 0.03360681
#
# Stress axis : x y z
#
# Youngs Moduli (GPa) = 91.63705 84.35345 61.94961
#
# Poissons Ratio (x) = 0.05486 0.06273
# Poissons Ratio (y) = 0.05960 0.06123
# Poissons Ratio (z) = 0.09279 0.08338
#
# Static dielectric constant tensor:
#      x y z
#    x 2.037900 0.000000 0.058280 
#    y 0.000000 1.921730 0.000000 
#    z 0.058280 0.000000 1.997080 
# 
# From -- ./inp_files/314751.got.cif
#   From: 2010.05.17/outbox.cif.g08.bks.cpg/sg12_158_cif.got.tgz:314751.got - 2010.06.03 13:09:07.
