data_PCOD9190120
_publ_section_title
;
Structure prediction by ZEFSAII (Michael W. Deem and Ramdas Pophale) SiO2 
 PCOD9190120
Probable space group: C 2/M
;
_chemical_formula_sum "Si O2"
_cell_formula_units_Z 38
_cell_length_a 11.315769
_cell_length_b 18.670072
_cell_length_c 9.447661
_cell_angle_alpha 90.000000
_cell_angle_beta 116.851244
_cell_angle_gamma 90.000000
_cell_volume 1780.770389
_symmetry_space_group_name_H-M "C 2/M"
_symmetry_group_IT_number 12
_symmetry_cell_setting 'monoclinic'
loop_
_space_group_symop_operation_xyz
x,y,z
-x,y,-z
-x,-y,-z
x,-y,z
1/2+x,1/2+y,z
1/2-x,1/2+y,-z
1/2-x,1/2-y,-z
1/2+x,1/2-y,z
loop_
_atom_site_type_symbol
_atom_site_label
_atom_site_fract_x
_atom_site_fract_y
_atom_site_fract_z
Si Si1 0.156997 0.917876 0.428422
Si Si2 0.316576 0.136960 0.754388
Si Si3 0.489354 0.000000 0.826453
Si Si4 0.853005 0.500000 0.352032
Si Si5 0.109005 0.877154 0.882897
Si Si6 0.000000 0.000000 0.000000
Si Si7 0.000000 0.750834 0.000000
O O1 0.208251 0.861167 0.570543
O O2 0.266994 0.933457 0.366347
O O3 0.020142 0.894160 0.284305
O O4 0.139094 0.000000 0.479347
O O5 0.406853 0.071424 0.750792
O O6 0.236880 0.118439 0.853981
O O7 0.409741 0.202534 0.847863
O O8 0.616848 0.000000 0.797066
O O9 0.500000 0.000000 0.000000
O O10 0.000000 0.500000 0.500000
O O11 0.090185 0.801684 0.950662
O O12 0.099460 0.937861 0.994819
#
# Coordination Sequence:
#
# PCOD9190120 Si02
#       7
#     8   8   4   4   8   2   4
#     4  10  22  40  72 103 131 170 230 281 354 391
#     4  12  23  43  68  98 136 174 231 288 335 413
#     4  12  23  37  69 106 133 177 228 276 344 390
#     4  10  19  40  61 110 140 165 214 286 344 413
#     4  11  24  44  66  99 133 175 229 285 341 406
#     4  10  20  38  66  96 124 168 214 276 350 388
#     4  11  28  46  60  97 142 194 224 269 358 412
#
# _framework density 21.339078000000001
#
# number of rings (size 3 to 8) (size 9 to 14) (size 15 to 20)
#    0.632    0.421    5.263    1.895    0.000    6.737 
#    3.789    0.000    0.000    0.000    0.000    0.000 
#    0.000    0.000    0.000    0.000    0.000    0.000 
#
# Total GULP energy -105807.201831 kJ/mol
# GULP energy per Si atom -5568.800096 kJ/mol
# Density = 2.129051 g / cm^3
# Si number density = 21.339078 Si / 1000 Ang^3
#
#
#
# Elastic Constant Matrix: (Units=GPa)
#
#
# Indices 1 2 3 4 5 6 
#
# 1 108.2141 38.7498 14.4456 0.0000 -32.5559 0.0000
# 2 38.7498 121.8314 29.2085 0.0000 1.6712 0.0000
# 3 14.4456 29.2085 79.5788 0.0000 0.8203 0.0000
# 4 0.0000 0.0000 0.0000 6.3690 0.0000 -1.5559
# 5 -32.5559 1.6712 0.8203 0.0000 55.0833 0.0000
# 6 0.0000 0.0000 0.0000 -1.5559 0.0000 16.6470
#
#
#
# Elastic Compliance Matrix: (Units=1/GPa)
#
#
# Indices 1 2 3 4 5 6 
#
# 1 0.013227 -0.004080 -0.000986 0.000000 0.007956 0.000000
# 2 -0.004080 0.010261 -0.002998 0.000000 -0.002678 0.000000
# 3 -0.000986 -0.002998 0.013853 0.000000 -0.000698 0.000000
# 4 0.000000 0.000000 0.000000 0.160680 0.000000 0.015018
# 5 0.007956 -0.002678 -0.000698 0.000000 0.022948 0.000000
# 6 0.000000 0.000000 0.000000 0.015018 0.000000 0.061474
#
#
# Mechanical properties :
#
#
# Convention : Reuss Voigt Hill
#
# Bulk Modulus (GPa) = 47.13895 52.71468 49.92682
# Shear Modulus (GPa) = 16.35905 30.76789 23.56347
#
# Velocity S-wave (km/s) = 2.77180 3.80130 3.32662
# Velocity P-wave (km/s) = 5.69054 6.63502 6.18085
#
# Compressibility (1/GPa) = 0.02121388
#
# Stress axis : x y z
#
# Youngs Moduli (GPa) = 75.60311 97.45444 72.18830
#
# Poissons Ratio (x) = 0.39760 0.07115
# Poissons Ratio (y) = 0.30845 0.21642
# Poissons Ratio (z) = 0.07451 0.29217
#
# Static dielectric constant tensor:
#      x y z
#    x 1.756230 0.000000 0.043340 
#    y 0.000000 1.755510 0.000000 
#    z 0.043340 0.000000 1.898110 
# 
# From -- ./inp_files/47202.got.cif
#   From: 2010.05.17/outbox.cif.g08.bks.cpg/sg12_24_cif.got.tgz:47202.got - 2010.06.03 13:09:07.
