data_PCOD9190650
_publ_section_title
;
Structure prediction by ZEFSAII (Michael W. Deem and Ramdas Pophale) SiO2 
 PCOD9190650
Probable space group: C 2/M
;
_chemical_formula_sum "Si O2"
_cell_formula_units_Z 48
_cell_length_a 15.369250
_cell_length_b 18.732031
_cell_length_c 11.788739
_cell_angle_alpha 90.000000
_cell_angle_beta 49.317877
_cell_angle_gamma 90.000000
_cell_volume 2573.757221
_symmetry_space_group_name_H-M "C 2/M"
_symmetry_group_IT_number 12
_symmetry_cell_setting 'monoclinic'
loop_
_space_group_symop_operation_xyz
x,y,z
-x,y,-z
-x,-y,-z
x,-y,z
1/2+x,1/2+y,z
1/2-x,1/2+y,-z
1/2-x,1/2-y,-z
1/2+x,1/2-y,z
loop_
_atom_site_type_symbol
_atom_site_label
_atom_site_fract_x
_atom_site_fract_y
_atom_site_fract_z
Si Si1 0.366804 0.580586 0.573566
Si Si2 0.721791 0.585836 0.747579
Si Si3 0.683845 0.668264 0.171323
Si Si4 0.969371 0.085836 0.252420
Si Si5 0.559631 0.919413 0.573565
Si Si6 0.855166 0.331738 0.828679
O O1 0.500000 0.577918 0.500000
O O2 0.320022 0.500000 0.620927
O O3 0.306610 0.632669 0.713303
O O4 0.381580 0.601857 0.430652
O O5 0.726274 0.500000 0.762292
O O6 0.595844 0.604341 0.808311
O O7 0.812232 0.601860 0.569349
O O8 0.769611 0.625382 0.817022
O O9 0.586631 0.625384 0.182982
O O10 0.643393 0.750001 0.213216
O O11 0.800005 0.666058 0.000001
O O12 0.988572 0.000000 0.237701
O O13 0.500000 0.922082 0.500000
O O14 0.480085 0.867332 0.713305
O O15 0.559056 0.000000 0.620921
#
# Coordination Sequence:
#
# PCOD9190650 Si02
#       6
#     8   8   8   8   8   8
#     4   8  15  29  48  69  93 123 160 198 237 287
#     4   9  18  33  54  78  99 121 157 208 257 292
#     4  10  20  32  46  69 102 135 166 199 237 287
#     4   9  18  33  54  78  99 121 157 208 257 292
#     4   8  15  29  48  69  93 123 160 198 237 287
#     4  10  20  32  46  69 102 135 166 199 237 287
#
# _framework density 18.649778000000001
#
# number of rings (size 3 to 8) (size 9 to 14) (size 15 to 20)
#    0.000    3.000    0.000    3.000    0.000    9.333 
#    0.000    5.000    0.000    3.000    0.000    4.667 
#    0.000    0.000    0.000    0.000    0.000    0.000 
#
# Total GULP energy -133693.543575 kJ/mol
# GULP energy per Si atom -5570.564316 kJ/mol
# Density = 1.860733 g / cm^3
# Si number density = 18.649778 Si / 1000 Ang^3
#
#
#
# Elastic Constant Matrix: (Units=GPa)
#
#
# Indices 1 2 3 4 5 6 
#
# 1 41.5485 -10.6372 -19.7807 0.0000 2.7375 0.0000
# 2 -10.6372 61.2719 38.5914 0.0000 -3.2350 0.0000
# 3 -19.7807 38.5914 70.3383 0.0000 -4.6293 0.0000
# 4 0.0000 0.0000 0.0000 17.1724 0.0000 -0.4173
# 5 2.7375 -3.2350 -4.6293 0.0000 10.3199 0.0000
# 6 0.0000 0.0000 0.0000 -0.4173 0.0000 10.8192
#
#
#
# Elastic Compliance Matrix: (Units=1/GPa)
#
#
# Indices 1 2 3 4 5 6 
#
# 1 0.027951 -0.000220 0.007716 0.000000 -0.004022 0.000000
# 2 -0.000220 0.024970 -0.013646 0.000000 0.001765 0.000000
# 3 0.007716 -0.013646 0.024171 0.000000 0.004518 0.000000
# 4 0.000000 0.000000 0.000000 0.058288 0.000000 0.002248
# 5 -0.004022 0.001765 0.004518 0.000000 0.100547 0.000000
# 6 0.000000 0.000000 0.000000 0.002248 0.000000 0.092515
#
#
# Mechanical properties :
#
#
# Convention : Reuss Voigt Hill
#
# Bulk Modulus (GPa) = 15.43373 21.05620 18.24497
# Shear Modulus (GPa) = 13.79927 18.66132 16.23030
#
# Velocity S-wave (km/s) = 2.72309 3.16669 2.95323
# Velocity P-wave (km/s) = 4.26386 4.96844 4.62957
#
# Compressibility (1/GPa) = 0.06479313
#
# Stress axis : x y z
#
# Youngs Moduli (GPa) = 35.77747 40.04760 41.37165
#
# Poissons Ratio (x) = 0.00881 -0.31923
# Poissons Ratio (y) = 0.00787 0.56455
# Poissons Ratio (z) = -0.27607 0.54648
#
# Static dielectric constant tensor:
#      x y z
#    x 1.661220 0.000000 -0.000590 
#    y 0.000000 1.632710 0.000000 
#    z -0.000590 0.000000 1.670240 
# 
# From -- ./inp_files/146926.got.cif
#   From: 2010.05.17/outbox.cif.g08.bks.cpg/sg12_74_cif.got.tgz:146926.got - 2010.06.03 13:09:07.
