data_PCOD9190810
_publ_section_title
;
Structure prediction by ZEFSAII (Michael W. Deem and Ramdas Pophale) SiO2 
 PCOD9190810
Probable space group: C 2/M
;
_chemical_formula_sum "Si O2"
_cell_formula_units_Z 40
_cell_length_a 12.428067
_cell_length_b 13.890729
_cell_length_c 12.340403
_cell_angle_alpha 90.000000
_cell_angle_beta 123.071496
_cell_angle_gamma 90.000000
_cell_volume 1785.241421
_symmetry_space_group_name_H-M "C 2/M"
_symmetry_group_IT_number 12
_symmetry_cell_setting 'monoclinic'
loop_
_space_group_symop_operation_xyz
x,y,z
-x,y,-z
-x,-y,-z
x,-y,z
1/2+x,1/2+y,z
1/2-x,1/2+y,-z
1/2-x,1/2-y,-z
1/2+x,1/2-y,z
loop_
_atom_site_type_symbol
_atom_site_label
_atom_site_fract_x
_atom_site_fract_y
_atom_site_fract_z
Si Si1 0.254822 0.888104 0.711920
Si Si2 0.353922 0.108566 0.380227
Si Si3 0.459152 0.890402 0.102679
Si Si4 0.624076 0.615974 0.420662
Si Si5 0.122619 0.236235 0.791593
O O1 0.403103 0.879719 0.759619
O O2 0.161214 0.854034 0.563848
O O3 0.228035 0.841518 0.813582
O O4 0.228413 0.000000 0.709056
O O5 0.500000 0.111826 0.500000
O O6 0.251243 0.129473 0.417781
O O7 0.346712 0.181003 0.278227
O O8 0.326456 0.000000 0.327930
O O9 0.384059 0.796170 0.101516
O O10 0.409530 0.000000 0.097229
O O11 0.500000 0.888146 0.000000
O O12 0.594805 0.500000 0.404807
O O13 0.509535 0.679205 0.308292
#
# Coordination Sequence:
#
# PCOD9190810 Si02
#       5
#     8   8   8   8   8
#     4  10  21  37  57  82 114 149 181 218 269 328
#     4  10  20  32  48  75 111 146 179 217 263 318
#     4  10  23  42  59  77 106 145 189 234 276 319
#     4  10  21  36  54  83 121 150 173 212 272 336
#     4  12  21  33  58  84 108 141 184 226 272 326
#
# _framework density 22.405933999999998
#
# number of rings (size 3 to 8) (size 9 to 14) (size 15 to 20)
#    0.000    1.600    0.000    5.400    0.000    8.000 
#    0.000    0.000    0.000    2.400    0.000    0.000 
#    0.000    0.000    0.000    0.000    0.000    0.000 
#
# Total GULP energy -111724.703762 kJ/mol
# GULP energy per Si atom -5586.235188 kJ/mol
# Density = 2.235494 g / cm^3
# Si number density = 22.405934 Si / 1000 Ang^3
#
#
#
# Elastic Constant Matrix: (Units=GPa)
#
#
# Indices 1 2 3 4 5 6 
#
# 1 101.7523 36.5747 12.6708 0.0000 -4.9730 0.0000
# 2 36.5747 104.2159 23.7218 0.0000 -11.6726 0.0000
# 3 12.6708 23.7218 62.2794 0.0000 -13.1030 0.0000
# 4 0.0000 0.0000 0.0000 19.8616 0.0000 -9.0407
# 5 -4.9730 -11.6726 -13.1030 0.0000 30.6672 0.0000
# 6 0.0000 0.0000 0.0000 -9.0407 0.0000 35.5115
#
#
#
# Elastic Compliance Matrix: (Units=1/GPa)
#
#
# Indices 1 2 3 4 5 6 
#
# 1 0.011289 -0.003763 -0.000857 0.000000 0.000032 0.000000
# 2 -0.003763 0.011940 -0.003246 0.000000 0.002547 0.000000
# 3 -0.000857 -0.003246 0.018875 0.000000 0.006690 0.000000
# 4 0.000000 0.000000 0.000000 0.056948 0.000000 0.014498
# 5 0.000032 0.002547 0.006690 0.000000 0.036441 0.000000
# 6 0.000000 0.000000 0.000000 0.014498 0.000000 0.031851
#
#
# Mechanical properties :
#
#
# Convention : Reuss Voigt Hill
#
# Bulk Modulus (GPa) = 37.91929 46.02024 41.96977
# Shear Modulus (GPa) = 26.05971 30.22677 28.14324
#
# Velocity S-wave (km/s) = 3.41408 3.67693 3.54794
# Velocity P-wave (km/s) = 5.70104 6.21372 5.96289
#
# Compressibility (1/GPa) = 0.02637180
#
# Stress axis : x y z
#
# Youngs Moduli (GPa) = 88.58418 83.74897 52.98012
#
# Poissons Ratio (x) = 0.31516 0.04538
# Poissons Ratio (y) = 0.33336 0.17200
# Poissons Ratio (z) = 0.07588 0.27189
#
# Static dielectric constant tensor:
#      x y z
#    x 1.912660 0.000000 -0.020130 
#    y 0.000000 1.881240 0.000000 
#    z -0.020130 0.000000 1.884030 
# 
# From -- ./inp_files/129108.got.cif
#   From: 2010.05.17/outbox.cif.g08.bks.cpg/sg12_65_cif.got.tgz:129108.got - 2010.06.03 13:09:07.
