data_PCOD9190795
_publ_section_title
;
Structure prediction by ZEFSAII (Michael W. Deem and Ramdas Pophale) SiO2 
 PCOD9190795
Probable space group: C 2/M
;
_chemical_formula_sum "Si O2"
_cell_formula_units_Z 40
_cell_length_a 14.387658
_cell_length_b 22.364289
_cell_length_c 19.817896
_cell_angle_alpha 90.000000
_cell_angle_beta 159.958250
_cell_angle_gamma 90.000000
_cell_volume 2185.359611
_symmetry_space_group_name_H-M "C 2/M"
_symmetry_group_IT_number 12
_symmetry_cell_setting 'monoclinic'
loop_
_space_group_symop_operation_xyz
x,y,z
-x,y,-z
-x,-y,-z
x,-y,z
1/2+x,1/2+y,z
1/2-x,1/2+y,-z
1/2-x,1/2-y,-z
1/2+x,1/2-y,z
loop_
_atom_site_type_symbol
_atom_site_label
_atom_site_fract_x
_atom_site_fract_y
_atom_site_fract_z
Si Si1 0.612359 0.188779 0.259772
Si Si2 0.864104 0.761618 0.971512
Si Si3 0.964264 0.066198 0.300636
Si Si4 0.445807 0.065636 0.852459
Si Si5 0.574415 0.307285 0.401685
O O1 0.362519 0.202172 0.141417
O O2 0.590000 0.121458 0.219566
O O3 0.882812 0.193836 0.489030
O O4 0.560888 0.234201 0.162651
O O5 0.711932 0.707128 0.828557
O O6 0.000000 0.794542 0.000000
O O7 0.778841 0.069716 0.241598
O O8 0.145952 0.125877 0.425447
O O9 0.093659 0.000000 0.387194
O O10 0.741650 0.068626 0.089135
O O11 0.415270 0.000000 0.799592
O O12 0.750000 0.250000 0.500000
#
# Coordination Sequence:
#
# PCOD9190795 Si02
#       5
#     8   8   8   8   8
#     4  10  20  32  50  72  98 132 168 204 252 300
#     4  10  20  34  49  69 101 134 166 208 253 296
#     4   9  17  30  49  73 103 135 162 203 257 304
#     4   9  17  30  50  74  99 131 168 201 249 309
#     4  10  20  32  48  74 105 134 170 207 248 306
#
# _framework density 18.303623000000002
#
# number of rings (size 3 to 8) (size 9 to 14) (size 15 to 20)
#    0.000    2.400    2.000    2.400    0.000    4.000 
#    0.000    2.000    0.000    0.600    0.000    0.000 
#    0.000    7.200    0.000    0.000    0.000    0.000 
#
# Total GULP energy -111358.220021 kJ/mol
# GULP energy per Si atom -5567.911001 kJ/mol
# Density = 1.826196 g / cm^3
# Si number density = 18.303623 Si / 1000 Ang^3
#
#
#
# Elastic Constant Matrix: (Units=GPa)
#
#
# Indices 1 2 3 4 5 6 
#
# 1 82.4258 25.2607 11.1733 0.0178 -12.0918 -0.0075
# 2 25.2607 130.3170 27.2668 0.0156 -4.9489 0.0126
# 3 11.1733 27.2668 55.7469 0.0519 -14.0497 0.0073
# 4 0.0178 0.0156 0.0519 24.5458 0.0152 -6.7404
# 5 -12.0918 -4.9489 -14.0497 0.0152 28.6996 -0.0068
# 6 -0.0075 0.0126 0.0073 -6.7404 -0.0068 27.5414
#
#
#
# Elastic Compliance Matrix: (Units=1/GPa)
#
#
# Indices 1 2 3 4 5 6 
#
# 1 0.013667 -0.002399 -0.000250 -0.000010 0.005222 0.000004
# 2 -0.002399 0.008980 -0.004307 0.000005 -0.001571 -0.000003
# 3 -0.000250 -0.004307 0.022680 -0.000056 0.010255 -0.000015
# 4 -0.000010 0.000005 -0.000056 0.043676 -0.000051 0.010689
# 5 0.005222 -0.001571 0.010255 -0.000051 0.041793 -0.000003
# 6 0.000004 -0.000003 -0.000015 0.010689 -0.000003 0.038925
#
#
# Mechanical properties :
#
#
# Convention : Reuss Voigt Hill
#
# Bulk Modulus (GPa) = 31.83196 43.98793 37.90994
# Shear Modulus (GPa) = 25.75929 29.80995 27.78462
#
# Velocity S-wave (km/s) = 3.75551 4.04002 3.90036
# Velocity P-wave (km/s) = 6.01947 6.77103 6.40628
#
# Compressibility (1/GPa) = 0.03141497
#
# Stress axis : x y z
#
# Youngs Moduli (GPa) = 73.16778 111.35641 44.09231
#
# Poissons Ratio (x) = 0.26710 0.01102
# Poissons Ratio (y) = 0.17550 0.18993
# Poissons Ratio (z) = 0.01829 0.47967
#
# Static dielectric constant tensor:
#      x y z
#    x 1.677820 0.000000 0.015810 
#    y 0.000000 1.652830 0.000000 
#    z 0.015810 0.000000 1.725140 
# 
# From -- ./inp_files/50968.got.cif
#   From: 2010.05.17/outbox.cif.g08.bks.cpg/sg12_26_cif.got.tgz:50968.got - 2010.06.03 13:09:07.
