data_PCOD9190834
_publ_section_title
;
Structure prediction by ZEFSAII (Michael W. Deem and Ramdas Pophale) SiO2 
 PCOD9190834
Probable space group: C 2/M
;
_chemical_formula_sum "Si O2"
_cell_formula_units_Z 56
_cell_length_a 14.769155
_cell_length_b 9.727121
_cell_length_c 20.909915
_cell_angle_alpha 90.000000
_cell_angle_beta 54.016628
_cell_angle_gamma 90.000000
_cell_volume 2430.756315
_symmetry_space_group_name_H-M "C 2/M"
_symmetry_group_IT_number 12
_symmetry_cell_setting 'monoclinic'
loop_
_space_group_symop_operation_xyz
x,y,z
-x,y,-z
-x,-y,-z
x,-y,z
1/2+x,1/2+y,z
1/2-x,1/2+y,-z
1/2-x,1/2-y,-z
1/2+x,1/2-y,z
loop_
_atom_site_type_symbol
_atom_site_label
_atom_site_fract_x
_atom_site_fract_y
_atom_site_fract_z
Si Si1 0.732454 0.156975 0.136609
Si Si2 0.963888 0.154329 0.781648
Si Si3 0.142584 0.834010 0.518579
Si Si4 0.847654 0.654839 0.272768
Si Si5 0.069965 0.347289 0.901427
Si Si6 0.102042 0.836301 0.383177
Si Si7 0.880498 0.152528 0.964431
O O1 0.625946 0.238064 0.205805
O O2 0.839236 0.233430 0.119904
O O3 0.725089 0.000000 0.158411
O O4 0.757295 0.160841 0.048733
O O5 0.917739 0.143954 0.874723
O O6 0.085434 0.222145 0.721384
O O7 0.958513 0.000000 0.757613
O O8 0.250000 0.750000 0.500000
O O9 0.126473 0.811816 0.448660
O O10 0.017749 0.784520 0.592885
O O11 0.156802 0.000000 0.523409
O O12 0.842445 0.500000 0.305285
O O13 0.919746 0.638026 0.179109
O O14 0.722857 0.698760 0.304506
O O15 0.093402 0.500000 0.917748
O O16 0.948531 0.282802 0.962887
O O17 0.090045 0.000000 0.381962
O O18 0.918155 0.000000 0.973404
#
# Coordination Sequence:
#
# PCOD9190834 Si02
#       7
#     8   8   8   8   8   8   8
#     4  11  21  33  49  70  97 130 169 214 266 319
#     4  10  20  34  51  72  99 127 166 219 264 309
#     4   9  17  33  58  88 116 145 183 224 263 311
#     4   9  18  36  56  72  98 140 178 204 251 319
#     4  10  20  32  49  72  98 129 169 216 261 310
#     4   8  16  34  59  80 110 154 186 213 263 326
#     4   9  19  34  51  69  92 127 168 213 267 321
#
# _framework density 23.038098000000002
#
# number of rings (size 3 to 8) (size 9 to 14) (size 15 to 20)
#    0.000    2.571    0.000    3.000    0.000    4.000 
#    2.571    2.857    0.000    0.000    0.000    0.000 
#    0.000    0.000    0.000    0.000    0.000    0.000 
#
# Total GULP energy -155874.242330 kJ/mol
# GULP energy per Si atom -5566.937226 kJ/mol
# Density = 2.298566 g / cm^3
# Si number density = 23.038098 Si / 1000 Ang^3
#
#
#
# Elastic Constant Matrix: (Units=GPa)
#
#
# Indices 1 2 3 4 5 6 
#
# 1 87.0721 53.2493 27.9227 0.0000 -34.2852 0.0000
# 2 53.2493 176.1826 33.9500 0.0000 -37.7695 0.0000
# 3 27.9227 33.9500 82.3959 0.0000 -40.1796 0.0000
# 4 0.0000 0.0000 0.0000 17.7435 0.0000 -11.2697
# 5 -34.2852 -37.7695 -40.1796 0.0000 51.2115 0.0000
# 6 0.0000 0.0000 0.0000 -11.2697 0.0000 28.7811
#
#
#
# Elastic Compliance Matrix: (Units=1/GPa)
#
#
# Indices 1 2 3 4 5 6 
#
# 1 0.016993 -0.003202 -0.000070 0.000000 0.008961 0.000000
# 2 -0.003202 0.007362 -0.000560 0.000000 0.002846 0.000000
# 3 -0.000070 -0.000560 0.019706 0.000000 0.015001 0.000000
# 4 0.000000 0.000000 0.000000 0.075015 0.000000 0.029373
# 5 0.008961 0.002846 0.015001 0.000000 0.039395 0.000000
# 6 0.000000 0.000000 0.000000 0.029373 0.000000 0.046247
#
#
# Mechanical properties :
#
#
# Convention : Reuss Voigt Hill
#
# Bulk Modulus (GPa) = 27.47450 63.98830 45.73140
# Shear Modulus (GPa) = 22.27027 34.91578 28.59303
#
# Velocity S-wave (km/s) = 3.11251 3.89725 3.52677
# Velocity P-wave (km/s) = 4.98683 6.93446 6.03967
#
# Compressibility (1/GPa) = 0.03639739
#
# Stress axis : x y z
#
# Youngs Moduli (GPa) = 58.84608 135.83698 50.74536
#
# Poissons Ratio (x) = 0.43490 0.00356
# Poissons Ratio (y) = 0.18840 0.02843
# Poissons Ratio (z) = 0.00413 0.07611
#
# Static dielectric constant tensor:
#      x y z
#    x 2.026140 0.000000 0.132450 
#    y 0.000000 1.859170 0.000000 
#    z 0.132450 0.000000 2.032740 
# 
# From -- ./inp_files/377638.got.cif
#   From: 2010.05.17/outbox.cif.g08.bks.cpg/sg12_189_cif.got.tgz:377638.got - 2010.06.03 13:09:07.
