data_PCOD9190215
_publ_section_title
;
Structure prediction by ZEFSAII (Michael W. Deem and Ramdas Pophale) SiO2 
 PCOD9190215
Probable space group: C 2/M
;
_chemical_formula_sum "Si O2"
_cell_formula_units_Z 48
_cell_length_a 22.142337
_cell_length_b 18.865674
_cell_length_c 18.975239
_cell_angle_alpha 90.000000
_cell_angle_beta 16.871236
_cell_angle_gamma 90.000000
_cell_volume 2300.451516
_symmetry_space_group_name_H-M "C 2/M"
_symmetry_group_IT_number 12
_symmetry_cell_setting 'monoclinic'
loop_
_space_group_symop_operation_xyz
x,y,z
-x,y,-z
-x,-y,-z
x,-y,z
1/2+x,1/2+y,z
1/2-x,1/2+y,-z
1/2-x,1/2-y,-z
1/2+x,1/2-y,z
loop_
_atom_site_type_symbol
_atom_site_label
_atom_site_fract_x
_atom_site_fract_y
_atom_site_fract_z
Si Si1 0.634787 0.000000 0.039640
Si Si2 0.877760 0.158954 0.919281
Si Si3 0.959171 0.000000 0.129396
Si Si4 0.827661 0.500000 0.255874
Si Si5 0.692456 0.500000 0.007857
Si Si6 0.522503 0.388405 0.390798
Si Si7 0.973303 0.251709 0.359587
Si Si8 0.913684 0.154246 0.174589
O O1 0.623586 0.000000 0.137972
O O2 0.774579 0.932629 0.859377
O O3 0.433383 0.000000 0.214839
O O4 0.041021 0.208043 0.696794
O O5 0.905217 0.167717 0.971602
O O6 0.907317 0.076870 0.865899
O O7 0.652349 0.189174 0.151174
O O8 0.841919 0.073777 0.272574
O O9 0.164748 0.000000 0.951888
O O10 0.000000 0.000000 0.000000
O O11 0.677980 0.431883 0.413561
O O12 0.000000 0.500000 0.000000
O O13 0.500000 0.388201 0.500000
O O14 0.533839 0.309438 0.347517
O O15 0.766402 0.290203 0.613487
O O16 0.000000 0.156484 0.000000
#
# Coordination Sequence:
#
# PCOD9190215 Si02
#       8
#     4   8   4   4   4   8   8   8
#     4  11  20  41  60  90 125 163 217 251 297 370
#     4  10  23  43  62  88 126 164 206 257 309 373
#     4   8  18  40  66  89 121 160 209 273 315 360
#     4  11  21  39  61  90 124 169 211 249 296 366
#     4  10  19  41  68  85 119 170 213 257 312 367
#     4  11  23  38  62  89 128 166 203 259 307 362
#     4  11  24  40  62  92 130 163 199 254 321 372
#     4  10  22  40  65  93 121 161 210 255 313 374
#
# _framework density 20.865469000000001
#
# number of rings (size 3 to 8) (size 9 to 14) (size 15 to 20)
#    0.000    1.667    3.333    1.000    2.333    2.667 
#    3.000    0.000    0.000    6.000    0.000    0.000 
#    0.000    0.000    0.000    0.000    0.000    0.000 
#
# Total GULP energy -133777.840063 kJ/mol
# GULP energy per Si atom -5574.076669 kJ/mol
# Density = 2.081798 g / cm^3
# Si number density = 20.865469 Si / 1000 Ang^3
#
#
#
# Elastic Constant Matrix: (Units=GPa)
#
#
# Indices 1 2 3 4 5 6 
#
# 1 165.5485 27.8268 10.9567 -0.0458 7.9948 -0.0003
# 2 27.8268 139.3425 30.4757 -0.1039 -5.4118 -0.0291
# 3 10.9567 30.4757 39.8055 0.0078 -1.3329 0.0146
# 4 -0.0458 -0.1039 0.0078 -45.2751 0.0331 1.9441
# 5 7.9948 -5.4118 -1.3329 0.0331 22.6881 -0.0159
# 6 -0.0003 -0.0291 0.0146 1.9441 -0.0159 28.7369
#
#
#
# Elastic Compliance Matrix: (Units=1/GPa)
#
#
# Indices 1 2 3 4 5 6 
#
# 1 0.006427 -0.001175 -0.000956 -0.000006 -0.002601 -0.000002
# 2 -0.001175 0.008899 -0.006417 -0.000018 0.002160 0.000015
# 3 -0.000956 -0.006417 0.030318 0.000020 0.000587 -0.000023
# 4 -0.000006 -0.000018 0.000020 -0.022023 0.000032 0.001490
# 5 -0.002601 0.002160 0.000587 0.000032 0.045542 0.000025
# 6 -0.000002 0.000015 -0.000023 0.001490 0.000025 0.034698
#
#
# Mechanical properties :
#
#
# Convention : Reuss Voigt Hill
#
# Bulk Modulus (GPa) = 35.03093 53.69055 44.36074
# Shear Modulus (GPa) = 38.32201 19.59248 28.95724
#
# Velocity S-wave (km/s) = 4.29023 3.06762 3.72937
# Velocity P-wave (km/s) = 6.43171 6.19150 6.31275
#
# Compressibility (1/GPa) = 0.02854620
#
# Stress axis : x y z
#
# Youngs Moduli (GPa) = 155.59351 112.37674 32.98366
#
# Poissons Ratio (x) = 0.13208 0.03154
# Poissons Ratio (y) = 0.18288 0.21166
# Poissons Ratio (z) = 0.14879 0.72113
#
# Static dielectric constant tensor:
#      x y z
#    x 1.788860 -0.000010 0.009090 
#    y -0.000010 1.747690 0.000040 
#    z 0.009090 0.000040 1.719850 
# 
# From -- ./inp_files/285893.got.cif
#   From: 2010.05.17/outbox.cif.g08.bks.cpg/sg12_143_cif.got.tgz:285893.got - 2010.06.03 13:09:07.
