data_PCOD9190222
_publ_section_title
;
Structure prediction by ZEFSAII (Michael W. Deem and Ramdas Pophale) SiO2 
 PCOD9190222
Probable space group: C 2/M
;
_chemical_formula_sum "Si O2"
_cell_formula_units_Z 56
_cell_length_a 10.892133
_cell_length_b 30.377302
_cell_length_c 13.712842
_cell_angle_alpha 90.000000
_cell_angle_beta 29.834414
_cell_angle_gamma 90.000000
_cell_volume 2257.243443
_symmetry_space_group_name_H-M "C 2/M"
_symmetry_group_IT_number 12
_symmetry_cell_setting 'monoclinic'
loop_
_space_group_symop_operation_xyz
x,y,z
-x,y,-z
-x,-y,-z
x,-y,z
1/2+x,1/2+y,z
1/2-x,1/2+y,-z
1/2-x,1/2-y,-z
1/2+x,1/2-y,z
loop_
_atom_site_type_symbol
_atom_site_label
_atom_site_fract_x
_atom_site_fract_y
_atom_site_fract_z
Si Si1 0.223260 0.644534 0.732857
Si Si2 0.458047 0.048288 0.646298
Si Si3 0.519239 0.359645 0.243104
Si Si4 0.778356 0.547229 0.266535
Si Si5 0.535528 0.853114 0.359047
Si Si6 0.486716 0.453990 0.749162
Si Si7 0.801760 0.701321 0.925454
O O1 0.500000 0.648382 0.500000
O O2 0.279280 0.645836 0.810279
O O3 0.119582 0.595388 0.779611
O O4 0.041830 0.681042 0.815174
O O5 0.500000 0.048185 0.500000
O O6 0.358483 0.097471 0.736206
O O7 0.742365 0.047158 0.488021
O O8 0.346964 0.000000 0.748040
O O9 0.531571 0.407847 0.186503
O O10 0.251955 0.354664 0.475051
O O11 0.568166 0.325361 0.125880
O O12 0.500000 0.547080 0.500000
O O13 0.894734 0.500000 0.213572
O O14 0.721930 0.546464 0.189501
O O15 0.500000 0.847736 0.500000
O O16 0.659053 0.813423 0.213846
O O17 0.475783 0.500000 0.811937
O O18 0.750000 0.750000 0.000000
#
# Coordination Sequence:
#
# PCOD9190222 Si02
#       7
#     8   8   8   8   8   8   8
#     4  10  19  41  70  95 134 178 217 273 339 405
#     4   8  14  27  54  90 127 172 220 260 311 383
#     4  10  21  42  68  97 136 175 217 276 339 406
#     4   8  14  24  49  91 129 166 210 254 313 396
#     4  10  22  44  69  98 138 179 220 277 337 400
#     4   8  14  27  52  86 128 171 207 255 319 391
#     4  12  27  46  67  98 128 170 230 286 343 404
#
# _framework density 24.809021000000001
#
# number of rings (size 3 to 8) (size 9 to 14) (size 15 to 20)
#    0.000    2.571    1.429    0.429    2.000    1.143 
#    5.143    1.429    0.000    3.429    0.000   10.000 
#    0.000    0.000    0.000    0.000    0.000    0.000 
#
# Total GULP energy -156205.951987 kJ/mol
# GULP energy per Si atom -5578.784000 kJ/mol
# Density = 2.475255 g / cm^3
# Si number density = 24.809021 Si / 1000 Ang^3
#
#
#
# Elastic Constant Matrix: (Units=GPa)
#
#
# Indices 1 2 3 4 5 6 
#
# 1 112.3155 31.4970 12.1828 -0.0075 5.1538 -0.0023
# 2 31.4970 254.3203 61.6866 -0.0016 23.7504 -0.0005
# 3 12.1828 61.6866 85.1828 -0.0302 9.8709 -0.0094
# 4 -0.0075 -0.0016 -0.0302-8272.6271 0.0135-2598.9731
# 5 5.1538 23.7504 9.8709 0.0135 36.8004 0.0042
# 6 -0.0023 -0.0005 -0.0094-2598.9731 0.0042 -791.5259
#
#
#
# Elastic Compliance Matrix: (Units=1/GPa)
#
#
# Indices 1 2 3 4 5 6 
#
# 1 0.009258 -0.000960 -0.000568 0.000000 -0.000525 0.000000
# 2 -0.000960 0.005052 -0.003260 0.000000 -0.002252 0.000000
# 3 -0.000568 -0.003260 0.014376 0.000000 -0.001672 0.000000
# 4 0.000000 0.000000 0.000000 0.003830 0.000000 -0.012576
# 5 -0.000525 -0.002252 -0.001672 0.000000 0.029149 0.000000
# 6 0.000000 0.000000 0.000000 -0.012576 0.000000 0.040030
#
#
# Mechanical properties :
#
#
# Convention : Reuss Voigt Hill
#
# Bulk Modulus (GPa) = 52.33100 73.61682 62.97391
# Shear Modulus (GPa) = 42.50225 -1782.37371 -869.93573
#
# Velocity S-wave (km/s) = 4.14354 -26.83277 -18.74605
# Velocity P-wave (km/s) = 6.63561 30.50014 21.05027
#
# Compressibility (1/GPa) = 0.01910913
#
# Stress axis : x y z
#
# Youngs Moduli (GPa) = 108.01042 197.94189 69.56275
#
# Poissons Ratio (x) = 0.18998 0.03953
# Poissons Ratio (y) = 0.10367 0.22680
# Poissons Ratio (z) = 0.06138 0.64535
#
# Static dielectric constant tensor:
#      x y z
#    x 2.120010 0.000000 0.000650 
#    y 0.000000 1.988420 0.000000 
#    z 0.000650 0.000000 2.023230 
# 
# From -- ./inp_files/210011.got.cif
#   From: 2010.05.17/outbox.cif.g08.bks.cpg/sg12_106_cif.got.tgz:210011.got - 2010.06.03 13:09:07.
