data_PCOD9190107
_publ_section_title
;
Structure prediction by ZEFSAII (Michael W. Deem and Ramdas Pophale) SiO2 
 PCOD9190107
Probable space group: C 2/M
;
_chemical_formula_sum "Si O2"
_cell_formula_units_Z 56
_cell_length_a 6.969267
_cell_length_b 14.768625
_cell_length_c 20.875442
_cell_angle_alpha 90.000000
_cell_angle_beta 112.606373
_cell_angle_gamma 90.000000
_cell_volume 1983.550843
_symmetry_space_group_name_H-M "C 2/M"
_symmetry_group_IT_number 12
_symmetry_cell_setting 'monoclinic'
loop_
_space_group_symop_operation_xyz
x,y,z
-x,y,-z
-x,-y,-z
x,-y,z
1/2+x,1/2+y,z
1/2-x,1/2+y,-z
1/2-x,1/2-y,-z
1/2+x,1/2-y,z
loop_
_atom_site_type_symbol
_atom_site_label
_atom_site_fract_x
_atom_site_fract_y
_atom_site_fract_z
Si Si1 0.467788 0.103810 0.337963
Si Si2 0.971532 0.598171 0.133346
Si Si3 0.292748 0.356423 0.013261
Si Si4 0.163765 0.719137 0.254863
Si Si5 0.446829 0.396508 0.834012
Si Si6 0.536331 0.397653 0.359011
Si Si7 0.213295 0.642729 0.491116
O O1 0.499447 0.171359 0.283091
O O2 0.258083 0.121430 0.352038
O O3 0.657963 0.115404 0.411982
O O4 0.462827 0.000000 0.315219
O O5 0.057669 0.500000 0.159128
O O6 0.898924 0.602994 0.050723
O O7 0.129190 0.669902 0.182211
O O8 0.756167 0.609434 0.145788
O O9 0.500000 0.381415 0.000000
O O10 0.250000 0.250000 0.000000
O O11 0.357302 0.380449 0.093634
O O12 0.083567 0.819079 0.223050
O O13 0.868772 0.822973 0.316729
O O14 0.454150 0.500000 0.810234
O O15 0.467994 0.500000 0.334396
O O16 0.601216 0.395626 0.442254
O O17 0.250000 0.750000 0.500000
O O18 0.000000 0.617655 0.500000
#
# Coordination Sequence:
#
# PCOD9190107 Si02
#       7
#     8   8   8   8   8   8   8
#     4  10  23  46  77 113 158 203 256 321 390 467
#     4  10  21  41  72 109 148 194 252 317 388 462
#     4  10  19  39  73 109 139 195 256 319 384 453
#     4  12  24  44  76 115 157 207 256 317 394 469
#     4  10  23  45  74 109 151 205 265 321 389 467
#     4  10  23  46  76 116 157 200 260 322 390 470
#     4  10  23  43  70 107 146 202 260 314 384 457
#
# _framework density 28.232199000000001
#
# number of rings (size 3 to 8) (size 9 to 14) (size 15 to 20)
#    0.000    1.714    1.429    2.143    2.000    4.571 
#    7.714    1.429    0.000    7.714    0.000    0.000 
#    0.000    0.000    0.000    0.000    0.000    0.000 
#
# Total GULP energy -156873.634454 kJ/mol
# GULP energy per Si atom -5602.629802 kJ/mol
# Density = 2.816794 g / cm^3
# Si number density = 28.232199 Si / 1000 Ang^3
#
#
#
# Elastic Constant Matrix: (Units=GPa)
#
#
# Indices 1 2 3 4 5 6 
#
# 1 132.5828 13.7764 54.0048 0.0000 24.8584 0.0000
# 2 13.7764 216.4509 95.8945 0.0000 9.4006 0.0000
# 3 54.0048 95.8945 276.4376 0.0000 20.7311 0.0000
# 4 0.0000 0.0000 0.0000 67.9340 0.0000 7.7349
# 5 24.8584 9.4006 20.7311 0.0000 66.1578 0.0000
# 6 0.0000 0.0000 0.0000 7.7349 0.0000 23.1173
#
#
#
# Elastic Compliance Matrix: (Units=1/GPa)
#
#
# Indices 1 2 3 4 5 6 
#
# 1 0.008684 0.000269 -0.001579 0.000000 -0.002806 0.000000
# 2 0.000269 0.005470 -0.001929 0.000000 -0.000274 0.000000
# 3 -0.001579 -0.001929 0.004639 0.000000 -0.000586 0.000000
# 4 0.000000 0.000000 0.000000 0.015303 0.000000 -0.005120
# 5 -0.002806 -0.000274 -0.000586 0.000000 0.016392 0.000000
# 6 0.000000 0.000000 0.000000 -0.005120 0.000000 0.044971
#
#
# Mechanical properties :
#
#
# Convention : Reuss Voigt Hill
#
# Bulk Modulus (GPa) = 81.21426 105.86921 93.54174
# Shear Modulus (GPa) = 47.15062 62.22819 54.68940
#
# Velocity S-wave (km/s) = 4.09112 4.69994 4.40606
# Velocity P-wave (km/s) = 7.15160 8.18739 7.68696
#
# Compressibility (1/GPa) = 0.01231311
#
# Stress axis : x y z
#
# Youngs Moduli (GPa) = 115.15465 182.83144 215.55323
#
# Poissons Ratio (x) = -0.04915 0.34043
# Poissons Ratio (y) = -0.03096 0.41588
# Poissons Ratio (z) = 0.18187 0.35275
#
# Static dielectric constant tensor:
#      x y z
#    x 2.546680 0.000000 -0.039160 
#    y 0.000000 2.205430 0.000000 
#    z -0.039160 0.000000 2.139780 
# 
# From -- ./inp_files/333012.got.cif
#   From: 2010.05.17/outbox.cif.g08.bks.cpg/sg12_167_cif.got.tgz:333012.got - 2010.06.03 13:09:07.
