data_PCOD9190241
_publ_section_title
;
Structure prediction by ZEFSAII (Michael W. Deem and Ramdas Pophale) SiO2 
 PCOD9190241
Probable space group: C 2/M
;
_chemical_formula_sum "Si O2"
_cell_formula_units_Z 48
_cell_length_a 10.280506
_cell_length_b 27.676569
_cell_length_c 10.046041
_cell_angle_alpha 90.000000
_cell_angle_beta 57.376703
_cell_angle_gamma 90.000000
_cell_volume 2407.432253
_symmetry_space_group_name_H-M "C 2/M"
_symmetry_group_IT_number 12
_symmetry_cell_setting 'monoclinic'
loop_
_space_group_symop_operation_xyz
x,y,z
-x,y,-z
-x,-y,-z
x,-y,z
1/2+x,1/2+y,z
1/2-x,1/2+y,-z
1/2-x,1/2-y,-z
1/2+x,1/2-y,z
loop_
_atom_site_type_symbol
_atom_site_label
_atom_site_fract_x
_atom_site_fract_y
_atom_site_fract_z
Si Si1 0.704299 0.652743 0.190247
Si Si2 0.831595 0.325836 0.837797
Si Si3 0.147345 0.445973 0.820494
Si Si4 0.085026 0.398198 0.585287
Si Si5 0.327663 0.744247 0.650653
Si Si6 0.348939 0.662729 0.310453
O O1 0.738817 0.597982 0.210028
O O2 0.738314 0.691213 0.288299
O O3 0.525662 0.659676 0.250972
O O4 0.806382 0.665448 0.005416
O O5 0.841710 0.270116 0.788528
O O6 0.688648 0.345297 0.825704
O O7 0.977543 0.354677 0.699758
O O8 0.210663 0.500000 0.802164
O O9 0.098110 0.436531 0.695571
O O10 0.000000 0.441460 0.000000
O O11 0.246562 0.375073 0.449634
O O12 0.000000 0.417029 0.500000
O O13 0.500000 0.742032 0.500000
O O14 0.277231 0.716694 0.369032
#
# Coordination Sequence:
#
# PCOD9190241 Si02
#       6
#     8   8   8   8   8   8
#     4  12  23  37  65  94 130 169 212 270 322 362
#     4   9  18  41  58  94 130 171 214 249 305 396
#     4  11  26  46  68  94 125 165 217 272 326 384
#     4  10  19  43  70  91 126 170 207 261 317 388
#     4  10  21  37  57  96 135 178 212 247 310 392
#     4   9  21  38  61  93 134 167 210 256 310 377
#
# _framework density 19.938255000000002
#
# number of rings (size 3 to 8) (size 9 to 14) (size 15 to 20)
#    1.000    0.833    3.333    1.000    2.333    2.333 
#    3.000    1.667    0.000    3.000    0.000    0.000 
#    0.000    0.000    0.000    0.000    0.000    0.000 
#
# Total GULP energy -133983.238038 kJ/mol
# GULP energy per Si atom -5582.634918 kJ/mol
# Density = 1.989287 g / cm^3
# Si number density = 19.938255 Si / 1000 Ang^3
#
#
#
# Elastic Constant Matrix: (Units=GPa)
#
#
# Indices 1 2 3 4 5 6 
#
# 1 51.2691 26.8742 25.6111 0.0000 5.1772 0.0000
# 2 26.8742 135.7450 31.7076 0.0000 4.4161 0.0000
# 3 25.6111 31.7076 98.1567 0.0000 11.3072 0.0000
# 4 0.0000 0.0000 0.0000 4.8696 0.0000 3.0839
# 5 5.1772 4.4161 11.3072 0.0000 20.7352 0.0000
# 6 0.0000 0.0000 0.0000 3.0839 0.0000 21.3732
#
#
#
# Elastic Compliance Matrix: (Units=1/GPa)
#
#
# Indices 1 2 3 4 5 6 
#
# 1 0.024039 -0.003547 -0.004825 0.000000 -0.002615 0.000000
# 2 -0.003547 0.008493 -0.001826 0.000000 0.000073 0.000000
# 3 -0.004825 -0.001826 0.012648 0.000000 -0.005303 0.000000
# 4 0.000000 0.000000 0.000000 0.226008 0.000000 -0.032611
# 5 -0.002615 0.000073 -0.005303 0.000000 0.051757 0.000000
# 6 0.000000 0.000000 0.000000 -0.032611 0.000000 0.051493
#
#
# Mechanical properties :
#
#
# Convention : Reuss Voigt Hill
#
# Bulk Modulus (GPa) = 40.35113 50.39518 45.37315
# Shear Modulus (GPa) = 12.40405 22.79415 17.59910
#
# Velocity S-wave (km/s) = 2.49695 3.38485 2.97422
# Velocity P-wave (km/s) = 5.34743 6.37234 5.88225
#
# Compressibility (1/GPa) = 0.02478246
#
# Stress axis : x y z
#
# Youngs Moduli (GPa) = 41.59978 117.74095 79.06590
#
# Poissons Ratio (x) = 0.41762 0.38150
# Poissons Ratio (y) = 0.14755 0.14441
# Poissons Ratio (z) = 0.20072 0.21505
#
# Static dielectric constant tensor:
#      x y z
#    x 1.728280 0.000000 0.054670 
#    y 0.000000 1.683790 0.000000 
#    z 0.054670 0.000000 1.720140 
# 
# From -- ./inp_files/52413.got.cif
#   From: 2010.05.17/outbox.cif.g08.bks.cpg/sg12_27_cif.got.tgz:52413.got - 2010.06.03 13:09:07.
