data_PCOD9190853
_publ_section_title
;
Structure prediction by ZEFSAII (Michael W. Deem and Ramdas Pophale) SiO2 
 PCOD9190853
Probable space group: C 2/M
;
_chemical_formula_sum "Si O2"
_cell_formula_units_Z 64
_cell_length_a 29.224845
_cell_length_b 8.944889
_cell_length_c 16.216940
_cell_angle_alpha 90.000000
_cell_angle_beta 62.718832
_cell_angle_gamma 90.000000
_cell_volume 3767.770653
_symmetry_space_group_name_H-M "C 2/M"
_symmetry_group_IT_number 12
_symmetry_cell_setting 'monoclinic'
loop_
_space_group_symop_operation_xyz
x,y,z
-x,y,-z
-x,-y,-z
x,-y,z
1/2+x,1/2+y,z
1/2-x,1/2+y,-z
1/2-x,1/2-y,-z
1/2+x,1/2-y,z
loop_
_atom_site_type_symbol
_atom_site_label
_atom_site_fract_x
_atom_site_fract_y
_atom_site_fract_z
Si Si1 0.105633 0.678963 0.368906
Si Si2 0.041959 0.678235 0.266587
Si Si3 0.420168 0.319988 0.112399
Si Si4 0.332411 0.675922 0.442563
Si Si5 0.055864 0.174439 0.566665
Si Si6 0.785542 0.678898 0.642358
Si Si7 0.820284 0.678388 0.273290
Si Si8 0.527634 0.320926 0.104340
O O1 0.099118 0.500000 0.384654
O O2 0.087611 0.719348 0.292241
O O3 0.069833 0.759597 0.465783
O O4 0.164665 0.714044 0.342590
O O5 0.039821 0.500000 0.262451
O O6 0.046232 0.746306 0.172485
O O7 0.989786 0.737934 0.351717
O O8 0.413105 0.500000 0.124631
O O9 0.368964 0.236753 0.181698
O O10 0.468607 0.279225 0.130924
O O11 0.438381 0.285518 0.004316
O O12 0.319097 0.500000 0.447785
O O13 0.391706 0.686999 0.423331
O O14 0.299015 0.755264 0.540996
O O15 0.326064 0.755268 0.360617
O O16 0.042416 0.000000 0.571349
O O17 0.779747 0.500000 0.642421
O O18 0.733312 0.754874 0.715615
O O19 0.818684 0.500000 0.276895
O O20 0.528189 0.500000 0.113543
#
# Coordination Sequence:
#
# PCOD9190853 Si02
#       8
#     8   8   8   8   8   8   8   8
#     4   9  20  36  51  70  99 136 173 209 251 295
#     4  11  21  32  50  76 105 134 166 206 251 300
#     4   9  19  37  57  77 103 133 164 200 245 296
#     4  10  20  34  50  72 104 137 170 207 247 294
#     4  10  20  32  49  74 103 136 173 209 244 290
#     4  10  20  36  54  70  96 135 175 212 250 292
#     4  12  23  33  50  77 104 131 167 207 250 300
#     4   9  19  36  57  79 103 131 164 202 244 295
#
# _framework density 16.986170999999999
#
# number of rings (size 3 to 8) (size 9 to 14) (size 15 to 20)
#    0.000    2.000    0.000    4.875    0.000    8.500 
#    0.000    1.250    0.000    0.750    0.000    0.000 
#    0.000    0.000    0.000    0.000    0.000    0.000 
#
# Total GULP energy -178744.497785 kJ/mol
# GULP energy per Si atom -5585.765556 kJ/mol
# Density = 1.694751 g / cm^3
# Si number density = 16.986171 Si / 1000 Ang^3
#
#
#
# Elastic Constant Matrix: (Units=GPa)
#
#
# Indices 1 2 3 4 5 6 
#
# 1 92.2008 54.8637 75.6333 0.0000 2.0827 0.0000
# 2 54.8637 74.3240 53.8142 0.0000 -2.2262 0.0000
# 3 75.6333 53.8142 89.3845 0.0000 1.9273 0.0000
# 4 0.0000 0.0000 0.0000 31.2842 0.0000 0.5501
# 5 2.0827 -2.2262 1.9273 0.0000 32.7893 0.0000
# 6 0.0000 0.0000 0.0000 0.5501 0.0000 25.4713
#
#
#
# Elastic Compliance Matrix: (Units=1/GPa)
#
#
# Indices 1 2 3 4 5 6 
#
# 1 0.038339 -0.008646 -0.027205 0.000000 -0.001423 0.000000
# 2 -0.008646 0.026003 -0.008400 0.000000 0.002808 0.000000
# 3 -0.027205 -0.008400 0.039290 0.000000 -0.001152 0.000000
# 4 0.000000 0.000000 0.000000 0.031977 0.000000 -0.000691
# 5 -0.001423 0.002808 -0.001152 0.000000 0.030846 0.000000
# 6 0.000000 0.000000 0.000000 -0.000691 0.000000 0.039275
#
#
# Mechanical properties :
#
#
# Convention : Reuss Voigt Hill
#
# Bulk Modulus (GPa) = 66.09447 69.39239 67.74343
# Shear Modulus (GPa) = 16.70704 22.68219 19.69462
#
# Velocity S-wave (km/s) = 3.13959 3.65819 3.40876
# Velocity P-wave (km/s) = 7.22066 7.66708 7.44721
#
# Compressibility (1/GPa) = 0.01512986
#
# Stress axis : x y z
#
# Youngs Moduli (GPa) = 26.08283 38.45766 25.45202
#
# Poissons Ratio (x) = 0.33249 0.69243
# Poissons Ratio (y) = 0.22550 0.21380
# Poissons Ratio (z) = 0.70959 0.32304
#
# Static dielectric constant tensor:
#      x y z
#    x 1.594110 0.000000 0.004600 
#    y 0.000000 1.563010 0.000000 
#    z 0.004600 0.000000 1.543210 
# 
# From -- ./inp_files/249001.got.cif
#   From: 2010.05.17/outbox.cif.g08.bks.cpg/sg12_125_cif.got.tgz:249001.got - 2010.06.03 13:09:07.
