data_PCOD9190996
_publ_section_title
;
Structure prediction by ZEFSAII (Michael W. Deem and Ramdas Pophale) SiO2 
 PCOD9190996
Probable space group: C 2/M
;
_chemical_formula_sum "Si O2"
_cell_formula_units_Z 56
_cell_length_a 26.108951
_cell_length_b 7.338674
_cell_length_c 14.044899
_cell_angle_alpha 90.000000
_cell_angle_beta 112.138336
_cell_angle_gamma 90.000000
_cell_volume 2492.679128
_symmetry_space_group_name_H-M "C 2/M"
_symmetry_group_IT_number 12
_symmetry_cell_setting 'monoclinic'
loop_
_space_group_symop_operation_xyz
x,y,z
-x,y,-z
-x,-y,-z
x,-y,z
1/2+x,1/2+y,z
1/2-x,1/2+y,-z
1/2-x,1/2-y,-z
1/2+x,1/2-y,z
loop_
_atom_site_type_symbol
_atom_site_label
_atom_site_fract_x
_atom_site_fract_y
_atom_site_fract_z
Si Si1 0.131612 0.714112 0.279586
Si Si2 0.060086 0.721729 0.576426
Si Si3 0.339148 0.222318 0.489632
Si Si4 0.014346 0.722973 0.117057
Si Si5 0.704990 0.782883 0.887853
Si Si6 0.247814 0.219272 0.280549
Si Si7 0.417850 0.222122 0.191669
O O1 0.121616 0.500000 0.288152
O O2 0.150377 0.787736 0.395838
O O3 0.074307 0.785475 0.196471
O O4 0.183787 0.732783 0.246665
O O5 0.060205 0.500000 0.575783
O O6 0.109241 0.776342 0.540568
O O7 0.070546 0.777697 0.691832
O O8 0.000000 0.781631 0.500000
O O9 0.283441 0.282603 0.396766
O O10 0.337411 0.000000 0.490540
O O11 0.015199 0.500000 0.117118
O O12 0.965770 0.781580 0.154218
O O13 0.000000 0.779993 0.000000
O O14 0.725142 0.713876 0.798929
O O15 0.644301 0.716815 0.875133
O O16 0.699582 0.000000 0.872563
O O17 0.750000 0.750000 0.000000
O O18 0.251143 0.000000 0.282056
O O19 0.418997 0.000000 0.190035
#
# Coordination Sequence:
#
# PCOD9190996 Si02
#       7
#     8   8   8   8   8   8   8
#     4  10  20  32  51  78 104 133 171 211 248 293
#     4   9  14  22  42  69  98 129 160 201 251 300
#     4   9  16  29  46  71 104 132 165 207 250 298
#     4   9  18  30  45  70 103 132 162 208 259 299
#     4  10  21  35  54  77 101 133 171 209 252 301
#     4  10  20  35  52  73 105 139 168 203 251 305
#     4   9  16  29  47  70  99 131 164 202 256 306
#
# _framework density 22.465788
#
# number of rings (size 3 to 8) (size 9 to 14) (size 15 to 20)
#    0.000    2.571    1.429    1.286    2.000    4.000 
#    0.000    0.000    0.000    1.286    0.000    0.000 
#    0.000    2.857    0.000    0.000    0.000    0.000 
#
# Total GULP energy -156492.485192 kJ/mol
# GULP energy per Si atom -5589.017328 kJ/mol
# Density = 2.241465 g / cm^3
# Si number density = 22.465788 Si / 1000 Ang^3
#
#
#
# Elastic Constant Matrix: (Units=GPa)
#
#
# Indices 1 2 3 4 5 6 
#
# 1 196.7639 -1.4513 81.0159 0.0000 25.9972 0.0000
# 2 -1.4513 83.6422 7.3731 0.0000 -0.1946 0.0000
# 3 81.0159 7.3731 126.3778 0.0000 29.4184 0.0000
# 4 0.0000 0.0000 0.0000 -0.9436 0.0000 1.9388
# 5 25.9972 -0.1946 29.4184 0.0000 42.8276 0.0000
# 6 0.0000 0.0000 0.0000 1.9388 0.0000 4.0781
#
#
#
# Elastic Compliance Matrix: (Units=1/GPa)
#
#
# Indices 1 2 3 4 5 6 
#
# 1 0.006993 0.000488 -0.004194 0.000000 -0.001361 0.000000
# 2 0.000488 0.012066 -0.001143 0.000000 0.000544 0.000000
# 3 -0.004194 -0.001143 0.011995 0.000000 -0.005698 0.000000
# 4 0.000000 0.000000 0.000000 -0.536103 0.000000 0.254877
# 5 -0.001361 0.000544 -0.005698 0.000000 0.028093 0.000000
# 6 0.000000 0.000000 0.000000 0.254877 0.000000 0.124040
#
#
# Mechanical properties :
#
#
# Convention : Reuss Voigt Hill
#
# Bulk Modulus (GPa) = 46.82938 64.51769 55.67353
# Shear Modulus (GPa) = -14.87652 30.51550 7.81949
#
# Velocity S-wave (km/s) = -2.57609 3.68952 1.86767
# Velocity P-wave (km/s) = 3.47011 6.85060 5.43012
#
# Compressibility (1/GPa) = 0.02135412
#
# Stress axis : x y z
#
# Youngs Moduli (GPa) = 143.00701 82.87609 83.36963
#
# Poissons Ratio (x) = -0.04043 0.34968
# Poissons Ratio (y) = -0.06977 0.09532
# Poissons Ratio (z) = 0.59981 0.09476
#
# Static dielectric constant tensor:
#      x y z
#    x 1.784280 0.000000 0.011970 
#    y 0.000000 1.920030 0.000000 
#    z 0.011970 0.000000 1.782950 
# 
# From -- ./inp_files/174456.got.cif
#   From: 2010.05.17/outbox.cif.g08.bks.cpg/sg12_88_cif.got.tgz:174456.got - 2010.06.03 13:09:07.
