data_PCOD9190638
_publ_section_title
;
Structure prediction by ZEFSAII (Michael W. Deem and Ramdas Pophale) SiO2 
 PCOD9190638
Probable space group: C 2/M
;
_chemical_formula_sum "Si O2"
_cell_formula_units_Z 56
_cell_length_a 33.841970
_cell_length_b 9.153281
_cell_length_c 18.763848
_cell_angle_alpha 90.000000
_cell_angle_beta 35.646306
_cell_angle_gamma 90.000000
_cell_volume 3387.340995
_symmetry_space_group_name_H-M "C 2/M"
_symmetry_group_IT_number 12
_symmetry_cell_setting 'monoclinic'
loop_
_space_group_symop_operation_xyz
x,y,z
-x,y,-z
-x,-y,-z
x,-y,z
1/2+x,1/2+y,z
1/2-x,1/2+y,-z
1/2-x,1/2-y,-z
1/2+x,1/2-y,z
loop_
_atom_site_type_symbol
_atom_site_label
_atom_site_fract_x
_atom_site_fract_y
_atom_site_fract_z
Si Si1 0.644130 0.827867 0.178499
Si Si2 0.387880 0.827857 0.489806
Si Si3 0.344939 0.327562 0.417077
Si Si4 0.767594 0.829701 0.229061
Si Si5 0.796324 0.826137 0.341153
Si Si6 0.003842 0.826598 0.409628
Si Si7 0.242334 0.671172 0.900148
O O1 0.573136 0.745611 0.280947
O O2 0.692013 0.760360 0.169607
O O3 0.634370 0.000000 0.205402
O O4 0.685305 0.808880 0.044395
O O5 0.389687 0.761718 0.407401
O O6 0.311000 0.808742 0.631742
O O7 0.440306 0.745711 0.463426
O O8 0.402014 0.000000 0.467697
O O9 0.351929 0.500000 0.420203
O O10 0.268246 0.274367 0.546293
O O11 0.351270 0.301191 0.322742
O O12 0.811569 0.800203 0.235813
O O13 0.781215 0.729965 0.141467
O O14 0.775802 0.000000 0.197551
O O15 0.776752 0.000000 0.374908
O O16 0.000000 0.800823 0.500000
O O17 0.004241 0.000000 0.396696
O O18 0.259330 0.500000 0.871737
#
# Coordination Sequence:
#
# PCOD9190638 Si02
#       7
#     8   8   8   8   8   8   8
#     4  10  21  36  52  69  92 124 157 190 233 279
#     4  10  20  32  46  67  97 130 160 189 229 282
#     4   9  15  25  42  63  90 123 158 194 229 270
#     4   9  17  29  46  69  97 128 158 189 231 279
#     4   8  15  26  40  62  92 124 156 190 231 278
#     4  11  23  36  51  72  95 120 155 196 232 271
#     4  10  20  33  50  72  95 120 155 196 232 271
#
# _framework density 16.532140999999999
#
# number of rings (size 3 to 8) (size 9 to 14) (size 15 to 20)
#    0.000    2.429    0.000    3.857    0.000    8.571 
#    0.000    0.000    0.000    0.000    0.000    1.000 
#    0.000    8.000    0.000    0.000    0.000    0.000 
#
# Total GULP energy -156067.122951 kJ/mol
# GULP energy per Si atom -5573.825820 kJ/mol
# Density = 1.649451 g / cm^3
# Si number density = 16.532141 Si / 1000 Ang^3
#
#
#
# Elastic Constant Matrix: (Units=GPa)
#
#
# Indices 1 2 3 4 5 6 
#
# 1 122.5662 70.5171 24.3788 -0.0008 21.3359 0.0006
# 2 70.5171 85.0157 32.4049 -0.0001 10.6509 0.0010
# 3 24.3788 32.4049 19.2020 -0.0017 5.5200 0.0002
# 4 -0.0008 -0.0001 -0.0017 21.5021 0.0003 1.6569
# 5 21.3359 10.6509 5.5200 0.0003 22.6531 0.0004
# 6 0.0006 0.0010 0.0002 1.6569 0.0004 32.1341
#
#
#
# Elastic Compliance Matrix: (Units=1/GPa)
#
#
# Indices 1 2 3 4 5 6 
#
# 1 0.018157 -0.017090 0.009027 0.000001 -0.011265 0.000000
# 2 -0.017090 0.049148 -0.063690 -0.000005 0.008507 -0.000001
# 3 0.009027 -0.063690 0.152626 0.000012 -0.015748 0.000000
# 4 0.000001 -0.000005 0.000012 0.046693 -0.000002 -0.002408
# 5 -0.011265 0.008507 -0.015748 -0.000002 0.054592 0.000000
# 6 0.000000 -0.000001 0.000000 -0.002408 0.000000 0.031244
#
#
# Mechanical properties :
#
#
# Convention : Reuss Voigt Hill
#
# Bulk Modulus (GPa) = 13.08463 53.48728 33.28595
# Shear Modulus (GPa) = 9.58882 21.89008 15.73945
#
# Velocity S-wave (km/s) = 2.41095 3.64276 3.08888
# Velocity P-wave (km/s) = 3.96006 7.07931 5.73580
#
# Compressibility (1/GPa) = 0.07642554
#
# Stress axis : x y z
#
# Youngs Moduli (GPa) = 55.07575 20.34660 6.55195
#
# Poissons Ratio (x) = 0.34772 -0.05914
# Poissons Ratio (y) = 0.94123 0.41729
# Poissons Ratio (z) = -0.49716 1.29588
#
# Static dielectric constant tensor:
#      x y z
#    x 1.584420 0.000000 0.025340 
#    y 0.000000 1.551010 0.000000 
#    z 0.025340 0.000000 1.540420 
# 
# From -- ./inp_files/295107.got.cif
#   From: 2010.05.17/outbox.cif.g08.bks.cpg/sg12_148_cif.got.tgz:295107.got - 2010.06.03 13:09:07.
