data_PCOD9190963
_publ_section_title
;
Structure prediction by ZEFSAII (Michael W. Deem and Ramdas Pophale) SiO2 
 PCOD9190963
Probable space group: C 2/M
;
_chemical_formula_sum "Si O2"
_cell_formula_units_Z 40
_cell_length_a 14.677929
_cell_length_b 34.544379
_cell_length_c 5.097739
_cell_angle_alpha 90.000000
_cell_angle_beta 60.118482
_cell_angle_gamma 90.000000
_cell_volume 2241.133198
_symmetry_space_group_name_H-M "C 2/M"
_symmetry_group_IT_number 12
_symmetry_cell_setting 'monoclinic'
loop_
_space_group_symop_operation_xyz
x,y,z
-x,y,-z
-x,-y,-z
x,-y,z
1/2+x,1/2+y,z
1/2-x,1/2+y,-z
1/2-x,1/2-y,-z
1/2+x,1/2-y,z
loop_
_atom_site_type_symbol
_atom_site_label
_atom_site_fract_x
_atom_site_fract_y
_atom_site_fract_z
Si Si1 0.750823 0.832167 0.310502
Si Si2 0.617955 0.316345 0.396766
Si Si3 0.126620 0.408022 0.310969
Si Si4 0.571519 0.228965 0.639520
Si Si5 0.872864 0.456494 0.190211
O O1 0.826979 0.839746 0.447787
O O2 0.685882 0.869322 0.308820
O O3 0.669386 0.799490 0.523594
O O4 0.815633 0.817298 0.965848
O O5 0.500000 0.329663 0.500000
O O6 0.608032 0.272261 0.515776
O O7 0.153427 0.440878 0.485545
O O8 0.000000 0.401639 0.500000
O O9 0.157130 0.424995 0.984746
O O10 0.500000 0.215021 0.500000
O O11 0.500000 0.229792 0.000000
O O12 0.833879 0.500000 0.195040
O O13 0.000000 0.458276 0.000000
#
# Coordination Sequence:
#
# PCOD9190963 Si02
#       5
#     8   8   8   8   8
#     4  12  22  36  56  78 108 139 175 224 275 308
#     4  11  23  39  54  73 101 141 189 229 263 308
#     4  10  20  32  50  80 111 138 170 207 253 312
#     4  11  22  37  56  79 105 138 178 218 269 326
#     4   9  17  31  50  73 108 147 171 193 238 309
#
# _framework density 17.848115
#
# number of rings (size 3 to 8) (size 9 to 14) (size 15 to 20)
#    0.000    1.400    0.000    7.800    0.000    4.800 
#    0.000    0.000    0.000    0.000    0.000    0.000 
#    0.000   56.000    0.000    0.000    0.000    0.000 
#
# Total GULP energy -111734.990860 kJ/mol
# GULP energy per Si atom -5586.749543 kJ/mol
# Density = 1.780749 g / cm^3
# Si number density = 17.848115 Si / 1000 Ang^3
#
#
#
# Elastic Constant Matrix: (Units=GPa)
#
#
# Indices 1 2 3 4 5 6 
#
# 1 115.4329 40.4147 26.0381 0.0000 8.5507 0.0000
# 2 40.4147 58.0787 22.6843 0.0000 -9.8823 0.0000
# 3 26.0381 22.6843 102.6791 0.0000 4.1888 0.0000
# 4 0.0000 0.0000 0.0000 12.5699 0.0000 8.2299
# 5 8.5507 -9.8823 4.1888 0.0000 25.6935 0.0000
# 6 0.0000 0.0000 0.0000 8.2299 0.0000 20.6167
#
#
#
# Elastic Compliance Matrix: (Units=1/GPa)
#
#
# Indices 1 2 3 4 5 6 
#
# 1 0.012968 -0.010118 -0.000723 0.000000 -0.008089 0.000000
# 2 -0.010118 0.028517 -0.004348 0.000000 0.015044 0.000000
# 3 -0.000723 -0.004348 0.011015 0.000000 -0.003227 0.000000
# 4 0.000000 0.000000 0.000000 0.107705 0.000000 -0.042994
# 5 -0.008089 0.015044 -0.003227 0.000000 0.047925 0.000000
# 6 0.000000 0.000000 0.000000 -0.042994 0.000000 0.065667
#
#
# Mechanical properties :
#
#
# Convention : Reuss Voigt Hill
#
# Bulk Modulus (GPa) = 45.20545 50.49609 47.85077
# Shear Modulus (GPa) = 16.04891 24.24625 20.14758
#
# Velocity S-wave (km/s) = 3.00191 3.68975 3.36346
# Velocity P-wave (km/s) = 6.11540 6.81952 6.47704
#
# Compressibility (1/GPa) = 0.02212123
#
# Stress axis : x y z
#
# Youngs Moduli (GPa) = 77.11445 35.06727 90.78758
#
# Poissons Ratio (x) = 0.35480 0.06566
# Poissons Ratio (y) = 0.78022 0.39475
# Poissons Ratio (z) = 0.05577 0.15247
#
# Static dielectric constant tensor:
#      x y z
#    x 1.562300 0.000000 0.056970 
#    y 0.000000 1.596570 0.000000 
#    z 0.056970 0.000000 1.560860 
# 
# From -- ./inp_files/7669.got.cif
#   From: 2010.05.17/outbox.cif.g08.bks.cpg/sg12_4_cif.got.tgz:7669.got - 2010.06.03 13:09:07.
