data_PCOD9190561
_publ_section_title
;
Structure prediction by ZEFSAII (Michael W. Deem and Ramdas Pophale) SiO2 
 PCOD9190561
Probable space group: C 2/M
;
_chemical_formula_sum "Si O2"
_cell_formula_units_Z 48
_cell_length_a 8.740366
_cell_length_b 24.137559
_cell_length_c 11.230499
_cell_angle_alpha 90.000000
_cell_angle_beta 89.283079
_cell_angle_gamma 90.000000
_cell_volume 2369.125253
_symmetry_space_group_name_H-M "C 2/M"
_symmetry_group_IT_number 12
_symmetry_cell_setting 'monoclinic'
loop_
_space_group_symop_operation_xyz
x,y,z
-x,y,-z
-x,-y,-z
x,-y,z
1/2+x,1/2+y,z
1/2-x,1/2+y,-z
1/2-x,1/2-y,-z
1/2+x,1/2-y,z
loop_
_atom_site_type_symbol
_atom_site_label
_atom_site_fract_x
_atom_site_fract_y
_atom_site_fract_z
Si Si1 0.912281 0.749579 0.287783
Si Si2 0.747104 0.938952 0.570869
Si Si3 0.096354 0.561720 0.319399
Si Si4 0.846134 0.328276 0.827882
Si Si5 0.331415 0.327369 0.674099
Si Si6 0.324053 0.309175 0.958972
O O1 0.010424 0.713959 0.189462
O O2 0.029367 0.787422 0.357265
O O3 0.791389 0.792579 0.231850
O O4 0.822736 0.703880 0.364503
O O5 0.579182 0.937219 0.633680
O O6 0.708052 0.933128 0.432180
O O7 0.841562 0.888203 0.622540
O O8 0.814285 0.000000 0.591772
O O9 0.121827 0.500000 0.266659
O O10 0.120447 0.615358 0.240166
O O11 0.787822 0.345801 0.958800
O O12 0.320873 0.324412 0.819678
O O13 0.500000 0.312658 0.000000
O O14 0.250000 0.250000 0.000000
#
# Coordination Sequence:
#
# PCOD9190561 Si02
#       6
#     8   8   8   8   8   8
#     4  10  20  31  55  82 118 144 179 221 274 330
#     4   9  19  38  61  80 104 144 190 232 273 322
#     4   9  19  38  61  80 104 144 190 232 273 322
#     4  11  19  35  54  85 114 145 183 222 273 327
#     4  11  19  35  54  85 114 145 183 222 273 327
#     4  12  20  32  55  80 117 151 180 216 270 333
#
# _framework density 20.260642000000001
#
# number of rings (size 3 to 8) (size 9 to 14) (size 15 to 20)
#    0.000    1.667    6.667    1.000    0.000    0.000 
#    0.000    7.500    0.000    5.000    0.000    0.000 
#    0.000    0.000    0.000    0.000    0.000    0.000 
#
# Total GULP energy -133867.189403 kJ/mol
# GULP energy per Si atom -5577.799558 kJ/mol
# Density = 2.021453 g / cm^3
# Si number density = 20.260642 Si / 1000 Ang^3
#
#
#
# Elastic Constant Matrix: (Units=GPa)
#
#
# Indices 1 2 3 4 5 6 
#
# 1 64.8969 13.1795 -6.6136 0.0000 10.6876 0.0000
# 2 13.1795 135.2701 33.0483 0.0000 15.0001 0.0000
# 3 -6.6136 33.0483 34.4693 0.0000 4.2880 0.0000
# 4 0.0000 0.0000 0.0000 24.9268 0.0000 -19.9332
# 5 10.6876 15.0001 4.2880 0.0000 9.5829 0.0000
# 6 0.0000 0.0000 0.0000 -19.9332 0.0000 -143.6110
#
#
#
# Elastic Compliance Matrix: (Units=1/GPa)
#
#
# Indices 1 2 3 4 5 6 
#
# 1 0.020563 -0.001289 0.008242 0.000000 -0.024604 0.000000
# 2 -0.001289 0.011133 -0.009458 0.000000 -0.011756 0.000000
# 3 0.008242 -0.009458 0.041260 0.000000 -0.012849 0.000000
# 4 0.000000 0.000000 0.000000 0.036110 0.000000 -0.005012
# 5 -0.024604 -0.011756 -0.012849 0.000000 0.155945 0.000000
# 6 0.000000 0.000000 0.000000 -0.005012 0.000000 -0.006268
#
#
# Mechanical properties :
#
#
# Convention : Reuss Voigt Hill
#
# Bulk Modulus (GPa) = 14.71805 34.87386 24.79596
# Shear Modulus (GPa) = 17.45808 -8.81880 4.31964
#
# Velocity S-wave (km/s) = 2.93861 -2.08857 1.46173
# Velocity P-wave (km/s) = 4.33521 3.38139 3.88766
#
# Compressibility (1/GPa) = 0.06794379
#
# Stress axis : x y z
#
# Youngs Moduli (GPa) = 48.63215 89.82570 24.23675
#
# Poissons Ratio (x) = 0.11576 -0.19975
# Poissons Ratio (y) = 0.06267 0.22924
# Poissons Ratio (z) = -0.40081 0.84961
#
# Static dielectric constant tensor:
#      x y z
#    x 1.788100 0.000000 -0.011460 
#    y 0.000000 1.727990 0.000000 
#    z -0.011460 0.000000 1.811940 
# 
# From -- ./inp_files/121949.got.cif
#   From: 2010.05.17/outbox.cif.g08.bks.cpg/sg12_61_cif.got.tgz:121949.got - 2010.06.03 13:09:07.
