data_PCOD9190779
_publ_section_title
;
Structure prediction by ZEFSAII (Michael W. Deem and Ramdas Pophale) SiO2 
 PCOD9190779
Probable space group: C 2/M
;
_chemical_formula_sum "Si O2"
_cell_formula_units_Z 48
_cell_length_a 26.255284
_cell_length_b 7.563281
_cell_length_c 12.057322
_cell_angle_alpha 90.000000
_cell_angle_beta 92.154864
_cell_angle_gamma 90.000000
_cell_volume 2392.602733
_symmetry_space_group_name_H-M "C 2/M"
_symmetry_group_IT_number 12
_symmetry_cell_setting 'monoclinic'
loop_
_space_group_symop_operation_xyz
x,y,z
-x,y,-z
-x,-y,-z
x,-y,z
1/2+x,1/2+y,z
1/2-x,1/2+y,-z
1/2-x,1/2-y,-z
1/2+x,1/2-y,z
loop_
_atom_site_type_symbol
_atom_site_label
_atom_site_fract_x
_atom_site_fract_y
_atom_site_fract_z
Si Si1 0.942501 0.210269 0.507565
Si Si2 0.699802 0.712350 0.138171
Si Si3 0.608179 0.708365 0.274099
Si Si4 0.186164 0.287488 0.882458
Si Si5 0.411510 0.786593 0.260537
Si Si6 0.991000 0.285817 0.872964
O O1 0.912490 0.283553 0.611393
O O2 0.914302 0.237110 0.389212
O O3 0.000000 0.283091 0.500000
O O4 0.947854 0.000000 0.527333
O O5 0.702095 0.500000 0.149894
O O6 0.659724 0.782900 0.224484
O O7 0.757902 0.779874 0.148530
O O8 0.680052 0.748519 0.012189
O O9 0.617627 0.500000 0.292742
O O10 0.562423 0.726404 0.182312
O O11 0.187051 0.500000 0.871447
O O12 0.138904 0.221388 0.806423
O O13 0.462617 0.725150 0.201697
O O14 0.411630 0.000000 0.253988
O O15 0.990745 0.500000 0.872728
O O16 0.000000 0.227858 0.000000
#
# Coordination Sequence:
#
# PCOD9190779 Si02
#       6
#     8   8   8   8   8   8
#     4  10  20  35  52  70  98 136 172 207 246 290
#     4   9  18  33  54  77 101 131 166 204 248 297
#     4  10  20  34  51  73  99 130 168 206 247 291
#     4   9  18  34  54  76 103 132 163 203 250 298
#     4  10  20  33  51  74 100 131 167 205 248 297
#     4  10  20  32  48  73 102 129 159 201 251 299
#
# _framework density 20.061834000000001
#
# number of rings (size 3 to 8) (size 9 to 14) (size 15 to 20)
#    0.000    2.333    1.667    1.000    0.000    4.000 
#    0.000    0.833    0.000    0.000    0.000    0.000 
#    0.000    0.000    0.000    0.000    0.000    0.000 
#
# Total GULP energy -133996.516709 kJ/mol
# GULP energy per Si atom -5583.188196 kJ/mol
# Density = 2.001617 g / cm^3
# Si number density = 20.061834 Si / 1000 Ang^3
#
#
#
# Elastic Constant Matrix: (Units=GPa)
#
#
# Indices 1 2 3 4 5 6 
#
# 1 105.6762 5.6847 41.9639 0.0000 -32.6698 0.0000
# 2 5.6847 45.0677 -1.0035 0.0000 -7.1753 0.0000
# 3 41.9639 -1.0035 87.9358 0.0000 -38.1995 0.0000
# 4 0.0000 0.0000 0.0000 21.4596 0.0000 -0.3716
# 5 -32.6698 -7.1753 -38.1995 0.0000 34.2121 0.0000
# 6 0.0000 0.0000 0.0000 -0.3716 0.0000 18.5309
#
#
#
# Elastic Compliance Matrix: (Units=1/GPa)
#
#
# Indices 1 2 3 4 5 6 
#
# 1 0.013548 0.000024 -0.001637 0.000000 0.011115 0.000000
# 2 0.000024 0.023942 0.004763 0.000000 0.010363 0.000000
# 3 -0.001637 0.004763 0.023229 0.000000 0.025373 0.000000
# 4 0.000000 0.000000 0.000000 0.046615 0.000000 0.000935
# 5 0.011115 0.010363 0.025373 0.000000 0.070347 0.000000
# 6 0.000000 0.000000 0.000000 0.000935 0.000000 0.053983
#
#
# Mechanical properties :
#
#
# Convention : Reuss Voigt Hill
#
# Bulk Modulus (GPa) = 14.92069 36.88552 25.90310
# Shear Modulus (GPa) = 20.18557 27.64280 23.91418
#
# Velocity S-wave (km/s) = 3.17546 3.71601 3.45632
# Velocity P-wave (km/s) = 4.57145 6.06939 5.37288
#
# Compressibility (1/GPa) = 0.06702104
#
# Stress axis : x y z
#
# Youngs Moduli (GPa) = 73.81421 41.76799 43.04895
#
# Poissons Ratio (x) = -0.00102 0.07045
# Poissons Ratio (y) = -0.00179 -0.20506
# Poissons Ratio (z) = 0.12080 -0.19896
#
# Static dielectric constant tensor:
#      x y z
#    x 1.712670 0.000000 -0.028930 
#    y 0.000000 1.760470 0.000000 
#    z -0.028930 0.000000 1.677850 
# 
# From -- ./inp_files/102433.got.cif
#   From: 2010.05.17/outbox.cif.g08.bks.cpg/sg12_52_cif.got.tgz:102433.got - 2010.06.03 13:09:07.
