data_PCOD9190954
_publ_section_title
;
Structure prediction by ZEFSAII (Michael W. Deem and Ramdas Pophale) SiO2 
 PCOD9190954
Probable space group: C 2/M
;
_chemical_formula_sum "Si O2"
_cell_formula_units_Z 30
_cell_length_a 14.531302
_cell_length_b 20.036099
_cell_length_c 14.537589
_cell_angle_alpha 90.000000
_cell_angle_beta 159.864818
_cell_angle_gamma 90.000000
_cell_volume 1457.024032
_symmetry_space_group_name_H-M "C 2/M"
_symmetry_group_IT_number 12
_symmetry_cell_setting 'monoclinic'
loop_
_space_group_symop_operation_xyz
x,y,z
-x,y,-z
-x,-y,-z
x,-y,z
1/2+x,1/2+y,z
1/2-x,1/2+y,-z
1/2-x,1/2-y,-z
1/2+x,1/2-y,z
loop_
_atom_site_type_symbol
_atom_site_label
_atom_site_fract_x
_atom_site_fract_y
_atom_site_fract_z
Si Si1 0.255149 0.380800 0.842230
Si Si2 0.929982 0.302923 0.780266
Si Si3 0.000000 0.738637 0.500000
Si Si4 0.500000 0.000000 0.500000
Si Si5 0.975525 0.838181 0.234720
O O1 0.103184 0.311325 0.677468
O O2 0.066102 0.441392 0.638271
O O3 0.500000 0.384295 0.000000
O O4 0.381714 0.383319 0.061861
O O5 0.745521 0.281336 0.692028
O O6 0.747471 0.350475 0.544656
O O7 0.978711 0.233676 0.771046
O O8 0.224134 0.332594 0.067728
#
# Coordination Sequence:
#
# PCOD9190954 Si02
#       5
#     8   8   4   2   8
#     4  11  21  36  51  73 104 150 179 226 257 319
#     4  10  20  32  50  78 105 143 173 217 251 333
#     4  11  20  31  52  78 110 143 180 205 270 316
#     4  10  26  36  52  74 104 142 196 230 266 294
#     4  10  20  33  51  73 107 140 182 208 267 311
#
# _framework density 20.589912999999999
#
# number of rings (size 3 to 8) (size 9 to 14) (size 15 to 20)
#    0.000    1.600    2.667    5.200    3.733    0.000 
#    0.000    0.000    0.000    0.000    0.000    0.000 
#    0.000    6.400    0.000    0.000    0.000    0.000 
#
# Total GULP energy -83511.268684 kJ/mol
# GULP energy per Si atom -5567.417912 kJ/mol
# Density = 2.054305 g / cm^3
# Si number density = 20.589913 Si / 1000 Ang^3
#
#
#
# Elastic Constant Matrix: (Units=GPa)
#
#
# Indices 1 2 3 4 5 6 
#
# 1 101.4931 29.7527 29.4373 -0.0002 19.1265 -0.0001
# 2 29.7527 38.5583 16.1559 0.0000 -17.8045 0.0001
# 3 29.4373 16.1559 95.5960 -0.0011 -0.7979 -0.0002
# 4 -0.0002 0.0000 -0.0011 -27.7254 0.0004 -10.6272
# 5 19.1265 -17.8045 -0.7979 0.0004 47.5600 0.0002
# 6 -0.0001 0.0001 -0.0002 -10.6272 0.0002 9.6051
#
#
#
# Elastic Compliance Matrix: (Units=1/GPa)
#
#
# Indices 1 2 3 4 5 6 
#
# 1 0.020163 -0.022033 -0.002622 0.000000 -0.016401 0.000000
# 2 -0.022033 0.058250 -0.002804 0.000001 0.030620 -0.000001
# 3 -0.002622 -0.002804 0.011744 0.000000 0.000202 0.000000
# 4 0.000000 0.000001 0.000000 -0.025327 0.000001 -0.028022
# 5 -0.016401 0.030620 0.000202 0.000001 0.039088 0.000000
# 6 0.000000 -0.000001 0.000000 -0.028022 0.000000 0.073108
#
#
# Mechanical properties :
#
#
# Convention : Reuss Voigt Hill
#
# Bulk Modulus (GPa) = 28.37824 42.92658 35.65241
# Shear Modulus (GPa) = 20.51785 16.57471 18.54628
#
# Velocity S-wave (km/s) = 3.16016 2.84032 3.00450
# Velocity P-wave (km/s) = 5.20846 5.62585 5.42117
#
# Compressibility (1/GPa) = 0.03523827
#
# Stress axis : x y z
#
# Youngs Moduli (GPa) = 49.59527 17.16738 85.15175
#
# Poissons Ratio (x) = 0.37825 0.22329
# Poissons Ratio (y) = 1.09274 0.23877
# Poissons Ratio (z) = 0.13005 0.04814
#
# Static dielectric constant tensor:
#      x y z
#    x 1.824060 0.000000 -0.017890 
#    y 0.000000 1.710040 0.000000 
#    z -0.017890 0.000000 1.832220 
# 
# From -- ./inp_files/217833.got.cif
#   From: 2010.05.17/outbox.cif.g08.bks.cpg/sg12_109_cif.got.tgz:217833.got - 2010.06.03 13:09:07.
