data_PCOD9190256
_publ_section_title
;
Structure prediction by ZEFSAII (Michael W. Deem and Ramdas Pophale) SiO2 
 PCOD9190256
Probable space group: C 2/M
;
_chemical_formula_sum "Si O2"
_cell_formula_units_Z 36
_cell_length_a 14.646553
_cell_length_b 28.754051
_cell_length_c 4.975614
_cell_angle_alpha 90.000000
_cell_angle_beta 68.265677
_cell_angle_gamma 90.000000
_cell_volume 1946.503595
_symmetry_space_group_name_H-M "C 2/M"
_symmetry_group_IT_number 12
_symmetry_cell_setting 'monoclinic'
loop_
_space_group_symop_operation_xyz
x,y,z
-x,y,-z
-x,-y,-z
x,-y,z
1/2+x,1/2+y,z
1/2-x,1/2+y,-z
1/2-x,1/2-y,-z
1/2+x,1/2-y,z
loop_
_atom_site_type_symbol
_atom_site_label
_atom_site_fract_x
_atom_site_fract_y
_atom_site_fract_z
Si Si1 0.405387 0.260410 0.460894
Si Si2 0.070739 0.446557 0.181380
Si Si3 0.256533 0.687017 0.264983
Si Si4 0.693535 0.132560 0.858203
Si Si5 0.500000 0.183136 0.000000
O O1 0.500000 0.283458 0.500000
O O2 0.353970 0.292693 0.295720
O O3 0.315252 0.232181 0.701369
O O4 0.455297 0.216815 0.265021
O O5 0.095068 0.500000 0.227221
O O6 0.000000 0.427874 0.500000
O O7 0.170158 0.419529 0.982225
O O8 0.000000 0.446546 0.000000
O O9 0.216061 0.649030 0.528961
O O10 0.266974 0.660243 0.973580
O O11 0.585614 0.153389 0.033450
#
# Coordination Sequence:
#
# PCOD9190256 Si02
#       5
#     8   8   8   8   4
#     4  10  20  33  47  68  98 131 172 206 244 274
#     4  10  20  32  51  75  99 128 163 200 242 298
#     4  10  23  32  49  70  97 131 172 204 237 291
#     4  11  20  34  48  72  98 130 168 195 242 292
#     4  10  20  28  53  66  96 142 161 202 240 282
#
# _framework density 18.494700000000002
#
# number of rings (size 3 to 8) (size 9 to 14) (size 15 to 20)
#    0.000    1.778    3.333    1.333    6.222    2.667 
#    0.000    0.000    0.000    0.000    0.000    0.000 
#    0.000    5.333    0.000    0.000    0.000    0.000 
#
# Total GULP energy -100212.707467 kJ/mol
# GULP energy per Si atom -5567.372637 kJ/mol
# Density = 1.845261 g / cm^3
# Si number density = 18.494700 Si / 1000 Ang^3
#
#
#
# Elastic Constant Matrix: (Units=GPa)
#
#
# Indices 1 2 3 4 5 6 
#
# 1 95.1357 8.0295 -6.6850 0.0000 6.9667 0.0000
# 2 8.0295 40.7343 -4.6458 0.0000 0.5172 0.0000
# 3 -6.6850 -4.6458 65.3287 0.0000 8.6221 0.0000
# 4 0.0000 0.0000 0.0000 34.0143 0.0000 -7.0307
# 5 6.9667 0.5172 8.6221 0.0000 17.7532 0.0000
# 6 0.0000 0.0000 0.0000 -7.0307 0.0000 14.4539
#
#
#
# Elastic Compliance Matrix: (Units=1/GPa)
#
#
# Indices 1 2 3 4 5 6 
#
# 1 0.011170 -0.001945 0.001684 0.000000 -0.005145 0.000000
# 2 -0.001945 0.025136 0.001693 0.000000 -0.000791 0.000000
# 3 0.001684 0.001693 0.016768 0.000000 -0.008854 0.000000
# 4 0.000000 0.000000 0.000000 0.032686 0.000000 0.015899
# 5 -0.005145 -0.000791 -0.008854 0.000000 0.062670 0.000000
# 6 0.000000 0.000000 0.000000 0.015899 0.000000 0.076919
#
#
# Mechanical properties :
#
#
# Convention : Reuss Voigt Hill
#
# Bulk Modulus (GPa) = 17.87658 21.62178 19.74918
# Shear Modulus (GPa) = 20.73558 26.87759 23.80659
#
# Velocity S-wave (km/s) = 3.35201 3.81630 3.59166
# Velocity P-wave (km/s) = 4.96670 5.57988 5.28219
#
# Compressibility (1/GPa) = 0.05593912
#
# Stress axis : x y z
#
# Youngs Moduli (GPa) = 89.52167 39.78388 59.63584
#
# Poissons Ratio (x) = 0.07736 -0.10041
# Poissons Ratio (y) = 0.17408 -0.10096
# Poissons Ratio (z) = -0.15073 -0.06735
#
# Static dielectric constant tensor:
#      x y z
#    x 1.724150 0.000000 -0.004860 
#    y 0.000000 1.724120 0.000000 
#    z -0.004860 0.000000 1.718130 
# 
# From -- ./inp_files/7405.got.cif
#   From: 2010.05.17/outbox.cif.g08.bks.cpg/sg12_4_cif.got.tgz:7405.got - 2010.06.03 13:09:07.
