data_PCOD9190401
_publ_section_title
;
Structure prediction by ZEFSAII (Michael W. Deem and Ramdas Pophale) SiO2 
 PCOD9190401
Probable space group: C 2/M
;
_chemical_formula_sum "Si O2"
_cell_formula_units_Z 64
_cell_length_a 21.250647
_cell_length_b 14.548866
_cell_length_c 10.509038
_cell_angle_alpha 90.000000
_cell_angle_beta 76.611645
_cell_angle_gamma 90.000000
_cell_volume 3160.807704
_symmetry_space_group_name_H-M "C 2/M"
_symmetry_group_IT_number 12
_symmetry_cell_setting 'monoclinic'
loop_
_space_group_symop_operation_xyz
x,y,z
-x,y,-z
-x,-y,-z
x,-y,z
1/2+x,1/2+y,z
1/2-x,1/2+y,-z
1/2-x,1/2-y,-z
1/2+x,1/2-y,z
loop_
_atom_site_type_symbol
_atom_site_label
_atom_site_fract_x
_atom_site_fract_y
_atom_site_fract_z
Si Si1 0.305753 0.150249 0.080985
Si Si2 0.780261 0.131329 0.109383
Si Si3 0.254549 0.363653 0.629609
Si Si4 0.588421 0.401183 0.064610
Si Si5 0.557190 0.804399 0.378670
Si Si6 0.395167 0.400995 0.650193
Si Si7 0.551732 0.192358 0.079838
Si Si8 0.797412 0.350332 0.614304
O O1 0.286031 0.257848 0.100305
O O2 0.288995 0.112378 0.227797
O O3 0.261443 0.105501 0.994012
O O4 0.379120 0.152799 0.997487
O O5 0.742956 0.104586 0.253418
O O6 0.853253 0.098192 0.062403
O O7 0.326963 0.401430 0.610299
O O8 0.218778 0.388824 0.516564
O O9 0.269815 0.254226 0.623450
O O10 0.553373 0.500000 0.075802
O O11 0.619205 0.396162 0.191767
O O12 0.552929 0.304264 0.068664
O O13 0.500000 0.834226 0.500000
O O14 0.566857 0.693463 0.392245
O O15 0.542872 0.824812 0.235759
O O16 0.626962 0.846098 0.384948
O O17 0.428025 0.500000 0.611394
O O18 0.500000 0.158862 0.000000
#
# Coordination Sequence:
#
# PCOD9190401 Si02
#       8
#     8   8   8   8   8   8   8   8
#     4   9  15  26  46  65  84 111 148 189 234 275
#     4   9  14  27  46  64  85 112 144 188 240 276
#     4   9  16  27  46  69  86 112 147 188 238 276
#     4   9  17  30  48  67  91 125 159 189 224 269
#     4  10  20  32  45  64  93 129 160 186 224 270
#     4   9  17  31  48  66  92 125 159 189 219 268
#     4  10  20  31  45  66  93 125 160 194 222 261
#     4   9  17  28  44  65  91 113 143 192 239 274
#
# _framework density 20.247990000000001
#
# number of rings (size 3 to 8) (size 9 to 14) (size 15 to 20)
#    0.000    2.750    2.500    0.000    1.750    0.500 
#    2.250    0.625    0.000    0.000    0.000    0.000 
#    0.000    6.000    0.000    0.000    0.000    0.000 
#
# Total GULP energy -178254.698833 kJ/mol
# GULP energy per Si atom -5570.459339 kJ/mol
# Density = 2.020190 g / cm^3
# Si number density = 20.247990 Si / 1000 Ang^3
#
#
#
# Elastic Constant Matrix: (Units=GPa)
#
#
# Indices 1 2 3 4 5 6 
#
# 1 91.0629 -12.2909 79.6372 0.0000 11.3751 0.0000
# 2 -12.2909 33.9346 -4.4728 0.0000 3.5423 0.0000
# 3 79.6372 -4.4728 174.9005 0.0000 4.3165 0.0000
# 4 0.0000 0.0000 0.0000 -4.5663 0.0000 -0.9127
# 5 11.3751 3.5423 4.3165 0.0000 36.8173 0.0000
# 6 0.0000 0.0000 0.0000 -0.9127 0.0000 -10.5485
#
#
#
# Elastic Compliance Matrix: (Units=1/GPa)
#
#
# Indices 1 2 3 4 5 6 
#
# 1 0.020556 0.006876 -0.009037 0.000000 -0.005953 0.000000
# 2 0.006876 0.032189 -0.002185 0.000000 -0.004965 0.000000
# 3 -0.009037 -0.002185 0.009731 0.000000 0.001862 0.000000
# 4 0.000000 0.000000 0.000000 -0.222849 0.000000 0.019282
# 5 -0.005953 -0.004965 0.001862 0.000000 0.029260 0.000000
# 6 0.000000 0.000000 0.000000 0.019282 0.000000 -0.096469
#
#
# Mechanical properties :
#
#
# Convention : Reuss Voigt Hill
#
# Bulk Modulus (GPa) = 18.59322 47.29389 32.94356
# Shear Modulus (GPa) = -24.88044 20.14214 -2.36915
#
# Velocity S-wave (km/s) = -3.50921 3.15742 -1.08287
# Velocity P-wave (km/s) = 2.68639 6.05809 3.83952
#
# Compressibility (1/GPa) = 0.05378303
#
# Stress axis : x y z
#
# Youngs Moduli (GPa) = 48.64698 31.06645 102.76889
#
# Poissons Ratio (x) = -0.21360 0.92873
# Poissons Ratio (y) = -0.33448 0.22454
# Poissons Ratio (z) = 0.43963 0.06788
#
# Static dielectric constant tensor:
#      x y z
#    x 1.694430 0.000000 0.004500 
#    y 0.000000 1.786060 0.000000 
#    z 0.004500 0.000000 1.710900 
# 
# From -- ./inp_files/89152.got.cif
#   From: 2010.05.17/outbox.cif.g08.bks.cpg/sg12_45_cif.got.tgz:89152.got - 2010.06.03 13:09:07.
