data_PCOD9190932
_publ_section_title
;
Structure prediction by ZEFSAII (Michael W. Deem and Ramdas Pophale) SiO2 
 PCOD9190932
Probable space group: C 2/M
;
_chemical_formula_sum "Si O2"
_cell_formula_units_Z 64
_cell_length_a 25.689598
_cell_length_b 9.044874
_cell_length_c 16.639978
_cell_angle_alpha 90.000000
_cell_angle_beta 105.840849
_cell_angle_gamma 90.000000
_cell_volume 3719.617786
_symmetry_space_group_name_H-M "C 2/M"
_symmetry_group_IT_number 12
_symmetry_cell_setting 'monoclinic'
loop_
_space_group_symop_operation_xyz
x,y,z
-x,y,-z
-x,-y,-z
x,-y,z
1/2+x,1/2+y,z
1/2-x,1/2+y,-z
1/2-x,1/2-y,-z
1/2+x,1/2-y,z
loop_
_atom_site_type_symbol
_atom_site_label
_atom_site_fract_x
_atom_site_fract_y
_atom_site_fract_z
Si Si1 0.160018 0.175022 0.992949
Si Si2 0.120522 0.675196 0.228870
Si Si3 0.669693 0.177677 0.829265
Si Si4 0.562611 0.176660 0.690028
Si Si5 0.445086 0.322036 0.655447
Si Si6 0.781743 0.823228 0.813569
Si Si7 0.565560 0.668304 0.527953
Si Si8 0.937388 0.324828 0.966163
O O1 0.179143 0.253119 0.920291
O O2 0.160059 0.000000 0.981571
O O3 0.195604 0.208570 0.087002
O O4 0.100462 0.234070 0.990033
O O5 0.122668 0.500000 0.244778
O O6 0.092162 0.758376 0.290213
O O7 0.179573 0.738415 0.231585
O O8 0.084458 0.699388 0.133260
O O9 0.611016 0.219624 0.770321
O O10 0.718719 0.218435 0.790170
O O11 0.671149 0.000000 0.837611
O O12 0.505510 0.253952 0.685971
O O13 0.580048 0.226968 0.607834
O O14 0.555459 0.000000 0.689803
O O15 0.449008 0.500000 0.660751
O O16 0.420984 0.283912 0.556988
O O17 0.786934 0.000000 0.802666
O O18 0.500000 0.663320 0.500000
O O19 0.584623 0.500000 0.550222
O O20 0.931698 0.500000 0.981628
O O21 0.000000 0.284948 0.000000
#
# Coordination Sequence:
#
# PCOD9190932 Si02
#       8
#     8   8   8   8   8   8   8   8
#     4  10  20  32  50  75  97 127 174 217 250 289
#     4  10  20  33  52  77 100 129 171 212 248 294
#     4  10  21  35  52  73 102 137 169 207 256 305
#     4  10  20  32  50  78 106 132 165 206 251 297
#     4  10  20  34  53  76 105 137 165 199 247 306
#     4   9  19  37  54  70  98 136 174 211 254 298
#     4   8  16  32  51  72 101 135 164 195 247 305
#     4   9  19  34  49  66  98 138 166 199 251 303
#
# _framework density 17.206067999999998
#
# number of rings (size 3 to 8) (size 9 to 14) (size 15 to 20)
#    0.000    2.500    0.000    2.625    1.750    5.500 
#    0.000    0.000    0.000    0.750    0.000    0.000 
#    0.000    0.000    0.000    0.000    0.000    0.000 
#
# Total GULP energy -178456.363772 kJ/mol
# GULP energy per Si atom -5576.761368 kJ/mol
# Density = 1.716691 g / cm^3
# Si number density = 17.206068 Si / 1000 Ang^3
#
#
#
# Elastic Constant Matrix: (Units=GPa)
#
#
# Indices 1 2 3 4 5 6 
#
# 1 79.4587 30.4935 36.4609 0.0000 -25.5383 0.0000
# 2 30.4935 36.7727 35.2188 0.0000 -13.3852 0.0000
# 3 36.4609 35.2188 56.2635 0.0000 -24.7515 0.0000
# 4 0.0000 0.0000 0.0000 28.0045 0.0000 -8.0057
# 5 -25.5383 -13.3852 -24.7515 0.0000 22.1577 0.0000
# 6 0.0000 0.0000 0.0000 -8.0057 0.0000 23.4187
#
#
#
# Elastic Compliance Matrix: (Units=1/GPa)
#
#
# Indices 1 2 3 4 5 6 
#
# 1 0.024040 -0.015846 0.004558 0.000000 0.023227 0.000000
# 2 -0.015846 0.080216 -0.052421 0.000000 -0.028364 0.000000
# 3 0.004558 -0.052421 0.070812 0.000000 0.052688 0.000000
# 4 0.000000 0.000000 0.000000 0.039576 0.000000 0.013529
# 5 0.023227 -0.028364 0.052688 0.000000 0.113623 0.000000
# 6 0.000000 0.000000 0.000000 0.013529 0.000000 0.047326
#
#
# Mechanical properties :
#
#
# Convention : Reuss Voigt Hill
#
# Bulk Modulus (GPa) = 20.98641 41.87124 31.42883
# Shear Modulus (GPa) = 9.63588 19.40430 14.52009
#
# Velocity S-wave (km/s) = 2.36906 3.36186 2.90814
# Velocity P-wave (km/s) = 4.43924 6.28151 5.43895
#
# Compressibility (1/GPa) = 0.04764988
#
# Stress axis : x y z
#
# Youngs Moduli (GPa) = 41.59734 12.46633 14.12198
#
# Poissons Ratio (x) = 0.19754 -0.06437
# Poissons Ratio (y) = 0.65916 0.74029
# Poissons Ratio (z) = -0.18962 0.65350
#
# Static dielectric constant tensor:
#      x y z
#    x 1.576610 0.000000 0.000660 
#    y 0.000000 1.573240 0.000000 
#    z 0.000660 0.000000 1.583200 
# 
# From -- ./inp_files/244111.got.cif
#   From: 2010.05.17/outbox.cif.g08.bks.cpg/sg12_123_cif.got.tgz:244111.got - 2010.06.03 13:09:07.
