data_PCOD9190515
_publ_section_title
;
Structure prediction by ZEFSAII (Michael W. Deem and Ramdas Pophale) SiO2 
 PCOD9190515
Probable space group: C 2/M
;
_chemical_formula_sum "Si O2"
_cell_formula_units_Z 64
_cell_length_a 27.932989
_cell_length_b 18.472923
_cell_length_c 12.791654
_cell_angle_alpha 90.000000
_cell_angle_beta 149.871766
_cell_angle_gamma 90.000000
_cell_volume 3313.057296
_symmetry_space_group_name_H-M "C 2/M"
_symmetry_group_IT_number 12
_symmetry_cell_setting 'monoclinic'
loop_
_space_group_symop_operation_xyz
x,y,z
-x,y,-z
-x,-y,-z
x,-y,z
1/2+x,1/2+y,z
1/2-x,1/2+y,-z
1/2-x,1/2-y,-z
1/2+x,1/2-y,z
loop_
_atom_site_type_symbol
_atom_site_label
_atom_site_fract_x
_atom_site_fract_y
_atom_site_fract_z
Si Si1 0.295560 0.588179 0.554501
Si Si2 0.414213 0.088192 0.911956
Si Si3 0.275413 0.325144 0.939578
Si Si4 0.094266 0.714052 0.725524
Si Si5 0.941946 0.911971 0.651991
Si Si6 0.894680 0.416318 0.112835
Si Si7 0.675219 0.416193 0.763443
Si Si8 0.658657 0.587062 0.121155
O O1 0.296008 0.500000 0.551712
O O2 0.189195 0.612364 0.324193
O O3 0.372043 0.612821 0.612820
O O4 0.323841 0.607693 0.725727
O O5 0.413356 0.000000 0.907251
O O6 0.500000 0.113121 0.000000
O O7 0.425187 0.106802 0.054480
O O8 0.349786 0.259119 0.080316
O O9 0.313967 0.374204 0.108304
O O10 0.172630 0.297532 0.782921
O O11 0.274149 0.370499 0.831873
O O12 0.067998 0.637706 0.728802
O O13 0.000000 0.748550 0.500000
O O14 0.901926 0.887112 0.464532
O O15 0.935506 0.000000 0.637225
O O16 0.050803 0.894701 0.882661
O O17 0.922643 0.500000 0.182823
O O18 0.778894 0.413946 0.902907
O O19 0.653397 0.500000 0.745659
O O20 0.671238 0.500000 0.135537
#
# Coordination Sequence:
#
# PCOD9190515 Si02
#       8
#     8   8   8   8   8   8   8   8
#     4   9  16  29  46  73 114 144 169 209 260 316
#     4   9  16  27  48  77 102 132 175 219 266 311
#     4  10  22  38  54  78 108 138 180 219 264 312
#     4  10  23  40  57  75 101 144 178 213 269 325
#     4   9  16  27  47  77 109 142 175 207 258 316
#     4   9  17  33  55  79 104 132 174 224 266 315
#     4   9  16  29  53  80 107 138 175 221 261 306
#     4  10  20  31  51  82 114 144 173 217 263 307
#
# _framework density 19.317504
#
# number of rings (size 3 to 8) (size 9 to 14) (size 15 to 20)
#    0.000    2.625    1.250    0.750    1.750    3.250 
#    0.000    3.125    0.000    2.250    0.000    0.000 
#    0.000    0.000    0.000    0.000    0.000    0.000 
#
# Total GULP energy -178515.482551 kJ/mol
# GULP energy per Si atom -5578.608830 kJ/mol
# Density = 1.927354 g / cm^3
# Si number density = 19.317504 Si / 1000 Ang^3
#
#
#
# Elastic Constant Matrix: (Units=GPa)
#
#
# Indices 1 2 3 4 5 6 
#
# 1 45.8602 20.7477 10.5928 0.0000 -5.7255 0.0000
# 2 20.7477 29.9428 3.7661 0.0000 -2.3082 0.0000
# 3 10.5928 3.7661 48.4127 0.0000 -0.8142 0.0000
# 4 0.0000 0.0000 0.0000 4.1692 0.0000 5.1286
# 5 -5.7255 -2.3082 -0.8142 0.0000 20.1859 0.0000
# 6 0.0000 0.0000 0.0000 5.1286 0.0000 9.9430
#
#
#
# Elastic Compliance Matrix: (Units=1/GPa)
#
#
# Indices 1 2 3 4 5 6 
#
# 1 0.034084 -0.022383 -0.005601 0.000000 0.006882 0.000000
# 2 -0.022383 0.048712 0.001096 0.000000 -0.000734 0.000000
# 3 -0.005601 0.001096 0.021786 0.000000 -0.000585 0.000000
# 4 0.000000 0.000000 0.000000 0.656249 0.000000 -0.338497
# 5 0.006882 -0.000734 -0.000585 0.000000 0.051384 0.000000
# 6 0.000000 0.000000 0.000000 -0.338497 0.000000 0.275172
#
#
# Mechanical properties :
#
#
# Convention : Reuss Voigt Hill
#
# Bulk Modulus (GPa) = 19.68237 21.60320 20.64279
# Shear Modulus (GPa) = 4.31742 12.80023 8.55883
#
# Velocity S-wave (km/s) = 1.49661 2.57694 2.10718
# Velocity P-wave (km/s) = 3.63283 4.47902 4.07793
#
# Compressibility (1/GPa) = 0.05080688
#
# Stress axis : x y z
#
# Youngs Moduli (GPa) = 29.33888 20.52897 45.90074
#
# Poissons Ratio (x) = 0.45949 0.25708
# Poissons Ratio (y) = 0.65668 -0.05029
# Poissons Ratio (z) = 0.16432 -0.02249
#
# Static dielectric constant tensor:
#      x y z
#    x 1.662820 0.000000 0.010270 
#    y 0.000000 1.700070 0.000000 
#    z 0.010270 0.000000 1.661710 
# 
# From -- ./inp_files/184719.got.cif
#   From: 2010.05.17/outbox.cif.g08.bks.cpg/sg12_93_cif.got.tgz:184719.got - 2010.06.03 13:09:07.
