data_PCOD9190099
_publ_section_title
;
Structure prediction by ZEFSAII (Michael W. Deem and Ramdas Pophale) SiO2 
 PCOD9190099
Probable space group: C 2/M
;
_chemical_formula_sum "Si O2"
_cell_formula_units_Z 48
_cell_length_a 18.540080
_cell_length_b 14.714957
_cell_length_c 7.858062
_cell_angle_alpha 90.000000
_cell_angle_beta 100.173724
_cell_angle_gamma 90.000000
_cell_volume 2110.101099
_symmetry_space_group_name_H-M "C 2/M"
_symmetry_group_IT_number 12
_symmetry_cell_setting 'monoclinic'
loop_
_space_group_symop_operation_xyz
x,y,z
-x,y,-z
-x,-y,-z
x,-y,z
1/2+x,1/2+y,z
1/2-x,1/2+y,-z
1/2-x,1/2-y,-z
1/2+x,1/2-y,z
loop_
_atom_site_type_symbol
_atom_site_label
_atom_site_fract_x
_atom_site_fract_y
_atom_site_fract_z
Si Si1 0.209109 0.000000 0.935145
Si Si2 0.411816 0.000000 0.436889
Si Si3 0.463234 0.500000 0.171563
Si Si4 0.639611 0.000000 0.195782
Si Si5 0.088973 0.304755 0.197567
Si Si6 0.847831 0.688691 0.391699
Si Si7 0.966206 0.200621 0.300740
Si Si8 0.787012 0.812662 0.874378
O O1 0.124888 0.000000 0.841985
O O2 0.275415 0.000000 0.826233
O O3 0.216016 0.087348 0.055285
O O4 0.500000 0.000000 0.500000
O O5 0.384451 0.093735 0.342292
O O6 0.372949 0.000000 0.605967
O O7 0.484208 0.597441 0.259677
O O8 0.500000 0.500000 0.000000
O O9 0.602285 0.904638 0.125382
O O10 0.128449 0.305732 0.401509
O O11 0.132182 0.225685 0.119352
O O12 0.006670 0.272104 0.195260
O O13 0.882586 0.771474 0.298042
O O14 0.762125 0.688902 0.316584
O O15 0.000000 0.217540 0.500000
O O16 0.750000 0.750000 0.000000
#
# Coordination Sequence:
#
# PCOD9190099 Si02
#       8
#     4   4   4   4   8   8   8   8
#     4  12  25  41  62  93 132 170 212 262 314 380
#     4  10  19  39  69  93 127 162 205 266 319 376
#     4  12  25  44  65  86 128 175 219 254 313 377
#     4  10  20  38  64  94 127 158 208 252 326 364
#     4  10  21  40  65  93 125 163 210 261 317 372
#     4  10  21  38  64  95 122 160 212 259 312 375
#     4  10  22  41  66  95 122 160 212 266 312 370
#     4  12  23  39  60  87 131 170 206 254 311 375
#
# _framework density 22.747727000000001
#
# number of rings (size 3 to 8) (size 9 to 14) (size 15 to 20)
#    0.000    1.333    1.667    5.750    0.000    0.000 
#    3.000    0.833    0.000    2.000    0.000    0.000 
#    0.000    0.000    0.000    0.000    0.000    0.000 
#
# Total GULP energy -134094.744507 kJ/mol
# GULP energy per Si atom -5587.281021 kJ/mol
# Density = 2.269595 g / cm^3
# Si number density = 22.747727 Si / 1000 Ang^3
#
#
#
# Elastic Constant Matrix: (Units=GPa)
#
#
# Indices 1 2 3 4 5 6 
#
# 1 99.4073 21.5748 1.7667 0.0000 -21.0791 0.0000
# 2 21.5748 151.2982 9.9348 0.0000 -27.3091 0.0000
# 3 1.7667 9.9348 50.4653 0.0000 -13.3090 0.0000
# 4 0.0000 0.0000 0.0000 30.0448 0.0000 -10.8946
# 5 -21.0791 -27.3091 -13.3090 0.0000 37.9440 0.0000
# 6 0.0000 0.0000 0.0000 -10.8946 0.0000 34.0660
#
#
#
# Elastic Compliance Matrix: (Units=1/GPa)
#
#
# Indices 1 2 3 4 5 6 
#
# 1 0.011535 -0.000565 0.001422 0.000000 0.006500 0.000000
# 2 -0.000565 0.007624 -0.000129 0.000000 0.005128 0.000000
# 3 0.001422 -0.000129 0.022011 0.000000 0.008418 0.000000
# 4 0.000000 0.000000 0.000000 0.037650 0.000000 0.012041
# 5 0.006500 0.005128 0.008418 0.000000 0.036609 0.000000
# 6 0.000000 0.000000 0.000000 0.012041 0.000000 0.033206
#
#
# Mechanical properties :
#
#
# Convention : Reuss Voigt Hill
#
# Bulk Modulus (GPa) = 23.45954 40.85816 32.15885
# Shear Modulus (GPa) = 30.98128 38.27058 34.62593
#
# Velocity S-wave (km/s) = 3.69446 4.10615 3.90573
# Velocity P-wave (km/s) = 5.34173 6.36247 5.87431
#
# Compressibility (1/GPa) = 0.04262659
#
# Stress axis : x y z
#
# Youngs Moduli (GPa) = 86.68999 131.16266 45.43167
#
# Poissons Ratio (x) = 0.07410 -0.06459
# Poissons Ratio (y) = 0.04898 0.00585
# Poissons Ratio (z) = -0.12325 0.01688
#
# Static dielectric constant tensor:
#      x y z
#    x 1.844040 0.000000 0.029600 
#    y 0.000000 1.890810 0.000000 
#    z 0.029600 0.000000 1.897910 
# 
# From -- ./inp_files/73689.got.cif
#   From: 2010.05.17/outbox.cif.g08.bks.cpg/sg12_37_cif.got.tgz:73689.got - 2010.06.03 13:09:07.
