data_PCOD9190132
_publ_section_title
;
Structure prediction by ZEFSAII (Michael W. Deem and Ramdas Pophale) SiO2 
 PCOD9190132
Probable space group: C 2/M
;
_chemical_formula_sum "Si O2"
_cell_formula_units_Z 48
_cell_length_a 16.139114
_cell_length_b 19.583099
_cell_length_c 13.905773
_cell_angle_alpha 90.000000
_cell_angle_beta 31.017436
_cell_angle_gamma 90.000000
_cell_volume 2264.724926
_symmetry_space_group_name_H-M "C 2/M"
_symmetry_group_IT_number 12
_symmetry_cell_setting 'monoclinic'
loop_
_space_group_symop_operation_xyz
x,y,z
-x,y,-z
-x,-y,-z
x,-y,z
1/2+x,1/2+y,z
1/2-x,1/2+y,-z
1/2-x,1/2-y,-z
1/2+x,1/2-y,z
loop_
_atom_site_type_symbol
_atom_site_label
_atom_site_fract_x
_atom_site_fract_y
_atom_site_fract_z
Si Si1 0.632367 0.228085 0.530778
Si Si2 0.596655 0.358558 0.804817
Si Si3 0.263658 0.000000 0.647556
Si Si4 0.600546 0.879844 0.136979
Si Si5 0.558459 0.500000 0.332017
Si Si6 0.946399 0.500000 0.944563
Si Si7 0.644594 0.000000 0.227395
Si Si8 0.942590 0.853100 0.752127
O O1 0.750000 0.250000 0.500000
O O2 0.751368 0.192648 0.337077
O O3 0.510586 0.172227 0.695692
O O4 0.534978 0.295437 0.599762
O O5 0.673530 0.432244 0.705948
O O6 0.491310 0.340935 0.815455
O O7 0.500000 0.360051 0.000000
O O8 0.450888 0.000000 0.432079
O O9 0.268065 0.000000 0.758882
O O10 0.504908 0.931245 0.161067
O O11 0.683132 0.932492 0.129679
O O12 0.750117 0.845165 0.934729
O O13 0.500000 0.500000 0.500000
O O14 0.509562 0.429353 0.328924
O O15 0.752596 0.500000 0.136565
O O16 0.000000 0.500000 0.000000
#
# Coordination Sequence:
#
# PCOD9190132 Si02
#       8
#     8   8   4   8   4   4   4   8
#     4  10  22  39  59  88 121 163 204 247 308 366
#     4  11  22  38  60  94 127 163 204 246 301 367
#     4  11  20  34  56  91 126 157 198 240 290 358
#     4  10  19  40  62  85 122 158 201 249 312 363
#     4  10  22  43  63  89 116 152 206 254 303 362
#     4   9  21  36  62  90 113 152 205 256 303 350
#     4  10  20  33  59  91 121 158 190 242 298 361
#     4  10  22  41  65  89 121 160 201 258 308 368
#
# _framework density 21.194627000000001
#
# number of rings (size 3 to 8) (size 9 to 14) (size 15 to 20)
#    0.000    1.833    1.667    2.750    0.000    2.667 
#    0.000   13.333    0.000    0.000    0.000    0.000 
#    0.000    0.000    0.000    0.000    0.000    0.000 
#
# Total GULP energy -134059.049347 kJ/mol
# GULP energy per Si atom -5585.793723 kJ/mol
# Density = 2.114639 g / cm^3
# Si number density = 21.194627 Si / 1000 Ang^3
#
#
#
# Elastic Constant Matrix: (Units=GPa)
#
#
# Indices 1 2 3 4 5 6 
#
# 1 51.9119 8.5352 -1.4199 -0.0006 7.5701 0.0010
# 2 8.5352 120.0767 48.1900 0.0031 -12.6767 -0.0012
# 3 -1.4199 48.1900 85.6716 -0.0014 -2.8315 0.0042
# 4 -0.0006 0.0031 -0.0014 20.6832 0.0020 -16.9825
# 5 7.5701 -12.6767 -2.8315 0.0020 24.3634 -0.0021
# 6 0.0010 -0.0012 0.0042 -16.9825 -0.0021 5.2995
#
#
#
# Elastic Compliance Matrix: (Units=1/GPa)
#
#
# Indices 1 2 3 4 5 6 
#
# 1 0.020964 -0.003045 0.001800 0.000003 -0.007889 0.000002
# 2 -0.003045 0.011818 -0.006488 -0.000004 0.006341 -0.000001
# 3 0.001800 -0.006488 0.015281 0.000006 -0.002159 0.000005
# 4 0.000003 -0.000004 0.000006 -0.029640 -0.000008 -0.094983
# 5 -0.007889 0.006341 -0.002159 -0.000008 0.046545 -0.000003
# 6 0.000002 -0.000001 0.000005 -0.094983 -0.000003 -0.115681
#
#
# Mechanical properties :
#
#
# Convention : Reuss Voigt Hill
#
# Bulk Modulus (GPa) = 30.68023 40.91897 35.79960
# Shear Modulus (GPa) = -205.08282 23.55954 -90.76164
#
# Velocity S-wave (km/s) = -9.84742 3.33765 -6.55102
# Velocity P-wave (km/s) = 10.71395 5.84820 6.34773
#
# Compressibility (1/GPa) = 0.03259428
#
# Stress axis : x y z
#
# Youngs Moduli (GPa) = 47.70135 84.61745 65.44224
#
# Poissons Ratio (x) = 0.25768 -0.11777
# Poissons Ratio (y) = 0.14526 0.42462
# Poissons Ratio (z) = -0.08585 0.54903
#
# Static dielectric constant tensor:
#      x y z
#    x 1.739740 -0.000020 -0.005400 
#    y -0.000020 1.641770 0.000010 
#    z -0.005400 0.000010 1.778320 
# 
# From -- ./inp_files/112785.got.cif
#   From: 2010.05.17/outbox.cif.g08.bks.cpg/sg12_57_cif.got.tgz:112785.got - 2010.06.03 13:09:07.
