data_PCOD9190969
_publ_section_title
;
Structure prediction by ZEFSAII (Michael W. Deem and Ramdas Pophale) SiO2 
 PCOD9190969
Probable space group: C 2/M
;
_chemical_formula_sum "Si O2"
_cell_formula_units_Z 40
_cell_length_a 23.121903
_cell_length_b 9.271428
_cell_length_c 19.652601
_cell_angle_alpha 90.000000
_cell_angle_beta 23.089001
_cell_angle_gamma 90.000000
_cell_volume 1652.167692
_symmetry_space_group_name_H-M "C 2/M"
_symmetry_group_IT_number 12
_symmetry_cell_setting 'monoclinic'
loop_
_space_group_symop_operation_xyz
x,y,z
-x,y,-z
-x,-y,-z
x,-y,z
1/2+x,1/2+y,z
1/2-x,1/2+y,-z
1/2-x,1/2-y,-z
1/2+x,1/2-y,z
loop_
_atom_site_type_symbol
_atom_site_label
_atom_site_fract_x
_atom_site_fract_y
_atom_site_fract_z
Si Si1 0.667555 0.806017 0.828333
Si Si2 0.780741 0.839915 0.562575
Si Si3 0.268739 0.000000 0.707934
Si Si4 0.924720 0.500000 0.685100
Si Si5 0.517687 0.830367 0.754537
Si Si6 0.794812 0.827379 0.842491
O O1 0.774833 0.849128 0.650013
O O2 0.668195 0.637106 0.815872
O O3 0.737526 0.837151 0.826002
O O4 0.500000 0.857285 0.000000
O O5 0.619693 0.791992 0.709720
O O6 0.904751 0.750830 0.390789
O O7 0.800557 0.000000 0.513822
O O8 0.355928 0.000000 0.684280
O O9 0.397524 0.000000 0.512229
O O10 0.874289 0.665872 0.762541
O O11 0.527677 0.000000 0.730434
O O12 0.349270 0.803980 0.955073
O O13 0.849576 0.000000 0.797175
#
# Coordination Sequence:
#
# PCOD9190969 Si02
#       6
#     8   8   4   4   8   8
#     4  11  20  34  57  86 120 152 187 238 298 354
#     4  10  20  32  50  80 120 153 183 230 287 355
#     4   9  21  38  54  86 119 147 193 244 297 342
#     4   9  20  40  60  84 118 150 198 253 281 343
#     4   9  19  34  50  79 116 153 192 227 280 350
#     4  10  20  36  62  88 115 156 198 239 289 346
#
# _framework density 24.210616999999999
#
# number of rings (size 3 to 8) (size 9 to 14) (size 15 to 20)
#    0.000    2.200    2.000    0.900    2.800    0.800 
#    0.000    9.000    0.000    1.200    0.000    0.000 
#    0.000    0.000    0.000    0.000    0.000    0.000 
#
# Total GULP energy -111416.659514 kJ/mol
# GULP energy per Si atom -5570.832976 kJ/mol
# Density = 2.415551 g / cm^3
# Si number density = 24.210617 Si / 1000 Ang^3
#
#
#
# Elastic Constant Matrix: (Units=GPa)
#
#
# Indices 1 2 3 4 5 6 
#
# 1 81.7220 17.2139 40.8615 0.0000 2.5723 0.0000
# 2 17.2139 182.6121 59.8105 -0.0014 -15.8642 -0.0014
# 3 40.8615 59.8105 116.7967 -0.0003 13.7075 -0.0003
# 4 0.0000 -0.0014 -0.0003 -383.2922 0.0000 -349.7002
# 5 2.5723 -15.8642 13.7075 0.0000 29.9361 0.0000
# 6 0.0000 -0.0014 -0.0003 -349.7002 0.0000 -315.4096
#
#
#
# Elastic Compliance Matrix: (Units=1/GPa)
#
#
# Indices 1 2 3 4 5 6 
#
# 1 0.014920 0.000615 -0.005731 0.000000 0.001668 0.000000
# 2 0.000615 0.007516 -0.004783 0.000000 0.006120 0.000000
# 3 -0.005731 -0.004783 0.014008 0.000000 -0.008456 0.000000
# 4 0.000000 0.000000 0.000000 0.225906 0.000000 -0.250466
# 5 0.001668 0.006120 -0.008456 0.000000 0.040376 0.000000
# 6 0.000000 0.000000 0.000000 -0.250466 0.000000 0.274525
#
#
# Mechanical properties :
#
#
# Convention : Reuss Voigt Hill
#
# Bulk Modulus (GPa) = 60.06443 68.54475 64.30459
# Shear Modulus (GPa) = 8.29742 -116.20346 -53.95302
#
# Velocity S-wave (km/s) = 1.85327 -6.93550 -4.72581
# Velocity P-wave (km/s) = 5.42609 5.98009 1.77750
#
# Compressibility (1/GPa) = 0.01664879
#
# Stress axis : x y z
#
# Youngs Moduli (GPa) = 67.02486 133.04675 71.38620
#
# Poissons Ratio (x) = -0.08188 0.40909
# Poissons Ratio (y) = -0.04125 0.34141
# Poissons Ratio (z) = 0.38410 0.63630
#
# Static dielectric constant tensor:
#      x y z
#    x 1.998000 0.000000 -0.006700 
#    y 0.000000 1.997520 0.000000 
#    z -0.006700 0.000000 1.876920 
# 
# From -- ./inp_files/162666.got.cif
#   From: 2010.05.17/outbox.cif.g08.bks.cpg/sg12_82_cif.got.tgz:162666.got - 2010.06.03 13:09:07.
