data_PCOD9190931
_publ_section_title
;
Structure prediction by ZEFSAII (Michael W. Deem and Ramdas Pophale) SiO2 
 PCOD9190931
Probable space group: C 2/M
;
_chemical_formula_sum "Si O2"
_cell_formula_units_Z 52
_cell_length_a 26.814981
_cell_length_b 9.041534
_cell_length_c 18.043224
_cell_angle_alpha 90.000000
_cell_angle_beta 42.311551
_cell_angle_gamma 90.000000
_cell_volume 2944.781633
_symmetry_space_group_name_H-M "C 2/M"
_symmetry_group_IT_number 12
_symmetry_cell_setting 'monoclinic'
loop_
_space_group_symop_operation_xyz
x,y,z
-x,y,-z
-x,-y,-z
x,-y,z
1/2+x,1/2+y,z
1/2-x,1/2+y,-z
1/2-x,1/2-y,-z
1/2+x,1/2-y,z
loop_
_atom_site_type_symbol
_atom_site_label
_atom_site_fract_x
_atom_site_fract_y
_atom_site_fract_z
Si Si1 0.784218 0.328569 0.533141
Si Si2 0.371808 0.000000 0.914506
Si Si3 0.186647 0.500000 0.864667
Si Si4 0.705746 0.500000 0.122790
Si Si5 0.915474 0.751771 0.760416
Si Si6 0.716317 0.673820 0.768654
Si Si7 0.078449 0.834565 0.550179
Si Si8 0.114210 0.661327 0.371381
O O1 0.791592 0.500000 0.508410
O O2 0.750000 0.250000 0.500000
O O3 0.733053 0.313516 0.662652
O O4 0.864121 0.266210 0.468666
O O5 0.407624 0.141018 0.836985
O O6 0.372170 0.000000 0.002912
O O7 0.283229 0.000000 0.993617
O O8 0.265484 0.500000 0.823401
O O9 0.181890 0.335972 0.830724
O O10 0.653899 0.362047 0.162462
O O11 0.909317 0.673541 0.687307
O O12 0.995714 0.826214 0.672022
O O13 0.686691 0.500000 0.813889
O O14 0.796914 0.672316 0.719506
O O15 0.079674 0.782034 0.463506
O O16 0.107604 0.000000 0.521948
O O17 0.092756 0.500000 0.425186
#
# Coordination Sequence:
#
# PCOD9190931 Si02
#       8
#     8   4   4   4   8   8   8   8
#     4  10  22  38  60  89 117 145 176 222 281 348
#     4  10  24  36  53  75 107 153 202 242 284 325
#     4  10  20  36  57  78 107 157 194 243 278 326
#     4  10  22  36  50  78 103 153 202 238 284 316
#     4  12  21  36  52  75 113 150 193 242 277 330
#     4   9  19  34  55  83 114 146 185 230 277 339
#     4  11  24  34  53  80 113 152 188 225 282 348
#     4  10  20  32  50  75 108 151 190 226 276 335
#
# _framework density 17.658356000000001
#
# number of rings (size 3 to 8) (size 9 to 14) (size 15 to 20)
#    0.462    1.231    3.077    2.769    8.615    1.231 
#    1.385    0.000    0.000    0.000    0.000    2.154 
#    0.000    3.692    0.000    0.000    0.000    0.000 
#
# Total GULP energy -144745.132419 kJ/mol
# GULP energy per Si atom -5567.120478 kJ/mol
# Density = 1.761816 g / cm^3
# Si number density = 17.658356 Si / 1000 Ang^3
#
#
#
# Elastic Constant Matrix: (Units=GPa)
#
#
# Indices 1 2 3 4 5 6 
#
# 1 45.2314 22.2529 19.2857 0.0000 20.3564 -0.0057
# 2 22.2529 143.9018 42.8492 -0.0001 15.9622 -0.0163
# 3 19.2857 42.8492 60.5331 -0.0006 5.2275 -0.0108
# 4 0.0000 -0.0001 -0.0006 45.6593 -0.0009 46.0981
# 5 20.3564 15.9622 5.2275 -0.0009 19.8717 0.0018
# 6 -0.0057 -0.0163 -0.0108 46.0981 0.0018 119.8997
#
#
#
# Elastic Compliance Matrix: (Units=1/GPa)
#
#
# Indices 1 2 3 4 5 6 
#
# 1 0.047617 0.001440 -0.012154 -0.000005 -0.046738 0.000004
# 2 0.001440 0.009493 -0.006541 -0.000002 -0.007380 0.000002
# 3 -0.012154 -0.006541 0.024039 0.000000 0.011380 0.000001
# 4 -0.000005 -0.000002 0.000000 0.035796 0.000009 -0.013763
# 5 -0.046738 -0.007380 0.011380 0.000009 0.101134 -0.000007
# 6 0.000004 0.000002 0.000001 -0.013763 -0.000007 0.013632
#
#
# Mechanical properties :
#
#
# Convention : Reuss Voigt Hill
#
# Bulk Modulus (GPa) = 21.44123 46.49352 33.96737
# Shear Modulus (GPa) = 17.74516 48.10472 32.92494
#
# Velocity S-wave (km/s) = 3.17348 5.22504 4.32273
# Velocity P-wave (km/s) = 5.05931 7.92389 6.64773
#
# Compressibility (1/GPa) = 0.04663911
#
# Stress axis : x y z
#
# Youngs Moduli (GPa) = 21.00112 105.34290 41.59835
#
# Poissons Ratio (x) = -0.15168 0.50557
# Poissons Ratio (y) = -0.03024 0.27210
# Poissons Ratio (z) = 0.25524 0.68906
#
# Static dielectric constant tensor:
#      x y z
#    x 1.569580 0.000000 -0.003260 
#    y 0.000000 1.726870 0.000000 
#    z -0.003260 0.000000 1.596000 
# 
# From -- ./inp_files/243591.got.cif
#   From: 2010.05.17/outbox.cif.g08.bks.cpg/sg12_122_cif.got.tgz:243591.got - 2010.06.03 13:09:07.
