data_PCOD9190424
_publ_section_title
;
Structure prediction by ZEFSAII (Michael W. Deem and Ramdas Pophale) SiO2 
 PCOD9190424
Probable space group: C 2/M
;
_chemical_formula_sum "Si O2"
_cell_formula_units_Z 64
_cell_length_a 16.725092
_cell_length_b 7.371180
_cell_length_c 20.045029
_cell_angle_alpha 90.000000
_cell_angle_beta 80.391793
_cell_angle_gamma 90.000000
_cell_volume 2436.558618
_symmetry_space_group_name_H-M "C 2/M"
_symmetry_group_IT_number 12
_symmetry_cell_setting 'monoclinic'
loop_
_space_group_symop_operation_xyz
x,y,z
-x,y,-z
-x,-y,-z
x,-y,z
1/2+x,1/2+y,z
1/2-x,1/2+y,-z
1/2-x,1/2-y,-z
1/2+x,1/2-y,z
loop_
_atom_site_type_symbol
_atom_site_label
_atom_site_fract_x
_atom_site_fract_y
_atom_site_fract_z
Si Si1 0.929648 0.216991 0.461201
Si Si2 0.416132 0.292741 0.084811
Si Si3 0.949409 0.778439 0.832751
Si Si4 0.362206 0.215241 0.337272
Si Si5 0.189794 0.221519 0.416382
Si Si6 0.379315 0.719102 0.710635
Si Si7 0.658964 0.716504 0.035663
Si Si8 0.300329 0.218199 0.209646
O O1 0.931159 0.253631 0.382355
O O2 0.846828 0.282631 0.508390
O O3 0.000000 0.285266 0.500000
O O4 0.931219 0.000000 0.465710
O O5 0.443201 0.500000 0.071319
O O6 0.477737 0.212538 0.130371
O O7 0.330747 0.293301 0.135742
O O8 0.400569 0.211762 0.014380
O O9 0.942382 0.713833 0.757533
O O10 0.870014 0.726350 0.887236
O O11 0.953191 0.000000 0.828489
O O12 0.278901 0.284850 0.383236
O O13 0.359534 0.283270 0.261814
O O14 0.353990 0.000000 0.331976
O O15 0.128720 0.277234 0.364894
O O16 0.192131 0.000000 0.416230
O O17 0.387305 0.500000 0.706502
O O18 0.290467 0.760252 0.754297
O O19 0.649636 0.500000 0.036901
O O20 0.750000 0.750000 0.000000
O O21 0.303815 0.000000 0.202881
#
# Coordination Sequence:
#
# PCOD9190424 Si02
#       8
#     8   8   8   8   8   8   8   8
#     4  10  20  31  46  72 102 127 155 200 251 290
#     4  10  20  32  49  75 103 129 159 200 247 290
#     4   9  17  30  49  72  99 131 162 194 239 292
#     4   9  18  33  52  70  92 128 168 200 233 284
#     4   8  15  29  47  68  94 123 160 201 237 281
#     4   8  14  27  49  71  90 122 166 201 231 280
#     4  10  20  34  52  74 100 130 167 207 242 282
#     4   9  18  33  52  73  96 125 163 202 239 284
#
# _framework density 26.266553999999999
#
# number of rings (size 3 to 8) (size 9 to 14) (size 15 to 20)
#    0.000    2.875    0.000    3.000    0.000    4.750 
#    0.000    3.125    0.000    3.000    0.000    0.000 
#    0.000    0.000    0.000    0.000    0.000    0.000 
#
# Total GULP energy -178831.269807 kJ/mol
# GULP energy per Si atom -5588.477181 kJ/mol
# Density = 2.620677 g / cm^3
# Si number density = 26.266554 Si / 1000 Ang^3
#
#
#
# Elastic Constant Matrix: (Units=GPa)
#
#
# Indices 1 2 3 4 5 6 
#
# 1 59.2234 -5.0136 13.8579 0.0000 18.9095 0.0000
# 2 -5.0136 94.3573 -3.2318 0.0000 -0.5973 0.0000
# 3 13.8579 -3.2318 165.5748 0.0000 24.8989 0.0000
# 4 0.0000 0.0000 0.0000 4.5663 0.0000 -5.4103
# 5 18.9095 -0.5973 24.8989 0.0000 53.7115 0.0000
# 6 0.0000 0.0000 0.0000 -5.4103 0.0000 -4.0112
#
#
#
# Elastic Compliance Matrix: (Units=1/GPa)
#
#
# Indices 1 2 3 4 5 6 
#
# 1 0.019171 0.000957 -0.000615 0.000000 -0.006453 0.000000
# 2 0.000957 0.010653 0.000173 0.000000 -0.000298 0.000000
# 3 -0.000615 0.000173 0.006516 0.000000 -0.002802 0.000000
# 4 0.000000 0.000000 0.000000 0.084290 0.000000 -0.113691
# 5 -0.006453 -0.000298 -0.002802 0.000000 0.022185 0.000000
# 6 0.000000 0.000000 0.000000 -0.113691 0.000000 -0.095956
#
#
# Mechanical properties :
#
#
# Convention : Reuss Voigt Hill
#
# Bulk Modulus (GPa) = 26.76131 36.70894 31.73512
# Shear Modulus (GPa) = 85.78166 31.75618 58.76892
#
# Velocity S-wave (km/s) = 5.72093 3.48084 4.73525
# Velocity P-wave (km/s) = 7.33820 5.49189 6.48113
#
# Compressibility (1/GPa) = 0.03736738
#
# Stress axis : x y z
#
# Youngs Moduli (GPa) = 52.16300 93.87140 153.47320
#
# Poissons Ratio (x) = -0.08981 0.09445
# Poissons Ratio (y) = -0.04990 -0.02651
# Poissons Ratio (z) = 0.03210 -0.01622
#
# Static dielectric constant tensor:
#      x y z
#    x 2.126770 0.000000 0.031850 
#    y 0.000000 2.038930 0.000000 
#    z 0.031850 0.000000 2.015830 
# 
# From -- ./inp_files/314018.got.cif
#   From: 2010.05.17/outbox.cif.g08.bks.cpg/sg12_158_cif.got.tgz:314018.got - 2010.06.03 13:09:07.
