data_PCOD9190499
_publ_section_title
;
Structure prediction by ZEFSAII (Michael W. Deem and Ramdas Pophale) SiO2 
 PCOD9190499
Probable space group: C 2/M
;
_chemical_formula_sum "Si O2"
_cell_formula_units_Z 60
_cell_length_a 20.464258
_cell_length_b 25.479501
_cell_length_c 11.795349
_cell_angle_alpha 90.000000
_cell_angle_beta 149.402804
_cell_angle_gamma 90.000000
_cell_volume 3130.508546
_symmetry_space_group_name_H-M "C 2/M"
_symmetry_group_IT_number 12
_symmetry_cell_setting 'monoclinic'
loop_
_space_group_symop_operation_xyz
x,y,z
-x,y,-z
-x,-y,-z
x,-y,z
1/2+x,1/2+y,z
1/2-x,1/2+y,-z
1/2-x,1/2-y,-z
1/2+x,1/2-y,z
loop_
_atom_site_type_symbol
_atom_site_label
_atom_site_fract_x
_atom_site_fract_y
_atom_site_fract_z
Si Si1 0.413596 0.162265 0.596187
Si Si2 0.145341 0.790135 0.185244
Si Si3 0.862337 0.158735 0.257549
Si Si4 0.239390 0.819429 0.652399
Si Si5 0.033309 0.221995 0.785283
Si Si6 0.076070 0.590511 0.010389
Si Si7 0.000000 0.398364 0.500000
Si Si8 0.703732 0.057092 0.972951
O O1 0.262970 0.172808 0.394697
O O2 0.482329 0.218915 0.702626
O O3 0.481053 0.127501 0.793680
O O4 0.435989 0.136766 0.505042
O O5 0.179264 0.730132 0.270604
O O6 0.135387 0.787739 0.035124
O O7 0.000000 0.803781 0.000000
O O8 0.788590 0.182971 0.254066
O O9 0.898966 0.204677 0.227820
O O10 0.000000 0.136153 0.500000
O O11 0.786485 0.110233 0.091820
O O12 0.096027 0.813193 0.388479
O O13 0.319496 0.872735 0.769073
O O14 0.144048 0.558515 0.011317
O O15 0.000000 0.563745 0.000000
O O16 0.098613 0.434042 0.718167
O O17 0.766567 0.000000 0.051119
#
# Coordination Sequence:
#
# PCOD9190499 Si02
#       8
#     8   8   8   8   8   8   4   8
#     4  10  22  33  53  78 109 153 182 223 264 318
#     4  11  22  31  44  73 108 153 190 210 251 315
#     4   9  19  35  52  79 105 135 181 223 273 322
#     4   9  19  31  47  69 102 143 178 220 260 302
#     4  10  20  31  50  74 109 150 180 220 257 317
#     4  10  20  36  54  76 107 141 182 226 269 327
#     4  10  21  38  56  84 110 136 185 224 278 334
#     4  10  21  38  59  82 106 137 177 235 292 327
#
# _framework density 19.166215999999999
#
# number of rings (size 3 to 8) (size 9 to 14) (size 15 to 20)
#    0.000    2.133    1.333    1.400    6.533    2.133 
#    0.000    0.000    0.000    0.000    0.000    0.000 
#    0.000    4.800    0.000    0.000    0.000    0.000 
#
# Total GULP energy -167252.426308 kJ/mol
# GULP energy per Si atom -5575.080877 kJ/mol
# Density = 1.912259 g / cm^3
# Si number density = 19.166216 Si / 1000 Ang^3
#
#
#
# Elastic Constant Matrix: (Units=GPa)
#
#
# Indices 1 2 3 4 5 6 
#
# 1 67.8784 6.7402 -2.1708 0.0000 3.9022 0.0000
# 2 6.7402 60.9362 25.5475 0.0000 3.6002 0.0000
# 3 -2.1708 25.5475 63.3310 0.0000 -3.9406 0.0000
# 4 0.0000 0.0000 0.0000 -2.4500 0.0000 -4.4021
# 5 3.9022 3.6002 -3.9406 0.0000 29.6712 0.0000
# 6 0.0000 0.0000 0.0000 -4.4021 0.0000 -4.0987
#
#
#
# Elastic Compliance Matrix: (Units=1/GPa)
#
#
# Indices 1 2 3 4 5 6 
#
# 1 0.015072 -0.002107 0.001270 0.000000 -0.001558 0.000000
# 2 -0.002107 0.020409 -0.008512 0.000000 -0.003330 0.000000
# 3 0.001270 -0.008512 0.019482 0.000000 0.003453 0.000000
# 4 0.000000 0.000000 0.000000 0.439001 0.000000 -0.471496
# 5 -0.001558 -0.003330 0.003453 0.000000 0.034770 0.000000
# 6 0.000000 0.000000 0.000000 -0.471496 0.000000 0.262416
#
#
# Mechanical properties :
#
#
# Convention : Reuss Voigt Hill
#
# Bulk Modulus (GPa) = 27.57620 28.04216 27.80918
# Shear Modulus (GPa) = 6.08318 15.42643 10.75481
#
# Velocity S-wave (km/s) = 1.78348 2.84011 2.37140
# Velocity P-wave (km/s) = 4.31975 5.04160 4.69457
#
# Compressibility (1/GPa) = 0.03626315
#
# Stress axis : x y z
#
# Youngs Moduli (GPa) = 66.34977 48.99734 51.32853
#
# Poissons Ratio (x) = 0.10326 -0.06518
# Poissons Ratio (y) = 0.13983 0.43693
# Poissons Ratio (z) = -0.08425 0.41709
#
# Static dielectric constant tensor:
#      x y z
#    x 1.726320 0.000000 -0.006930 
#    y 0.000000 1.643040 0.000000 
#    z -0.006930 0.000000 1.700740 
# 
# From -- ./inp_files/170402.got.cif
#   From: 2010.05.17/outbox.cif.g08.bks.cpg/sg12_86_cif.got.tgz:170402.got - 2010.06.03 13:09:07.
