data_PCOD9190591
_publ_section_title
;
Structure prediction by ZEFSAII (Michael W. Deem and Ramdas Pophale) SiO2 
 PCOD9190591
Probable space group: C 2/M
;
_chemical_formula_sum "Si O2"
_cell_formula_units_Z 48
_cell_length_a 31.937381
_cell_length_b 7.652517
_cell_length_c 12.556106
_cell_angle_alpha 90.000000
_cell_angle_beta 75.032216
_cell_angle_gamma 90.000000
_cell_volume 2964.610972
_symmetry_space_group_name_H-M "C 2/M"
_symmetry_group_IT_number 12
_symmetry_cell_setting 'monoclinic'
loop_
_space_group_symop_operation_xyz
x,y,z
-x,y,-z
-x,-y,-z
x,-y,z
1/2+x,1/2+y,z
1/2-x,1/2+y,-z
1/2-x,1/2-y,-z
1/2+x,1/2-y,z
loop_
_atom_site_type_symbol
_atom_site_label
_atom_site_fract_x
_atom_site_fract_y
_atom_site_fract_z
Si Si1 0.531016 0.000000 0.318865
Si Si2 0.319827 0.707571 0.940029
Si Si3 0.562923 0.000000 0.544397
Si Si4 0.274130 0.290678 0.593139
Si Si5 0.626852 0.295253 0.451016
Si Si6 0.404904 0.704689 0.773007
Si Si7 0.242052 0.711094 0.839227
O O1 0.545430 0.000000 0.433882
O O2 0.479145 0.000000 0.353465
O O3 0.553490 0.828923 0.254443
O O4 0.321762 0.500000 0.920371
O O5 0.367493 0.770301 0.877850
O O6 0.282766 0.776347 0.883662
O O7 0.301392 0.738553 0.069716
O O8 0.592918 0.828824 0.532950
O O9 0.276492 0.500000 0.601957
O O10 0.250000 0.250000 0.500000
O O11 0.324078 0.231773 0.562562
O O12 0.248764 0.226120 0.714600
O O13 0.623007 0.500000 0.483318
O O14 0.616311 0.284695 0.331533
O O15 0.415150 0.500000 0.785322
O O16 0.243435 0.500000 0.838773
#
# Coordination Sequence:
#
# PCOD9190591 Si02
#       7
#     4   8   4   8   8   8   8
#     4   9  18  28  42  70  91 117 159 197 230 282
#     4   9  16  27  42  64  89 119 156 188 225 281
#     4   9  18  30  44  66  91 117 163 197 228 288
#     4  10  20  32  45  64  91 124 164 199 231 272
#     4   9  17  31  46  61  89 126 155 192 236 276
#     4   9  16  28  45  63  93 125 151 187 233 283
#     4   9  17  29  42  61  89 119 156 194 228 270
#
# _framework density 16.190992999999999
#
# number of rings (size 3 to 8) (size 9 to 14) (size 15 to 20)
#    0.000    2.833    1.667    0.000    2.333    1.333 
#    0.000    3.333    0.000    0.000    0.000    0.000 
#    0.000    2.667    0.000    7.333    0.000    0.333 
#
# Total GULP energy -133687.783654 kJ/mol
# GULP energy per Si atom -5570.324319 kJ/mol
# Density = 1.615414 g / cm^3
# Si number density = 16.190993 Si / 1000 Ang^3
#
#
#
# Elastic Constant Matrix: (Units=GPa)
#
#
# Indices 1 2 3 4 5 6 
#
# 1 73.9094 34.9016 61.0288 0.0000 -34.9220 0.0000
# 2 34.9016 62.7213 28.9994 0.0000 -22.9303 0.0000
# 3 61.0288 28.9994 103.4227 0.0000 -32.0543 0.0000
# 4 0.0000 0.0000 0.0000 19.3168 0.0000 -5.7223
# 5 -34.9220 -22.9303 -32.0543 0.0000 36.0298 0.0000
# 6 0.0000 0.0000 0.0000 -5.7223 0.0000 18.7441
#
#
#
# Elastic Compliance Matrix: (Units=1/GPa)
#
#
# Indices 1 2 3 4 5 6 
#
# 1 0.038069 -0.007459 -0.014370 0.000000 0.019366 0.000000
# 2 -0.007459 0.022675 0.000380 0.000000 0.007539 0.000000
# 3 -0.014370 0.000380 0.019054 0.000000 0.003266 0.000000
# 4 0.000000 0.000000 0.000000 0.056916 0.000000 0.017375
# 5 0.019366 0.007539 0.003266 0.000000 0.054229 0.000000
# 6 0.000000 0.000000 0.000000 0.017375 0.000000 0.058655
#
#
# Mechanical properties :
#
#
# Convention : Reuss Voigt Hill
#
# Bulk Modulus (GPa) = 27.10050 54.43476 40.76763
# Shear Modulus (GPa) = 16.40445 22.49305 19.44875
#
# Velocity S-wave (km/s) = 3.18651 3.73128 3.46960
# Velocity P-wave (km/s) = 5.50570 7.22888 6.42532
#
# Compressibility (1/GPa) = 0.03689969
#
# Stress axis : x y z
#
# Youngs Moduli (GPa) = 26.26814 44.10196 52.48178
#
# Poissons Ratio (x) = 0.32897 0.75417
# Poissons Ratio (y) = 0.19594 -0.01997
# Poissons Ratio (z) = 0.37748 -0.01678
#
# Static dielectric constant tensor:
#      x y z
#    x 1.525860 0.000000 -0.023020 
#    y 0.000000 1.583210 0.000000 
#    z -0.023020 0.000000 1.548130 
# 
# From -- ./inp_files/173093.got.cif
#   From: 2010.05.17/outbox.cif.g08.bks.cpg/sg12_87_cif.got.tgz:173093.got - 2010.06.03 13:09:07.
