data_PCOD9190980
_publ_section_title
;
Structure prediction by ZEFSAII (Michael W. Deem and Ramdas Pophale) SiO2 
 PCOD9190980
Probable space group: C 2/M
;
_chemical_formula_sum "Si O2"
_cell_formula_units_Z 48
_cell_length_a 13.963040
_cell_length_b 26.868925
_cell_length_c 13.952277
_cell_angle_alpha 90.000000
_cell_angle_beta 147.327685
_cell_angle_gamma 90.000000
_cell_volume 2825.760245
_symmetry_space_group_name_H-M "C 2/M"
_symmetry_group_IT_number 12
_symmetry_cell_setting 'monoclinic'
loop_
_space_group_symop_operation_xyz
x,y,z
-x,y,-z
-x,-y,-z
x,-y,z
1/2+x,1/2+y,z
1/2-x,1/2+y,-z
1/2-x,1/2-y,-z
1/2+x,1/2-y,z
loop_
_atom_site_type_symbol
_atom_site_label
_atom_site_fract_x
_atom_site_fract_y
_atom_site_fract_z
Si Si1 0.307189 0.203000 0.111916
Si Si2 0.711972 0.778291 0.180034
Si Si3 0.596787 0.393393 0.480338
Si Si4 0.211134 0.127109 0.896499
Si Si5 0.288549 0.203290 0.599085
Si Si6 0.035208 0.442698 0.144461
O O1 0.293264 0.227806 0.204282
O O2 0.506643 0.190881 0.248176
O O3 0.250000 0.250000 0.000000
O O4 0.184838 0.157413 0.973702
O O5 0.760094 0.827942 0.158410
O O6 0.753994 0.784036 0.326602
O O7 0.500000 0.773928 0.000000
O O8 0.500000 0.382822 0.500000
O O9 0.439632 0.408767 0.275079
O O10 0.670846 0.345317 0.486483
O O11 0.768551 0.425680 0.655748
O O12 0.387406 0.094758 0.058607
O O13 0.250000 0.250000 0.500000
O O14 0.009070 0.500000 0.150366
O O15 0.000000 0.439378 0.000000
#
# Coordination Sequence:
#
# PCOD9190980 Si02
#       6
#     8   8   8   8   8   8
#     4  10  20  32  51  73 103 149 182 217 266 317
#     4  11  19  33  52  75 111 147 186 221 262 317
#     4  12  22  33  54  74 106 146 184 222 273 325
#     4  11  20  37  53  74 106 148 183 218 271 323
#     4  12  22  32  50  80 111 145 189 224 265 325
#     4  11  22  36  53  77 106 141 185 231 273 326
#
# _framework density 16.986578000000002
#
# number of rings (size 3 to 8) (size 9 to 14) (size 15 to 20)
#    0.000    0.833    8.333    2.500    0.000    1.000 
#    0.000    0.000    0.000    0.000    0.000    0.000 
#    0.000    3.333    0.000    0.000    0.000    0.000 
#
# Total GULP energy -133631.151650 kJ/mol
# GULP energy per Si atom -5567.964652 kJ/mol
# Density = 1.694792 g / cm^3
# Si number density = 16.986578 Si / 1000 Ang^3
#
#
#
# Elastic Constant Matrix: (Units=GPa)
#
#
# Indices 1 2 3 4 5 6 
#
# 1 39.4598 14.7839 14.8031 0.0000 0.9988 0.0000
# 2 14.7839 81.7967 32.7397 0.0000 -0.1827 0.0000
# 3 14.8031 32.7397 93.3788 0.0000 12.2205 0.0000
# 4 0.0000 0.0000 0.0000 18.1240 0.0000 -2.5731
# 5 0.9988 -0.1827 12.2205 0.0000 22.2711 0.0000
# 6 0.0000 0.0000 0.0000 -2.5731 0.0000 17.3093
#
#
#
# Elastic Compliance Matrix: (Units=1/GPa)
#
#
# Indices 1 2 3 4 5 6 
#
# 1 0.027934 -0.003783 -0.003161 0.000000 0.000451 0.000000
# 2 -0.003783 0.014931 -0.005035 0.000000 0.003055 0.000000
# 3 -0.003161 -0.005035 0.013965 0.000000 -0.007563 0.000000
# 4 0.000000 0.000000 0.000000 0.056365 0.000000 0.008379
# 5 0.000451 0.003055 -0.007563 0.000000 0.049056 0.000000
# 6 0.000000 0.000000 0.000000 0.008379 0.000000 0.059018
#
#
# Mechanical properties :
#
#
# Convention : Reuss Voigt Hill
#
# Bulk Modulus (GPa) = 30.42035 37.69877 34.05956
# Shear Modulus (GPa) = 19.51718 21.69479 20.60599
#
# Velocity S-wave (km/s) = 3.39333 3.57763 3.48670
# Velocity P-wave (km/s) = 5.77064 6.26956 6.02527
#
# Compressibility (1/GPa) = 0.03287273
#
# Stress axis : x y z
#
# Youngs Moduli (GPa) = 35.79890 66.97338 71.60594
#
# Poissons Ratio (x) = 0.25333 0.22635
# Poissons Ratio (y) = 0.13541 0.36056
# Poissons Ratio (z) = 0.11316 0.33723
#
# Static dielectric constant tensor:
#      x y z
#    x 1.507220 0.000000 -0.017250 
#    y 0.000000 1.618940 0.000000 
#    z -0.017250 0.000000 1.666210 
# 
# From -- ./inp_files/218430.got.cif
#   From: 2010.05.17/outbox.cif.g08.bks.cpg/sg12_110_cif.got.tgz:218430.got - 2010.06.03 13:09:07.
