data_PCOD9190440
_publ_section_title
;
Structure prediction by ZEFSAII (Michael W. Deem and Ramdas Pophale) SiO2 
 PCOD9190440
Probable space group: C 2/M
;
_chemical_formula_sum "Si O2"
_cell_formula_units_Z 58
_cell_length_a 9.845816
_cell_length_b 19.762923
_cell_length_c 14.548793
_cell_angle_alpha 90.000000
_cell_angle_beta 83.196509
_cell_angle_gamma 90.000000
_cell_volume 2811.000129
_symmetry_space_group_name_H-M "C 2/M"
_symmetry_group_IT_number 12
_symmetry_cell_setting 'monoclinic'
loop_
_space_group_symop_operation_xyz
x,y,z
-x,y,-z
-x,-y,-z
x,-y,z
1/2+x,1/2+y,z
1/2-x,1/2+y,-z
1/2-x,1/2-y,-z
1/2+x,1/2-y,z
loop_
_atom_site_type_symbol
_atom_site_label
_atom_site_fract_x
_atom_site_fract_y
_atom_site_fract_z
Si Si1 0.980511 0.354866 0.293799
Si Si2 0.778871 0.423018 0.180315
Si Si3 0.233268 0.819800 0.450251
Si Si4 0.532860 0.382266 0.340060
Si Si5 0.935369 0.782558 0.204167
Si Si6 0.216956 0.211740 0.096202
Si Si7 0.000000 0.000000 0.500000
Si Si8 0.356842 0.922882 0.569519
O O1 0.913965 0.408920 0.230119
O O2 0.861098 0.334887 0.374671
O O3 0.003319 0.284153 0.243524
O O4 0.103931 0.387494 0.339105
O O5 0.772746 0.500000 0.148342
O O6 0.651838 0.408758 0.260471
O O7 0.776021 0.364168 0.104318
O O8 0.250000 0.750000 0.500000
O O9 0.100335 0.823753 0.398108
O O10 0.247325 0.879529 0.523087
O O11 0.428222 0.342964 0.280045
O O12 0.507153 0.441293 0.416032
O O13 0.054348 0.799075 0.121496
O O14 0.796092 0.755841 0.168895
O O15 0.250000 0.250000 0.000000
O O16 0.500000 0.924341 0.500000
O O17 0.310444 0.000000 0.582348
#
# Coordination Sequence:
#
# PCOD9190440 Si02
#       8
#     8   8   8   8   8   8   2   8
#     4   9  18  31  51  77 106 144 189 239 310 347
#     4   9  17  35  59  82 115 152 198 247 306 374
#     4  10  20  31  47  71 104 149 202 251 286 336
#     4  10  22  35  52  76 114 164 209 252 298 346
#     4  10  21  39  61  91 120 154 195 252 311 369
#     4  10  21  39  69  95 117 152 195 252 319 394
#     4  12  24  36  52  76 120 176 222 256 284 354
#     4   9  17  28  45  68  97 133 185 240 277 321
#
# _framework density 20.633224999999999
#
# number of rings (size 3 to 8) (size 9 to 14) (size 15 to 20)
#    0.000    2.345    0.690    2.483    2.897    1.655 
#    0.000    0.000    1.517    9.103    0.000    0.000 
#    0.000    0.000    0.000    0.000    0.000    0.000 
#
# Total GULP energy -161480.057755 kJ/mol
# GULP energy per Si atom -5568.277854 kJ/mol
# Density = 2.058626 g / cm^3
# Si number density = 20.633225 Si / 1000 Ang^3
#
#
#
# Elastic Constant Matrix: (Units=GPa)
#
#
# Indices 1 2 3 4 5 6 
#
# 1 65.4969 21.0987 18.0600 0.0000 9.6545 0.0000
# 2 21.0987 120.6083 59.6581 0.0000 14.6532 0.0000
# 3 18.0600 59.6581 84.2484 0.0000 8.5623 0.0000
# 4 0.0000 0.0000 0.0000 37.5475 0.0000 5.0614
# 5 9.6545 14.6532 8.5623 0.0000 20.9813 0.0000
# 6 0.0000 0.0000 0.0000 5.0614 0.0000 16.9861
#
#
#
# Elastic Compliance Matrix: (Units=1/GPa)
#
#
# Indices 1 2 3 4 5 6 
#
# 1 0.017166 -0.001142 -0.002242 0.000000 -0.006186 0.000000
# 2 -0.001142 0.013464 -0.008750 0.000000 -0.005307 0.000000
# 3 -0.002242 -0.008750 0.018591 0.000000 -0.000444 0.000000
# 4 0.000000 0.000000 0.000000 0.027747 0.000000 -0.008268
# 5 -0.006186 -0.005307 -0.000444 0.000000 0.054396 0.000000
# 6 0.000000 0.000000 0.000000 -0.008268 0.000000 0.061335
#
#
# Mechanical properties :
#
#
# Convention : Reuss Voigt Hill
#
# Bulk Modulus (GPa) = 40.07600 51.99858 46.03729
# Shear Modulus (GPa) = 22.19398 26.53876 24.36637
#
# Velocity S-wave (km/s) = 3.28326 3.59027 3.44019
# Velocity P-wave (km/s) = 5.81707 6.51482 6.17580
#
# Compressibility (1/GPa) = 0.02495259
#
# Stress axis : x y z
#
# Youngs Moduli (GPa) = 58.25467 74.27240 53.78805
#
# Poissons Ratio (x) = 0.08484 0.12061
# Poissons Ratio (y) = 0.06654 0.47064
# Poissons Ratio (z) = 0.13062 0.64988
#
# Static dielectric constant tensor:
#      x y z
#    x 1.705850 0.000000 -0.026530 
#    y 0.000000 1.727530 0.000000 
#    z -0.026530 0.000000 1.794550 
# 
# From -- ./inp_files/206165.got.cif
#   From: 2010.05.17/outbox.cif.g08.bks.cpg/sg12_104_cif.got.tgz:206165.got - 2010.06.03 13:09:07.
