data_PCOD9190632
_publ_section_title
;
Structure prediction by ZEFSAII (Michael W. Deem and Ramdas Pophale) SiO2 
 PCOD9190632
Probable space group: C 2/M
;
_chemical_formula_sum "Si O2"
_cell_formula_units_Z 56
_cell_length_a 14.557009
_cell_length_b 7.333967
_cell_length_c 24.274993
_cell_angle_alpha 90.000000
_cell_angle_beta 109.332565
_cell_angle_gamma 90.000000
_cell_volume 2445.479947
_symmetry_space_group_name_H-M "C 2/M"
_symmetry_group_IT_number 12
_symmetry_cell_setting 'monoclinic'
loop_
_space_group_symop_operation_xyz
x,y,z
-x,y,-z
-x,-y,-z
x,-y,z
1/2+x,1/2+y,z
1/2-x,1/2+y,-z
1/2-x,1/2-y,-z
1/2+x,1/2-y,z
loop_
_atom_site_type_symbol
_atom_site_label
_atom_site_fract_x
_atom_site_fract_y
_atom_site_fract_z
Si Si1 0.346007 0.711304 0.715922
Si Si2 0.356829 0.720122 0.364841
Si Si3 0.579060 0.722993 0.385989
Si Si4 0.909484 0.208967 0.052401
Si Si5 0.596956 0.723152 0.154117
Si Si6 0.116641 0.784922 0.511395
Si Si7 0.289469 0.279157 0.926954
O O1 0.376148 0.500000 0.720479
O O2 0.229176 0.720796 0.691993
O O3 0.379821 0.789176 0.663902
O O4 0.387985 0.788809 0.780821
O O5 0.356981 0.500000 0.366730
O O6 0.465278 0.774440 0.368782
O O7 0.336382 0.789093 0.423295
O O8 0.583193 0.500000 0.388137
O O9 0.632259 0.787028 0.452816
O O10 0.813512 0.212701 0.071304
O O11 0.998645 0.286910 0.104556
O O12 0.937607 0.000000 0.046473
O O13 0.872628 0.285012 0.986636
O O14 0.595122 0.500000 0.156122
O O15 0.683276 0.772993 0.129344
O O16 0.000000 0.768563 0.500000
O O17 0.138071 0.000000 0.513827
O O18 0.287248 0.500000 0.929926
#
# Coordination Sequence:
#
# PCOD9190632 Si02
#       7
#     8   8   8   8   8   8   8
#     4  10  20  32  46  67  94 124 157 188 223 271
#     4   9  17  31  50  69  90 118 154 194 232 272
#     4   8  15  29  48  67  89 120 155 189 227 275
#     4   9  17  31  52  74  93 118 155 192 224 266
#     4   9  18  32  48  66  93 129 159 181 218 277
#     4   7  11  23  45  68  86 111 150 190 228 272
#     4   9  17  31  51  73  95 119 150 190 233 270
#
# _framework density 22.89939
#
# number of rings (size 3 to 8) (size 9 to 14) (size 15 to 20)
#    0.000    3.286    0.000    2.143    0.000    3.429 
#    0.000    4.286    0.000    7.286    0.000    0.000 
#    0.000    0.000    0.000    0.000    0.000    0.000 
#
# Total GULP energy -156281.619337 kJ/mol
# GULP energy per Si atom -5581.486405 kJ/mol
# Density = 2.284727 g / cm^3
# Si number density = 22.899390 Si / 1000 Ang^3
#
#
#
# Elastic Constant Matrix: (Units=GPa)
#
#
# Indices 1 2 3 4 5 6 
#
# 1 54.7297 -5.8578 47.9662 0.0000 -6.5461 0.0000
# 2 -5.8578 89.5922 7.8591 0.0000 -5.3885 0.0000
# 3 47.9662 7.8591 144.4786 0.0000 -15.1090 0.0000
# 4 0.0000 0.0000 0.0000 13.2698 0.0000 -1.0877
# 5 -6.5461 -5.3885 -15.1090 0.0000 28.3349 0.0000
# 6 0.0000 0.0000 0.0000 -1.0877 0.0000 14.2547
#
#
#
# Elastic Compliance Matrix: (Units=1/GPa)
#
#
# Indices 1 2 3 4 5 6 
#
# 1 0.026416 0.002609 -0.008707 0.000000 0.001956 0.000000
# 2 0.002609 0.011572 -0.001273 0.000000 0.002124 0.000000
# 3 -0.008707 -0.001273 0.010215 0.000000 0.003193 0.000000
# 4 0.000000 0.000000 0.000000 0.075834 0.000000 0.005787
# 5 0.001956 0.002124 0.003193 0.000000 0.037851 0.000000
# 6 0.000000 0.000000 0.000000 0.005787 0.000000 0.070594
#
#
# Mechanical properties :
#
#
# Convention : Reuss Voigt Hill
#
# Bulk Modulus (GPa) = 29.88733 43.19282 36.54008
# Shear Modulus (GPa) = 19.35145 27.09407 23.22276
#
# Velocity S-wave (km/s) = 2.91015 3.44347 3.18798
# Velocity P-wave (km/s) = 4.93679 5.89177 5.43529
#
# Compressibility (1/GPa) = 0.03345899
#
# Stress axis : x y z
#
# Youngs Moduli (GPa) = 37.85573 86.41770 97.89075
#
# Poissons Ratio (x) = -0.22543 0.85237
# Poissons Ratio (y) = -0.09875 0.12465
# Poissons Ratio (z) = 0.32962 0.11004
#
# Static dielectric constant tensor:
#      x y z
#    x 1.833800 0.000000 -0.008420 
#    y 0.000000 1.884360 0.000000 
#    z -0.008420 0.000000 1.850150 
# 
# From -- ./inp_files/309446.got.cif
#   From: 2010.05.17/outbox.cif.g08.bks.cpg/sg12_155_cif.got.tgz:309446.got - 2010.06.03 13:09:07.
