data_PCOD9190162
_publ_section_title
;
Structure prediction by ZEFSAII (Michael W. Deem and Ramdas Pophale) SiO2 
 PCOD9190162
Probable space group: C 2/M
;
_chemical_formula_sum "Si O2"
_cell_formula_units_Z 40
_cell_length_a 11.833324
_cell_length_b 22.065685
_cell_length_c 7.401486
_cell_angle_alpha 90.000000
_cell_angle_beta 62.466662
_cell_angle_gamma 90.000000
_cell_volume 1713.722017
_symmetry_space_group_name_H-M "C 2/M"
_symmetry_group_IT_number 12
_symmetry_cell_setting 'monoclinic'
loop_
_space_group_symop_operation_xyz
x,y,z
-x,y,-z
-x,-y,-z
x,-y,z
1/2+x,1/2+y,z
1/2-x,1/2+y,-z
1/2-x,1/2-y,-z
1/2+x,1/2-y,z
loop_
_atom_site_type_symbol
_atom_site_label
_atom_site_fract_x
_atom_site_fract_y
_atom_site_fract_z
Si Si1 0.116603 0.146700 0.773410
Si Si2 0.036629 0.596173 0.670128
Si Si3 0.113603 0.287170 0.770749
Si Si4 0.735159 0.931837 0.066994
Si Si5 0.707308 0.392811 0.346002
O O1 0.141842 0.217406 0.715117
O O2 0.109099 0.115212 0.582612
O O3 0.229171 0.115311 0.803326
O O4 0.000000 0.141788 0.000000
O O5 0.000000 0.573447 0.500000
O O6 0.060756 0.668999 0.652437
O O7 0.169008 0.574143 0.656413
O O8 0.911755 0.580276 0.877391
O O9 0.236810 0.325396 0.743862
O O10 0.000000 0.288145 0.000000
O O11 0.819434 0.922655 0.825330
O O12 0.751289 0.000000 0.121692
#
# Coordination Sequence:
#
# PCOD9190162 Si02
#       5
#     8   8   8   8   8
#     4  11  25  44  62  95 128 180 223 260 318 381
#     4  10  19  40  66 103 135 160 204 268 345 391
#     4   9  18  39  62  96 133 159 201 267 331 391
#     4  12  25  43  69  95 129 176 220 269 319 382
#     4  10  21  41  66  99 133 167 211 273 329 385
#
# _framework density 23.341009
#
# number of rings (size 3 to 8) (size 9 to 14) (size 15 to 20)
#    1.200    0.400    4.000    1.200    0.000    4.800 
#    7.200    1.000    0.000    0.000    0.000    0.000 
#    0.000    0.000    0.000    0.000    0.000    0.000 
#
# Total GULP energy -111518.960138 kJ/mol
# GULP energy per Si atom -5575.948007 kJ/mol
# Density = 2.328788 g / cm^3
# Si number density = 23.341009 Si / 1000 Ang^3
#
#
#
# Elastic Constant Matrix: (Units=GPa)
#
#
# Indices 1 2 3 4 5 6 
#
# 1 31.5382 28.6559 7.9516 0.0000 3.7211 0.0000
# 2 28.6559 106.1302 34.6775 0.0000 2.2856 0.0000
# 3 7.9516 34.6775 120.9028 0.0000 2.0296 0.0000
# 4 0.0000 0.0000 0.0000 15.4224 0.0000 29.0541
# 5 3.7211 2.2856 2.0296 0.0000 43.8890 0.0000
# 6 0.0000 0.0000 0.0000 29.0541 0.0000 62.1886
#
#
#
# Elastic Compliance Matrix: (Units=1/GPa)
#
#
# Indices 1 2 3 4 5 6 
#
# 1 0.042444 -0.011585 0.000582 0.000000 -0.003022 0.000000
# 2 -0.011585 0.013566 -0.003136 0.000000 0.000421 0.000000
# 3 0.000582 -0.003136 0.009138 0.000000 -0.000309 0.000000
# 4 0.000000 0.000000 0.000000 0.540988 0.000000 -0.252746
# 5 -0.003022 0.000421 -0.000309 0.000000 0.023033 0.000000
# 6 0.000000 0.000000 0.000000 -0.252746 0.000000 0.134162
#
#
# Mechanical properties :
#
#
# Convention : Reuss Voigt Hill
#
# Bulk Modulus (GPa) = 27.12305 44.57122 35.84714
# Shear Modulus (GPa) = 6.21969 36.78574 21.50271
#
# Velocity S-wave (km/s) = 1.63416 3.97421 3.03849
# Velocity P-wave (km/s) = 3.89952 6.34005 5.26320
#
# Compressibility (1/GPa) = 0.03686901
#
# Stress axis : x y z
#
# Youngs Moduli (GPa) = 23.56051 73.71283 109.43890
#
# Poissons Ratio (x) = 0.85398 -0.06371
# Poissons Ratio (y) = 0.27295 0.34322
# Poissons Ratio (z) = -0.01372 0.23118
#
# Static dielectric constant tensor:
#      x y z
#    x 1.900890 0.000000 -0.079460 
#    y 0.000000 1.878240 0.000000 
#    z -0.079460 0.000000 1.953180 
# 
# From -- ./inp_files/63173.got.cif
#   From: 2010.05.17/outbox.cif.g08.bks.cpg/sg12_32_cif.got.tgz:63173.got - 2010.06.03 13:09:07.
