data_PCOD9190000
_publ_section_title
;
Structure prediction by ZEFSAII (Michael W. Deem and Ramdas Pophale) SiO2 
 PCOD9190000
Probable space group: C 2/M
;
_chemical_formula_sum "Si O2"
_cell_formula_units_Z 42
_cell_length_a 13.424166
_cell_length_b 12.851289
_cell_length_c 12.444764
_cell_angle_alpha 90.000000
_cell_angle_beta 109.418787
_cell_angle_gamma 90.000000
_cell_volume 2024.812064
_symmetry_space_group_name_H-M "C 2/M"
_symmetry_group_IT_number 12
_symmetry_cell_setting 'monoclinic'
loop_
_space_group_symop_operation_xyz
x,y,z
-x,y,-z
-x,-y,-z
x,-y,z
1/2+x,1/2+y,z
1/2-x,1/2+y,-z
1/2-x,1/2-y,-z
1/2+x,1/2-y,z
loop_
_atom_site_type_symbol
_atom_site_label
_atom_site_fract_x
_atom_site_fract_y
_atom_site_fract_z
Si Si1 0.371029 0.682975 0.352129
Si Si2 0.000000 0.000000 0.500000
Si Si3 0.140839 0.380947 0.916099
Si Si4 0.375975 0.884423 0.488804
Si Si5 0.304303 0.759177 0.854517
Si Si6 0.951308 0.710149 0.723458
O O1 0.410608 0.591122 0.441135
O O2 0.336033 0.786852 0.405116
O O3 0.278533 0.662745 0.233422
O O4 0.474648 0.714759 0.320025
O O5 0.159336 0.500000 0.948534
O O6 0.233585 0.334547 0.874512
O O7 0.032320 0.366746 0.812360
O O8 0.141296 0.313339 0.024467
O O9 0.500000 0.890568 0.500000
O O10 0.377239 0.851950 0.613915
O O11 0.330209 0.000000 0.453944
O O12 0.387609 0.731267 0.792947
#
# Coordination Sequence:
#
# PCOD9190000 Si02
#       6
#     8   2   8   8   8   8
#     4  10  22  39  59  84 124 162 195 238 298 354
#     4  12  20  44  54  76 128 178 188 230 288 376
#     4  10  22  41  62  87 120 156 196 253 307 351
#     4   9  17  34  57  86 115 147 191 245 298 338
#     4  10  23  39  61  89 120 149 203 249 298 360
#     4  10  19  39  62  89 116 151 197 252 300 350
#
# _framework density 20.742666
#
# number of rings (size 3 to 8) (size 9 to 14) (size 15 to 20)
#    0.000    2.095    2.857    1.143    1.333    7.619 
#    1.714    0.000    0.000    3.429    0.000    0.000 
#    0.000    0.000    0.000    0.000    0.000    0.000 
#
# Total GULP energy -116934.770068 kJ/mol
# GULP energy per Si atom -5568.322384 kJ/mol
# Density = 2.069545 g / cm^3
# Si number density = 20.742666 Si / 1000 Ang^3
#
#
#
# Elastic Constant Matrix: (Units=GPa)
#
#
# Indices 1 2 3 4 5 6 
#
# 1 47.7510 13.2121 21.7942 0.0000 -14.7278 0.0000
# 2 13.2121 60.8305 22.7630 0.0000 5.2896 0.0000
# 3 21.7942 22.7630 93.8337 0.0000 -5.7538 0.0000
# 4 0.0000 0.0000 0.0000 1.9941 0.0000 0.8230
# 5 -14.7278 5.2896 -5.7538 0.0000 30.2556 0.0000
# 6 0.0000 0.0000 0.0000 0.8230 0.0000 3.4005
#
#
#
# Elastic Compliance Matrix: (Units=1/GPa)
#
#
# Indices 1 2 3 4 5 6 
#
# 1 0.029005 -0.005885 -0.004432 0.000000 0.014305 0.000000
# 2 -0.005885 0.019777 -0.003863 0.000000 -0.007057 0.000000
# 3 -0.004432 -0.003863 0.012681 0.000000 0.000930 0.000000
# 4 0.000000 0.000000 0.000000 0.557145 0.000000 -0.134849
# 5 0.014305 -0.007057 0.000930 0.000000 0.041426 0.000000
# 6 0.000000 0.000000 0.000000 -0.134849 0.000000 0.326711
#
#
# Mechanical properties :
#
#
# Convention : Reuss Voigt Hill
#
# Bulk Modulus (GPa) = 30.21015 35.32819 32.76917
# Shear Modulus (GPa) = 4.87263 16.77309 10.82286
#
# Velocity S-wave (km/s) = 1.53433 2.84672 2.28670
# Velocity P-wave (km/s) = 4.21127 5.27956 4.77538
#
# Compressibility (1/GPa) = 0.03310146
#
# Stress axis : x y z
#
# Youngs Moduli (GPa) = 34.47636 50.56448 78.85959
#
# Poissons Ratio (x) = 0.29759 0.34951
# Poissons Ratio (y) = 0.20290 0.30467
# Poissons Ratio (z) = 0.15280 0.19535
#
# Static dielectric constant tensor:
#      x y z
#    x 1.775720 0.000000 -0.007580 
#    y 0.000000 1.718290 0.000000 
#    z -0.007580 0.000000 1.769520 
# 
# From -- ./inp_files/141040.got.cif
#   From: 2010.05.17/outbox.cif.g08.bks.cpg/sg12_71_cif.got.tgz:141040.got - 2010.06.03 13:09:07.
