data_PCOD9190633
_publ_section_title
;
Structure prediction by ZEFSAII (Michael W. Deem and Ramdas Pophale) SiO2 
 PCOD9190633
Probable space group: C 2/M
;
_chemical_formula_sum "Si O2"
_cell_formula_units_Z 32
_cell_length_a 5.046575
_cell_length_b 27.844565
_cell_length_c 12.871234
_cell_angle_alpha 90.000000
_cell_angle_beta 72.747743
_cell_angle_gamma 90.000000
_cell_volume 1727.286920
_symmetry_space_group_name_H-M "C 2/M"
_symmetry_group_IT_number 12
_symmetry_cell_setting 'monoclinic'
loop_
_space_group_symop_operation_xyz
x,y,z
-x,y,-z
-x,-y,-z
x,-y,z
1/2+x,1/2+y,z
1/2-x,1/2+y,-z
1/2-x,1/2-y,-z
1/2+x,1/2-y,z
loop_
_atom_site_type_symbol
_atom_site_label
_atom_site_fract_x
_atom_site_fract_y
_atom_site_fract_z
Si Si1 0.212160 0.557508 0.750432
Si Si2 0.423598 0.276577 0.132183
Si Si3 0.196755 0.872469 0.073843
Si Si4 0.683374 0.941820 0.382668
O O1 0.201006 0.500000 0.767553
O O2 0.237995 0.584632 0.855711
O O3 0.491787 0.568824 0.653138
O O4 0.951140 0.573020 0.711391
O O5 0.603367 0.237039 0.171864
O O6 0.530951 0.329233 0.149042
O O7 0.500000 0.274339 0.000000
O O8 0.500000 0.854295 0.000000
O O9 0.000000 0.886843 0.000000
O O10 0.500000 0.923755 0.500000
O O11 0.661927 0.000000 0.387052
#
# Coordination Sequence:
#
# PCOD9190633 Si02
#       4
#     8   8   8   8
#     4  10  20  32  46  67  95 124 154 185 218 267
#     4   9  16  28  45  63  84 113 150 192 231 257
#     4  11  21  31  45  66  95 129 157 181 214 264
#     4   9  17  31  50  68  87 114 150 196 241 266
#
# _framework density 18.526163
#
# number of rings (size 3 to 8) (size 9 to 14) (size 15 to 20)
#    0.000    2.250    0.000    6.000    0.000    4.000 
#    0.000    0.000    0.000    0.000    0.000    0.000 
#    0.000   20.000    0.000    0.000    0.000    0.000 
#
# Total GULP energy -89194.482800 kJ/mol
# GULP energy per Si atom -5574.655175 kJ/mol
# Density = 1.848400 g / cm^3
# Si number density = 18.526163 Si / 1000 Ang^3
#
#
#
# Elastic Constant Matrix: (Units=GPa)
#
#
# Indices 1 2 3 4 5 6 
#
# 1 72.0418 5.4077 -6.3975 0.0000 9.7918 0.0000
# 2 5.4077 42.0776 7.8666 0.0000 2.8598 0.0000
# 3 -6.3975 7.8666 21.5824 0.0000 5.7733 0.0000
# 4 0.0000 0.0000 0.0000 -3.9538 0.0000 -0.8140
# 5 9.7918 2.8598 5.7733 0.0000 16.6957 0.0000
# 6 0.0000 0.0000 0.0000 -0.8140 0.0000 20.8849
#
#
#
# Elastic Compliance Matrix: (Units=1/GPa)
#
#
# Indices 1 2 3 4 5 6 
#
# 1 0.016639 -0.003044 0.009380 0.000000 -0.012481 0.000000
# 2 -0.003044 0.026085 -0.010680 0.000000 0.001010 0.000000
# 3 0.009380 -0.010680 0.059493 0.000000 -0.024244 0.000000
# 4 0.000000 0.000000 0.000000 -0.250905 0.000000 -0.009779
# 5 -0.012481 0.001010 -0.024244 0.000000 0.075426 0.000000
# 6 0.000000 0.000000 0.000000 -0.009779 0.000000 0.047500
#
#
# Mechanical properties :
#
#
# Convention : Reuss Voigt Hill
#
# Bulk Modulus (GPa) = 10.69196 16.60618 13.64907
# Shear Modulus (GPa) = 354.58519 15.31370 184.94945
#
# Velocity S-wave (km/s) = 13.84964 2.87818 10.00241
# Velocity P-wave (km/s) = 16.17201 4.47530 11.86512
#
# Compressibility (1/GPa) = 0.09352824
#
# Stress axis : x y z
#
# Youngs Moduli (GPa) = 60.10120 38.33644 16.80881
#
# Poissons Ratio (x) = 0.11669 -0.15767
# Poissons Ratio (y) = 0.18293 0.17952
# Poissons Ratio (z) = -0.56375 0.40944
#
# Static dielectric constant tensor:
#      x y z
#    x 1.659140 0.000000 -0.011020 
#    y 0.000000 1.668020 0.000000 
#    z -0.011020 0.000000 1.642810 
# 
# From -- ./inp_files/114766.got.cif
#   From: 2010.05.17/outbox.cif.g08.bks.cpg/sg12_58_cif.got.tgz:114766.got - 2010.06.03 13:09:07.
