data_PCOD9190549
_publ_section_title
;
Structure prediction by ZEFSAII (Michael W. Deem and Ramdas Pophale) SiO2 
 PCOD9190549
Probable space group: C 2/M
;
_chemical_formula_sum "Si O2"
_cell_formula_units_Z 64
_cell_length_a 22.633717
_cell_length_b 20.287040
_cell_length_c 8.493541
_cell_angle_alpha 90.000000
_cell_angle_beta 126.040078
_cell_angle_gamma 90.000000
_cell_volume 3153.552919
_symmetry_space_group_name_H-M "C 2/M"
_symmetry_group_IT_number 12
_symmetry_cell_setting 'monoclinic'
loop_
_space_group_symop_operation_xyz
x,y,z
-x,y,-z
-x,-y,-z
x,-y,z
1/2+x,1/2+y,z
1/2-x,1/2+y,-z
1/2-x,1/2-y,-z
1/2+x,1/2-y,z
loop_
_atom_site_type_symbol
_atom_site_label
_atom_site_fract_x
_atom_site_fract_y
_atom_site_fract_z
Si Si1 0.623452 0.178930 0.833550
Si Si2 0.466483 0.315319 0.282310
Si Si3 0.224710 0.859476 0.385651
Si Si4 0.632449 0.882958 0.508519
Si Si5 0.517443 0.070002 0.714323
Si Si6 0.433675 0.234462 0.787989
Si Si7 0.288014 0.227313 0.760673
Si Si8 0.078329 0.078025 0.033086
O O1 0.582084 0.249691 0.752420
O O2 0.638687 0.135409 0.702580
O O3 0.567065 0.131316 0.838264
O O4 0.694649 0.194059 0.047596
O O5 0.500000 0.338067 0.500000
O O6 0.530042 0.291522 0.260733
O O7 0.425649 0.373808 0.125345
O O8 0.293118 0.906095 0.455169
O O9 0.240451 0.820408 0.573974
O O10 0.241534 0.801188 0.283548
O O11 0.147251 0.894339 0.242149
O O12 0.564745 0.928571 0.353222
O O13 0.601964 0.815299 0.388324
O O14 0.500000 0.076081 0.500000
O O15 0.553693 0.000000 0.802590
O O16 0.366596 0.244580 0.802528
O O17 0.500000 0.210578 0.000000
O O18 0.088682 0.000000 0.014716
O O19 0.000000 0.083838 0.000000
#
# Coordination Sequence:
#
# PCOD9190549 Si02
#       8
#     8   8   8   8   8   8   8   8
#     4  11  18  35  56  91 123 158 195 238 282 349
#     4  12  20  34  62  92 121 151 196 256 301 345
#     4  10  21  38  55  86 113 151 187 240 298 350
#     4  10  20  31  53  86 121 155 193 236 293 347
#     4   9  17  31  51  78 117 160 193 219 261 334
#     4  11  17  29  54  85 118 157 192 237 289 347
#     4  10  20  33  57  84 120 147 192 236 291 351
#     4  11  25  46  67  84 110 156 208 255 311 369
#
# _framework density 20.29457
#
# number of rings (size 3 to 8) (size 9 to 14) (size 15 to 20)
#    0.000    1.500    5.000    1.500    0.000    1.250 
#    0.000    0.625    0.000    7.125    0.000    0.000 
#    0.000    0.000    0.000    0.000    0.000    0.000 
#
# Total GULP energy -178168.223361 kJ/mol
# GULP energy per Si atom -5567.756980 kJ/mol
# Density = 2.024838 g / cm^3
# Si number density = 20.294570 Si / 1000 Ang^3
#
#
#
# Elastic Constant Matrix: (Units=GPa)
#
#
# Indices 1 2 3 4 5 6 
#
# 1 47.3051 3.2769 13.1802 0.0000 20.0679 0.0000
# 2 3.2769 93.0447 20.8969 0.0000 9.0599 0.0000
# 3 13.1802 20.8969 97.0499 0.0000 16.0591 0.0000
# 4 0.0000 0.0000 0.0000 7.0460 0.0000 -1.2740
# 5 20.0679 9.0599 16.0591 0.0000 33.1601 0.0000
# 6 0.0000 0.0000 0.0000 -1.2740 0.0000 -0.5591
#
#
#
# Elastic Compliance Matrix: (Units=1/GPa)
#
#
# Indices 1 2 3 4 5 6 
#
# 1 0.028626 0.000931 -0.001282 0.000000 -0.016957 0.000000
# 2 0.000931 0.011457 -0.002155 0.000000 -0.002650 0.000000
# 3 -0.001282 -0.002155 0.011650 0.000000 -0.004277 0.000000
# 4 0.000000 0.000000 0.000000 0.100513 0.000000 -0.229030
# 5 -0.016957 -0.002650 -0.004277 0.000000 0.043214 0.000000
# 6 0.000000 0.000000 0.000000 -0.229030 0.000000 -1.266634
#
#
# Mechanical properties :
#
#
# Convention : Reuss Voigt Hill
#
# Bulk Modulus (GPa) = 21.40396 34.67864 28.04130
# Shear Modulus (GPa) = -4.75923 21.26576 8.25326
#
# Velocity S-wave (km/s) = -1.53303 3.24057 2.01880
# Velocity P-wave (km/s) = 2.72690 5.57911 4.39104
#
# Compressibility (1/GPa) = 0.04672032
#
# Stress axis : x y z
#
# Youngs Moduli (GPa) = 34.93358 87.28506 85.83811
#
# Poissons Ratio (x) = -0.08126 0.11005
# Poissons Ratio (y) = -0.03252 0.18496
# Poissons Ratio (z) = 0.04479 0.18808
#
# Static dielectric constant tensor:
#      x y z
#    x 1.923640 0.000000 0.015920 
#    y 0.000000 1.761140 0.000000 
#    z 0.015920 0.000000 1.748120 
# 
# From -- ./inp_files/99130.got.cif
#   From: 2010.05.17/outbox.cif.g08.bks.cpg/sg12_50_cif.got.tgz:99130.got - 2010.06.03 13:09:07.
