data_PCOD9190219
_publ_section_title
;
Structure prediction by ZEFSAII (Michael W. Deem and Ramdas Pophale) SiO2 
 PCOD9190219
Probable space group: C 2/M
;
_chemical_formula_sum "Si O2"
_cell_formula_units_Z 36
_cell_length_a 14.574607
_cell_length_b 14.118217
_cell_length_c 11.817871
_cell_angle_alpha 90.000000
_cell_angle_beta 45.550888
_cell_angle_gamma 90.000000
_cell_volume 1735.948026
_symmetry_space_group_name_H-M "C 2/M"
_symmetry_group_IT_number 12
_symmetry_cell_setting 'monoclinic'
loop_
_space_group_symop_operation_xyz
x,y,z
-x,y,-z
-x,-y,-z
x,-y,z
1/2+x,1/2+y,z
1/2-x,1/2+y,-z
1/2-x,1/2-y,-z
1/2+x,1/2-y,z
loop_
_atom_site_type_symbol
_atom_site_label
_atom_site_fract_x
_atom_site_fract_y
_atom_site_fract_z
Si Si1 0.179222 0.706996 0.235961
Si Si2 0.793750 0.294831 0.343265
Si Si3 0.037946 0.000000 0.781597
Si Si4 0.205070 0.500000 0.312573
Si Si5 0.559400 0.706468 0.127475
Si Si6 0.790336 0.500000 0.432699
O O1 0.187601 0.769608 0.341707
O O2 0.168125 0.597017 0.282070
O O3 0.076359 0.742056 0.233775
O O4 0.315210 0.723954 0.055149
O O5 0.750000 0.250000 0.500000
O O6 0.820460 0.404819 0.340399
O O7 0.925362 0.243432 0.194294
O O8 0.955568 0.094048 0.848714
O O9 0.137524 0.000000 0.590923
O O10 0.860704 0.000000 0.200355
O O11 0.153106 0.500000 0.487605
#
# Coordination Sequence:
#
# PCOD9190219 Si02
#       6
#     8   8   4   4   8   4
#     4  11  24  40  65  97 127 165 214 265 317 373
#     4  12  21  42  61  92 131 161 209 263 317 368
#     4  10  19  41  69  90 122 167 222 264 294 376
#     4  10  19  41  69  90 122 167 222 264 294 376
#     4  11  24  40  65  97 127 165 214 265 317 373
#     4  10  22  38  62  96 120 166 218 246 320 384
#
# _framework density 20.737946999999998
#
# number of rings (size 3 to 8) (size 9 to 14) (size 15 to 20)
#    0.667    0.444    6.667    1.333    0.000    3.556 
#    0.000    6.667    0.000    0.000    0.000    0.000 
#    0.000    0.000    0.000    0.000    0.000    0.000 
#
# Total GULP energy -100570.250910 kJ/mol
# GULP energy per Si atom -5587.236162 kJ/mol
# Density = 2.069075 g / cm^3
# Si number density = 20.737947 Si / 1000 Ang^3
#
#
#
# Elastic Constant Matrix: (Units=GPa)
#
#
# Indices 1 2 3 4 5 6 
#
# 1 96.7424 33.5388 -2.4910 0.0000 32.1348 0.0000
# 2 33.5388 152.8029 4.7981 0.0000 35.5135 0.0000
# 3 -2.4910 4.7981 43.3424 0.0000 6.3317 0.0000
# 4 0.0000 0.0000 0.0000 -5.9145 0.0000 -54.4634
# 5 32.1348 35.5135 6.3317 0.0000 37.2515 0.0000
# 6 0.0000 0.0000 0.0000 -54.4634 0.0000 -76.3630
#
#
#
# Elastic Compliance Matrix: (Units=1/GPa)
#
#
# Indices 1 2 3 4 5 6 
#
# 1 0.014822 -0.000333 0.002779 0.000000 -0.012942 0.000000
# 2 -0.000333 0.008417 0.000184 0.000000 -0.007769 0.000000
# 3 0.002779 0.000184 0.024188 0.000000 -0.006684 0.000000
# 4 0.000000 0.000000 0.000000 0.030368 0.000000 -0.021659
# 5 -0.012942 -0.007769 -0.006684 0.000000 0.046551 0.000000
# 6 0.000000 0.000000 0.000000 -0.021659 0.000000 0.002352
#
#
# Mechanical properties :
#
#
# Convention : Reuss Voigt Hill
#
# Bulk Modulus (GPa) = 18.97951 40.50885 29.74418
# Shear Modulus (GPa) = 35.97117 8.13092 22.05105
#
# Velocity S-wave (km/s) = 4.16932 1.98225 3.26439
# Velocity P-wave (km/s) = 5.68767 4.98148 5.34625
#
# Compressibility (1/GPa) = 0.05268841
#
# Stress axis : x y z
#
# Youngs Moduli (GPa) = 67.46504 118.80445 41.34296
#
# Poissons Ratio (x) = 0.03955 -0.11491
# Poissons Ratio (y) = 0.02246 -0.00760
# Poissons Ratio (z) = -0.18751 -0.02185
#
# Static dielectric constant tensor:
#      x y z
#    x 1.736250 0.000000 0.000330 
#    y 0.000000 1.717030 0.000000 
#    z 0.000330 0.000000 1.780860 
# 
# From -- ./inp_files/141791.got.cif
#   From: 2010.05.17/outbox.cif.g08.bks.cpg/sg12_71_cif.got.tgz:141791.got - 2010.06.03 13:09:07.
