data_PCOD9190814
_publ_section_title
;
Structure prediction by ZEFSAII (Michael W. Deem and Ramdas Pophale) SiO2 
 PCOD9190814
Probable space group: C 2/M
;
_chemical_formula_sum "Si O2"
_cell_formula_units_Z 64
_cell_length_a 24.769269
_cell_length_b 8.833181
_cell_length_c 17.434694
_cell_angle_alpha 90.000000
_cell_angle_beta 76.004719
_cell_angle_gamma 90.000000
_cell_volume 3701.328949
_symmetry_space_group_name_H-M "C 2/M"
_symmetry_group_IT_number 12
_symmetry_cell_setting 'monoclinic'
loop_
_space_group_symop_operation_xyz
x,y,z
-x,y,-z
-x,-y,-z
x,-y,z
1/2+x,1/2+y,z
1/2-x,1/2+y,-z
1/2-x,1/2-y,-z
1/2+x,1/2-y,z
loop_
_atom_site_type_symbol
_atom_site_label
_atom_site_fract_x
_atom_site_fract_y
_atom_site_fract_z
Si Si1 0.811759 0.681890 0.477584
Si Si2 0.187296 0.316676 0.354935
Si Si3 0.311616 0.181891 0.308599
Si Si4 0.197136 0.823994 0.057902
Si Si5 0.131901 0.682361 0.217728
Si Si6 0.582887 0.323015 0.004597
Si Si7 0.022012 0.319497 0.166080
Si Si8 0.591989 0.681132 0.823949
O O1 0.808464 0.500000 0.478303
O O2 0.750000 0.750000 0.500000
O O3 0.835857 0.725823 0.552465
O O4 0.834703 0.725003 0.386068
O O5 0.192773 0.500000 0.350760
O O6 0.248963 0.246765 0.323993
O O7 0.148229 0.270304 0.297818
O O8 0.352789 0.248738 0.231464
O O9 0.309598 0.000000 0.303612
O O10 0.177662 0.743947 0.142606
O O11 0.207968 0.000000 0.069460
O O12 0.250000 0.750000 0.000000
O O13 0.144594 0.812521 0.018751
O O14 0.132745 0.500000 0.214061
O O15 0.071323 0.730406 0.207077
O O16 0.565472 0.500000 0.014531
O O17 0.585014 0.275190 0.915743
O O18 0.543709 0.227850 0.074126
O O19 0.015984 0.500000 0.172788
O O20 0.963060 0.240962 0.199561
O O21 0.595121 0.500000 0.819393
#
# Coordination Sequence:
#
# PCOD9190814 Si02
#       8
#     8   8   8   8   8   8   8   8
#     4   8  15  29  49  72 100 131 160 195 241 294
#     4   9  17  32  54  76 101 134 166 195 239 305
#     4  10  20  32  48  77 108 129 159 205 252 291
#     4  10  20  33  48  68  98 133 165 202 247 292
#     4   9  19  34  52  73  98 129 166 203 243 295
#     4   9  20  36  51  68  93 129 170 205 242 294
#     4  10  20  35  53  74  98 126 164 212 254 286
#     4  11  22  35  52  72  97 133 170 205 246 297
#
# _framework density 17.291086
#
# number of rings (size 3 to 8) (size 9 to 14) (size 15 to 20)
#    0.000    2.500    0.000    1.875    1.750    4.500 
#    0.000    0.000    0.000    0.750    0.000    5.250 
#    0.000    0.000    0.000    0.000    0.000    0.000 
#
# Total GULP energy -178372.766587 kJ/mol
# GULP energy per Si atom -5574.148956 kJ/mol
# Density = 1.725173 g / cm^3
# Si number density = 17.291086 Si / 1000 Ang^3
#
#
#
# Elastic Constant Matrix: (Units=GPa)
#
#
# Indices 1 2 3 4 5 6 
#
# 1 41.6597 15.8106 33.3956 0.0000 9.8884 0.0000
# 2 15.8106 20.2945 17.7057 0.0000 3.1203 0.0000
# 3 33.3956 17.7057 79.5354 0.0000 30.9423 0.0000
# 4 0.0000 0.0000 0.0000 20.1708 0.0000 -1.2827
# 5 9.8884 3.1203 30.9423 0.0000 26.0230 0.0000
# 6 0.0000 0.0000 0.0000 -1.2827 0.0000 23.1343
#
#
#
# Elastic Compliance Matrix: (Units=1/GPa)
#
#
# Indices 1 2 3 4 5 6 
#
# 1 0.043026 -0.021151 -0.014855 0.000000 0.003850 0.000000
# 2 -0.021151 0.075596 -0.014045 0.000000 0.015673 0.000000
# 3 -0.014855 -0.014045 0.035514 0.000000 -0.034899 0.000000
# 4 0.000000 0.000000 0.000000 0.049752 0.000000 0.002759
# 5 0.003850 0.015673 -0.034899 0.000000 0.076581 0.000000
# 6 0.000000 0.000000 0.000000 0.002759 0.000000 0.043379
#
#
# Mechanical properties :
#
#
# Convention : Reuss Voigt Hill
#
# Bulk Modulus (GPa) = 18.50726 30.59039 24.54882
# Shear Modulus (GPa) = 11.31321 18.83746 15.07533
#
# Velocity S-wave (km/s) = 2.56066 3.30424 2.95592
# Velocity P-wave (km/s) = 4.41240 5.68218 5.08706
#
# Compressibility (1/GPa) = 0.05403286
#
# Stress axis : x y z
#
# Youngs Moduli (GPa) = 23.24197 13.22818 28.15796
#
# Poissons Ratio (x) = 0.27979 0.41829
# Poissons Ratio (y) = 0.49160 0.39548
# Poissons Ratio (z) = 0.34526 0.18579
#
# Static dielectric constant tensor:
#      x y z
#    x 1.575880 0.000000 0.038370 
#    y 0.000000 1.580730 0.000000 
#    z 0.038370 0.000000 1.602970 
# 
# From -- ./inp_files/243819.got.cif
#   From: 2010.05.17/outbox.cif.g08.bks.cpg/sg12_122_cif.got.tgz:243819.got - 2010.06.03 13:09:07.
