data_PCOD9190748
_publ_section_title
;
Structure prediction by ZEFSAII (Michael W. Deem and Ramdas Pophale) SiO2 
 PCOD9190748
Probable space group: C 2/M
;
_chemical_formula_sum "Si O2"
_cell_formula_units_Z 64
_cell_length_a 14.580904
_cell_length_b 9.654798
_cell_length_c 23.433772
_cell_angle_alpha 90.000000
_cell_angle_beta 113.646483
_cell_angle_gamma 90.000000
_cell_volume 3021.921357
_symmetry_space_group_name_H-M "C 2/M"
_symmetry_group_IT_number 12
_symmetry_cell_setting 'monoclinic'
loop_
_space_group_symop_operation_xyz
x,y,z
-x,y,-z
-x,-y,-z
x,-y,z
1/2+x,1/2+y,z
1/2-x,1/2+y,-z
1/2-x,1/2-y,-z
1/2+x,1/2-y,z
loop_
_atom_site_type_symbol
_atom_site_label
_atom_site_fract_x
_atom_site_fract_y
_atom_site_fract_z
Si Si1 0.311841 0.160184 0.936545
Si Si2 0.200524 0.157339 0.798826
Si Si3 0.989606 0.158455 0.812336
Si Si4 0.645956 0.845735 0.679639
Si Si5 0.219809 0.657645 0.438100
Si Si6 0.565472 0.343721 0.568790
Si Si7 0.860602 0.157786 0.675951
Si Si8 0.095724 0.838410 0.947622
O O1 0.285577 0.200829 0.865163
O O2 0.204435 0.165759 0.942908
O O3 0.343572 0.000000 0.944772
O O4 0.387643 0.254523 0.990487
O O5 0.097268 0.150935 0.808444
O O6 0.181100 0.263351 0.743875
O O7 0.221396 0.000000 0.783607
O O8 0.015213 0.217734 0.881282
O O9 0.917683 0.219052 0.745727
O O10 0.953079 0.000000 0.812331
O O11 0.569400 0.754198 0.624165
O O12 0.745762 0.857692 0.666414
O O13 0.609218 0.000000 0.683606
O O14 0.188332 0.500000 0.445041
O O15 0.250000 0.750000 0.500000
O O16 0.321933 0.645212 0.427012
O O17 0.142429 0.741884 0.379055
O O18 0.500000 0.288315 0.500000
O O19 0.529644 0.500000 0.573355
O O20 0.899288 0.000000 0.674083
O O21 0.073975 0.000000 0.952996
#
# Coordination Sequence:
#
# PCOD9190748 Si02
#       8
#     8   8   8   8   8   8   8   8
#     4   8  14  24  39  62  90 118 147 183 230 274
#     4   9  17  30  48  68  92 123 158 192 225 271
#     4   8  15  29  49  70  90 119 159 194 225 268
#     4  10  20  32  48  71  97 123 150 187 235 275
#     4  10  20  34  52  73  96 121 152 189 228 272
#     4   9  19  36  55  71  89 121 161 190 218 268
#     4   9  18  34  52  68  92 125 157 188 225 272
#     4   8  13  23  41  64  88 114 147 188 230 269
#
# _framework density 21.17858
#
# number of rings (size 3 to 8) (size 9 to 14) (size 15 to 20)
#    0.000    3.125    0.000    2.250    0.000    2.750 
#    0.000    8.125    0.000    0.750    0.000    5.250 
#    0.000    0.000    0.000    0.000    0.000    0.000 
#
# Total GULP energy -178386.470305 kJ/mol
# GULP energy per Si atom -5574.577197 kJ/mol
# Density = 2.113038 g / cm^3
# Si number density = 21.178580 Si / 1000 Ang^3
#
#
#
# Elastic Constant Matrix: (Units=GPa)
#
#
# Indices 1 2 3 4 5 6 
#
# 1 34.9557 -1.2683 -2.7685 0.0000 10.2801 0.0000
# 2 -1.2683 119.6921 122.3338 0.0000 -5.8535 0.0000
# 3 -2.7685 122.3338 237.7778 0.0000 10.9106 0.0000
# 4 0.0000 0.0000 0.0000 28.1838 0.0000 0.8750
# 5 10.2801 -5.8535 10.9106 0.0000 20.3783 0.0000
# 6 0.0000 0.0000 0.0000 0.8750 0.0000 5.1192
#
#
#
# Elastic Compliance Matrix: (Units=1/GPa)
#
#
# Indices 1 2 3 4 5 6 
#
# 1 0.034821 -0.004278 0.003556 0.000000 -0.020699 0.000000
# 2 -0.004278 0.020471 -0.011226 0.000000 0.014049 0.000000
# 3 0.003556 -0.011226 0.010511 0.000000 -0.010646 0.000000
# 4 0.000000 0.000000 0.000000 0.035671 0.000000 -0.006097
# 5 -0.020699 0.014049 -0.010646 0.000000 0.069249 0.000000
# 6 0.000000 0.000000 0.000000 -0.006097 0.000000 0.196386
#
#
# Mechanical properties :
#
#
# Convention : Reuss Voigt Hill
#
# Bulk Modulus (GPa) = 23.86227 69.89103 46.87665
# Shear Modulus (GPa) = 12.34646 29.01150 20.67898
#
# Velocity S-wave (km/s) = 2.41710 3.70517 3.12815
# Velocity P-wave (km/s) = 4.36823 7.16776 5.93541
#
# Compressibility (1/GPa) = 0.04190715
#
# Stress axis : x y z
#
# Youngs Moduli (GPa) = 28.71798 48.85077 95.13573
#
# Poissons Ratio (x) = 0.20898 -0.33832
# Poissons Ratio (y) = 0.12285 1.06802
# Poissons Ratio (z) = -0.10213 0.54841
#
# Static dielectric constant tensor:
#      x y z
#    x 1.856260 0.000000 -0.001590 
#    y 0.000000 1.769180 0.000000 
#    z -0.001590 0.000000 1.776900 
# 
# From -- ./inp_files/346206.got.cif
#   From: 2010.05.17/outbox.cif.g08.bks.cpg/sg12_174_cif.got.tgz:346206.got - 2010.06.03 13:09:07.
