data_PCOD9190467
_publ_section_title
;
Structure prediction by ZEFSAII (Michael W. Deem and Ramdas Pophale) SiO2 
 PCOD9190467
Probable space group: C 2/M
;
_chemical_formula_sum "Si O2"
_cell_formula_units_Z 64
_cell_length_a 16.723518
_cell_length_b 15.409283
_cell_length_c 16.132809
_cell_angle_alpha 90.000000
_cell_angle_beta 130.132249
_cell_angle_gamma 90.000000
_cell_volume 3178.563699
_symmetry_space_group_name_H-M "C 2/M"
_symmetry_group_IT_number 12
_symmetry_cell_setting 'monoclinic'
loop_
_space_group_symop_operation_xyz
x,y,z
-x,y,-z
-x,-y,-z
x,-y,z
1/2+x,1/2+y,z
1/2-x,1/2+y,-z
1/2-x,1/2-y,-z
1/2+x,1/2-y,z
loop_
_atom_site_type_symbol
_atom_site_label
_atom_site_fract_x
_atom_site_fract_y
_atom_site_fract_z
Si Si1 0.824061 0.602430 0.193144
Si Si2 0.079795 0.899043 0.976539
Si Si3 0.763969 0.398677 0.648697
Si Si4 0.036955 0.158712 0.438378
Si Si5 0.675993 0.597858 0.760336
Si Si6 0.642764 0.198328 0.428837
Si Si7 0.640804 0.267185 0.881976
Si Si8 0.624858 0.096711 0.586440
O O1 0.857634 0.500000 0.208394
O O2 0.700187 0.604903 0.089342
O O3 0.882978 0.671834 0.173367
O O4 0.842010 0.630784 0.301030
O O5 0.063826 0.000000 0.935570
O O6 0.070237 0.823974 0.899447
O O7 0.000000 0.885749 0.000000
O O8 0.783039 0.500000 0.664358
O O9 0.649676 0.383505 0.530049
O O10 0.747935 0.369211 0.732556
O O11 0.852368 0.355450 0.651793
O O12 0.051767 0.231640 0.379010
O O13 0.000000 0.202098 0.500000
O O14 0.943105 0.095596 0.353684
O O15 0.706690 0.500000 0.804939
O O16 0.670665 0.665865 0.829465
O O17 0.750000 0.250000 0.500000
O O18 0.650975 0.145624 0.519668
O O19 0.750000 0.250000 0.000000
O O20 0.500000 0.090671 0.500000
O O21 0.671026 0.000000 0.612132
#
# Coordination Sequence:
#
# PCOD9190467 Si02
#       8
#     8   8   8   8   8   8   8   8
#     4   9  20  37  59  84 113 151 193 238 285 336
#     4   9  18  38  62  89 121 144 177 236 301 354
#     4   9  18  33  50  74 113 150 180 224 275 327
#     4   9  18  31  50  76 108 145 181 226 271 324
#     4  10  20  35  58  84 109 144 187 226 277 343
#     4  10  20  31  48  76 113 150 183 228 276 325
#     4  10  21  36  59  85 109 142 184 234 283 343
#     4  10  21  36  55  76 107 154 202 240 271 323
#
# _framework density 20.134879999999999
#
# number of rings (size 3 to 8) (size 9 to 14) (size 15 to 20)
#    0.000    2.500    0.000    1.500    7.000    2.000 
#    4.500    0.000    0.000    0.375    0.000    0.000 
#    0.000    0.000    0.000    0.000    0.000    0.000 
#
# Total GULP energy -178239.502678 kJ/mol
# GULP energy per Si atom -5569.984459 kJ/mol
# Density = 2.008905 g / cm^3
# Si number density = 20.134880 Si / 1000 Ang^3
#
#
#
# Elastic Constant Matrix: (Units=GPa)
#
#
# Indices 1 2 3 4 5 6 
#
# 1 103.2954 65.2687 27.5456 0.0000 -34.7536 0.0000
# 2 65.2687 106.5239 35.0321 0.0000 -35.1909 0.0000
# 3 27.5456 35.0321 49.1576 0.0000 -21.9562 0.0000
# 4 0.0000 0.0000 0.0000 19.6771 0.0000 2.9321
# 5 -34.7536 -35.1909 -21.9562 0.0000 33.7583 0.0000
# 6 0.0000 0.0000 0.0000 2.9321 0.0000 15.0113
#
#
#
# Elastic Compliance Matrix: (Units=1/GPa)
#
#
# Indices 1 2 3 4 5 6 
#
# 1 0.018037 -0.007510 0.000059 0.000000 0.010778 0.000000
# 2 -0.007510 0.018369 -0.005332 0.000000 0.007949 0.000000
# 3 0.000059 -0.005332 0.030520 0.000000 0.014353 0.000000
# 4 0.000000 0.000000 0.000000 0.052344 0.000000 -0.010224
# 5 0.010778 0.007949 0.014353 0.000000 0.058339 0.000000
# 6 0.000000 0.000000 0.000000 -0.010224 0.000000 0.068614
#
#
# Mechanical properties :
#
#
# Convention : Reuss Voigt Hill
#
# Bulk Modulus (GPa) = 24.17795 57.18553 40.68174
# Shear Modulus (GPa) = 17.50856 22.43138 19.96997
#
# Velocity S-wave (km/s) = 2.95204 3.34137 3.15272
# Velocity P-wave (km/s) = 4.86348 6.58401 5.78803
#
# Compressibility (1/GPa) = 0.04136000
#
# Stress axis : x y z
#
# Youngs Moduli (GPa) = 55.44144 54.44094 32.76554
#
# Poissons Ratio (x) = 0.40887 -0.00194
# Poissons Ratio (y) = 0.41639 0.17469
# Poissons Ratio (z) = -0.00328 0.29026
#
# Static dielectric constant tensor:
#      x y z
#    x 1.721510 0.000000 -0.031160 
#    y 0.000000 1.776980 0.000000 
#    z -0.031160 0.000000 1.746910 
# 
# From -- ./inp_files/225315.got.cif
#   From: 2010.05.17/outbox.cif.g08.bks.cpg/sg12_113_cif.got.tgz:225315.got - 2010.06.03 13:09:07.
