data_PCOD9190836
_publ_section_title
;
Structure prediction by ZEFSAII (Michael W. Deem and Ramdas Pophale) SiO2 
 PCOD9190836
Probable space group: C 2/M
;
_chemical_formula_sum "Si O2"
_cell_formula_units_Z 56
_cell_length_a 19.205154
_cell_length_b 8.920351
_cell_length_c 19.706537
_cell_angle_alpha 90.000000
_cell_angle_beta 59.278131
_cell_angle_gamma 90.000000
_cell_volume 2902.254058
_symmetry_space_group_name_H-M "C 2/M"
_symmetry_group_IT_number 12
_symmetry_cell_setting 'monoclinic'
loop_
_space_group_symop_operation_xyz
x,y,z
-x,y,-z
-x,-y,-z
x,-y,z
1/2+x,1/2+y,z
1/2-x,1/2+y,-z
1/2-x,1/2-y,-z
1/2+x,1/2-y,z
loop_
_atom_site_type_symbol
_atom_site_label
_atom_site_fract_x
_atom_site_fract_y
_atom_site_fract_z
Si Si1 0.917515 0.178030 0.746895
Si Si2 0.750947 0.676580 0.826522
Si Si3 0.942439 0.678320 0.230778
Si Si4 0.322979 0.178495 0.504043
Si Si5 0.429602 0.680136 0.088581
Si Si6 0.502071 0.180682 0.418565
Si Si7 0.725708 0.324028 0.678932
O O1 0.828019 0.231886 0.813251
O O2 0.986293 0.248311 0.760862
O O3 0.935346 0.239431 0.662081
O O4 0.922786 0.000000 0.745409
O O5 0.763773 0.500000 0.833849
O O6 0.660117 0.719627 0.894740
O O7 0.745708 0.697180 0.747608
O O8 0.949240 0.500000 0.230435
O O9 0.945291 0.737372 0.151801
O O10 0.853340 0.728870 0.300498
O O11 0.250000 0.250000 0.500000
O O12 0.412144 0.228103 0.439257
O O13 0.301816 0.209622 0.593250
O O14 0.321612 0.000000 0.495836
O O15 0.427719 0.500000 0.102760
O O16 0.500000 0.711660 0.000000
O O17 0.500000 0.212679 0.500000
O O18 0.512350 0.000000 0.406603
O O19 0.705412 0.500000 0.679582
#
# Coordination Sequence:
#
# PCOD9190836 Si02
#       7
#     8   8   8   8   8   8   8
#     4  12  24  37  54  79 113 150 192 236 276 324
#     4   9  18  35  59  83 108 141 179 219 269 328
#     4  11  22  36  57  84 114 149 188 228 274 327
#     4  10  20  32  49  73 100 134 176 225 278 328
#     4   9  19  39  66  92 117 144 175 216 270 331
#     4  10  21  38  57  76 103 143 189 235 286 336
#     4   9  18  35  56  77 104 140 183 229 278 332
#
# _framework density 19.295345999999999
#
# number of rings (size 3 to 8) (size 9 to 14) (size 15 to 20)
#    0.000    2.000    0.000    5.143    0.000    8.571 
#    0.000    2.143    0.000    0.000    0.000    0.000 
#    0.000    0.000    0.000    0.000    0.000    0.000 
#
# Total GULP energy -156352.638647 kJ/mol
# GULP energy per Si atom -5584.022809 kJ/mol
# Density = 1.925143 g / cm^3
# Si number density = 19.295346 Si / 1000 Ang^3
#
#
#
# Elastic Constant Matrix: (Units=GPa)
#
#
# Indices 1 2 3 4 5 6 
#
# 1 104.3380 55.5671 27.0710 0.0000 -23.6416 0.0001
# 2 55.5671 73.1349 29.4352 0.0000 -12.0988 0.0001
# 3 27.0710 29.4352 72.0547 0.0000 -27.5034 0.0000
# 4 0.0000 0.0000 0.0000 22.6615 0.0000 -2.5635
# 5 -23.6416 -12.0988 -27.5034 0.0000 31.2567 0.0000
# 6 0.0001 0.0001 0.0000 -2.5635 0.0000 30.2481
#
#
#
# Elastic Compliance Matrix: (Units=1/GPa)
#
#
# Indices 1 2 3 4 5 6 
#
# 1 0.018518 -0.013327 0.002807 0.000000 0.011318 0.000000
# 2 -0.013327 0.025965 -0.008449 0.000000 -0.007464 0.000000
# 3 0.002807 -0.008449 0.023847 0.000000 0.019836 0.000000
# 4 0.000000 0.000000 0.000000 0.044555 0.000000 0.003776
# 5 0.011318 -0.007464 0.019836 0.000000 0.055118 0.000000
# 6 0.000000 0.000000 0.000000 0.003776 0.000000 0.033380
#
#
# Mechanical properties :
#
#
# Convention : Reuss Voigt Hill
#
# Bulk Modulus (GPa) = 32.90420 52.63045 42.76732
# Shear Modulus (GPa) = 20.04393 25.99687 23.02040
#
# Velocity S-wave (km/s) = 3.22653 3.67456 3.45781
# Velocity P-wave (km/s) = 5.56513 6.73340 6.17694
#
# Compressibility (1/GPa) = 0.03039126
#
# Stress axis : x y z
#
# Youngs Moduli (GPa) = 54.00126 38.51329 41.93450
#
# Poissons Ratio (x) = 0.51328 -0.11772
# Poissons Ratio (y) = 0.71969 0.35431
# Poissons Ratio (z) = -0.15159 0.32540
#
# Static dielectric constant tensor:
#      x y z
#    x 1.707180 0.000000 -0.016070 
#    y 0.000000 1.643590 0.000000 
#    z -0.016070 0.000000 1.697630 
# 
# From -- ./inp_files/313808.got.cif
#   From: 2010.05.17/outbox.cif.g08.bks.cpg/sg12_157_cif.got.tgz:313808.got - 2010.06.03 13:09:07.
