data_PCOD9190290
_publ_section_title
;
Structure prediction by ZEFSAII (Michael W. Deem and Ramdas Pophale) SiO2 
 PCOD9190290
Probable space group: C 2/M
;
_chemical_formula_sum "Si O2"
_cell_formula_units_Z 48
_cell_length_a 24.467429
_cell_length_b 15.058756
_cell_length_c 8.599668
_cell_angle_alpha 90.000000
_cell_angle_beta 86.653479
_cell_angle_gamma 90.000000
_cell_volume 3163.136291
_symmetry_space_group_name_H-M "C 2/M"
_symmetry_group_IT_number 12
_symmetry_cell_setting 'monoclinic'
loop_
_space_group_symop_operation_xyz
x,y,z
-x,y,-z
-x,-y,-z
x,-y,z
1/2+x,1/2+y,z
1/2-x,1/2+y,-z
1/2-x,1/2-y,-z
1/2+x,1/2-y,z
loop_
_atom_site_type_symbol
_atom_site_label
_atom_site_fract_x
_atom_site_fract_y
_atom_site_fract_z
Si Si1 0.258631 0.500000 0.553998
Si Si2 0.756143 0.177052 0.365275
Si Si3 0.304508 0.306630 0.036314
Si Si4 0.440346 0.897690 0.568252
Si Si5 0.641969 0.176005 0.191203
Si Si6 0.780656 0.000000 0.905545
Si Si7 0.629112 0.000000 0.647263
Si Si8 0.348845 0.000000 0.009245
O O1 0.270278 0.586142 0.449628
O O2 0.287880 0.500000 0.717306
O O3 0.193241 0.500000 0.598040
O O4 0.750000 0.250000 0.500000
O O5 0.697354 0.170608 0.286818
O O6 0.801069 0.197173 0.224054
O O7 0.351335 0.257005 0.930255
O O8 0.301036 0.408433 0.979672
O O9 0.250000 0.250000 0.000000
O O10 0.500000 0.870905 0.500000
O O11 0.410542 0.830731 0.689017
O O12 0.399773 0.916223 0.430071
O O13 0.445753 0.000000 0.633997
O O14 0.639659 0.087166 0.090257
O O15 0.715667 0.000000 0.944365
O O16 0.621041 0.000000 0.831469
#
# Coordination Sequence:
#
# PCOD9190290 Si02
#       8
#     4   8   8   8   8   4   4   4
#     4  11  18  28  45  64  93 124 157 185 231 266
#     4  11  20  29  44  66  91 123 160 192 221 277
#     4  10  20  30  44  63  93 122 160 188 231 277
#     4   9  17  33  49  67  93 124 161 198 241 279
#     4  11  19  32  44  68  90 131 156 192 238 279
#     4  11  19  32  43  67  95 129 160 189 225 282
#     4   9  18  27  46  72  90 127 160 192 232 281
#     4  11  18  27  49  65 101 129 158 191 231 281
#
# _framework density 15.174813
#
# number of rings (size 3 to 8) (size 9 to 14) (size 15 to 20)
#    0.500    1.167    5.833    3.000    2.333    0.000 
#    0.000    1.667    0.000    0.000    0.000    0.583 
#    0.000    0.000    0.000    7.583    0.000    0.250 
#
# Total GULP energy -133606.203247 kJ/mol
# GULP energy per Si atom -5566.925135 kJ/mol
# Density = 1.514027 g / cm^3
# Si number density = 15.174813 Si / 1000 Ang^3
#
#
#
# Elastic Constant Matrix: (Units=GPa)
#
#
# Indices 1 2 3 4 5 6 
#
# 1 33.0839 12.5867 36.5525 0.0000 -16.1442 0.0000
# 2 12.5867 111.9404 64.1172 0.0000 -1.4241 0.0000
# 3 36.5525 64.1172 145.2665 0.0000 -4.8172 0.0000
# 4 0.0000 0.0000 0.0000 26.8692 0.0000 -8.7058
# 5 -16.1442 -1.4241 -4.8172 0.0000 22.7313 0.0000
# 6 0.0000 0.0000 0.0000 -8.7058 0.0000 10.1179
#
#
#
# Elastic Compliance Matrix: (Units=1/GPa)
#
#
# Indices 1 2 3 4 5 6 
#
# 1 0.071971 0.002653 -0.017704 0.000000 0.047529 0.000000
# 2 0.002653 0.012057 -0.005943 0.000000 0.001380 0.000000
# 3 -0.017704 -0.005943 0.013628 0.000000 -0.010058 0.000000
# 4 0.000000 0.000000 0.000000 0.051603 0.000000 0.044401
# 5 0.047529 0.001380 -0.010058 0.000000 0.075703 0.000000
# 6 0.000000 0.000000 0.000000 0.044401 0.000000 0.137039
#
#
# Mechanical properties :
#
#
# Convention : Reuss Voigt Hill
#
# Bulk Modulus (GPa) = 17.96419 57.42264 37.69341
# Shear Modulus (GPa) = 11.83302 23.74599 17.78951
#
# Velocity S-wave (km/s) = 2.79548 3.96008 3.42761
# Velocity P-wave (km/s) = 4.72054 7.67024 6.36852
#
# Compressibility (1/GPa) = 0.05566630
#
# Stress axis : x y z
#
# Youngs Moduli (GPa) = 13.89456 82.94055 73.37587
#
# Poissons Ratio (x) = -0.22004 1.29907
# Poissons Ratio (y) = -0.03686 0.43610
# Poissons Ratio (z) = 0.24599 0.49295
#
# Static dielectric constant tensor:
#      x y z
#    x 1.490880 0.000000 0.002600 
#    y 0.000000 1.582470 0.000000 
#    z 0.002600 0.000000 1.546190 
# 
# From -- ./inp_files/103673.got.cif
#   From: 2010.05.17/outbox.cif.g08.bks.cpg/sg12_52_cif.got.tgz:103673.got - 2010.06.03 13:09:07.
