data_PCOD9190322
_publ_section_title
;
Structure prediction by ZEFSAII (Michael W. Deem and Ramdas Pophale) SiO2 
 PCOD9190322
Probable space group: C 2/M
;
_chemical_formula_sum "Si O2"
_cell_formula_units_Z 64
_cell_length_a 25.612269
_cell_length_b 8.492684
_cell_length_c 17.218860
_cell_angle_alpha 90.000000
_cell_angle_beta 104.114814
_cell_angle_gamma 90.000000
_cell_volume 3632.315989
_symmetry_space_group_name_H-M "C 2/M"
_symmetry_group_IT_number 12
_symmetry_cell_setting 'monoclinic'
loop_
_space_group_symop_operation_xyz
x,y,z
-x,y,-z
-x,-y,-z
x,-y,z
1/2+x,1/2+y,z
1/2-x,1/2+y,-z
1/2-x,1/2-y,-z
1/2+x,1/2-y,z
loop_
_atom_site_type_symbol
_atom_site_label
_atom_site_fract_x
_atom_site_fract_y
_atom_site_fract_z
Si Si1 0.163815 0.309580 0.996056
Si Si2 0.119715 0.811864 0.220676
Si Si3 0.665505 0.190503 0.820999
Si Si4 0.561946 0.186544 0.689077
Si Si5 0.440849 0.309595 0.647525
Si Si6 0.777093 0.688552 0.828121
Si Si7 0.565242 0.680734 0.525027
Si Si8 0.941980 0.310155 0.949090
O O1 0.168759 0.500000 0.995640
O O2 0.171874 0.250641 0.911992
O O3 0.203080 0.253115 0.079009
O O4 0.103855 0.273408 0.004328
O O5 0.096258 0.756908 0.294725
O O6 0.176950 0.741664 0.215208
O O7 0.077378 0.763775 0.138449
O O8 0.124538 0.000000 0.224310
O O9 0.609053 0.243386 0.763461
O O10 0.717677 0.246374 0.792978
O O11 0.664854 0.000000 0.821662
O O12 0.503047 0.260097 0.681408
O O13 0.579709 0.224572 0.607201
O O14 0.556245 0.000000 0.696401
O O15 0.440265 0.500000 0.644369
O O16 0.420653 0.254776 0.555166
O O17 0.723924 0.000000 0.170801
O O18 0.500000 0.676624 0.500000
O O19 0.584065 0.500000 0.539898
O O20 0.942764 0.500000 0.939452
O O21 0.000000 0.258540 0.000000
#
# Coordination Sequence:
#
# PCOD9190322 Si02
#       8
#     8   8   8   8   8   8   8   8
#     4   8  16  31  48  69  95 128 168 203 240 289
#     4  10  20  34  52  73  99 129 167 209 248 293
#     4  10  20  33  50  72 101 132 164 205 251 293
#     4  10  20  30  48  79 107 130 161 203 250 295
#     4   9  19  34  52  74 101 135 167 198 242 302
#     4  10  20  35  53  72  95 128 173 212 249 292
#     4   8  15  31  51  69  98 135 164 194 243 300
#     4   9  18  31  49  70 100 136 167 201 245 293
#
# _framework density 17.619612
#
# number of rings (size 3 to 8) (size 9 to 14) (size 15 to 20)
#    0.000    2.750    0.000    3.000    1.750    4.500 
#    0.000    2.500    0.000    0.750    0.000    0.000 
#    0.000    0.000    0.000    0.000    0.000    0.000 
#
# Total GULP energy -178347.152549 kJ/mol
# GULP energy per Si atom -5573.348517 kJ/mol
# Density = 1.757951 g / cm^3
# Si number density = 17.619612 Si / 1000 Ang^3
#
#
#
# Elastic Constant Matrix: (Units=GPa)
#
#
# Indices 1 2 3 4 5 6 
#
# 1 57.5278 5.1465 42.0111 0.0000 -7.9155 0.0000
# 2 5.1465 12.5122 9.0483 0.0000 -1.3825 0.0000
# 3 42.0111 9.0483 81.4588 0.0000 -29.2374 0.0000
# 4 0.0000 0.0000 0.0000 21.9005 0.0000 -1.0437
# 5 -7.9155 -1.3825 -29.2374 0.0000 22.1402 0.0000
# 6 0.0000 0.0000 0.0000 -1.0437 0.0000 19.6652
#
#
#
# Elastic Compliance Matrix: (Units=1/GPa)
#
#
# Indices 1 2 3 4 5 6 
#
# 1 0.031831 0.001895 -0.023763 0.000000 -0.019882 0.000000
# 2 0.001895 0.089331 -0.016453 0.000000 -0.015472 0.000000
# 3 -0.023763 -0.016453 0.043612 0.000000 0.048069 0.000000
# 4 0.000000 0.000000 0.000000 0.045777 0.000000 0.002430
# 5 -0.019882 -0.015472 0.048069 0.000000 0.100571 0.000000
# 6 0.000000 0.000000 0.000000 0.002430 0.000000 0.050980
#
#
# Mechanical properties :
#
#
# Convention : Reuss Voigt Hill
#
# Bulk Modulus (GPa) = 11.34657 29.32339 20.33498
# Shear Modulus (GPa) = 10.68095 19.09405 14.88750
#
# Velocity S-wave (km/s) = 2.46478 3.29550 2.90994
# Velocity P-wave (km/s) = 3.81496 5.58203 4.78084
#
# Compressibility (1/GPa) = 0.08813238
#
# Stress axis : x y z
#
# Youngs Moduli (GPa) = 31.41567 11.19427 22.92932
#
# Poissons Ratio (x) = -0.02121 0.54487
# Poissons Ratio (y) = -0.05952 0.37726
# Poissons Ratio (z) = 0.74653 0.18418
#
# Static dielectric constant tensor:
#      x y z
#    x 1.585120 0.000000 -0.013040 
#    y 0.000000 1.603170 0.000000 
#    z -0.013040 0.000000 1.622880 
# 
# From -- ./inp_files/244112.got.cif
#   From: 2010.05.17/outbox.cif.g08.bks.cpg/sg12_123_cif.got.tgz:244112.got - 2010.06.03 13:09:07.
