data_PCOD9190172
_publ_section_title
;
Structure prediction by ZEFSAII (Michael W. Deem and Ramdas Pophale) SiO2 
 PCOD9190172
Probable space group: C 2/M
;
_chemical_formula_sum "Si O2"
_cell_formula_units_Z 64
_cell_length_a 27.460975
_cell_length_b 27.283294
_cell_length_c 9.035500
_cell_angle_alpha 90.000000
_cell_angle_beta 154.878382
_cell_angle_gamma 90.000000
_cell_volume 2873.986041
_symmetry_space_group_name_H-M "C 2/M"
_symmetry_group_IT_number 12
_symmetry_cell_setting 'monoclinic'
loop_
_space_group_symop_operation_xyz
x,y,z
-x,y,-z
-x,-y,-z
x,-y,z
1/2+x,1/2+y,z
1/2-x,1/2+y,-z
1/2-x,1/2-y,-z
1/2+x,1/2-y,z
loop_
_atom_site_type_symbol
_atom_site_label
_atom_site_fract_x
_atom_site_fract_y
_atom_site_fract_z
Si Si1 0.816216 0.107634 0.786698
Si Si2 0.157721 0.559440 0.599184
Si Si3 0.952166 0.557815 0.213966
Si Si4 0.219903 0.685426 0.281331
Si Si5 0.824501 0.945498 0.536664
Si Si6 0.426277 0.754300 0.925437
Si Si7 0.020266 0.821825 0.404577
Si Si8 0.718964 0.623090 0.818935
O O1 0.723603 0.085730 0.645606
O O2 0.761165 0.146982 0.520906
O O3 0.863698 0.065258 0.809887
O O4 0.924435 0.135592 0.152743
O O5 0.168685 0.500000 0.613972
O O6 0.024445 0.573542 0.267947
O O7 0.217800 0.581123 0.913120
O O8 0.978940 0.500000 0.292806
O O9 0.000000 0.579415 0.500000
O O10 0.815076 0.560419 0.835750
O O11 0.313304 0.729420 0.541959
O O12 0.106196 0.708713 0.034631
O O13 0.212349 0.659316 0.102219
O O14 0.862674 0.905510 0.522683
O O15 0.851339 0.000000 0.561817
O O16 0.500000 0.778141 0.000000
O O17 0.494205 0.709921 0.188335
O O18 0.000000 0.792335 0.500000
O O19 0.144969 0.844255 0.725545
#
# Coordination Sequence:
#
# PCOD9190172 Si02
#       8
#     8   8   8   8   8   8   8   8
#     4  10  22  38  57  87 126 154 204 256 301 358
#     4  11  21  36  59  88 127 171 207 249 300 353
#     4   9  17  32  54  77 106 153 204 246 300 356
#     4   9  21  38  61  91 114 155 200 253 306 364
#     4  10  20  36  58  84 118 161 209 256 302 357
#     4  10  19  40  67  86 116 153 199 245 315 382
#     4  11  22  40  63  88 118 166 201 246 312 370
#     4  11  20  37  61  89 121 163 207 252 295 361
#
# _framework density 22.268723000000001
#
# number of rings (size 3 to 8) (size 9 to 14) (size 15 to 20)
#    0.000    1.875    3.750    0.750    0.000    0.500 
#    4.500    7.500    0.000    0.000    0.000    0.000 
#    0.000    0.000    0.000    0.000    0.000    0.000 
#
# Total GULP energy -178457.958719 kJ/mol
# GULP energy per Si atom -5576.811210 kJ/mol
# Density = 2.221804 g / cm^3
# Si number density = 22.268723 Si / 1000 Ang^3
#
#
#
# Elastic Constant Matrix: (Units=GPa)
#
#
# Indices 1 2 3 4 5 6 
#
# 1 136.6957 18.4618 9.7076 0.0000 18.2420 0.0000
# 2 18.4618 48.1657 -1.9485 0.0000 13.0370 0.0000
# 3 9.7076 -1.9485 28.0032 0.0000 7.6007 0.0000
# 4 0.0000 0.0000 0.0000 8.9839 0.0000 5.7880
# 5 18.2420 13.0370 7.6007 0.0000 29.2439 0.0000
# 6 0.0000 0.0000 0.0000 5.7880 0.0000 33.4893
#
#
#
# Elastic Compliance Matrix: (Units=1/GPa)
#
#
# Indices 1 2 3 4 5 6 
#
# 1 0.008248 -0.002268 -0.002039 0.000000 -0.003604 0.000000
# 2 -0.002268 0.024861 0.005530 0.000000 -0.011105 0.000000
# 3 -0.002039 0.005530 0.039944 0.000000 -0.011575 0.000000
# 4 0.000000 0.000000 0.000000 0.125257 0.000000 -0.021648
# 5 -0.003604 -0.011105 -0.011575 0.000000 0.044402 0.000000
# 6 0.000000 0.000000 0.000000 -0.021648 0.000000 0.033602
#
#
# Mechanical properties :
#
#
# Convention : Reuss Voigt Hill
#
# Bulk Modulus (GPa) = 13.24531 29.47847 21.36189
# Shear Modulus (GPa) = 16.72057 26.78634 21.75346
#
# Velocity S-wave (km/s) = 2.74315 3.47200 3.12887
# Velocity P-wave (km/s) = 3.99925 5.41659 4.76096
#
# Compressibility (1/GPa) = 0.07549845
#
# Stress axis : x y z
#
# Youngs Moduli (GPa) = 121.24783 40.22404 25.03528
#
# Poissons Ratio (x) = 0.09124 0.05104
# Poissons Ratio (y) = 0.27504 -0.13846
# Poissons Ratio (z) = 0.24720 -0.22246
#
# Static dielectric constant tensor:
#      x y z
#    x 1.849460 0.000000 -0.000220 
#    y 0.000000 1.845230 0.000000 
#    z -0.000220 0.000000 1.854490 
# 
# From -- ./inp_files/100234.got.cif
#   From: 2010.05.17/outbox.cif.g08.bks.cpg/sg12_51_cif.got.tgz:100234.got - 2010.06.03 13:09:07.
