data_PCOD9190483
_publ_section_title
;
Structure prediction by ZEFSAII (Michael W. Deem and Ramdas Pophale) SiO2 
 PCOD9190483
Probable space group: C 2/M
;
_chemical_formula_sum "Si O2"
_cell_formula_units_Z 56
_cell_length_a 16.103846
_cell_length_b 19.464266
_cell_length_c 15.677309
_cell_angle_alpha 90.000000
_cell_angle_beta 32.252010
_cell_angle_gamma 90.000000
_cell_volume 2622.351713
_symmetry_space_group_name_H-M "C 2/M"
_symmetry_group_IT_number 12
_symmetry_cell_setting 'monoclinic'
loop_
_space_group_symop_operation_xyz
x,y,z
-x,y,-z
-x,-y,-z
x,-y,z
1/2+x,1/2+y,z
1/2-x,1/2+y,-z
1/2-x,1/2-y,-z
1/2+x,1/2-y,z
loop_
_atom_site_type_symbol
_atom_site_label
_atom_site_fract_x
_atom_site_fract_y
_atom_site_fract_z
Si Si1 0.019781 0.711219 0.173343
Si Si2 0.938889 0.079393 0.735929
Si Si3 0.698699 0.422182 0.644621
Si Si4 0.160526 0.224362 0.213694
Si Si5 0.047991 0.421355 0.369093
Si Si6 0.846429 0.796431 0.192752
Si Si7 0.354586 0.078788 0.884927
O O1 0.039267 0.743420 0.250878
O O2 0.022714 0.629404 0.179011
O O3 0.882568 0.743889 0.238598
O O4 0.178651 0.724456 0.981191
O O5 0.892973 0.145957 0.719938
O O6 0.097987 0.093329 0.648582
O O7 0.939475 0.000000 0.701672
O O8 0.805973 0.081789 0.924849
O O9 0.655936 0.500000 0.707673
O O10 0.881767 0.421578 0.466328
O O11 0.670995 0.369515 0.745654
O O12 0.204441 0.267291 0.259536
O O13 0.096552 0.500000 0.347487
O O14 0.000000 0.388285 0.500000
O O15 0.167787 0.396740 0.193709
O O16 0.000000 0.798704 0.000000
O O17 0.404055 0.000000 0.840512
#
# Coordination Sequence:
#
# PCOD9190483 Si02
#       7
#     8   8   8   8   8   8   8
#     4   9  17  31  48  71 102 135 172 207 251 307
#     4   9  17  32  55  79  99 128 175 218 250 294
#     4  10  20  33  50  76 106 131 168 214 253 302
#     4   9  17  30  49  72 105 138 161 207 263 304
#     4   9  19  33  46  68 105 139 165 201 257 313
#     4  10  20  31  49  76 105 138 170 207 259 309
#     4   9  18  32  52  72  96 136 171 205 251 301
#
# _framework density 21.354879
#
# number of rings (size 3 to 8) (size 9 to 14) (size 15 to 20)
#    0.000    2.714    1.429    0.000    4.000    0.286 
#    0.000    1.429    0.000    4.286    0.000    0.000 
#    0.000    4.571    0.000    0.000    0.000    0.000 
#
# Total GULP energy -156000.048473 kJ/mol
# GULP energy per Si atom -5571.430303 kJ/mol
# Density = 2.130627 g / cm^3
# Si number density = 21.354879 Si / 1000 Ang^3
#
#
#
# Elastic Constant Matrix: (Units=GPa)
#
#
# Indices 1 2 3 4 5 6 
#
# 1 86.0966 34.5734 -1.6875 -0.0047 -9.7924 0.0011
# 2 34.5734 79.9504 0.1466 -0.0170 -10.6937 0.0062
# 3 -1.6875 0.1466 9.1256 -0.0018 0.6214 -0.0011
# 4 -0.0047 -0.0170 -0.0018 12.8745 -0.0055 3.8558
# 5 -9.7924 -10.6937 0.6214 -0.0055 14.0521 0.0039
# 6 0.0011 0.0062 -0.0011 3.8558 0.0039 33.4072
#
#
#
# Elastic Compliance Matrix: (Units=1/GPa)
#
#
# Indices 1 2 3 4 5 6 
#
# 1 0.014538 -0.005511 0.002380 0.000001 0.005832 0.000000
# 2 -0.005511 0.016022 -0.001851 0.000025 0.008435 -0.000007
# 3 0.002380 -0.001851 0.110367 0.000011 -0.004631 0.000003
# 4 0.000001 0.000025 0.000011 0.080454 0.000053 -0.009286
# 5 0.005832 0.008435 -0.004631 0.000053 0.081851 -0.000018
# 6 0.000000 -0.000007 0.000003 -0.009286 -0.000018 0.031005
#
#
# Mechanical properties :
#
#
# Convention : Reuss Voigt Hill
#
# Bulk Modulus (GPa) = 7.63573 26.80417 17.21995
# Shear Modulus (GPa) = 12.89135 21.54277 17.21706
#
# Velocity S-wave (km/s) = 2.45964 3.17960 2.84251
# Velocity P-wave (km/s) = 3.41319 5.10479 4.34216
#
# Compressibility (1/GPa) = 0.13096332
#
# Stress axis : x y z
#
# Youngs Moduli (GPa) = 68.78609 62.41229 9.06065
#
# Poissons Ratio (x) = 0.34395 -0.02156
# Poissons Ratio (y) = 0.37908 0.01677
# Poissons Ratio (z) = -0.16369 0.11552
#
# Static dielectric constant tensor:
#      x y z
#    x 1.807020 0.000000 0.001730 
#    y 0.000000 1.844320 0.000000 
#    z 0.001730 0.000000 1.781810 
# 
# From -- ./inp_files/217642.got.cif
#   From: 2010.05.17/outbox.cif.g08.bks.cpg/sg12_109_cif.got.tgz:217642.got - 2010.06.03 13:09:07.
