data_PCOD9190343
_publ_section_title
;
Structure prediction by ZEFSAII (Michael W. Deem and Ramdas Pophale) SiO2 
 PCOD9190343
Probable space group: C 2/M
;
_chemical_formula_sum "Si O2"
_cell_formula_units_Z 56
_cell_length_a 9.987713
_cell_length_b 28.584914
_cell_length_c 18.898329
_cell_angle_alpha 90.000000
_cell_angle_beta 33.758511
_cell_angle_gamma 90.000000
_cell_volume 2998.208645
_symmetry_space_group_name_H-M "C 2/M"
_symmetry_group_IT_number 12
_symmetry_cell_setting 'monoclinic'
loop_
_space_group_symop_operation_xyz
x,y,z
-x,y,-z
-x,-y,-z
x,-y,z
1/2+x,1/2+y,z
1/2-x,1/2+y,-z
1/2-x,1/2-y,-z
1/2+x,1/2-y,z
loop_
_atom_site_type_symbol
_atom_site_label
_atom_site_fract_x
_atom_site_fract_y
_atom_site_fract_z
Si Si1 0.629694 0.896934 0.117361
Si Si2 0.674525 0.296625 0.491957
Si Si3 0.889781 0.128207 0.707159
Si Si4 0.831444 0.945469 0.504506
Si Si5 0.913098 0.372042 0.713194
Si Si6 0.448094 0.397427 0.834296
Si Si7 0.759801 0.500000 0.921665
Si Si8 0.786869 0.000000 0.892563
O O1 0.372774 0.876483 0.210510
O O2 0.711043 0.873370 0.154817
O O3 0.604677 0.951741 0.149644
O O4 0.789897 0.893941 0.975851
O O5 0.500000 0.289518 0.500000
O O6 0.750000 0.250000 0.500000
O O7 0.526823 0.328975 0.611249
O O8 0.914825 0.326737 0.367712
O O9 0.870261 0.131916 0.800132
O O10 0.035449 0.082099 0.617151
O O11 0.592647 0.916143 0.626266
O O12 0.000000 0.942264 0.500000
O O13 0.788274 0.000000 0.508028
O O14 0.711304 0.380343 0.742467
O O15 0.414646 0.450842 0.819827
O O16 0.500000 0.500000 0.000000
O O17 0.704246 0.500000 0.027784
O O18 0.500000 0.000000 0.000000
#
# Coordination Sequence:
#
# PCOD9190343 Si02
#       8
#     8   8   8   8   8   8   4   4
#     4  11  20  38  59  87 134 173 213 251 297 370
#     4  11  25  47  75  95 116 153 206 270 330 395
#     4  11  22  40  62  92 122 162 214 253 319 375
#     4  10  21  36  57  83 117 168 209 256 310 360
#     4  11  22  40  62  92 126 158 214 259 317 376
#     4  11  24  34  60  94 132 176 210 261 300 358
#     4  10  20  30  52  85 120 176 224 243 271 340
#     4  10  20  38  48  81 134 184 228 235 283 344
#
# _framework density 18.677820000000001
#
# number of rings (size 3 to 8) (size 9 to 14) (size 15 to 20)
#    0.000    1.286    2.857    5.143    6.000    1.714 
#    0.000    0.714    0.000    5.143    0.000    0.000 
#    0.000    0.000    0.000    0.000    0.000    0.000 
#
# Total GULP energy -156131.383595 kJ/mol
# GULP energy per Si atom -5576.120843 kJ/mol
# Density = 1.863531 g / cm^3
# Si number density = 18.677820 Si / 1000 Ang^3
#
#
#
# Elastic Constant Matrix: (Units=GPa)
#
#
# Indices 1 2 3 4 5 6 
#
# 1 120.7532 43.6433 14.5027 -0.0001 4.1429 0.0000
# 2 43.6433 124.1799 35.5082 0.0000 0.5469 0.0000
# 3 14.5027 35.5082 54.6054 -0.0001 4.1826 0.0000
# 4 -0.0001 0.0000 -0.0001 12.4448 0.0001 -2.8397
# 5 4.1429 0.5469 4.1826 0.0001 25.8045 0.0000
# 6 0.0000 0.0000 0.0000 -2.8397 0.0000 20.5421
#
#
#
# Elastic Compliance Matrix: (Units=1/GPa)
#
#
# Indices 1 2 3 4 5 6 
#
# 1 0.009545 -0.003261 -0.000306 0.000000 -0.001414 0.000000
# 2 -0.003261 0.011024 -0.006404 0.000000 0.001328 0.000000
# 3 -0.000306 -0.006404 0.022828 0.000000 -0.003515 0.000000
# 4 0.000000 0.000000 0.000000 0.082972 0.000000 0.011470
# 5 -0.001414 0.001328 -0.003515 0.000000 0.039522 0.000000
# 6 0.000000 0.000000 0.000000 0.011470 0.000000 0.050266
#
#
# Mechanical properties :
#
#
# Convention : Reuss Voigt Hill
#
# Bulk Modulus (GPa) = 42.63557 54.09410 48.36483
# Shear Modulus (GPa) = 20.49857 25.48391 22.99124
#
# Velocity S-wave (km/s) = 3.31642 3.69778 3.51228
# Velocity P-wave (km/s) = 6.12709 6.87430 6.51142
#
# Compressibility (1/GPa) = 0.02345459
#
# Stress axis : x y z
#
# Youngs Moduli (GPa) = 104.76463 90.70870 43.80504
#
# Poissons Ratio (x) = 0.29579 0.01342
# Poissons Ratio (y) = 0.34162 0.28055
# Poissons Ratio (z) = 0.03210 0.58094
#
# Static dielectric constant tensor:
#      x y z
#    x 1.552770 0.000000 0.079520 
#    y 0.000000 1.670630 0.000000 
#    z 0.079520 0.000000 1.600470 
# 
# From -- ./inp_files/259846.got.cif
#   From: 2010.05.17/outbox.cif.g08.bks.cpg/sg12_130_cif.got.tgz:259846.got - 2010.06.03 13:09:07.
