data_PCOD9190216
_publ_section_title
;
Structure prediction by ZEFSAII (Michael W. Deem and Ramdas Pophale) SiO2 
 PCOD9190216
Probable space group: C 2/M
;
_chemical_formula_sum "Si O2"
_cell_formula_units_Z 42
_cell_length_a 17.341989
_cell_length_b 16.542263
_cell_length_c 9.324355
_cell_angle_alpha 90.000000
_cell_angle_beta 123.231047
_cell_angle_gamma 90.000000
_cell_volume 2237.493021
_symmetry_space_group_name_H-M "C 2/M"
_symmetry_group_IT_number 12
_symmetry_cell_setting 'monoclinic'
loop_
_space_group_symop_operation_xyz
x,y,z
-x,y,-z
-x,-y,-z
x,-y,z
1/2+x,1/2+y,z
1/2-x,1/2+y,-z
1/2-x,1/2-y,-z
1/2+x,1/2-y,z
loop_
_atom_site_type_symbol
_atom_site_label
_atom_site_fract_x
_atom_site_fract_y
_atom_site_fract_z
Si Si1 0.101636 0.091082 0.608160
Si Si2 0.408416 0.237439 0.817031
Si Si3 0.656173 0.589737 0.332440
Si Si4 0.500000 0.000000 0.500000
Si Si5 0.364710 0.143194 0.479894
Si Si6 0.275385 0.273765 0.185014
O O1 0.139455 0.089902 0.485565
O O2 0.170075 0.143104 0.769763
O O3 0.000000 0.127766 0.500000
O O4 0.093254 0.000000 0.655093
O O5 0.400583 0.334256 0.785489
O O6 0.402398 0.191115 0.658490
O O7 0.316276 0.216167 0.812634
O O8 0.500000 0.217465 0.000000
O O9 0.631552 0.500000 0.252393
O O10 0.763866 0.607037 0.414945
O O11 0.568386 0.927944 0.503178
O O12 0.341160 0.208996 0.332242
O O13 0.250000 0.250000 0.000000
#
# Coordination Sequence:
#
# PCOD9190216 Si02
#       6
#     8   8   8   2   8   8
#     4  10  21  38  65  95 124 169 221 270 333 387
#     4  11  24  42  66  99 129 179 220 264 340 400
#     4  10  19  41  68  90 131 173 212 271 327 392
#     4  12  28  40  78  96 122 180 232 284 340 396
#     4  11  23  46  64  92 133 170 224 274 335 398
#     4  11  24  41  67  96 133 176 217 276 331 398
#
# _framework density 18.771008999999999
#
# number of rings (size 3 to 8) (size 9 to 14) (size 15 to 20)
#    0.000    1.333    4.762    1.143    6.667    0.381 
#    1.714    0.476    0.000    0.000    0.000    0.000 
#    0.000    0.000    0.000    0.000    0.000    0.000 
#
# Total GULP energy -116958.209464 kJ/mol
# GULP energy per Si atom -5569.438546 kJ/mol
# Density = 1.872828 g / cm^3
# Si number density = 18.771009 Si / 1000 Ang^3
#
#
#
# Elastic Constant Matrix: (Units=GPa)
#
#
# Indices 1 2 3 4 5 6 
#
# 1 87.1558 49.1672 41.4456 0.0000 2.9910 0.0000
# 2 49.1672 106.4640 60.7100 0.0000 14.9197 0.0000
# 3 41.4456 60.7100 132.6970 0.0000 2.6539 0.0000
# 4 0.0000 0.0000 0.0000 -78.2772 0.0000 100.5114
# 5 2.9910 14.9197 2.6539 0.0000 20.6773 0.0000
# 6 0.0000 0.0000 0.0000 100.5114 0.0000 -58.2863
#
#
#
# Elastic Compliance Matrix: (Units=1/GPa)
#
#
# Indices 1 2 3 4 5 6 
#
# 1 0.016106 -0.006659 -0.002039 0.000000 0.002737 0.000000
# 2 -0.006659 0.017125 -0.005541 0.000000 -0.010682 0.000000
# 3 -0.002039 -0.005541 0.010649 0.000000 0.002926 0.000000
# 4 0.000000 0.000000 0.000000 0.010521 0.000000 0.018143
# 5 0.002737 -0.010682 0.002926 0.000000 0.055298 0.000000
# 6 0.000000 0.000000 0.000000 0.018143 0.000000 0.014129
#
#
# Mechanical properties :
#
#
# Convention : Reuss Voigt Hill
#
# Bulk Modulus (GPa) = 64.92553 69.88472 67.40513
# Shear Modulus (GPa) = 31.75802 -11.51098 10.12352
#
# Velocity S-wave (km/s) = 4.11769 -2.47904 2.32484
# Velocity P-wave (km/s) = 7.56772 5.39600 6.57219
#
# Compressibility (1/GPa) = 0.01540226
#
# Stress axis : x y z
#
# Youngs Moduli (GPa) = 62.08966 58.39424 93.90240
#
# Poissons Ratio (x) = 0.38885 0.19142
# Poissons Ratio (y) = 0.41346 0.52035
# Poissons Ratio (z) = 0.12657 0.32358
#
# Static dielectric constant tensor:
#      x y z
#    x 1.640890 0.000000 0.000250 
#    y 0.000000 1.679830 0.000000 
#    z 0.000250 0.000000 1.648840 
# 
# From -- ./inp_files/61832.got.cif
#   From: 2010.05.17/outbox.cif.g08.bks.cpg/sg12_31_cif.got.tgz:61832.got - 2010.06.03 13:09:07.
