data_PCOD9190742
_publ_section_title
;
Structure prediction by ZEFSAII (Michael W. Deem and Ramdas Pophale) SiO2 
 PCOD9190742
Probable space group: C 2/M
;
_chemical_formula_sum "Si O2"
_cell_formula_units_Z 64
_cell_length_a 27.477757
_cell_length_b 13.175582
_cell_length_c 19.906877
_cell_angle_alpha 90.000000
_cell_angle_beta 147.935629
_cell_angle_gamma 90.000000
_cell_volume 3825.989677
_symmetry_space_group_name_H-M "C 2/M"
_symmetry_group_IT_number 12
_symmetry_cell_setting 'monoclinic'
loop_
_space_group_symop_operation_xyz
x,y,z
-x,y,-z
-x,-y,-z
x,-y,z
1/2+x,1/2+y,z
1/2-x,1/2+y,-z
1/2-x,1/2-y,-z
1/2+x,1/2-y,z
loop_
_atom_site_type_symbol
_atom_site_label
_atom_site_fract_x
_atom_site_fract_y
_atom_site_fract_z
Si Si1 0.043895 0.620559 0.124543
Si Si2 0.569297 0.381701 0.364303
Si Si3 0.976868 0.774667 0.373524
Si Si4 0.753094 0.121437 0.344327
Si Si5 0.554475 0.752771 0.875402
Si Si6 0.369716 0.120390 0.157537
Si Si7 0.726167 0.380364 0.101884
Si Si8 0.654078 0.262509 0.666647
O O1 0.038904 0.500000 0.133294
O O2 0.150850 0.650310 0.246066
O O3 0.989719 0.682232 0.117189
O O4 0.000000 0.636941 0.000000
O O5 0.566674 0.500000 0.341527
O O6 0.507572 0.361685 0.358292
O O7 0.671324 0.354527 0.509950
O O8 0.525336 0.307363 0.258014
O O9 0.938696 0.679130 0.287894
O O10 0.897953 0.814572 0.331201
O O11 0.066405 0.736193 0.518023
O O12 0.782099 0.172252 0.307769
O O13 0.755766 0.000000 0.338243
O O14 0.611582 0.825823 0.891490
O O15 0.627601 0.671437 0.987264
O O16 0.272663 0.135390 0.082355
O O17 0.385966 0.000000 0.172278
O O18 0.721815 0.500000 0.108024
O O19 0.789545 0.327441 0.232460
#
# Coordination Sequence:
#
# PCOD9190742 Si02
#       8
#     8   8   8   8   8   8   8   8
#     4  10  21  36  54  75  95 119 157 203 248 290
#     4   9  18  32  50  73 102 132 161 195 235 282
#     4   8  16  28  48  76 101 129 163 197 235 284
#     4   9  18  33  52  74  99 127 161 201 242 281
#     4  11  20  33  52  71  96 129 163 197 238 286
#     4   9  18  32  49  72  99 126 159 200 242 283
#     4  10  20  32  48  71 100 131 161 194 236 289
#     4   9  16  30  49  72 102 132 163 197 237 281
#
# _framework density 16.727698
#
# number of rings (size 3 to 8) (size 9 to 14) (size 15 to 20)
#    0.000    2.625    0.000    1.875    0.000    1.500 
#    0.000    5.625    0.000    7.500    0.000    0.000 
#    0.000    0.000    0.000    0.000    0.000    0.000 
#
# Total GULP energy -178195.212299 kJ/mol
# GULP energy per Si atom -5568.600384 kJ/mol
# Density = 1.668963 g / cm^3
# Si number density = 16.727698 Si / 1000 Ang^3
#
#
#
# Elastic Constant Matrix: (Units=GPa)
#
#
# Indices 1 2 3 4 5 6 
#
# 1 106.7161 50.2645 55.3233 0.0000 7.0435 0.0000
# 2 50.2645 62.7441 36.6190 0.0000 5.6606 0.0000
# 3 55.3233 36.6190 64.8026 0.0000 13.4201 0.0000
# 4 0.0000 0.0000 0.0000 19.6894 0.0000 2.6691
# 5 7.0435 5.6606 13.4201 0.0000 21.6999 0.0000
# 6 0.0000 0.0000 0.0000 2.6691 0.0000 28.1574
#
#
#
# Elastic Compliance Matrix: (Units=1/GPa)
#
#
# Indices 1 2 3 4 5 6 
#
# 1 0.019908 -0.008825 -0.012785 0.000000 0.003747 0.000000
# 2 -0.008825 0.027803 -0.008336 0.000000 0.000767 0.000000
# 3 -0.012785 -0.008336 0.034117 0.000000 -0.014775 0.000000
# 4 0.000000 0.000000 0.000000 0.051450 0.000000 -0.004877
# 5 0.003747 0.000767 -0.014775 0.000000 0.053804 0.000000
# 6 0.000000 0.000000 0.000000 -0.004877 0.000000 0.035977
#
#
# Mechanical properties :
#
#
# Convention : Reuss Voigt Hill
#
# Bulk Modulus (GPa) = 45.58734 57.63072 51.60903
# Shear Modulus (GPa) = 17.22579 20.04641 18.63610
#
# Velocity S-wave (km/s) = 3.21249 3.46554 3.34141
# Velocity P-wave (km/s) = 6.40874 7.10918 6.76802
#
# Compressibility (1/GPa) = 0.02193591
#
# Stress axis : x y z
#
# Youngs Moduli (GPa) = 50.23170 35.96703 29.31107
#
# Poissons Ratio (x) = 0.31739 0.37474
# Poissons Ratio (y) = 0.44327 0.24435
# Poissons Ratio (z) = 0.64221 0.29984
#
# Static dielectric constant tensor:
#      x y z
#    x 1.565530 0.000000 0.001520 
#    y 0.000000 1.530720 0.000000 
#    z 0.001520 0.000000 1.579780 
# 
# From -- ./inp_files/327841.got.cif
#   From: 2010.05.17/outbox.cif.g08.bks.cpg/sg12_164_cif.got.tgz:327841.got - 2010.06.03 13:09:07.
