data_PCOD9190378
_publ_section_title
;
Structure prediction by ZEFSAII (Michael W. Deem and Ramdas Pophale) SiO2 
 PCOD9190378
Probable space group: C 2/M
;
_chemical_formula_sum "Si O2"
_cell_formula_units_Z 64
_cell_length_a 22.192382
_cell_length_b 9.250120
_cell_length_c 15.811935
_cell_angle_alpha 90.000000
_cell_angle_beta 61.974509
_cell_angle_gamma 90.000000
_cell_volume 2865.289064
_symmetry_space_group_name_H-M "C 2/M"
_symmetry_group_IT_number 12
_symmetry_cell_setting 'monoclinic'
loop_
_space_group_symop_operation_xyz
x,y,z
-x,y,-z
-x,-y,-z
x,-y,z
1/2+x,1/2+y,z
1/2-x,1/2+y,-z
1/2-x,1/2-y,-z
1/2+x,1/2-y,z
loop_
_atom_site_type_symbol
_atom_site_label
_atom_site_fract_x
_atom_site_fract_y
_atom_site_fract_z
Si Si1 0.441976 0.339453 0.111696
Si Si2 0.273344 0.843751 0.312995
Si Si3 0.409345 0.172307 0.692185
Si Si4 0.389037 0.333054 0.537629
Si Si5 0.820365 0.827260 0.422829
Si Si6 0.273032 0.335136 0.843248
Si Si7 0.466724 0.171170 0.830023
Si Si8 0.349969 0.329594 0.015569
O O1 0.440669 0.500000 0.151124
O O2 0.466320 0.226420 0.165422
O O3 0.377999 0.317205 0.093261
O O4 0.500000 0.338989 0.000000
O O5 0.192436 0.830816 0.387614
O O6 0.319240 0.722689 0.326438
O O7 0.269048 0.847061 0.216113
O O8 0.297186 0.000000 0.330114
O O9 0.422707 0.242050 0.591054
O O10 0.340597 0.245686 0.774839
O O11 0.463549 0.198768 0.731497
O O12 0.400008 0.000000 0.688565
O O13 0.412227 0.500000 0.526461
O O14 0.382840 0.283735 0.443657
O O15 0.750000 0.750000 0.500000
O O16 0.814494 0.000000 0.432447
O O17 0.289437 0.500000 0.858496
O O18 0.222291 0.249543 0.937175
O O19 0.458030 0.000000 0.848611
O O20 0.403626 0.254083 0.917010
O O21 0.345916 0.500000 0.000547
#
# Coordination Sequence:
#
# PCOD9190378 Si02
#       8
#     8   8   8   8   8   8   8   8
#     4   8  16  31  49  68  86 105 135 176 220 261
#     4   8  15  26  38  55  79 107 140 174 208 248
#     4  10  20  31  43  62  88 118 150 180 212 253
#     4   8  15  26  38  55  80 110 143 176 210 249
#     4   9  15  22  35  55  77 104 139 174 208 247
#     4  10  20  32  45  62  87 119 150 179 214 255
#     4  10  20  32  47  67  88 112 144 180 218 258
#     4  10  20  33  49  67  86 111 144 180 218 259
#
# _framework density 22.336314999999999
#
# number of rings (size 3 to 8) (size 9 to 14) (size 15 to 20)
#    0.000    2.875    0.000    4.125    0.000   10.750 
#    0.000    0.000    0.000    0.000    0.000    0.000 
#    0.000    1.000    0.000   11.000    0.000    9.875 
#
# Total GULP energy -178389.150113 kJ/mol
# GULP energy per Si atom -5574.660941 kJ/mol
# Density = 2.228548 g / cm^3
# Si number density = 22.336315 Si / 1000 Ang^3
#
#
#
# Elastic Constant Matrix: (Units=GPa)
#
#
# Indices 1 2 3 4 5 6 
#
# 1 42.7930 52.2684 74.7466 0.0000 30.4810 0.0000
# 2 52.2684 108.1023 48.1395 0.0000 31.3306 0.0000
# 3 74.7466 48.1395 63.8431 0.0000 45.3941 0.0000
# 4 0.0000 0.0000 0.0000 13.6165 0.0000 1.0957
# 5 30.4810 31.3306 45.3941 0.0000 63.2358 0.0000
# 6 0.0000 0.0000 0.0000 1.0957 0.0000 1.3373
#
#
#
# Elastic Compliance Matrix: (Units=1/GPa)
#
#
# Indices 1 2 3 4 5 6 
#
# 1 -0.016167 -0.001404 0.028497 0.000000 -0.011968 0.000000
# 2 -0.001404 0.013858 -0.008996 0.000000 0.000269 0.000000
# 3 0.028497 -0.008996 -0.008823 0.000000 -0.002945 0.000000
# 4 0.000000 0.000000 0.000000 0.078624 0.000000 -0.064421
# 5 -0.011968 0.000269 -0.002945 0.000000 0.023564 0.000000
# 6 0.000000 0.000000 0.000000 -0.064421 0.000000 0.800580
#
#
# Mechanical properties :
#
#
# Convention : Reuss Voigt Hill
#
# Bulk Modulus (GPa) = 39.90350 62.78306 51.34328
# Shear Modulus (GPa) = 5.78841 18.27685 12.03263
#
# Velocity S-wave (km/s) = 1.61155 2.86362 2.32351
# Velocity P-wave (km/s) = 4.62239 6.25323 5.49860
#
# Compressibility (1/GPa) = 0.02506046
#
# Stress axis : x y z
#
# Youngs Moduli (GPa) = -61.85269 72.16235 -113.33897
#
# Poissons Ratio (x) = 0.10135 3.22982
# Poissons Ratio (y) = -0.08687 -1.01958
# Poissons Ratio (z) = 1.76262 0.64916
#
# Static dielectric constant tensor:
#      x y z
#    x 1.830810 0.000000 0.025930 
#    y 0.000000 1.782190 0.000000 
#    z 0.025930 0.000000 1.939980 
# 
# From -- ./inp_files/287566.got.cif
#   From: 2010.05.17/outbox.cif.g08.bks.cpg/sg12_144_cif.got.tgz:287566.got - 2010.06.03 13:09:07.
