data_PCOD9190119
_publ_section_title
;
Structure prediction by ZEFSAII (Michael W. Deem and Ramdas Pophale) SiO2 
 PCOD9190119
Probable space group: C 2/M
;
_chemical_formula_sum "Si O2"
_cell_formula_units_Z 58
_cell_length_a 14.237354
_cell_length_b 21.557589
_cell_length_c 24.839287
_cell_angle_alpha 90.000000
_cell_angle_beta 158.466615
_cell_angle_gamma 90.000000
_cell_volume 2798.246027
_symmetry_space_group_name_H-M "C 2/M"
_symmetry_group_IT_number 12
_symmetry_cell_setting 'monoclinic'
loop_
_space_group_symop_operation_xyz
x,y,z
-x,y,-z
-x,-y,-z
x,-y,z
1/2+x,1/2+y,z
1/2-x,1/2+y,-z
1/2-x,1/2-y,-z
1/2+x,1/2-y,z
loop_
_atom_site_type_symbol
_atom_site_label
_atom_site_fract_x
_atom_site_fract_y
_atom_site_fract_z
Si Si1 0.932227 0.816607 0.626233
Si Si2 0.539798 0.695513 0.881807
Si Si3 0.530099 0.098255 0.249801
Si Si4 0.294879 0.066991 0.020541
Si Si5 0.800808 0.212152 0.346351
Si Si6 0.222823 0.570218 0.162991
Si Si7 0.426675 0.817124 0.293222
Si Si8 0.500000 0.500000 0.500000
O O1 0.067650 0.804984 0.640182
O O2 0.068752 0.875522 0.725511
O O3 0.987092 0.750463 0.684097
O O4 0.635218 0.826808 0.452553
O O5 0.340472 0.722695 0.732879
O O6 0.362798 0.688691 0.840401
O O7 0.750000 0.750000 0.000000
O O8 0.650574 0.628900 0.926295
O O9 0.323261 0.067575 0.100226
O O10 0.601289 0.158727 0.252984
O O11 0.450374 0.126649 0.264280
O O12 0.775330 0.054060 0.385634
O O13 0.574365 0.069917 0.141227
O O14 0.184762 0.000000 0.944748
O O15 0.000000 0.211039 0.500000
O O16 0.324547 0.500000 0.209237
O O17 0.000000 0.580743 0.000000
#
# Coordination Sequence:
#
# PCOD9190119 Si02
#       8
#     8   8   8   8   8   8   8   2
#     4  10  19  40  60  92 132 166 205 284 337 386
#     4  11  23  43  63  87 129 187 231 267 331 407
#     4  12  21  37  63 104 129 174 210 270 337 419
#     4  11  23  42  63  90 133 176 218 273 334 401
#     4  11  20  38  66  95 131 164 219 277 336 403
#     4  10  22  40  65  95 127 171 226 276 331 402
#     4  10  23  37  60  94 133 165 223 273 332 399
#     4  12  24  36  68 102 146 176 210 252 364 444
#
# _framework density 20.727269
#
# number of rings (size 3 to 8) (size 9 to 14) (size 15 to 20)
#    0.000    1.241    5.517    0.828    0.000    1.655 
#    6.207    0.690    0.000    0.414    0.000    0.000 
#    0.000    0.000    0.000    0.000    0.000    0.000 
#
# Total GULP energy -161570.002694 kJ/mol
# GULP energy per Si atom -5571.379403 kJ/mol
# Density = 2.068009 g / cm^3
# Si number density = 20.727269 Si / 1000 Ang^3
#
#
#
# Elastic Constant Matrix: (Units=GPa)
#
#
# Indices 1 2 3 4 5 6 
#
# 1 47.6371 17.4117 8.5803 0.0102 4.5751 0.0022
# 2 17.4117 177.6271 52.2082 0.0324 0.0364 -0.0068
# 3 8.5803 52.2082 55.4693 0.1603 5.5100 -0.0363
# 4 0.0102 0.0324 0.1603 46.1097 -0.0117 11.4801
# 5 4.5751 0.0364 5.5100 -0.0117 30.3241 -0.0004
# 6 0.0022 -0.0068 -0.0363 11.4801 -0.0004 22.0254
#
#
#
# Elastic Compliance Matrix: (Units=1/GPa)
#
#
# Indices 1 2 3 4 5 6 
#
# 1 0.022191 -0.001736 -0.001494 0.000002 -0.003075 -0.000006
# 2 -0.001736 0.007973 -0.007394 0.000027 0.001596 -0.000023
# 3 -0.001494 -0.007394 0.025659 -0.000109 -0.004428 0.000097
# 4 0.000002 0.000027 -0.000109 0.024922 0.000029 -0.012990
# 5 -0.003075 0.001596 -0.004428 0.000029 0.034244 -0.000021
# 6 -0.000006 -0.000023 0.000097 -0.012990 -0.000021 0.052173
#
#
# Mechanical properties :
#
#
# Convention : Reuss Voigt Hill
#
# Bulk Modulus (GPa) = 28.92227 48.57043 38.74635
# Shear Modulus (GPa) = 25.00831 33.19404 29.10118
#
# Velocity S-wave (km/s) = 3.47730 4.00618 3.75107
# Velocity P-wave (km/s) = 5.48691 6.69949 6.12329
#
# Compressibility (1/GPa) = 0.03457543
#
# Stress axis : x y z
#
# Youngs Moduli (GPa) = 45.06388 125.42466 38.97282
#
# Poissons Ratio (x) = 0.21768 0.05821
# Poissons Ratio (y) = 0.07821 0.28818
# Poissons Ratio (z) = 0.06731 0.92743
#
# Static dielectric constant tensor:
#      x y z
#    x 1.817790 -0.000010 0.001330 
#    y -0.000010 1.779470 -0.000020 
#    z 0.001330 -0.000020 1.763300 
# 
# From -- ./inp_files/362097.got.cif
#   From: 2010.05.17/outbox.cif.g08.bks.cpg/sg12_182_cif.got.tgz:362097.got - 2010.06.03 13:09:07.
