data_PCOD9190575
_publ_section_title
;
Structure prediction by ZEFSAII (Michael W. Deem and Ramdas Pophale) SiO2 
 PCOD9190575
Probable space group: C 2/M
;
_chemical_formula_sum "Si O2"
_cell_formula_units_Z 40
_cell_length_a 26.312766
_cell_length_b 7.419837
_cell_length_c 12.474657
_cell_angle_alpha 90.000000
_cell_angle_beta 59.531348
_cell_angle_gamma 90.000000
_cell_volume 2099.180327
_symmetry_space_group_name_H-M "C 2/M"
_symmetry_group_IT_number 12
_symmetry_cell_setting 'monoclinic'
loop_
_space_group_symop_operation_xyz
x,y,z
-x,y,-z
-x,-y,-z
x,-y,z
1/2+x,1/2+y,z
1/2-x,1/2+y,-z
1/2-x,1/2-y,-z
1/2+x,1/2-y,z
loop_
_atom_site_type_symbol
_atom_site_label
_atom_site_fract_x
_atom_site_fract_y
_atom_site_fract_z
Si Si1 0.460407 0.709519 0.637016
Si Si2 0.404901 0.220213 0.102170
Si Si3 0.668474 0.719768 0.164495
Si Si4 0.790153 0.709509 0.120040
Si Si5 0.003365 0.717565 0.824207
O O1 0.500000 0.789569 0.500000
O O2 0.450643 0.500000 0.619451
O O3 0.394848 0.784391 0.727001
O O4 0.494189 0.718467 0.713892
O O5 0.339068 0.285670 0.148322
O O6 0.437538 0.274803 0.176452
O O7 0.403885 0.000000 0.102192
O O8 0.448423 0.273915 0.958226
O O9 0.668964 0.500000 0.161591
O O10 0.724268 0.783169 0.175378
O O11 0.680845 0.779257 0.029457
O O12 0.782847 0.500000 0.156130
O O13 0.002913 0.500000 0.822515
#
# Coordination Sequence:
#
# PCOD9190575 Si02
#       5
#     8   8   8   8   8
#     4  10  20  32  43  59  89 122 148 175 205 245
#     4   8  14  25  44  67  89 108 130 175 225 258
#     4   9  17  27  41  63  86 111 144 173 207 254
#     4   9  15  26  45  65  86 109 133 173 222 258
#     4   9  16  28  45  65  86 110 143 176 212 256
#
# _framework density 19.055057000000001
#
# number of rings (size 3 to 8) (size 9 to 14) (size 15 to 20)
#    0.000    3.000    2.000    1.200    0.000    0.400 
#    0.000    3.000    0.000    1.200    0.000    0.000 
#    0.000    0.000    0.000    0.000    0.000    0.000 
#
# Total GULP energy -111463.616624 kJ/mol
# GULP energy per Si atom -5573.180831 kJ/mol
# Density = 1.901169 g / cm^3
# Si number density = 19.055057 Si / 1000 Ang^3
#
#
#
# Elastic Constant Matrix: (Units=GPa)
#
#
# Indices 1 2 3 4 5 6 
#
# 1 190.1722 -8.1512 59.1690 0.0000 -2.5299 0.0000
# 2 -8.1512 59.4679 -7.2748 0.0000 -2.1028 0.0000
# 3 59.1690 -7.2748 91.0442 0.0000 -3.7317 0.0000
# 4 0.0000 0.0000 0.0000 9.8195 0.0000 4.8332
# 5 -2.5299 -2.1028 -3.7317 0.0000 15.0852 0.0000
# 6 0.0000 0.0000 0.0000 4.8332 0.0000 9.5647
#
#
#
# Elastic Compliance Matrix: (Units=1/GPa)
#
#
# Indices 1 2 3 4 5 6 
#
# 1 0.006600 0.000388 -0.004254 0.000000 0.000109 0.000000
# 2 0.000388 0.017117 0.001228 0.000000 0.002755 0.000000
# 3 -0.004254 0.001228 0.013966 0.000000 0.002913 0.000000
# 4 0.000000 0.000000 0.000000 0.135551 0.000000 -0.068495
# 5 0.000109 0.002755 0.002913 0.000000 0.067413 0.000000
# 6 0.000000 0.000000 0.000000 -0.068495 0.000000 0.139162
#
#
# Mechanical properties :
#
#
# Convention : Reuss Voigt Hill
#
# Bulk Modulus (GPa) = 30.85678 47.57446 39.21562
# Shear Modulus (GPa) = 12.62990 26.68998 19.65994
#
# Velocity S-wave (km/s) = 2.57730 3.74662 3.21556
# Velocity P-wave (km/s) = 5.00852 6.61342 5.86611
#
# Compressibility (1/GPa) = 0.03240779
#
# Stress axis : x y z
#
# Youngs Moduli (GPa) = 151.51565 58.42249 71.60383
#
# Poissons Ratio (x) = -0.02267 0.30459
# Poissons Ratio (y) = -0.05881 -0.08796
# Poissons Ratio (z) = 0.64452 -0.07177
#
# Static dielectric constant tensor:
#      x y z
#    x 1.710550 0.000000 -0.016520 
#    y 0.000000 1.717710 0.000000 
#    z -0.016520 0.000000 1.614960 
# 
# From -- ./inp_files/83656.got.cif
#   From: 2010.05.17/outbox.cif.g08.bks.cpg/sg12_42_cif.got.tgz:83656.got - 2010.06.03 13:09:07.
