data_PCOD9190056
_publ_section_title
;
Structure prediction by ZEFSAII (Michael W. Deem and Ramdas Pophale) SiO2 
 PCOD9190056
Probable space group: C 2/M
;
_chemical_formula_sum "Si O2"
_cell_formula_units_Z 32
_cell_length_a 16.080360
_cell_length_b 17.692247
_cell_length_c 7.983539
_cell_angle_alpha 90.000000
_cell_angle_beta 143.571729
_cell_angle_gamma 90.000000
_cell_volume 1348.733309
_symmetry_space_group_name_H-M "C 2/M"
_symmetry_group_IT_number 12
_symmetry_cell_setting 'monoclinic'
loop_
_space_group_symop_operation_xyz
x,y,z
-x,y,-z
-x,-y,-z
x,-y,z
1/2+x,1/2+y,z
1/2-x,1/2+y,-z
1/2-x,1/2-y,-z
1/2+x,1/2-y,z
loop_
_atom_site_type_symbol
_atom_site_label
_atom_site_fract_x
_atom_site_fract_y
_atom_site_fract_z
Si Si1 0.323695 0.911979 0.343860
Si Si2 0.694080 0.337828 0.452533
Si Si3 0.420087 0.159086 0.052898
Si Si4 0.415132 0.321876 0.189461
O O1 0.235235 0.889803 0.365496
O O2 0.477675 0.883449 0.652488
O O3 0.330290 0.000000 0.320373
O O4 0.226896 0.870146 0.050266
O O5 0.750000 0.250000 0.500000
O O6 0.533131 0.340766 0.241461
O O7 0.776014 0.371323 0.746000
O O8 0.381202 0.237002 0.078819
O O9 0.500000 0.168717 0.000000
O O10 0.500000 0.322948 0.500000
#
# Coordination Sequence:
#
# PCOD9190056 Si02
#       4
#     8   8   8   8
#     4  11  24  41  66  97 128 166 214 270 320 372
#     4  11  20  40  67  95 125 164 212 267 310 382
#     4  10  19  39  65  92 126 162 210 266 310 380
#     4  12  23  38  65  97 129 171 216 261 316 378
#
# _framework density 23.725964000000001
#
# number of rings (size 3 to 8) (size 9 to 14) (size 15 to 20)
#    0.000    1.000    7.500    0.750    0.000   11.000 
#    0.000    0.000    0.000    5.250    0.000    0.000 
#    0.000    0.000    0.000    0.000    0.000    0.000 
#
# Total GULP energy -89317.530811 kJ/mol
# GULP energy per Si atom -5582.345676 kJ/mol
# Density = 2.367196 g / cm^3
# Si number density = 23.725964 Si / 1000 Ang^3
#
#
#
# Elastic Constant Matrix: (Units=GPa)
#
#
# Indices 1 2 3 4 5 6 
#
# 1 67.5206 6.6828 25.3909 0.0000 -3.5648 0.0000
# 2 6.6828 107.5571 41.7873 0.0000 -1.0400 0.0000
# 3 25.3909 41.7873 196.2584 0.0000 -20.0618 0.0000
# 4 0.0000 0.0000 0.0000 32.7085 0.0000 -1.2784
# 5 -3.5648 -1.0400 -20.0618 0.0000 57.1198 0.0000
# 6 0.0000 0.0000 0.0000 -1.2784 0.0000 11.8254
#
#
#
# Elastic Compliance Matrix: (Units=1/GPa)
#
#
# Indices 1 2 3 4 5 6 
#
# 1 0.015576 -0.000211 -0.001941 0.000000 0.000287 0.000000
# 2 -0.000211 0.010158 -0.002197 0.000000 -0.000600 0.000000
# 3 -0.001941 -0.002197 0.006014 0.000000 0.001951 0.000000
# 4 0.000000 0.000000 0.000000 0.030703 0.000000 0.003319
# 5 0.000287 -0.000600 0.001951 0.000000 0.018199 0.000000
# 6 0.000000 0.000000 0.000000 0.003319 0.000000 0.084922
#
#
# Mechanical properties :
#
#
# Convention : Reuss Voigt Hill
#
# Bulk Modulus (GPa) = 43.38309 57.67310 50.52809
# Shear Modulus (GPa) = 27.47954 40.16243 33.82099
#
# Velocity S-wave (km/s) = 3.40693 4.11878 3.77965
# Velocity P-wave (km/s) = 5.81387 6.85419 6.35535
#
# Compressibility (1/GPa) = 0.02305046
#
# Stress axis : x y z
#
# Youngs Moduli (GPa) = 64.20052 98.44244 166.28888
#
# Poissons Ratio (x) = 0.02076 0.32276
# Poissons Ratio (y) = 0.01354 0.36532
# Poissons Ratio (z) = 0.12461 0.21627
#
# Static dielectric constant tensor:
#      x y z
#    x 1.949980 0.000000 0.089760 
#    y 0.000000 1.901260 0.000000 
#    z 0.089760 0.000000 1.713090 
# 
# From -- ./inp_files/46076.got.cif
#   From: 2010.05.17/outbox.cif.g08.bks.cpg/sg12_24_cif.got.tgz:46076.got - 2010.06.03 13:09:07.
