data_PCOD9190744
_publ_section_title
;
Structure prediction by ZEFSAII (Michael W. Deem and Ramdas Pophale) SiO2 
 PCOD9190744
Probable space group: C 2/M
;
_chemical_formula_sum "Si O2"
_cell_formula_units_Z 56
_cell_length_a 21.433568
_cell_length_b 7.354392
_cell_length_c 21.437061
_cell_angle_alpha 90.000000
_cell_angle_beta 46.726158
_cell_angle_gamma 90.000000
_cell_volume 2460.305543
_symmetry_space_group_name_H-M "C 2/M"
_symmetry_group_IT_number 12
_symmetry_cell_setting 'monoclinic'
loop_
_space_group_symop_operation_xyz
x,y,z
-x,y,-z
-x,-y,-z
x,-y,z
1/2+x,1/2+y,z
1/2-x,1/2+y,-z
1/2-x,1/2-y,-z
1/2+x,1/2-y,z
loop_
_atom_site_type_symbol
_atom_site_label
_atom_site_fract_x
_atom_site_fract_y
_atom_site_fract_z
Si Si1 0.671120 0.282977 0.727374
Si Si2 0.517965 0.221600 0.586864
Si Si3 0.283033 0.708028 0.078956
Si Si4 0.863989 0.721578 0.610119
Si Si5 0.451755 0.215990 0.294717
Si Si6 0.377744 0.221393 0.888992
Si Si7 0.911870 0.777302 0.092074
O O1 0.674991 0.500000 0.731161
O O2 0.766601 0.214224 0.675186
O O3 0.635215 0.246120 0.683403
O O4 0.604765 0.218222 0.825780
O O5 0.423661 0.276549 0.627351
O O6 0.585444 0.275804 0.487300
O O7 0.542051 0.286108 0.639151
O O8 0.518697 0.000000 0.586842
O O9 0.261754 0.500000 0.109845
O O10 0.196371 0.784324 0.108353
O O11 0.331230 0.784857 0.105602
O O12 0.351261 0.711957 0.975424
O O13 0.862374 0.500000 0.611912
O O14 0.530787 0.283524 0.198507
O O15 0.464047 0.000000 0.290771
O O16 0.374865 0.000000 0.893756
O O17 0.913227 0.000000 0.089361
O O18 0.000000 0.716748 0.000000
#
# Coordination Sequence:
#
# PCOD9190744 Si02
#       7
#     8   8   8   8   8   8   8
#     4  10  20  32  50  74  99 126 164 206 241 282
#     4   8  15  29  50  74 100 126 156 200 248 287
#     4   9  17  30  48  67  90 123 161 203 242 278
#     4   8  15  29  50  76  98 121 161 207 242 280
#     4  10  20  32  48  71 101 133 159 192 243 296
#     4   9  18  30  45  68  95 123 159 197 238 288
#     4   9  17  28  44  67  93 122 156 196 240 276
#
# _framework density 22.761402
#
# number of rings (size 3 to 8) (size 9 to 14) (size 15 to 20)
#    0.000    3.000    0.000    1.714    2.000    2.286 
#    0.000    0.714    0.000    3.429    0.000    2.000 
#    0.000    0.000    0.000    0.000    0.000    0.000 
#
# Total GULP energy -156364.152125 kJ/mol
# GULP energy per Si atom -5584.434004 kJ/mol
# Density = 2.270960 g / cm^3
# Si number density = 22.761402 Si / 1000 Ang^3
#
#
#
# Elastic Constant Matrix: (Units=GPa)
#
#
# Indices 1 2 3 4 5 6 
#
# 1 155.8210 -5.4384 72.7284 0.0000 22.4915 0.0015
# 2 -5.4384 83.6957 -4.2145 0.0153 -2.1339 0.0166
# 3 72.7284 -4.2145 76.6367 -0.0013 -1.9615 -0.0008
# 4 0.0000 0.0153 -0.0013 -39.7826 0.0000 -7.4043
# 5 22.4915 -2.1339 -1.9615 0.0000 33.0485 -0.0003
# 6 0.0015 0.0166 -0.0008 -7.4043 -0.0003 2.1355
#
#
#
# Elastic Compliance Matrix: (Units=1/GPa)
#
#
# Indices 1 2 3 4 5 6 
#
# 1 0.014529 -0.000038 -0.014065 0.000002 -0.010725 -0.000009
# 2 -0.000038 0.012003 0.000717 0.000013 0.000843 -0.000047
# 3 -0.014065 0.000717 0.026722 -0.000002 0.011204 0.000009
# 4 0.000002 0.000013 -0.000002 -0.015278 -0.000001 -0.052971
# 5 -0.010725 0.000843 0.011204 -0.000001 0.038277 0.000006
# 6 -0.000009 -0.000047 0.000009 -0.052971 0.000006 0.284608
#
#
# Mechanical properties :
#
#
# Convention : Reuss Voigt Hill
#
# Bulk Modulus (GPa) = 37.75775 49.14496 43.45135
# Shear Modulus (GPa) = 12.61165 15.95215 14.28190
#
# Velocity S-wave (km/s) = 2.35644 2.65021 2.50764
# Velocity P-wave (km/s) = 4.90187 5.56804 5.24554
#
# Compressibility (1/GPa) = 0.02648463
#
# Stress axis : x y z
#
# Youngs Moduli (GPa) = 68.82829 83.31091 37.42224
#
# Poissons Ratio (x) = 0.00313 0.52633
# Poissons Ratio (y) = 0.00259 -0.02684
# Poissons Ratio (z) = 0.96804 -0.05976
#
# Static dielectric constant tensor:
#      x y z
#    x 1.835020 0.000000 0.000000 
#    y 0.000000 2.010300 0.000000 
#    z 0.000000 0.000000 1.805890 
# 
# From -- ./inp_files/250507.got.cif
#   From: 2010.05.17/outbox.cif.g08.bks.cpg/sg12_126_cif.got.tgz:250507.got - 2010.06.03 13:09:07.
