data_PCOD9190288
_publ_section_title
;
Structure prediction by ZEFSAII (Michael W. Deem and Ramdas Pophale) SiO2 
 PCOD9190288
Probable space group: C 2/M
;
_chemical_formula_sum "Si O2"
_cell_formula_units_Z 48
_cell_length_a 14.966105
_cell_length_b 7.819446
_cell_length_c 17.967052
_cell_angle_alpha 90.000000
_cell_angle_beta 90.710412
_cell_angle_gamma 90.000000
_cell_volume 2102.462281
_symmetry_space_group_name_H-M "C 2/M"
_symmetry_group_IT_number 12
_symmetry_cell_setting 'monoclinic'
loop_
_space_group_symop_operation_xyz
x,y,z
-x,y,-z
-x,-y,-z
x,-y,z
1/2+x,1/2+y,z
1/2-x,1/2+y,-z
1/2-x,1/2-y,-z
1/2+x,1/2-y,z
loop_
_atom_site_type_symbol
_atom_site_label
_atom_site_fract_x
_atom_site_fract_y
_atom_site_fract_z
Si Si1 0.695229 0.793925 0.832068
Si Si2 0.396106 0.807674 0.479273
Si Si3 0.854158 0.694252 0.322373
Si Si4 0.645722 0.310603 0.360398
Si Si5 0.035567 0.794545 0.921280
Si Si6 0.603830 0.289509 0.203527
O O1 0.640991 0.723930 0.759009
O O2 0.637809 0.748004 0.903241
O O3 0.798358 0.738779 0.827307
O O4 0.696303 0.000000 0.825254
O O5 0.500000 0.808854 0.500000
O O6 0.386899 0.718811 0.398939
O O7 0.350889 0.755980 0.555782
O O8 0.362624 0.000000 0.464990
O O9 0.891961 0.500000 0.318279
O O10 0.747254 0.681948 0.333253
O O11 0.607476 0.500000 0.368036
O O12 0.595003 0.227255 0.289462
O O13 0.972073 0.731088 0.853752
O O14 0.027555 0.000000 0.922053
O O15 0.000000 0.730004 0.000000
O O16 0.603207 0.500000 0.206899
#
# Coordination Sequence:
#
# PCOD9190288 Si02
#       6
#     8   8   8   8   8   8
#     4   9  18  35  58  77  99 136 178 210 244 302
#     4  10  20  30  43  69 103 130 155 198 253 291
#     4   8  16  32  50  68  94 130 164 199 246 291
#     4   9  17  32  52  68  89 128 173 204 232 286
#     4  10  21  36  54  78 108 136 162 205 265 313
#     4   8  17  35  55  75 103 139 170 205 258 308
#
# _framework density 22.830376000000001
#
# number of rings (size 3 to 8) (size 9 to 14) (size 15 to 20)
#    0.000    3.000    0.000    2.500    2.333    1.333 
#    0.000    5.000    0.000    0.000    0.000    0.000 
#    0.000    0.000    0.000    0.000    0.000    0.000 
#
# Total GULP energy -133720.585997 kJ/mol
# GULP energy per Si atom -5571.691083 kJ/mol
# Density = 2.277841 g / cm^3
# Si number density = 22.830376 Si / 1000 Ang^3
#
#
#
# Elastic Constant Matrix: (Units=GPa)
#
#
# Indices 1 2 3 4 5 6 
#
# 1 47.2931 -2.5066 17.7422 0.0000 -7.1166 0.0000
# 2 -2.5066 22.2985 3.9041 0.0000 0.9333 0.0000
# 3 17.7422 3.9041 56.9725 0.0000 -16.2697 0.0000
# 4 0.0000 0.0000 0.0000 -9.2120 0.0000 -17.8515
# 5 -7.1166 0.9333 -16.2697 0.0000 42.7666 0.0000
# 6 0.0000 0.0000 0.0000 -17.8515 0.0000 1.4898
#
#
#
# Elastic Compliance Matrix: (Units=1/GPa)
#
#
# Indices 1 2 3 4 5 6 
#
# 1 0.024353 0.004013 -0.007547 0.000000 0.001094 0.000000
# 2 0.004013 0.046280 -0.005070 0.000000 -0.002271 0.000000
# 3 -0.007547 -0.005070 0.022351 0.000000 0.007358 0.000000
# 4 0.000000 0.000000 0.000000 -0.004482 0.000000 -0.053705
# 5 0.001094 -0.002271 0.007358 0.000000 0.026413 0.000000
# 6 0.000000 0.000000 0.000000 -0.053705 0.000000 0.027714
#
#
# Mechanical properties :
#
#
# Convention : Reuss Voigt Hill
#
# Bulk Modulus (GPa) = 13.19645 18.31593 15.75619
# Shear Modulus (GPa) = 27.01318 14.17050 20.59184
#
# Velocity S-wave (km/s) = 3.44352 2.49406 3.00651
# Velocity P-wave (km/s) = 4.64792 4.04151 4.35528
#
# Compressibility (1/GPa) = 0.07577795
#
# Stress axis : x y z
#
# Youngs Moduli (GPa) = 41.06242 21.60765 44.74059
#
# Poissons Ratio (x) = -0.08671 0.33764
# Poissons Ratio (y) = -0.16479 0.22682
# Poissons Ratio (z) = 0.30988 0.10954
#
# Static dielectric constant tensor:
#      x y z
#    x 1.852010 0.000000 -0.003950 
#    y 0.000000 1.898380 0.000000 
#    z -0.003950 0.000000 1.986240 
# 
# From -- ./inp_files/267732.got.cif
#   From: 2010.05.17/outbox.cif.g08.bks.cpg/sg12_134_cif.got.tgz:267732.got - 2010.06.03 13:09:07.
