data_PCOD9190647
_publ_section_title
;
Structure prediction by ZEFSAII (Michael W. Deem and Ramdas Pophale) SiO2 
 PCOD9190647
Probable space group: C 2/M
;
_chemical_formula_sum "Si O2"
_cell_formula_units_Z 56
_cell_length_a 16.332764
_cell_length_b 7.449220
_cell_length_c 19.820736
_cell_angle_alpha 90.000000
_cell_angle_beta 121.579496
_cell_angle_gamma 90.000000
_cell_volume 2054.405745
_symmetry_space_group_name_H-M "C 2/M"
_symmetry_group_IT_number 12
_symmetry_cell_setting 'monoclinic'
loop_
_space_group_symop_operation_xyz
x,y,z
-x,y,-z
-x,-y,-z
x,-y,z
1/2+x,1/2+y,z
1/2-x,1/2+y,-z
1/2-x,1/2-y,-z
1/2+x,1/2-y,z
loop_
_atom_site_type_symbol
_atom_site_label
_atom_site_fract_x
_atom_site_fract_y
_atom_site_fract_z
Si Si1 0.281249 0.216196 0.908598
Si Si2 0.785156 0.719019 0.760831
Si Si3 0.533617 0.707034 0.944235
Si Si4 0.194533 0.293905 0.372899
Si Si5 0.436703 0.715277 0.334813
Si Si6 0.880261 0.710246 0.517258
Si Si7 0.442907 0.281254 0.188829
O O1 0.319031 0.271545 0.849975
O O2 0.170098 0.268939 0.863405
O O3 0.284317 0.000000 0.913410
O O4 0.350765 0.291834 0.995344
O O5 0.787066 0.500000 0.759820
O O6 0.830386 0.787026 0.710465
O O7 0.673113 0.775227 0.709042
O O8 0.502601 0.500000 0.930505
O O9 0.511364 0.787077 0.861305
O O10 0.500000 0.794400 0.000000
O O11 0.163575 0.500000 0.359516
O O12 0.156094 0.212216 0.425814
O O13 0.311065 0.295167 0.431982
O O14 0.435362 0.500000 0.333180
O O15 0.505786 0.770736 0.425379
O O16 0.475454 0.776014 0.277535
O O17 0.858981 0.500000 0.504029
O O18 0.446914 0.500000 0.188830
#
# Coordination Sequence:
#
# PCOD9190647 Si02
#       7
#     8   8   8   8   8   8   8
#     4   9  17  32  53  72  91 119 159 202 235 267
#     4   8  16  32  53  73  90 117 161 202 230 266
#     4  10  20  32  46  69 101 130 155 187 231 283
#     4   9  18  34  52  67  90 127 163 190 225 279
#     4   9  17  32  53  71  90 122 161 195 230 277
#     4  10  20  32  47  71 100 124 150 191 238 279
#     4   8  16  32  51  69  92 125 161 193 228 275
#
# _framework density 27.258489000000001
#
# number of rings (size 3 to 8) (size 9 to 14) (size 15 to 20)
#    0.000    3.000    0.000    2.571    0.000    2.571 
#    0.000    7.857    0.000    0.000    0.000    0.000 
#    0.000    0.000    0.000    0.000    0.000    0.000 
#
# Total GULP energy -156600.291243 kJ/mol
# GULP energy per Si atom -5592.867544 kJ/mol
# Density = 2.719645 g / cm^3
# Si number density = 27.258489 Si / 1000 Ang^3
#
#
#
# Elastic Constant Matrix: (Units=GPa)
#
#
# Indices 1 2 3 4 5 6 
#
# 1 56.7925 8.6121 28.6120 0.0000 -11.8551 0.0000
# 2 8.6121 109.1140 1.1674 0.0000 2.4210 0.0000
# 3 28.6120 1.1674 188.6951 0.0000 -14.7931 0.0000
# 4 0.0000 0.0000 0.0000 16.3935 0.0000 14.4014
# 5 -11.8551 2.4210 -14.7931 0.0000 67.6348 0.0000
# 6 0.0000 0.0000 0.0000 14.4014 0.0000 10.2346
#
#
#
# Elastic Compliance Matrix: (Units=1/GPa)
#
#
# Indices 1 2 3 4 5 6 
#
# 1 0.019859 -0.001603 -0.002772 0.000000 0.002932 0.000000
# 2 -0.001603 0.009303 0.000140 0.000000 -0.000583 0.000000
# 3 -0.002772 0.000140 0.005780 0.000000 0.000773 0.000000
# 4 0.000000 0.000000 0.000000 -0.258323 0.000000 0.363494
# 5 0.002932 -0.000583 0.000773 0.000000 0.015489 0.000000
# 6 0.000000 0.000000 0.000000 0.363494 0.000000 -0.413776
#
#
# Mechanical properties :
#
#
# Convention : Reuss Voigt Hill
#
# Bulk Modulus (GPa) = 37.77518 47.93162 42.85340
# Shear Modulus (GPa) = -8.27302 39.93325 15.83011
#
# Velocity S-wave (km/s) = -1.74402 3.83166 2.41247
# Velocity P-wave (km/s) = 3.13572 6.09900 4.84925
#
# Compressibility (1/GPa) = 0.02647241
#
# Stress axis : x y z
#
# Youngs Moduli (GPa) = 50.35403 107.49584 173.02351
#
# Poissons Ratio (x) = 0.17230 0.47954
# Poissons Ratio (y) = 0.08071 -0.02418
# Poissons Ratio (z) = 0.13956 -0.01502
#
# Static dielectric constant tensor:
#      x y z
#    x 2.278010 0.000000 -0.003590 
#    y 0.000000 1.989120 0.000000 
#    z -0.003590 0.000000 2.087400 
# 
# From -- ./inp_files/275163.got.cif
#   From: 2010.05.17/outbox.cif.g08.bks.cpg/sg12_138_cif.got.tgz:275163.got - 2010.06.03 13:09:07.
