data_PCOD9190048
_publ_section_title
;
Structure prediction by ZEFSAII (Michael W. Deem and Ramdas Pophale) SiO2 
 PCOD9190048
Probable space group: C 2/M
;
_chemical_formula_sum "Si O2"
_cell_formula_units_Z 64
_cell_length_a 25.014514
_cell_length_b 8.570442
_cell_length_c 15.683538
_cell_angle_alpha 90.000000
_cell_angle_beta 89.191035
_cell_angle_gamma 90.000000
_cell_volume 3361.987084
_symmetry_space_group_name_H-M "C 2/M"
_symmetry_group_IT_number 12
_symmetry_cell_setting 'monoclinic'
loop_
_space_group_symop_operation_xyz
x,y,z
-x,y,-z
-x,-y,-z
x,-y,z
1/2+x,1/2+y,z
1/2-x,1/2+y,-z
1/2-x,1/2-y,-z
1/2+x,1/2-y,z
loop_
_atom_site_type_symbol
_atom_site_label
_atom_site_fract_x
_atom_site_fract_y
_atom_site_fract_z
Si Si1 0.128977 0.819964 0.646426
Si Si2 0.510161 0.311254 0.597719
Si Si3 0.122466 0.180488 0.849666
Si Si4 0.810340 0.688331 0.747463
Si Si5 0.740224 0.182671 0.593605
Si Si6 0.434085 0.187173 0.749555
Si Si7 0.006223 0.811353 0.899932
Si Si8 0.236114 0.810231 0.907293
O O1 0.070746 0.764474 0.618894
O O2 0.128862 0.821904 0.748399
O O3 0.178607 0.718973 0.615883
O O4 0.136396 0.000000 0.616593
O O5 0.500000 0.266141 0.500000
O O6 0.507649 0.500000 0.603812
O O7 0.468526 0.245957 0.667787
O O8 0.065010 0.249612 0.872738
O O9 0.176526 0.248909 0.886517
O O10 0.120021 0.000000 0.879960
O O11 0.810524 0.500000 0.747814
O O12 0.777815 0.741398 0.664926
O O13 0.872177 0.741061 0.746226
O O14 0.777804 0.739643 0.832759
O O15 0.750000 0.250000 0.500000
O O16 0.750540 0.000000 0.593625
O O17 0.462566 0.244029 0.835878
O O18 0.434275 0.000000 0.748731
O O19 0.004501 0.000000 0.889447
O O20 0.000000 0.776490 0.000000
O O21 0.235684 0.000000 0.906189
O O22 0.250000 0.750000 0.000000
#
# Coordination Sequence:
#
# PCOD9190048 Si02
#       8
#     8   8   8   8   8   8   8   8
#     4  10  19  39  65  87 121 159 198 250 304 356
#     4  10  22  40  64  92 121 158 203 246 297 362
#     4   9  17  35  61  84 112 155 198 245 299 351
#     4  10  23  44  62  84 124 167 202 248 309 362
#     4  12  26  42  64  93 123 158 204 252 303 362
#     4  11  24  40  60  88 125 162 200 252 310 361
#     4  10  21  38  62  90 119 158 208 254 301 363
#     4  10  21  38  60  85 117 154 199 248 300 357
#
# _framework density 19.036360999999999
#
# number of rings (size 3 to 8) (size 9 to 14) (size 15 to 20)
#    0.000    1.750    2.500    1.500    3.500    2.500 
#    0.000    0.625    0.000    0.000    0.000    0.000 
#    0.000    0.000    0.000    0.000    0.000    0.000 
#
# Total GULP energy -178642.993590 kJ/mol
# GULP energy per Si atom -5582.593550 kJ/mol
# Density = 1.899303 g / cm^3
# Si number density = 19.036361 Si / 1000 Ang^3
#
#
#
# Elastic Constant Matrix: (Units=GPa)
#
#
# Indices 1 2 3 4 5 6 
#
# 1 164.0909 30.3736 79.5069 0.0000 13.1379 0.0000
# 2 30.3736 20.2413 28.0499 0.0000 -1.6720 0.0000
# 3 79.5069 28.0499 138.6524 0.0000 10.3894 0.0000
# 4 0.0000 0.0000 0.0000 29.1931 0.0000 0.7983
# 5 13.1379 -1.6720 10.3894 0.0000 35.4687 0.0000
# 6 0.0000 0.0000 0.0000 0.7983 0.0000 25.8159
#
#
#
# Elastic Compliance Matrix: (Units=1/GPa)
#
#
# Indices 1 2 3 4 5 6 
#
# 1 0.009904 -0.010543 -0.003307 0.000000 -0.003197 0.000000
# 2 -0.010543 0.081865 -0.011347 0.000000 0.011088 0.000000
# 3 -0.003307 -0.011347 0.011607 0.000000 -0.002710 0.000000
# 4 0.000000 0.000000 0.000000 0.034284 0.000000 -0.001060
# 5 -0.003197 0.011088 -0.002710 0.000000 0.030695 0.000000
# 6 0.000000 0.000000 0.000000 -0.001060 0.000000 0.038769
#
#
# Mechanical properties :
#
#
# Convention : Reuss Voigt Hill
#
# Bulk Modulus (GPa) = 18.87413 66.53837 42.70625
# Shear Modulus (GPa) = 18.17013 30.43248 24.30131
#
# Velocity S-wave (km/s) = 3.09284 4.00265 3.57679
# Velocity P-wave (km/s) = 4.76346 7.50938 6.28814
#
# Compressibility (1/GPa) = 0.05298258
#
# Stress axis : x y z
#
# Youngs Moduli (GPa) = 100.97017 12.21523 86.15545
#
# Poissons Ratio (x) = 0.12879 0.28489
# Poissons Ratio (y) = 1.06457 0.97757
# Poissons Ratio (z) = 0.33387 0.13860
#
# Static dielectric constant tensor:
#      x y z
#    x 1.652250 0.000000 0.007730 
#    y 0.000000 1.671490 0.000000 
#    z 0.007730 0.000000 1.642130 
# 
# From -- ./inp_files/238583.got.cif
#   From: 2010.05.17/outbox.cif.g08.bks.cpg/sg12_120_cif.got.tgz:238583.got - 2010.06.03 13:09:07.
