data_PCOD9190204
_publ_section_title
;
Structure prediction by ZEFSAII (Michael W. Deem and Ramdas Pophale) SiO2 
 PCOD9190204
Probable space group: C 2/M
;
_chemical_formula_sum "Si O2"
_cell_formula_units_Z 48
_cell_length_a 10.480023
_cell_length_b 29.804129
_cell_length_c 13.456016
_cell_angle_alpha 90.000000
_cell_angle_beta 34.027084
_cell_angle_gamma 90.000000
_cell_volume 2351.911745
_symmetry_space_group_name_H-M "C 2/M"
_symmetry_group_IT_number 12
_symmetry_cell_setting 'monoclinic'
loop_
_space_group_symop_operation_xyz
x,y,z
-x,y,-z
-x,-y,-z
x,-y,z
1/2+x,1/2+y,z
1/2-x,1/2+y,-z
1/2-x,1/2-y,-z
1/2+x,1/2-y,z
loop_
_atom_site_type_symbol
_atom_site_label
_atom_site_fract_x
_atom_site_fract_y
_atom_site_fract_z
Si Si1 0.266355 0.115971 0.705817
Si Si2 0.022060 0.205564 0.865685
Si Si3 0.992145 0.610087 0.247937
Si Si4 0.853710 0.947254 0.906282
Si Si5 0.512214 0.194807 0.110153
Si Si6 0.085851 0.949988 0.556941
O O1 0.500000 0.103420 0.500000
O O2 0.180417 0.165044 0.727710
O O3 0.326248 0.120662 0.783263
O O4 0.068178 0.079680 0.814722
O O5 0.097406 0.256657 0.795697
O O6 0.000000 0.203310 0.000000
O O7 0.776335 0.198508 0.973511
O O8 0.917814 0.653533 0.234382
O O9 0.779982 0.586811 0.437641
O O10 0.121599 0.575450 0.092239
O O11 0.890391 0.942595 0.764214
O O12 0.859201 0.000000 0.928409
O O13 0.500000 0.186834 0.000000
O O14 0.000000 0.949214 0.500000
O O15 0.180421 0.000000 0.516669
#
# Coordination Sequence:
#
# PCOD9190204 Si02
#       6
#     8   8   8   8   8   8
#     4  12  23  41  65  92 129 170 211 275 328 382
#     4  10  19  41  64  90 127 167 211 260 323 382
#     4  12  23  41  67  96 125 172 215 267 326 386
#     4  11  24  41  65  96 127 167 216 264 319 387
#     4  10  22  36  67  96 123 163 215 265 314 389
#     4  10  24  43  62  92 135 172 212 266 322 384
#
# _framework density 20.408928
#
# number of rings (size 3 to 8) (size 9 to 14) (size 15 to 20)
#    0.000    1.167    5.000    1.000    2.333    2.333 
#    0.000    4.167    0.000    0.000    0.000    0.000 
#    0.000    0.000    0.000    0.000    0.000    0.000 
#
# Total GULP energy -134065.840476 kJ/mol
# GULP energy per Si atom -5586.076687 kJ/mol
# Density = 2.036248 g / cm^3
# Si number density = 20.408928 Si / 1000 Ang^3
#
#
#
# Elastic Constant Matrix: (Units=GPa)
#
#
# Indices 1 2 3 4 5 6 
#
# 1 90.3512 10.0034 -11.3804 0.0000 16.9636 0.0000
# 2 10.0034 111.8048 18.0786 0.0000 7.2136 0.0000
# 3 -11.3804 18.0786 43.4781 0.0000 8.1900 0.0000
# 4 0.0000 0.0000 0.0000 27.9183 0.0000 4.3588
# 5 16.9636 7.2136 8.1900 0.0000 22.4077 0.0000
# 6 0.0000 0.0000 0.0000 4.3588 0.0000 11.8887
#
#
#
# Elastic Compliance Matrix: (Units=1/GPa)
#
#
# Indices 1 2 3 4 5 6 
#
# 1 0.014566 -0.001582 0.006929 0.000000 -0.013050 0.000000
# 2 -0.001582 0.009825 -0.004434 0.000000 -0.000345 0.000000
# 3 0.006929 -0.004434 0.029401 0.000000 -0.014564 0.000000
# 4 0.000000 0.000000 0.000000 0.037994 0.000000 -0.013930
# 5 -0.013050 -0.000345 -0.014564 0.000000 0.059941 0.000000
# 6 0.000000 0.000000 0.000000 -0.013930 0.000000 0.089220
#
#
# Mechanical properties :
#
#
# Convention : Reuss Voigt Hill
#
# Bulk Modulus (GPa) = 17.98010 31.00415 24.49212
# Shear Modulus (GPa) = 19.40537 27.70510 23.55523
#
# Velocity S-wave (km/s) = 3.08689 3.68842 3.40098
# Velocity P-wave (km/s) = 4.64050 5.77613 5.23918
#
# Compressibility (1/GPa) = 0.05561704
#
# Stress axis : x y z
#
# Youngs Moduli (GPa) = 68.65333 101.78186 34.01260
#
# Poissons Ratio (x) = 0.16098 -0.23566
# Poissons Ratio (y) = 0.10858 0.15082
# Poissons Ratio (z) = -0.47567 0.45133
#
# Static dielectric constant tensor:
#      x y z
#    x 1.738640 0.000000 0.016230 
#    y 0.000000 1.750800 0.000000 
#    z 0.016230 0.000000 1.693930 
# 
# From -- ./inp_files/209281.got.cif
#   From: 2010.05.17/outbox.cif.g08.bks.cpg/sg12_105_cif.got.tgz:209281.got - 2010.06.03 13:09:07.
