data_PCOD9190636
_publ_section_title
;
Structure prediction by ZEFSAII (Michael W. Deem and Ramdas Pophale) SiO2 
 PCOD9190636
Probable space group: C 2/M
;
_chemical_formula_sum "Si O2"
_cell_formula_units_Z 56
_cell_length_a 24.644332
_cell_length_b 9.016629
_cell_length_c 14.828046
_cell_angle_alpha 90.000000
_cell_angle_beta 128.616394
_cell_angle_gamma 90.000000
_cell_volume 2574.460940
_symmetry_space_group_name_H-M "C 2/M"
_symmetry_group_IT_number 12
_symmetry_cell_setting 'monoclinic'
loop_
_space_group_symop_operation_xyz
x,y,z
-x,y,-z
-x,-y,-z
x,-y,z
1/2+x,1/2+y,z
1/2-x,1/2+y,-z
1/2-x,1/2-y,-z
1/2+x,1/2-y,z
loop_
_atom_site_type_symbol
_atom_site_label
_atom_site_fract_x
_atom_site_fract_y
_atom_site_fract_z
Si Si1 0.820366 0.664407 0.592245
Si Si2 0.148696 0.823956 0.847854
Si Si3 0.501348 0.324128 0.635344
Si Si4 0.609581 0.821706 0.996145
Si Si5 0.535647 0.818824 0.210065
Si Si6 0.247991 0.177944 0.794540
Si Si7 0.128752 0.334267 0.560536
O O1 0.802200 0.500000 0.606988
O O2 0.750000 0.750000 0.500000
O O3 0.883551 0.723186 0.720368
O O4 0.854697 0.654430 0.528921
O O5 0.133296 0.732970 0.921701
O O6 0.217100 0.787543 0.862161
O O7 0.083634 0.797345 0.712526
O O8 0.148880 0.000000 0.869729
O O9 0.489955 0.500000 0.619892
O O10 0.485821 0.261213 0.719396
O O11 0.444843 0.248568 0.512975
O O12 0.528377 0.780392 0.922874
O O13 0.611435 0.000000 0.000021
O O14 0.671952 0.771605 0.126028
O O15 0.535649 0.000000 0.219873
O O16 0.194674 0.252467 0.671194
O O17 0.244334 0.000000 0.779736
O O18 0.122780 0.500000 0.592184
#
# Coordination Sequence:
#
# PCOD9190636 Si02
#       7
#     8   8   8   8   8   8   8
#     4   9  18  32  52  75  95 113 141 184 233 283
#     4   9  18  30  45  68  96 124 161 204 238 264
#     4   9  16  28  46  66  91 124 157 193 233 274
#     4   9  17  30  49  69  93 127 165 197 227 266
#     4   8  15  29  47  70  97 121 148 188 230 269
#     4  10  20  32  46  67  95 129 164 197 230 269
#     4  10  21  35  48  67  95 124 153 190 235 282
#
# _framework density 21.752124999999999
#
# number of rings (size 3 to 8) (size 9 to 14) (size 15 to 20)
#    0.000    2.857    0.000    2.143    0.000    5.143 
#    0.000    2.857    0.000    0.857    0.000    6.000 
#    0.000    0.000    0.000    0.000    0.000    0.000 
#
# Total GULP energy -156018.400736 kJ/mol
# GULP energy per Si atom -5572.085741 kJ/mol
# Density = 2.170262 g / cm^3
# Si number density = 21.752125 Si / 1000 Ang^3
#
#
#
# Elastic Constant Matrix: (Units=GPa)
#
#
# Indices 1 2 3 4 5 6 
#
# 1 61.4725 14.5087 45.1556 0.0000 29.0827 0.0000
# 2 14.5087 21.5910 36.1349 0.0000 27.2776 0.0000
# 3 45.1556 36.1349 160.0801 0.0000 62.8395 0.0000
# 4 0.0000 0.0000 0.0000 19.2399 0.0000 2.5858
# 5 29.0827 27.2776 62.8395 0.0000 57.5224 0.0000
# 6 0.0000 0.0000 0.0000 2.5858 0.0000 13.4619
#
#
#
# Elastic Compliance Matrix: (Units=1/GPa)
#
#
# Indices 1 2 3 4 5 6 
#
# 1 0.022320 0.000571 -0.003307 0.000000 -0.007943 0.000000
# 2 0.000571 0.121718 -0.008518 0.000000 -0.048702 0.000000
# 3 -0.003307 -0.008518 0.012011 0.000000 -0.007410 0.000000
# 4 0.000000 0.000000 0.000000 0.053353 0.000000 -0.010248
# 5 -0.007943 -0.048702 -0.007410 0.000000 0.052591 0.000000
# 6 0.000000 0.000000 0.000000 -0.010248 0.000000 0.076252
#
#
# Mechanical properties :
#
#
# Convention : Reuss Voigt Hill
#
# Bulk Modulus (GPa) = 7.48842 48.30469 27.89655
# Shear Modulus (GPa) = 12.33758 27.86782 20.10270
#
# Velocity S-wave (km/s) = 2.38416 3.58320 3.04332
# Velocity P-wave (km/s) = 3.32100 6.27489 5.02012
#
# Compressibility (1/GPa) = 0.13353959
#
# Stress axis : x y z
#
# Youngs Moduli (GPa) = 44.80383 8.21574 83.25394
#
# Poissons Ratio (x) = -0.00469 0.27531
# Poissons Ratio (y) = -0.02556 0.70917
# Poissons Ratio (z) = 0.14816 0.06998
#
# Static dielectric constant tensor:
#      x y z
#    x 1.839260 0.000000 0.013450 
#    y 0.000000 1.747810 0.000000 
#    z 0.013450 0.000000 1.866210 
# 
# From -- ./inp_files/287371.got.cif
#   From: 2010.05.17/outbox.cif.g08.bks.cpg/sg12_144_cif.got.tgz:287371.got - 2010.06.03 13:09:07.
