data_PCOD9190793
_publ_section_title
;
Structure prediction by ZEFSAII (Michael W. Deem and Ramdas Pophale) SiO2 
 PCOD9190793
Probable space group: C 2/M
;
_chemical_formula_sum "Si O2"
_cell_formula_units_Z 64
_cell_length_a 29.865357
_cell_length_b 8.823108
_cell_length_c 16.217894
_cell_angle_alpha 90.000000
_cell_angle_beta 62.338137
_cell_angle_gamma 90.000000
_cell_volume 3785.051549
_symmetry_space_group_name_H-M "C 2/M"
_symmetry_group_IT_number 12
_symmetry_cell_setting 'monoclinic'
loop_
_space_group_symop_operation_xyz
x,y,z
-x,y,-z
-x,-y,-z
x,-y,z
1/2+x,1/2+y,z
1/2-x,1/2+y,-z
1/2-x,1/2-y,-z
1/2+x,1/2-y,z
loop_
_atom_site_type_symbol
_atom_site_label
_atom_site_fract_x
_atom_site_fract_y
_atom_site_fract_z
Si Si1 0.660314 0.680686 0.056868
Si Si2 0.708415 0.181265 0.855339
Si Si3 0.322357 0.317294 0.769028
Si Si4 0.446249 0.679660 0.936730
Si Si5 0.079082 0.316999 0.394636
Si Si6 0.522303 0.184250 0.608227
Si Si7 0.044911 0.318995 0.773621
Si Si8 0.113497 0.181137 0.847522
O O1 0.669991 0.500000 0.041093
O O2 0.670859 0.728971 0.141014
O O3 0.601720 0.704420 0.082298
O O4 0.693446 0.765538 0.960268
O O5 0.766145 0.226953 0.788859
O O6 0.667296 0.253766 0.829756
O O7 0.704751 0.000000 0.854402
O O8 0.325653 0.500000 0.764082
O O9 0.367601 0.249445 0.677325
O O10 0.458471 0.500000 0.926576
O O11 0.494250 0.771106 0.865259
O O12 0.425881 0.721008 0.044957
O O13 0.081483 0.500000 0.390867
O O14 0.059691 0.270871 0.502093
O O15 0.034356 0.268988 0.369769
O O16 0.538538 0.235380 0.684768
O O17 0.521829 0.000000 0.609521
O O18 0.049839 0.500000 0.769529
O O19 0.091713 0.246747 0.781954
O O20 0.116215 0.000000 0.842568
#
# Coordination Sequence:
#
# PCOD9190793 Si02
#       8
#     8   8   8   8   8   8   8   8
#     4   9  18  32  48  69 102 137 163 194 237 285
#     4  10  20  33  49  70  98 130 165 206 243 278
#     4  10  20  32  48  74 104 129 159 202 246 283
#     4   9  18  31  46  67  98 132 162 194 234 282
#     4   9  17  33  55  74  98 132 163 191 233 292
#     4   8  17  33  51  75 103 127 156 198 242 282
#     4  11  20  30  49  74  98 125 161 203 243 286
#     4  10  21  36  50  66  95 132 167 203 242 286
#
# _framework density 16.908619999999999
#
# number of rings (size 3 to 8) (size 9 to 14) (size 15 to 20)
#    0.000    2.500    0.000    4.125    0.000    5.500 
#    0.000    3.125    0.000    0.750    0.000    0.000 
#    0.000    0.000    0.000    0.000    0.000    0.000 
#
# Total GULP energy -178555.200872 kJ/mol
# GULP energy per Si atom -5579.850027 kJ/mol
# Density = 1.687014 g / cm^3
# Si number density = 16.908620 Si / 1000 Ang^3
#
#
#
# Elastic Constant Matrix: (Units=GPa)
#
#
# Indices 1 2 3 4 5 6 
#
# 1 126.9885 42.5209 97.1248 0.0000 2.6561 0.0000
# 2 42.5209 27.6988 32.2219 0.0000 -1.5876 0.0000
# 3 97.1248 32.2219 91.4881 0.0000 -2.1149 0.0000
# 4 0.0000 0.0000 0.0000 22.2357 0.0000 -3.6851
# 5 2.6561 -1.5876 -2.1149 0.0000 30.2955 0.0000
# 6 0.0000 0.0000 0.0000 -3.6851 0.0000 26.6795
#
#
#
# Elastic Compliance Matrix: (Units=1/GPa)
#
#
# Indices 1 2 3 4 5 6 
#
# 1 0.053442 -0.027660 -0.047211 0.000000 -0.009431 0.000000
# 2 -0.027660 0.075565 0.002903 0.000000 0.006588 0.000000
# 3 -0.047211 0.002903 0.060224 0.000000 0.008495 0.000000
# 4 0.000000 0.000000 0.000000 0.046026 0.000000 0.006357
# 5 -0.009431 0.006588 0.008495 0.000000 0.034773 0.000000
# 6 0.000000 0.000000 0.000000 0.006357 0.000000 0.038360
#
#
# Mechanical properties :
#
#
# Convention : Reuss Voigt Hill
#
# Bulk Modulus (GPa) = 22.07768 65.54561 43.81165
# Shear Modulus (GPa) = 10.69690 20.79600 15.74645
#
# Velocity S-wave (km/s) = 2.51794 3.51080 3.05498
# Velocity P-wave (km/s) = 4.64099 7.43526 6.19766
#
# Compressibility (1/GPa) = 0.04529462
#
# Stress axis : x y z
#
# Youngs Moduli (GPa) = 18.71185 13.23366 16.60467
#
# Poissons Ratio (x) = 0.36605 0.78392
# Poissons Ratio (y) = 0.51757 -0.04820
# Poissons Ratio (z) = 0.88340 -0.03842
#
# Static dielectric constant tensor:
#      x y z
#    x 1.575450 0.000000 0.012830 
#    y 0.000000 1.567590 0.000000 
#    z 0.012830 0.000000 1.552300 
# 
# From -- ./inp_files/248961.got.cif
#   From: 2010.05.17/outbox.cif.g08.bks.cpg/sg12_125_cif.got.tgz:248961.got - 2010.06.03 13:09:07.
