data_PCOD9190270
_publ_section_title
;
Structure prediction by ZEFSAII (Michael W. Deem and Ramdas Pophale) SiO2 
 PCOD9190270
Probable space group: C 2/M
;
_chemical_formula_sum "Si O2"
_cell_formula_units_Z 56
_cell_length_a 16.972109
_cell_length_b 26.327573
_cell_length_c 7.161253
_cell_angle_alpha 90.000000
_cell_angle_beta 51.236341
_cell_angle_gamma 90.000000
_cell_volume 2495.070492
_symmetry_space_group_name_H-M "C 2/M"
_symmetry_group_IT_number 12
_symmetry_cell_setting 'monoclinic'
loop_
_space_group_symop_operation_xyz
x,y,z
-x,y,-z
-x,-y,-z
x,-y,z
1/2+x,1/2+y,z
1/2-x,1/2+y,-z
1/2-x,1/2-y,-z
1/2+x,1/2-y,z
loop_
_atom_site_type_symbol
_atom_site_label
_atom_site_fract_x
_atom_site_fract_y
_atom_site_fract_z
Si Si1 0.582611 0.344433 0.653266
Si Si2 0.349538 0.764684 0.455221
Si Si3 0.799592 0.625188 0.435758
Si Si4 0.103952 0.737572 0.222083
Si Si5 0.658115 0.126915 0.053569
Si Si6 0.629569 0.349708 0.134457
Si Si7 0.524713 0.941225 0.739175
O O1 0.578163 0.283195 0.696004
O O2 0.678432 0.364570 0.631865
O O3 0.608757 0.349305 0.391572
O O4 0.471032 0.369741 0.823189
O O5 0.250000 0.750000 0.500000
O O6 0.364758 0.823349 0.380689
O O7 0.321765 0.761923 0.713036
O O8 0.806656 0.612641 0.205826
O O9 0.863147 0.582222 0.447001
O O10 0.122429 0.790244 0.094823
O O11 0.000000 0.734644 0.500000
O O12 0.118576 0.684994 0.097309
O O13 0.756920 0.128002 0.042323
O O14 0.563168 0.090794 0.233051
O O15 0.521349 0.000000 0.692582
O O16 0.500000 0.937516 0.000000
#
# Coordination Sequence:
#
# PCOD9190270 Si02
#       7
#     8   8   8   8   8   8   8
#     4   8  14  26  44  65  92 125 147 181 232 272
#     4   9  16  27  45  64  95 129 153 182 231 277
#     4   9  17  30  48  68  87 120 164 196 233 284
#     4  11  18  29  45  65  98 133 155 189 233 276
#     4  10  20  29  48  70  86 123 167 196 229 282
#     4   9  15  27  42  65  95 120 153 183 221 280
#     4   9  18  32  47  67  94 120 156 208 255 284
#
# _framework density 22.444255999999999
#
# number of rings (size 3 to 8) (size 9 to 14) (size 15 to 20)
#    0.000    2.714    2.857    2.143    0.000    0.000 
#    0.000    0.000    0.000    7.286    0.000    6.000 
#    0.000    0.000    0.000   10.286    0.000   11.429 
#
# Total GULP energy -155946.754167 kJ/mol
# GULP energy per Si atom -5569.526935 kJ/mol
# Density = 2.239317 g / cm^3
# Si number density = 22.444256 Si / 1000 Ang^3
#
#
#
# Elastic Constant Matrix: (Units=GPa)
#
#
# Indices 1 2 3 4 5 6 
#
# 1 172.4715 58.7371 35.8010 0.0000 -43.8434 0.0000
# 2 58.7371 100.3151 16.8304 0.0000 -26.9147 0.0000
# 3 35.8010 16.8304 80.8694 0.0000 -27.1468 0.0000
# 4 0.0000 0.0000 0.0000 31.2507 0.0000 -26.7954
# 5 -43.8434 -26.9147 -27.1468 0.0000 45.9065 0.0000
# 6 0.0000 0.0000 0.0000 -26.7954 0.0000 51.5550
#
#
#
# Elastic Compliance Matrix: (Units=1/GPa)
#
#
# Indices 1 2 3 4 5 6 
#
# 1 0.008599 -0.003346 -0.001263 0.000000 0.005504 0.000000
# 2 -0.003346 0.013133 0.000325 0.000000 0.004696 0.000000
# 3 -0.001263 0.000325 0.015616 0.000000 0.008219 0.000000
# 4 0.000000 0.000000 0.000000 0.057724 0.000000 0.030002
# 5 0.005504 0.004696 0.008219 0.000000 0.034653 0.000000
# 6 0.000000 0.000000 0.000000 0.030002 0.000000 0.034990
#
#
# Mechanical properties :
#
#
# Convention : Reuss Voigt Hill
#
# Bulk Modulus (GPa) = 34.74729 64.04367 49.39548
# Shear Modulus (GPa) = 27.34067 41.89493 34.61780
#
# Velocity S-wave (km/s) = 3.49400 4.32513 3.93159
# Velocity P-wave (km/s) = 5.63849 7.31702 6.53190
#
# Compressibility (1/GPa) = 0.02877922
#
# Stress axis : x y z
#
# Youngs Moduli (GPa) = 116.29364 76.14133 64.03669
#
# Poissons Ratio (x) = 0.25480 0.08086
# Poissons Ratio (y) = 0.38916 -0.02078
# Poissons Ratio (z) = 0.14685 -0.02471
#
# Static dielectric constant tensor:
#      x y z
#    x 1.380550 0.000000 -0.170020 
#    y 0.000000 1.817820 0.000000 
#    z -0.170020 0.000000 1.907450 
# 
# From -- ./inp_files/79656.got.cif
#   From: 2010.05.17/outbox.cif.g08.bks.cpg/sg12_40_cif.got.tgz:79656.got - 2010.06.03 13:09:07.
