data_PCOD9190904
_publ_section_title
;
Structure prediction by ZEFSAII (Michael W. Deem and Ramdas Pophale) SiO2 
 PCOD9190904
Probable space group: C 2/M
;
_chemical_formula_sum "Si O2"
_cell_formula_units_Z 42
_cell_length_a 28.685771
_cell_length_b 8.021847
_cell_length_c 15.402844
_cell_angle_alpha 90.000000
_cell_angle_beta 25.744138
_cell_angle_gamma 90.000000
_cell_volume 1539.517917
_symmetry_space_group_name_H-M "C 2/M"
_symmetry_group_IT_number 12
_symmetry_cell_setting 'monoclinic'
loop_
_space_group_symop_operation_xyz
x,y,z
-x,y,-z
-x,-y,-z
x,-y,z
1/2+x,1/2+y,z
1/2-x,1/2+y,-z
1/2-x,1/2-y,-z
1/2+x,1/2-y,z
loop_
_atom_site_type_symbol
_atom_site_label
_atom_site_fract_x
_atom_site_fract_y
_atom_site_fract_z
Si Si1 0.934654 0.690188 0.498202
Si Si2 0.000000 0.000000 0.500000
Si Si3 0.347942 0.307092 0.099962
Si Si4 0.621340 0.193222 0.771199
Si Si5 0.815110 0.692001 0.973739
Si Si6 0.408301 0.306302 0.360210
O O1 0.919656 0.500000 0.557339
O O2 0.926894 0.849734 0.574625
O O3 0.060753 0.711432 0.260511
O O4 0.879390 0.706467 0.495743
O O5 0.351205 0.500000 0.119313
O O6 0.319407 0.210071 0.235632
O O7 0.289409 0.288556 0.105577
O O8 0.469536 0.252132 0.869882
O O9 0.650417 0.288938 0.634158
O O10 0.617168 0.000000 0.753627
O O11 0.500000 0.250763 0.000000
O O12 0.798799 0.500000 0.019629
O O13 0.750000 0.750000 0.000000
O O14 0.412642 0.500000 0.377987
#
# Coordination Sequence:
#
# PCOD9190904 Si02
#       6
#     8   2   8   8   8   8
#     4  10  21  35  51  75 100 134 172 209 256 302
#     4  12  22  36  56  70 102 136 166 222 250 306
#     4   9  16  25  39  60  90 126 164 194 236 293
#     4   9  15  22  35  57  88 124 158 194 233 290
#     4  10  20  32  50  71 100 136 169 207 247 303
#     4   9  15  26  42  62  90 126 162 195 242 298
#
# _framework density 27.281269000000002
#
# number of rings (size 3 to 8) (size 9 to 14) (size 15 to 20)
#    0.000    2.476    0.952    2.571    2.667    6.857 
#    0.000    0.000    0.000    0.000    0.000    0.000 
#    0.000    1.524    2.667    0.571    0.000    0.381 
#
# Total GULP energy -117313.462166 kJ/mol
# GULP energy per Si atom -5586.355341 kJ/mol
# Density = 2.721918 g / cm^3
# Si number density = 27.281269 Si / 1000 Ang^3
#
#
#
# Elastic Constant Matrix: (Units=GPa)
#
#
# Indices 1 2 3 4 5 6 
#
# 1 183.4475 21.5996 9.4430 0.0000 16.4260 0.0000
# 2 21.5996 114.6591 43.1394 0.0000 42.6463 0.0000
# 3 9.4430 43.1394 104.5279 0.0000 29.1008 0.0000
# 4 0.0000 0.0000 0.0000 22.1963 0.0000 9.7347
# 5 16.4260 42.6463 29.1008 0.0000 46.7706 0.0000
# 6 0.0000 0.0000 0.0000 9.7347 0.0000 53.8764
#
#
#
# Elastic Compliance Matrix: (Units=1/GPa)
#
#
# Indices 1 2 3 4 5 6 
#
# 1 0.005648 -0.000527 0.000152 0.000000 -0.001598 0.000000
# 2 -0.000527 0.013826 -0.002661 0.000000 -0.010766 0.000000
# 3 0.000152 -0.002661 0.012084 0.000000 -0.005145 0.000000
# 4 0.000000 0.000000 0.000000 0.048930 0.000000 -0.008841
# 5 -0.001598 -0.010766 -0.005145 0.000000 0.034960 0.000000
# 6 0.000000 0.000000 0.000000 -0.008841 0.000000 0.020158
#
#
# Mechanical properties :
#
#
# Convention : Reuss Voigt Hill
#
# Bulk Modulus (GPa) = 39.23663 61.22206 50.22935
# Shear Modulus (GPa) = 33.29432 46.46549 39.87991
#
# Velocity S-wave (km/s) = 3.49723 4.13146 3.82750
# Velocity P-wave (km/s) = 5.54265 6.72670 6.16317
#
# Compressibility (1/GPa) = 0.02548639
#
# Stress axis : x y z
#
# Youngs Moduli (GPa) = 177.03992 72.32491 82.75455
#
# Poissons Ratio (x) = 0.03811 -0.01258
# Poissons Ratio (y) = 0.09329 0.22024
# Poissons Ratio (z) = -0.02692 0.19248
#
# Static dielectric constant tensor:
#      x y z
#    x 2.196950 0.000000 -0.169680 
#    y 0.000000 1.934150 0.000000 
#    z -0.169680 0.000000 2.270410 
# 
# From -- ./inp_files/236365.got.cif
#   From: 2010.05.17/outbox.cif.g08.bks.cpg/sg12_119_cif.got.tgz:236365.got - 2010.06.03 13:09:07.
