data_PCOD9190576
_publ_section_title
;
Structure prediction by ZEFSAII (Michael W. Deem and Ramdas Pophale) SiO2 
 PCOD9190576
Probable space group: C 2/M
;
_chemical_formula_sum "Si O2"
_cell_formula_units_Z 56
_cell_length_a 17.843277
_cell_length_b 30.905487
_cell_length_c 19.257517
_cell_angle_alpha 90.000000
_cell_angle_beta 157.904953
_cell_angle_gamma 90.000000
_cell_volume 3994.522118
_symmetry_space_group_name_H-M "C 2/M"
_symmetry_group_IT_number 12
_symmetry_cell_setting 'monoclinic'
loop_
_space_group_symop_operation_xyz
x,y,z
-x,y,-z
-x,-y,-z
x,-y,z
1/2+x,1/2+y,z
1/2-x,1/2+y,-z
1/2-x,1/2-y,-z
1/2+x,1/2-y,z
loop_
_atom_site_type_symbol
_atom_site_label
_atom_site_fract_x
_atom_site_fract_y
_atom_site_fract_z
Si Si1 0.797507 0.733280 0.791545
Si Si2 0.916252 0.448726 0.506432
Si Si3 0.723805 0.833333 0.723805
Si Si4 0.224611 0.320727 0.506432
Si Si5 0.938645 0.113659 0.791546
Si Si6 0.878433 0.230547 0.506432
Si Si7 0.138484 0.619621 0.791545
O O1 0.805307 0.785184 0.792141
O O2 0.604682 0.725079 0.674231
O O3 0.753872 0.719395 0.674932
O O4 0.000000 0.716871 0.000000
O O5 0.924884 0.500000 0.523737
O O6 0.693630 0.429772 0.325067
O O7 0.000000 0.439457 0.500000
O O8 0.046625 0.422235 0.674231
O O9 0.500000 0.833334 0.500000
O O10 0.713333 0.850825 0.792141
O O11 0.857783 0.863991 0.792142
O O12 0.371387 0.352686 0.674232
O O13 0.159185 0.280271 0.499999
O O14 0.323164 0.299426 0.523738
O O15 0.035446 0.350833 0.325068
O O16 0.174694 0.108435 1.000000
#
# Coordination Sequence:
#
# PCOD9190576 Si02
#       7
#     8   8   8   8   8   8   8
#     4  11  19  30  47  63  83 116 153 190 226 261
#     4  10  20  32  43  62  90 115 146 189 229 263
#     4  12  16  29  43  61  86 115 157 188 220 262
#     4  10  20  32  43  62  90 115 146 189 229 263
#     4  11  19  30  47  63  83 116 153 190 226 261
#     4  10  20  32  43  62  90 115 146 189 229 263
#     4  11  19  30  47  63  83 116 153 190 226 261
#
# _framework density 14.019199
#
# number of rings (size 3 to 8) (size 9 to 14) (size 15 to 20)
#    0.000    1.286    8.571    1.286    0.000    1.714 
#    0.000    4.286    0.000    0.000    0.000    0.000 
#    0.000    0.000    0.000   41.143    0.000   89.143 
#
# Total GULP energy -156085.036322 kJ/mol
# GULP energy per Si atom -5574.465583 kJ/mol
# Density = 1.398729 g / cm^3
# Si number density = 14.019199 Si / 1000 Ang^3
#
#
#
# Elastic Constant Matrix: (Units=GPa)
#
#
# Indices 1 2 3 4 5 6 
#
# 1 59.6229 18.7645 15.0710 0.0003 3.0982 -0.0001
# 2 18.7645 60.2646 13.8568 0.0003 1.1151 0.0000
# 3 15.0710 13.8568 104.0268 -0.0008 -9.0074 0.0000
# 4 0.0003 0.0003 -0.0008 7.7107 -0.0001 2.0531
# 5 3.0982 1.1151 -9.0074 -0.0001 8.8128 0.0000
# 6 -0.0001 0.0000 0.0000 2.0531 0.0000 20.3470
#
#
#
# Elastic Compliance Matrix: (Units=1/GPa)
#
#
# Indices 1 2 3 4 5 6 
#
# 1 0.019657 -0.005272 -0.002947 -0.000001 -0.009256 0.000000
# 2 -0.005272 0.018729 -0.001948 -0.000001 -0.002508 0.000000
# 3 -0.002947 -0.001948 0.011421 0.000002 0.012956 0.000000
# 4 -0.000001 -0.000001 0.000002 0.133271 0.000004 -0.013448
# 5 -0.009256 -0.002508 0.012956 0.000004 0.130284 -0.000001
# 6 0.000000 0.000000 0.000000 -0.013448 -0.000001 0.050504
#
#
# Mechanical properties :
#
#
# Convention : Reuss Voigt Hill
#
# Bulk Modulus (GPa) = 33.92865 35.47765 34.70315
# Shear Modulus (GPa) = 12.68952 19.12223 15.90587
#
# Velocity S-wave (km/s) = 3.01184 3.69725 3.37200
# Velocity P-wave (km/s) = 6.02901 6.60209 6.32205
#
# Compressibility (1/GPa) = 0.02947362
#
# Stress axis : x y z
#
# Youngs Moduli (GPa) = 50.87235 53.39234 87.55657
#
# Poissons Ratio (x) = 0.28147 0.25803
# Poissons Ratio (y) = 0.26818 0.17058
# Poissons Ratio (z) = 0.14992 0.10402
#
# Static dielectric constant tensor:
#      x y z
#    x 1.444540 0.000000 -0.005930 
#    y 0.000000 1.443830 0.000000 
#    z -0.005930 0.000000 1.493380 
# 
# From -- ./inp_files/286727.got.cif
#   From: 2010.05.17/outbox.cif.g08.bks.cpg/sg12_144_cif.got.tgz:286727.got - 2010.06.03 13:09:07.
