data_PCOD9190774
_publ_section_title
;
Structure prediction by ZEFSAII (Michael W. Deem and Ramdas Pophale) SiO2 
 PCOD9190774
Probable space group: C 2/M
;
_chemical_formula_sum "Si O2"
_cell_formula_units_Z 48
_cell_length_a 28.047308
_cell_length_b 9.123354
_cell_length_c 13.794289
_cell_angle_alpha 90.000000
_cell_angle_beta 120.685845
_cell_angle_gamma 90.000000
_cell_volume 3035.516247
_symmetry_space_group_name_H-M "C 2/M"
_symmetry_group_IT_number 12
_symmetry_cell_setting 'monoclinic'
loop_
_space_group_symop_operation_xyz
x,y,z
-x,y,-z
-x,-y,-z
x,-y,z
1/2+x,1/2+y,z
1/2-x,1/2+y,-z
1/2-x,1/2-y,-z
1/2+x,1/2-y,z
loop_
_atom_site_type_symbol
_atom_site_label
_atom_site_fract_x
_atom_site_fract_y
_atom_site_fract_z
Si Si1 0.933687 0.824874 0.042062
Si Si2 0.233749 0.326145 0.635596
Si Si3 0.719415 0.326041 0.823346
Si Si4 0.938166 0.174909 0.818141
Si Si5 0.333462 0.173395 0.629816
Si Si6 0.335219 0.173713 0.053915
O O1 0.889089 0.738621 0.058184
O O2 0.997448 0.790091 0.134681
O O3 0.925977 0.000000 0.046173
O O4 0.927356 0.793215 0.920795
O O5 0.240897 0.500000 0.657197
O O6 0.215201 0.249845 0.715039
O O7 0.291184 0.255636 0.658102
O O8 0.190192 0.302850 0.502899
O O9 0.710345 0.500000 0.807202
O O10 0.678748 0.254564 0.860122
O O11 0.781714 0.301669 0.929259
O O12 0.894259 0.262415 0.709240
O O13 0.930997 0.000000 0.797529
O O14 0.332043 0.000000 0.648189
O O15 0.340359 0.000000 0.074860
#
# Coordination Sequence:
#
# PCOD9190774 Si02
#       6
#     8   8   8   8   8   8
#     4   9  18  32  49  71  98 128 161 195 235 282
#     4  10  20  33  49  70  98 129 159 195 238 282
#     4  10  20  33  50  72  97 126 160 196 235 283
#     4   9  18  32  50  71  97 129 161 195 236 281
#     4  10  20  32  48  72  99 127 160 196 236 282
#     4  10  20  32  48  72  99 127 158 194 238 283
#
# _framework density 15.812797
#
# number of rings (size 3 to 8) (size 9 to 14) (size 15 to 20)
#    0.000    2.333    0.000    4.000    0.000    8.000 
#    0.000    1.667    0.000    1.000    0.000    7.000 
#    0.000    0.000    0.000    0.000    0.000    0.000 
#
# Total GULP energy -133938.206388 kJ/mol
# GULP energy per Si atom -5580.758599 kJ/mol
# Density = 1.577681 g / cm^3
# Si number density = 15.812797 Si / 1000 Ang^3
#
#
#
# Elastic Constant Matrix: (Units=GPa)
#
#
# Indices 1 2 3 4 5 6 
#
# 1 128.4583 75.9528 57.0118 0.0000 -11.2179 0.0000
# 2 75.9528 84.6607 60.4365 0.0000 -5.8705 0.0000
# 3 57.0118 60.4365 63.1704 0.0000 -5.7175 0.0000
# 4 0.0000 0.0000 0.0000 29.2676 0.0000 -1.6104
# 5 -11.2179 -5.8705 -5.7175 0.0000 24.8072 0.0000
# 6 0.0000 0.0000 0.0000 -1.6104 0.0000 33.3684
#
#
#
# Elastic Compliance Matrix: (Units=1/GPa)
#
#
# Indices 1 2 3 4 5 6 
#
# 1 0.017073 -0.013558 -0.002072 0.000000 0.004034 0.000000
# 2 -0.013558 0.048034 -0.033953 0.000000 -0.002589 0.000000
# 3 -0.002072 -0.033953 0.050424 0.000000 0.002650 0.000000
# 4 0.000000 0.000000 0.000000 0.034258 0.000000 0.001653
# 5 0.004034 -0.002589 0.002650 0.000000 0.042133 0.000000
# 6 0.000000 0.000000 0.000000 0.001653 0.000000 0.030048
#
#
# Mechanical properties :
#
#
# Convention : Reuss Voigt Hill
#
# Bulk Modulus (GPa) = 61.10936 73.67685 67.39311
# Shear Modulus (GPa) = 15.30966 23.01453 19.16209
#
# Velocity S-wave (km/s) = 3.11494 3.81916 3.48488
# Velocity P-wave (km/s) = 7.18794 8.13279 7.67492
#
# Compressibility (1/GPa) = 0.01636410
#
# Stress axis : x y z
#
# Youngs Moduli (GPa) = 58.57257 20.81879 19.83182
#
# Poissons Ratio (x) = 0.28226 0.04110
# Poissons Ratio (y) = 0.79411 0.67335
# Poissons Ratio (z) = 0.12138 0.70686
#
# Static dielectric constant tensor:
#      x y z
#    x 1.501460 0.000000 0.007640 
#    y 0.000000 1.522200 0.000000 
#    z 0.007640 0.000000 1.515330 
# 
# From -- ./inp_files/173084.got.cif
#   From: 2010.05.17/outbox.cif.g08.bks.cpg/sg12_87_cif.got.tgz:173084.got - 2010.06.03 13:09:07.
