data_PCOD9190156
_publ_section_title
;
Structure prediction by ZEFSAII (Michael W. Deem and Ramdas Pophale) SiO2 
 PCOD9190156
Probable space group: C 2/M
;
_chemical_formula_sum "Si O2"
_cell_formula_units_Z 44
_cell_length_a 17.276503
_cell_length_b 14.728787
_cell_length_c 11.053921
_cell_angle_alpha 90.000000
_cell_angle_beta 53.549276
_cell_angle_gamma 90.000000
_cell_volume 2262.528361
_symmetry_space_group_name_H-M "C 2/M"
_symmetry_group_IT_number 12
_symmetry_cell_setting 'monoclinic'
loop_
_space_group_symop_operation_xyz
x,y,z
-x,y,-z
-x,-y,-z
x,-y,z
1/2+x,1/2+y,z
1/2-x,1/2+y,-z
1/2-x,1/2-y,-z
1/2+x,1/2-y,z
loop_
_atom_site_type_symbol
_atom_site_label
_atom_site_fract_x
_atom_site_fract_y
_atom_site_fract_z
Si Si1 0.286585 0.353839 0.466168
Si Si2 0.353268 0.104738 0.210883
Si Si3 0.531584 0.254399 0.735290
Si Si4 0.789558 0.402283 0.712255
Si Si5 0.174377 0.751371 0.961468
Si Si6 0.000000 0.327408 0.500000
O O1 0.250000 0.250000 0.500000
O O2 0.250495 0.393310 0.625701
O O3 0.397759 0.341028 0.331447
O O4 0.231573 0.403414 0.410471
O O5 0.421930 0.170063 0.230329
O O6 0.340256 0.156687 0.096274
O O7 0.385865 0.000000 0.172087
O O8 0.521519 0.226967 0.603671
O O9 0.429583 0.276249 0.889392
O O10 0.766866 0.500000 0.788618
O O11 0.721231 0.323695 0.826620
O O12 0.902520 0.381649 0.621014
O O13 0.250000 0.750000 0.000000
#
# Coordination Sequence:
#
# PCOD9190156 Si02
#       6
#     8   8   8   8   8   4
#     4  10  19  40  65  91 123 169 211 252 313 377
#     4  11  23  42  68  97 125 163 213 266 317 372
#     4  11  23  39  69  92 129 170 212 256 320 378
#     4  12  24  41  65  96 129 165 211 265 318 374
#     4  12  25  43  62  92 134 170 205 260 323 382
#     4  12  21  40  66 100 125 160 213 276 314 368
#
# _framework density 19.44727
#
# number of rings (size 3 to 8) (size 9 to 14) (size 15 to 20)
#    0.000    0.727    9.091    1.364    0.000    2.909 
#    0.000    2.727    0.000    1.091    0.000    0.000 
#    0.000    0.000    0.000    0.000    0.000    0.000 
#
# Total GULP energy -122710.985825 kJ/mol
# GULP energy per Si atom -5577.772083 kJ/mol
# Density = 1.940301 g / cm^3
# Si number density = 19.447270 Si / 1000 Ang^3
#
#
#
# Elastic Constant Matrix: (Units=GPa)
#
#
# Indices 1 2 3 4 5 6 
#
# 1 105.6511 15.4692 26.7557 0.0000 -3.7955 0.0000
# 2 15.4692 66.6421 6.0528 0.0000 -9.5068 0.0000
# 3 26.7557 6.0528 97.4557 0.0000 -24.4324 0.0000
# 4 0.0000 0.0000 0.0000 4.7790 0.0000 0.8110
# 5 -3.7955 -9.5068 -24.4324 0.0000 49.9797 0.0000
# 6 0.0000 0.0000 0.0000 0.8110 0.0000 -1.6412
#
#
#
# Elastic Compliance Matrix: (Units=1/GPa)
#
#
# Indices 1 2 3 4 5 6 
#
# 1 0.010533 -0.002330 -0.003029 0.000000 -0.001124 0.000000
# 2 -0.002330 0.015945 0.000416 0.000000 0.003060 0.000000
# 3 -0.003029 0.000416 0.012569 0.000000 0.005994 0.000000
# 4 0.000000 0.000000 0.000000 0.193061 0.000000 0.095399
# 5 -0.001124 0.003060 0.005994 0.000000 0.023435 0.000000
# 6 0.000000 0.000000 0.000000 0.095399 0.000000 -0.562169
#
#
# Mechanical properties :
#
#
# Convention : Reuss Voigt Hill
#
# Bulk Modulus (GPa) = 34.29082 40.70049 37.49566
# Shear Modulus (GPa) = -17.42035 25.38826 3.98395
#
# Velocity S-wave (km/s) = -2.99619 3.61708 1.43284
# Velocity P-wave (km/s) = 2.38776 6.19826 4.69680
#
# Compressibility (1/GPa) = 0.02916232
#
# Stress axis : x y z
#
# Youngs Moduli (GPa) = 94.94017 62.71539 79.55850
#
# Poissons Ratio (x) = 0.14614 0.24097
# Poissons Ratio (y) = 0.22123 -0.03313
# Poissons Ratio (z) = 0.28755 -0.02612
#
# Static dielectric constant tensor:
#      x y z
#    x 1.713560 0.000000 0.017070 
#    y 0.000000 1.716570 0.000000 
#    z 0.017070 0.000000 1.764680 
# 
# From -- ./inp_files/155813.got.cif
#   From: 2010.05.17/outbox.cif.g08.bks.cpg/sg12_78_cif.got.tgz:155813.got - 2010.06.03 13:09:07.
