data_PCOD9190702
_publ_section_title
;
Structure prediction by ZEFSAII (Michael W. Deem and Ramdas Pophale) SiO2 
 PCOD9190702
Probable space group: C 2/M
;
_chemical_formula_sum "Si O2"
_cell_formula_units_Z 56
_cell_length_a 7.371825
_cell_length_b 18.776034
_cell_length_c 25.547407
_cell_angle_alpha 90.000000
_cell_angle_beta 132.721814
_cell_angle_gamma 90.000000
_cell_volume 2597.825305
_symmetry_space_group_name_H-M "C 2/M"
_symmetry_group_IT_number 12
_symmetry_cell_setting 'monoclinic'
loop_
_space_group_symop_operation_xyz
x,y,z
-x,y,-z
-x,-y,-z
x,-y,z
1/2+x,1/2+y,z
1/2-x,1/2+y,-z
1/2-x,1/2-y,-z
1/2+x,1/2-y,z
loop_
_atom_site_type_symbol
_atom_site_label
_atom_site_fract_x
_atom_site_fract_y
_atom_site_fract_z
Si Si1 0.358078 0.167038 0.273659
Si Si2 0.893149 0.083298 0.563987
Si Si3 0.110060 0.580569 0.168895
Si Si4 0.103175 0.582187 0.407668
Si Si5 0.675612 0.081098 0.984625
Si Si6 0.614445 0.581992 0.139161
Si Si7 0.150495 0.832596 0.700034
O O1 0.404850 0.127307 0.337417
O O2 0.144911 0.131473 0.196061
O O3 0.604903 0.156675 0.287346
O O4 0.348422 0.250156 0.284569
O O5 0.678537 0.104139 0.481128
O O6 0.143916 0.084905 0.577588
O O7 0.935775 0.135005 0.621381
O O8 0.860700 0.000000 0.573258
O O9 0.194636 0.500000 0.174007
O O10 0.315287 0.624001 0.239732
O O11 0.987045 0.614577 0.093192
O O12 0.878718 0.576371 0.163247
O O13 0.027021 0.500000 0.394502
O O14 0.732935 0.000000 0.977183
O O15 0.500000 0.076907 0.000000
O O16 0.927947 0.110919 0.058062
O O17 0.537699 0.500000 0.137204
#
# Coordination Sequence:
#
# PCOD9190702 Si02
#       7
#     8   8   8   8   8   8   8
#     4  10  20  32  47  70  99 129 160 194 235 282
#     4   8  14  27  49  74  96 121 159 203 238 271
#     4   9  17  31  51  71  92 122 161 200 234 274
#     4   8  14  27  49  74  96 121 159 203 238 271
#     4   9  17  29  48  75 100 119 147 193 246 291
#     4   9  17  31  51  71  92 122 161 200 234 274
#     4  10  20  32  47  70  99 129 160 194 235 282
#
# _framework density 21.556491000000001
#
# number of rings (size 3 to 8) (size 9 to 14) (size 15 to 20)
#    0.000    3.000    0.000    2.143    0.000    6.857 
#    0.000    0.714    0.000    2.571    0.000    2.000 
#    0.000    0.000    0.000    0.000    0.000    0.000 
#
# Total GULP energy -156166.570887 kJ/mol
# GULP energy per Si atom -5577.377532 kJ/mol
# Density = 2.150743 g / cm^3
# Si number density = 21.556491 Si / 1000 Ang^3
#
#
#
# Elastic Constant Matrix: (Units=GPa)
#
#
# Indices 1 2 3 4 5 6 
#
# 1 48.9946 1.0362 12.8163 0.0036 -12.3318 0.0000
# 2 1.0362 86.0358 107.0536 0.0020 -21.9478 0.0000
# 3 12.8163 107.0536 229.6216 0.0082 -37.7395 0.0000
# 4 0.0036 0.0020 0.0082 -222.6663 0.0043 -3.7975
# 5 -12.3318 -21.9478 -37.7395 0.0043 30.0233 0.0000
# 6 0.0000 0.0000 0.0000 -3.7975 0.0000 18.2828
#
#
#
# Elastic Compliance Matrix: (Units=1/GPa)
#
#
# Indices 1 2 3 4 5 6 
#
# 1 0.023486 0.004525 -0.001628 0.000001 0.010909 0.000000
# 2 0.004525 0.029176 -0.012660 0.000000 0.007274 0.000000
# 3 -0.001628 -0.012660 0.010987 0.000000 0.003887 0.000000
# 4 0.000001 0.000000 0.000000 -0.004475 0.000001 -0.000930
# 5 0.010909 0.007274 0.003887 0.000001 0.047993 0.000000
# 6 0.000000 0.000000 0.000000 -0.000930 0.000000 0.054503
#
#
# Mechanical properties :
#
#
# Convention : Reuss Voigt Hill
#
# Bulk Modulus (GPa) = 22.66251 67.38491 45.02371
# Shear Modulus (GPa) = 25.52290 -18.62230 3.45030
#
# Velocity S-wave (km/s) = 3.44466 -2.94238 1.26651
# Velocity P-wave (km/s) = 5.13389 4.44793 4.80317
#
# Compressibility (1/GPa) = 0.04412574
#
# Stress axis : x y z
#
# Youngs Moduli (GPa) = 42.57810 34.27418 91.01746
#
# Poissons Ratio (x) = -0.15511 0.14816
# Poissons Ratio (y) = -0.19269 1.15224
# Poissons Ratio (z) = 0.06931 0.43390
#
# Static dielectric constant tensor:
#      x y z
#    x 1.855570 0.000000 0.015770 
#    y 0.000000 1.749170 0.000000 
#    z 0.015770 0.000000 1.823480 
# 
# From -- ./inp_files/300878.got.cif
#   From: 2010.05.17/outbox.cif.g08.bks.cpg/sg12_151_cif.got.tgz:300878.got - 2010.06.03 13:09:07.
