data_PCOD9190562
_publ_section_title
;
Structure prediction by ZEFSAII (Michael W. Deem and Ramdas Pophale) SiO2 
 PCOD9190562
Probable space group: C 2/M
;
_chemical_formula_sum "Si O2"
_cell_formula_units_Z 48
_cell_length_a 12.731545
_cell_length_b 18.557099
_cell_length_c 21.655296
_cell_angle_alpha 90.000000
_cell_angle_beta 151.939526
_cell_angle_gamma 90.000000
_cell_volume 2406.720238
_symmetry_space_group_name_H-M "C 2/M"
_symmetry_group_IT_number 12
_symmetry_cell_setting 'monoclinic'
loop_
_space_group_symop_operation_xyz
x,y,z
-x,y,-z
-x,-y,-z
x,-y,z
1/2+x,1/2+y,z
1/2-x,1/2+y,-z
1/2-x,1/2-y,-z
1/2+x,1/2-y,z
loop_
_atom_site_type_symbol
_atom_site_label
_atom_site_fract_x
_atom_site_fract_y
_atom_site_fract_z
Si Si1 0.087512 0.853558 0.649996
Si Si2 0.916808 0.636743 0.636311
Si Si3 0.029820 0.580348 0.823972
Si Si4 0.034844 0.206297 0.753599
Si Si5 0.618201 0.698873 0.999527
Si Si6 0.722816 0.803876 0.697834
O O1 0.288639 0.899302 0.726465
O O2 0.106670 0.842350 0.733646
O O3 0.104562 0.773394 0.629201
O O4 0.840258 0.881360 0.507879
O O5 0.012153 0.588141 0.740520
O O6 0.942687 0.718778 0.676171
O O7 0.059064 0.640751 0.647135
O O8 0.095152 0.500000 0.875459
O O9 0.207805 0.640709 0.935676
O O10 0.241074 0.232571 0.903248
O O11 0.841063 0.174180 0.695894
O O12 0.500000 0.669089 0.000000
O O13 0.424117 0.712924 0.850391
#
# Coordination Sequence:
#
# PCOD9190562 Si02
#       6
#     8   8   8   8   8   8
#     4  11  21  34  54  84 116 148 185 226 282 341
#     4  10  21  34  53  85 115 146 187 227 278 337
#     4  11  24  40  58  80 111 154 196 237 274 324
#     4  10  20  31  55  86 117 146 172 228 291 345
#     4  11  19  36  57  87 113 144 186 234 287 334
#     4  11  19  34  56  87 117 146 177 231 294 339
#
# _framework density 19.944154000000001
#
# number of rings (size 3 to 8) (size 9 to 14) (size 15 to 20)
#    0.000    1.333    8.333    3.000    0.000    3.667 
#    0.000    0.000    0.000    3.000    0.000    2.333 
#    0.000    0.000    0.000    0.000    0.000    0.000 
#
# Total GULP energy -134029.416436 kJ/mol
# GULP energy per Si atom -5584.559018 kJ/mol
# Density = 1.989876 g / cm^3
# Si number density = 19.944154 Si / 1000 Ang^3
#
#
#
# Elastic Constant Matrix: (Units=GPa)
#
#
# Indices 1 2 3 4 5 6 
#
# 1 127.2864 11.8964 0.1163 0.0002 21.7762 -0.0004
# 2 11.8964 16.4066 -0.6194 -0.0004 -3.6571 -0.0001
# 3 0.1163 -0.6194 69.2172 0.0027 17.7083 0.0004
# 4 0.0002 -0.0004 0.0027 -1.3930 0.0005 -1.7303
# 5 21.7762 -3.6571 17.7083 0.0005 29.7332 -0.0001
# 6 -0.0004 -0.0001 0.0004 -1.7303 -0.0001 11.7710
#
#
#
# Elastic Compliance Matrix: (Units=1/GPa)
#
#
# Indices 1 2 3 4 5 6 
#
# 1 0.010577 -0.009913 0.002581 0.000004 -0.010503 0.000001
# 2 -0.009913 0.072123 -0.004088 -0.000019 0.018566 -0.000002
# 3 0.002581 -0.004088 0.017718 0.000026 -0.012945 0.000003
# 4 0.000004 -0.000019 0.000026 -0.607032 -0.000010 -0.089230
# 5 -0.010503 0.018566 -0.012945 -0.000010 0.051318 -0.000001
# 6 0.000001 -0.000002 0.000003 -0.089230 -0.000001 0.071838
#
#
# Mechanical properties :
#
#
# Convention : Reuss Voigt Hill
#
# Bulk Modulus (GPa) = 12.89026 26.18853 19.53940
# Shear Modulus (GPa) = -14.93625 21.45669 3.26022
#
# Velocity S-wave (km/s) = -2.73958 3.28356 1.27993
# Velocity P-wave (km/s) = 1.87879 5.24739 3.46448
#
# Compressibility (1/GPa) = 0.07757795
#
# Stress axis : x y z
#
# Youngs Moduli (GPa) = 94.54207 13.86511 56.43903
#
# Poissons Ratio (x) = 0.13745 -0.14564
# Poissons Ratio (y) = 0.93723 0.23071
# Poissons Ratio (z) = -0.24397 0.05668
#
# Static dielectric constant tensor:
#      x y z
#    x 1.767250 0.000000 0.004400 
#    y 0.000000 1.676210 0.000000 
#    z 0.004400 0.000000 1.728400 
# 
# From -- ./inp_files/306841.got.cif
#   From: 2010.05.17/outbox.cif.g08.bks.cpg/sg12_154_cif.got.tgz:306841.got - 2010.06.03 13:09:07.
