data_PCOD9190115
_publ_section_title
;
Structure prediction by ZEFSAII (Michael W. Deem and Ramdas Pophale) SiO2 
 PCOD9190115
Probable space group: C 2/M
;
_chemical_formula_sum "Si O2"
_cell_formula_units_Z 56
_cell_length_a 19.019660
_cell_length_b 19.585253
_cell_length_c 15.905909
_cell_angle_alpha 90.000000
_cell_angle_beta 149.000903
_cell_angle_gamma 90.000000
_cell_volume 3051.535124
_symmetry_space_group_name_H-M "C 2/M"
_symmetry_group_IT_number 12
_symmetry_cell_setting 'monoclinic'
loop_
_space_group_symop_operation_xyz
x,y,z
-x,y,-z
-x,-y,-z
x,-y,z
1/2+x,1/2+y,z
1/2-x,1/2+y,-z
1/2-x,1/2-y,-z
1/2+x,1/2-y,z
loop_
_atom_site_type_symbol
_atom_site_label
_atom_site_fract_x
_atom_site_fract_y
_atom_site_fract_z
Si Si1 0.670472 0.829325 0.001793
Si Si2 0.563447 0.315951 0.831803
Si Si3 0.725658 0.315797 0.533845
Si Si4 0.340128 0.223818 0.832309
Si Si5 0.616772 0.624368 0.062925
Si Si6 0.045662 0.581579 0.288328
Si Si7 0.578740 0.919439 0.660741
O O1 0.798211 0.838651 0.071750
O O2 0.721485 0.809211 0.146687
O O3 0.585404 0.763611 0.879837
O O4 0.569388 0.893154 0.895117
O O5 0.434837 0.328600 0.641093
O O6 0.548764 0.354463 0.905062
O O7 0.750000 0.250000 0.500000
O O8 0.772504 0.298468 0.676342
O O9 0.816565 0.378055 0.591986
O O10 0.340985 0.305613 0.845653
O O11 0.500000 0.203825 0.000000
O O12 0.759721 0.589284 0.187150
O O13 0.500000 0.589573 0.000000
O O14 0.062962 0.500000 0.305505
O O15 0.983270 0.605652 0.314635
O O16 0.500000 0.888631 0.500000
O O17 0.550517 0.000000 0.633467
#
# Coordination Sequence:
#
# PCOD9190115 Si02
#       7
#     8   8   8   8   8   8   8
#     4  10  19  40  59  84 122 155 205 250 299 366
#     4  10  21  35  59  88 117 157 195 252 306 355
#     4  12  22  37  61  90 123 158 203 258 310 359
#     4  10  20  35  58  90 119 147 201 257 303 364
#     4  10  20  35  56  85 118 152 194 247 309 356
#     4  11  23  41  63  87 123 170 208 246 304 372
#     4  10  23  39  56  84 121 162 207 242 289 371
#
# _framework density 18.351419
#
# number of rings (size 3 to 8) (size 9 to 14) (size 15 to 20)
#    0.000    1.571    4.286    1.714    4.000    0.857 
#    0.000    2.857    0.000    0.000    0.000    2.000 
#    0.000    0.000    0.000    0.000    0.000    0.000 
#
# Total GULP energy -156206.482845 kJ/mol
# GULP energy per Si atom -5578.802959 kJ/mol
# Density = 1.830965 g / cm^3
# Si number density = 18.351419 Si / 1000 Ang^3
#
#
#
# Elastic Constant Matrix: (Units=GPa)
#
#
# Indices 1 2 3 4 5 6 
#
# 1 90.8667 18.5078 33.0585 0.0000 -10.9782 0.0000
# 2 18.5078 52.1230 19.4119 0.0000 -2.1852 0.0000
# 3 33.0585 19.4119 119.8720 0.0000 -10.4990 0.0000
# 4 0.0000 0.0000 0.0000 15.6289 0.0000 4.4050
# 5 -10.9782 -2.1852 -10.4990 0.0000 29.5163 0.0000
# 6 0.0000 0.0000 0.0000 4.4050 0.0000 16.9399
#
#
#
# Elastic Compliance Matrix: (Units=1/GPa)
#
#
# Indices 1 2 3 4 5 6 
#
# 1 0.013157 -0.003497 -0.002742 0.000000 0.003659 0.000000
# 2 -0.003497 0.021350 -0.002548 0.000000 -0.000626 0.000000
# 3 -0.002742 -0.002548 0.009707 0.000000 0.002245 0.000000
# 4 0.000000 0.000000 0.000000 0.069044 0.000000 -0.017954
# 5 0.003659 -0.000626 0.002245 0.000000 0.035993 0.000000
# 6 0.000000 0.000000 0.000000 -0.017954 0.000000 0.063701
#
#
# Mechanical properties :
#
#
# Convention : Reuss Voigt Hill
#
# Bulk Modulus (GPa) = 37.53610 44.97978 41.25794
# Shear Modulus (GPa) = 20.88505 25.20926 23.04715
#
# Velocity S-wave (km/s) = 3.37718 3.71036 3.54768
# Velocity P-wave (km/s) = 5.97541 6.55127 6.26996
#
# Compressibility (1/GPa) = 0.02664102
#
# Stress axis : x y z
#
# Youngs Moduli (GPa) = 76.00497 46.83884 103.01334
#
# Poissons Ratio (x) = 0.16381 0.28242
# Poissons Ratio (y) = 0.26581 0.26245
# Poissons Ratio (z) = 0.20838 0.11933
#
# Static dielectric constant tensor:
#      x y z
#    x 1.675670 0.000000 -0.005470 
#    y 0.000000 1.631670 0.000000 
#    z -0.005470 0.000000 1.638730 
# 
# From -- ./inp_files/227637.got.cif
#   From: 2010.05.17/outbox.cif.g08.bks.cpg/sg12_114_cif.got.tgz:227637.got - 2010.06.03 13:09:07.
