data_PCOD9190230
_publ_section_title
;
Structure prediction by ZEFSAII (Michael W. Deem and Ramdas Pophale) SiO2 
 PCOD9190230
Probable space group: C 2/M
;
_chemical_formula_sum "Si O2"
_cell_formula_units_Z 40
_cell_length_a 17.943171
_cell_length_b 14.649019
_cell_length_c 14.422401
_cell_angle_alpha 90.000000
_cell_angle_beta 148.332271
_cell_angle_gamma 90.000000
_cell_volume 1990.207181
_symmetry_space_group_name_H-M "C 2/M"
_symmetry_group_IT_number 12
_symmetry_cell_setting 'monoclinic'
loop_
_space_group_symop_operation_xyz
x,y,z
-x,y,-z
-x,-y,-z
x,-y,z
1/2+x,1/2+y,z
1/2-x,1/2+y,-z
1/2-x,1/2-y,-z
1/2+x,1/2-y,z
loop_
_atom_site_type_symbol
_atom_site_label
_atom_site_fract_x
_atom_site_fract_y
_atom_site_fract_z
Si Si1 0.552832 0.601919 0.720953
Si Si2 0.000000 0.825257 0.000000
Si Si3 0.666256 0.846759 0.908437
Si Si4 0.000000 0.757235 0.500000
Si Si5 0.203891 0.399025 0.737370
Si Si6 0.089587 0.760801 0.292858
O O1 0.497713 0.500000 0.643594
O O2 0.529560 0.676002 0.616176
O O3 0.476423 0.647585 0.729266
O O4 0.722377 0.595705 0.914787
O O5 0.129360 0.884797 0.098312
O O6 0.063995 0.769781 0.155347
O O7 0.664191 0.886619 0.803230
O O8 0.510465 0.823052 0.779663
O O9 0.750000 0.750000 0.000000
O O10 0.125746 0.686891 0.608177
O O11 0.163510 0.500000 0.661419
O O12 0.250000 0.750000 0.500000
#
# Coordination Sequence:
#
# PCOD9190230 Si02
#       6
#     8   4   8   4   8   8
#     4  11  22  41  67  92 128 176 229 276 331 409
#     4  12  23  38  66 100 135 180 221 274 350 408
#     4  10  19  42  64  86 128 177 222 268 326 398
#     4  12  22  42  64  96 130 166 230 278 344 394
#     4  12  24  40  65  98 132 173 224 276 340 409
#     4  11  23  42  65  98 140 181 221 285 345 401
#
# _framework density 20.098409
#
# number of rings (size 3 to 8) (size 9 to 14) (size 15 to 20)
#    0.000    0.800    8.000    2.700    0.000    0.800 
#    0.000    2.000    0.000    0.000    0.000   10.500 
#    0.000    0.000    0.000    0.000    0.000    0.000 
#
# Total GULP energy -111544.583016 kJ/mol
# GULP energy per Si atom -5577.229151 kJ/mol
# Density = 2.005266 g / cm^3
# Si number density = 20.098409 Si / 1000 Ang^3
#
#
#
# Elastic Constant Matrix: (Units=GPa)
#
#
# Indices 1 2 3 4 5 6 
#
# 1 103.7994 34.0743 61.0049 0.0000 1.4462 0.0000
# 2 34.0743 144.7956 48.8210 0.0000 0.4111 0.0000
# 3 61.0049 48.8210 150.8351 0.0000 8.2775 0.0000
# 4 0.0000 0.0000 0.0000 -0.9027 0.0000 11.2626
# 5 1.4462 0.4111 8.2775 0.0000 40.6617 0.0000
# 6 0.0000 0.0000 0.0000 11.2626 0.0000 -1.1875
#
#
#
# Elastic Compliance Matrix: (Units=1/GPa)
#
#
# Indices 1 2 3 4 5 6 
#
# 1 0.012909 -0.001425 -0.004789 0.000000 0.000530 0.000000
# 2 -0.001425 0.007917 -0.002007 0.000000 0.000379 0.000000
# 3 -0.004789 -0.002007 0.009310 0.000000 -0.001705 0.000000
# 4 0.000000 0.000000 0.000000 0.009441 0.000000 0.089546
# 5 0.000530 0.000379 -0.001705 0.000000 0.024917 0.000000
# 6 0.000000 0.000000 0.000000 0.089546 0.000000 0.007177
#
#
# Mechanical properties :
#
#
# Convention : Reuss Voigt Hill
#
# Bulk Modulus (GPa) = 73.02262 76.35894 74.69078
# Shear Modulus (GPa) = 53.95012 24.74963 39.34987
#
# Velocity S-wave (km/s) = 5.18664 3.51297 4.42957
# Velocity P-wave (km/s) = 8.50175 7.38442 7.96271
#
# Compressibility (1/GPa) = 0.01369439
#
# Stress axis : x y z
#
# Youngs Moduli (GPa) = 77.46675 126.30673 107.41321
#
# Poissons Ratio (x) = 0.17994 0.51439
# Poissons Ratio (y) = 0.11036 0.21560
# Poissons Ratio (z) = 0.37098 0.25352
#
# Static dielectric constant tensor:
#      x y z
#    x 1.736730 0.000000 -0.008950 
#    y 0.000000 1.750920 0.000000 
#    z -0.008950 0.000000 1.778110 
# 
# From -- ./inp_files/225840.got.cif
#   From: 2010.05.17/outbox.cif.g08.bks.cpg/sg12_113_cif.got.tgz:225840.got - 2010.06.03 13:09:07.
