data_PCOD9190338
_publ_section_title
;
Structure prediction by ZEFSAII (Michael W. Deem and Ramdas Pophale) SiO2 
 PCOD9190338
Probable space group: C 2/M
;
_chemical_formula_sum "Si O2"
_cell_formula_units_Z 40
_cell_length_a 16.203345
_cell_length_b 10.453766
_cell_length_c 9.253308
_cell_angle_alpha 90.000000
_cell_angle_beta 84.218742
_cell_angle_gamma 90.000000
_cell_volume 1559.408467
_symmetry_space_group_name_H-M "C 2/M"
_symmetry_group_IT_number 12
_symmetry_cell_setting 'monoclinic'
loop_
_space_group_symop_operation_xyz
x,y,z
-x,y,-z
-x,-y,-z
x,-y,z
1/2+x,1/2+y,z
1/2-x,1/2+y,-z
1/2-x,1/2-y,-z
1/2+x,1/2-y,z
loop_
_atom_site_type_symbol
_atom_site_label
_atom_site_fract_x
_atom_site_fract_y
_atom_site_fract_z
Si Si1 0.422722 0.759948 0.903187
Si Si2 0.308362 0.854588 0.169248
Si Si3 0.034862 0.641815 0.640243
Si Si4 0.408036 0.500000 0.738714
Si Si5 0.764377 0.149270 0.367396
Si Si6 0.406663 0.500000 0.421781
O O1 0.459075 0.843419 0.765533
O O2 0.399952 0.623840 0.838142
O O3 0.500000 0.739154 0.000000
O O4 0.351247 0.824414 0.009865
O O5 0.383763 0.848999 0.271679
O O6 0.249368 0.737787 0.230825
O O7 0.274038 0.000000 0.176248
O O8 0.052159 0.500000 0.582987
O O9 0.000000 0.714646 0.500000
O O10 0.365208 0.500000 0.589323
O O11 0.500191 0.500000 0.647634
O O12 0.750000 0.250000 0.500000
O O13 0.862414 0.118606 0.355610
O O14 0.729915 0.000000 0.377823
#
# Coordination Sequence:
#
# PCOD9190338 Si02
#       6
#     8   8   8   4   8   4
#     4  10  20  30  52  81 127 162 198 231 301 374
#     4  10  20  35  56  85 118 157 204 247 299 355
#     4   9  18  30  48  78 118 160 193 234 295 367
#     4  11  21  34  58  94 136 154 190 248 321 378
#     4  10  22  39  63  88 114 155 212 257 293 351
#     4   9  22  36  60  94 126 161 197 256 311 360
#
# _framework density 25.650751
#
# number of rings (size 3 to 8) (size 9 to 14) (size 15 to 20)
#    0.600    1.600    0.000    3.900    7.000    2.400 
#    0.000    0.000    0.000    1.200    0.000    0.000 
#    0.000    0.000    0.000    0.000    0.000    0.000 
#
# Total GULP energy -111358.093278 kJ/mol
# GULP energy per Si atom -5567.904664 kJ/mol
# Density = 2.559237 g / cm^3
# Si number density = 25.650751 Si / 1000 Ang^3
#
#
#
# Elastic Constant Matrix: (Units=GPa)
#
#
# Indices 1 2 3 4 5 6 
#
# 1 34.6813 5.3802 42.2354 0.0000 4.6216 0.0000
# 2 5.3802 118.9796 39.3346 0.0000 -9.5821 0.0000
# 3 42.2354 39.3346 140.0107 0.0000 10.6779 0.0000
# 4 0.0000 0.0000 0.0000 50.6565 0.0000 -12.7161
# 5 4.6216 -9.5821 10.6779 0.0000 43.8505 0.0000
# 6 0.0000 0.0000 0.0000 -12.7161 0.0000 37.3151
#
#
#
# Elastic Compliance Matrix: (Units=1/GPa)
#
#
# Indices 1 2 3 4 5 6 
#
# 1 0.046423 0.002706 -0.014709 0.000000 -0.000720 0.000000
# 2 0.002706 0.009750 -0.003766 0.000000 0.002762 0.000000
# 3 -0.014709 -0.003766 0.012820 0.000000 -0.002394 0.000000
# 4 0.000000 0.000000 0.000000 0.021587 0.000000 0.007356
# 5 -0.000720 0.002762 -0.002394 0.000000 0.024067 0.000000
# 6 0.000000 0.000000 0.000000 0.007356 0.000000 0.029306
#
#
# Mechanical properties :
#
#
# Convention : Reuss Voigt Hill
#
# Bulk Modulus (GPa) = 26.69931 51.95246 39.32589
# Shear Modulus (GPa) = 26.59892 40.14586 33.37239
#
# Velocity S-wave (km/s) = 3.22369 3.96042 3.61089
# Velocity P-wave (km/s) = 4.92824 6.41958 5.72270
#
# Compressibility (1/GPa) = 0.03745415
#
# Stress axis : x y z
#
# Youngs Moduli (GPa) = 21.54096 102.56438 78.00251
#
# Poissons Ratio (x) = -0.27750 1.14735
# Poissons Ratio (y) = -0.05828 0.29376
# Poissons Ratio (z) = 0.31685 0.38626
#
# Static dielectric constant tensor:
#      x y z
#    x 1.941710 0.000000 -0.100220 
#    y 0.000000 1.935690 0.000000 
#    z -0.100220 0.000000 1.945840 
# 
# From -- ./inp_files/93738.got.cif
#   From: 2010.05.17/outbox.cif.g08.bks.cpg/sg12_47_cif.got.tgz:93738.got - 2010.06.03 13:09:07.
