data_PCOD9190839
_publ_section_title
;
Structure prediction by ZEFSAII (Michael W. Deem and Ramdas Pophale) SiO2 
 PCOD9190839
Probable space group: C 2/M
;
_chemical_formula_sum "Si O2"
_cell_formula_units_Z 40
_cell_length_a 23.669430
_cell_length_b 9.090778
_cell_length_c 18.875966
_cell_angle_alpha 90.000000
_cell_angle_beta 35.853981
_cell_angle_gamma 90.000000
_cell_volume 2378.971535
_symmetry_space_group_name_H-M "C 2/M"
_symmetry_group_IT_number 12
_symmetry_cell_setting 'monoclinic'
loop_
_space_group_symop_operation_xyz
x,y,z
-x,y,-z
-x,-y,-z
x,-y,z
1/2+x,1/2+y,z
1/2-x,1/2+y,-z
1/2-x,1/2-y,-z
1/2+x,1/2-y,z
loop_
_atom_site_type_symbol
_atom_site_label
_atom_site_fract_x
_atom_site_fract_y
_atom_site_fract_z
Si Si1 0.612745 0.323113 0.894565
Si Si2 0.707842 0.825081 0.933813
Si Si3 0.802973 0.176733 0.342367
Si Si4 0.895543 0.676860 0.382427
Si Si5 0.387778 0.824141 0.816903
O O1 0.619991 0.500000 0.895389
O O2 0.658054 0.246985 0.916764
O O3 0.667761 0.280330 0.766481
O O4 0.500000 0.286334 0.000000
O O5 0.813262 0.758122 0.841853
O O6 0.713467 0.000000 0.919810
O O7 0.646046 0.794104 0.067927
O O8 0.870975 0.250632 0.332034
O O9 0.693188 0.214912 0.475497
O O10 0.813123 0.000000 0.337514
O O11 0.896440 0.500000 0.372801
O O12 0.000771 0.720535 0.303114
O O13 0.379732 0.000000 0.813612
#
# Coordination Sequence:
#
# PCOD9190839 Si02
#       5
#     8   8   8   8   8
#     4  10  20  33  49  70  98 129 156 187 232 282
#     4  10  20  32  49  73  96 121 157 197 235 277
#     4   9  18  31  48  72  98 124 157 193 231 278
#     4   9  17  31  51  72  94 123 158 195 234 275
#     4   9  18  33  51  70  94 124 157 194 236 280
#
# _framework density 16.813988999999999
#
# number of rings (size 3 to 8) (size 9 to 14) (size 15 to 20)
#    0.000    2.600    0.000    1.800    0.000    2.800 
#    0.000    1.000    0.000    6.000    0.000    0.000 
#    0.000    0.000    0.000    0.000    0.000    0.000 
#
# Total GULP energy -111554.245524 kJ/mol
# GULP energy per Si atom -5577.712276 kJ/mol
# Density = 1.677572 g / cm^3
# Si number density = 16.813989 Si / 1000 Ang^3
#
#
#
# Elastic Constant Matrix: (Units=GPa)
#
#
# Indices 1 2 3 4 5 6 
#
# 1 169.4754 58.6374 86.4075 0.0002 -10.6379 0.0000
# 2 58.6374 25.1540 39.6787 0.0014 -2.2046 -0.0004
# 3 86.4075 39.6787 84.4446 0.0004 -12.5449 -0.0001
# 4 0.0002 0.0014 0.0004 15.5961 -0.0004 -0.3782
# 5 -10.6379 -2.2046 -12.5449 -0.0004 31.0387 0.0001
# 6 0.0000 -0.0004 -0.0001 -0.3782 0.0001 36.7493
#
#
#
# Elastic Compliance Matrix: (Units=1/GPa)
#
#
# Indices 1 2 3 4 5 6 
#
# 1 0.034832 -0.102356 0.013987 0.000009 0.010321 -0.000001
# 2 -0.102356 0.466259 -0.121964 -0.000040 -0.051258 0.000004
# 3 0.013987 -0.121964 0.057730 0.000010 0.019464 -0.000001
# 4 0.000009 -0.000040 0.000010 0.064135 0.000005 0.000660
# 5 0.010321 -0.051258 0.019464 0.000005 0.039981 0.000000
# 6 -0.000001 0.000004 -0.000001 0.000660 0.000000 0.027218
#
#
# Mechanical properties :
#
#
# Convention : Reuss Voigt Hill
#
# Bulk Modulus (GPa) = 7.23833 72.05794 39.64814
# Shear Modulus (GPa) = 4.32200 22.96684 13.64442
#
# Velocity S-wave (km/s) = 1.60501 3.69987 2.85176
# Velocity P-wave (km/s) = 2.78371 7.82311 5.87154
#
# Compressibility (1/GPa) = 0.13815332
#
# Stress axis : x y z
#
# Youngs Moduli (GPa) = 28.70935 2.14473 17.32201
#
# Poissons Ratio (x) = 0.21953 -0.24228
# Poissons Ratio (y) = 2.93858 2.11266
# Poissons Ratio (z) = -0.40155 0.26158
#
# Static dielectric constant tensor:
#      x y z
#    x 1.525190 0.000000 -0.009050 
#    y 0.000000 1.556420 0.000000 
#    z -0.009050 0.000000 1.578130 
# 
# From -- ./inp_files/229489.got.cif
#   From: 2010.05.17/outbox.cif.g08.bks.cpg/sg12_115_cif.got.tgz:229489.got - 2010.06.03 13:09:07.
