data_PCOD9190548
_publ_section_title
;
Structure prediction by ZEFSAII (Michael W. Deem and Ramdas Pophale) SiO2 
 PCOD9190548
Probable space group: C 2/M
;
_chemical_formula_sum "Si O2"
_cell_formula_units_Z 56
_cell_length_a 12.361733
_cell_length_b 28.554739
_cell_length_c 8.980073
_cell_angle_alpha 90.000000
_cell_angle_beta 81.441216
_cell_angle_gamma 90.000000
_cell_volume 3134.540267
_symmetry_space_group_name_H-M "C 2/M"
_symmetry_group_IT_number 12
_symmetry_cell_setting 'monoclinic'
loop_
_space_group_symop_operation_xyz
x,y,z
-x,y,-z
-x,-y,-z
x,-y,z
1/2+x,1/2+y,z
1/2-x,1/2+y,-z
1/2-x,1/2-y,-z
1/2+x,1/2-y,z
loop_
_atom_site_type_symbol
_atom_site_label
_atom_site_fract_x
_atom_site_fract_y
_atom_site_fract_z
Si Si1 0.221712 0.799379 0.586190
Si Si2 0.000561 0.203033 0.823080
Si Si3 0.048041 0.706317 0.333508
Si Si4 0.729470 0.056048 0.761518
Si Si5 0.110794 0.552805 0.077746
Si Si6 0.107013 0.131766 0.380004
Si Si7 0.981321 0.393131 0.329595
O O1 0.250000 0.750000 0.500000
O O2 0.332168 0.812618 0.650224
O O3 0.186078 0.836458 0.467618
O O4 0.121261 0.795763 0.722733
O O5 0.949063 0.252960 0.786862
O O6 0.932421 0.163115 0.751116
O O7 0.000000 0.196750 0.000000
O O8 0.973378 0.662473 0.302031
O O9 0.000000 0.726059 0.500000
O O10 0.706005 0.064450 0.942082
O O11 0.832587 0.085084 0.684619
O O12 0.624283 0.077884 0.699334
O O13 0.734630 0.000000 0.738307
O O14 0.126125 0.500000 0.131278
O O15 0.084176 0.587556 0.215542
O O16 0.000000 0.552577 0.000000
O O17 0.000000 0.121482 0.500000
O O18 0.000000 0.398862 0.500000
#
# Coordination Sequence:
#
# PCOD9190548 Si02
#       7
#     8   8   8   8   8   8   8
#     4  11  20  39  61  76 112 158 193 223 276 342
#     4  11  24  37  55  86 115 148 189 242 282 329
#     4  11  20  35  56  82 115 155 193 225 281 346
#     4  10  21  37  59  83 111 150 191 233 286 337
#     4   8  16  32  49  70 106 146 179 220 275 330
#     4  10  21  40  61  80 111 153 191 238 281 332
#     4  10  20  31  53  86 119 148 183 230 281 339
#
# _framework density 17.865459999999999
#
# number of rings (size 3 to 8) (size 9 to 14) (size 15 to 20)
#    0.000    1.857    2.857    3.429    0.000    4.857 
#    0.000    0.000    0.000    0.429    0.000    0.000 
#    0.000    0.000    0.000    0.000    0.000    0.000 
#
# Total GULP energy -156208.490276 kJ/mol
# GULP energy per Si atom -5578.874653 kJ/mol
# Density = 1.782480 g / cm^3
# Si number density = 17.865460 Si / 1000 Ang^3
#
#
#
# Elastic Constant Matrix: (Units=GPa)
#
#
# Indices 1 2 3 4 5 6 
#
# 1 87.3611 44.4630 35.3971 0.0000 -7.1500 0.0000
# 2 44.4630 119.4140 71.5799 0.0000 -5.3707 0.0000
# 3 35.3971 71.5799 114.0589 0.0000 0.9579 0.0000
# 4 0.0000 0.0000 0.0000 36.1682 0.0000 -11.7960
# 5 -7.1500 -5.3707 0.9579 0.0000 18.7060 0.0000
# 6 0.0000 0.0000 0.0000 -11.7960 0.0000 29.6669
#
#
#
# Elastic Compliance Matrix: (Units=1/GPa)
#
#
# Indices 1 2 3 4 5 6 
#
# 1 0.014712 -0.004028 -0.002077 0.000000 0.004573 0.000000
# 2 -0.004028 0.014879 -0.008114 0.000000 0.003148 0.000000
# 3 -0.002077 -0.008114 0.014537 0.000000 -0.003868 0.000000
# 4 0.000000 0.000000 0.000000 0.031768 0.000000 0.012632
# 5 0.004573 0.003148 -0.003868 0.000000 0.056309 0.000000
# 6 0.000000 0.000000 0.000000 0.012632 0.000000 0.038730
#
#
# Mechanical properties :
#
#
# Convention : Reuss Voigt Hill
#
# Bulk Modulus (GPa) = 63.72987 69.30155 66.51571
# Shear Modulus (GPa) = 24.43753 28.20115 26.31934
#
# Velocity S-wave (km/s) = 3.70248 3.97738 3.84239
# Velocity P-wave (km/s) = 7.35033 7.74389 7.54967
#
# Compressibility (1/GPa) = 0.01569123
#
# Stress axis : x y z
#
# Youngs Moduli (GPa) = 67.97027 67.20693 68.79133
#
# Poissons Ratio (x) = 0.27068 0.14286
# Poissons Ratio (y) = 0.27375 0.55820
# Poissons Ratio (z) = 0.14115 0.54534
#
# Static dielectric constant tensor:
#      x y z
#    x 1.634060 0.000000 -0.020550 
#    y 0.000000 1.612000 0.000000 
#    z -0.020550 0.000000 1.605960 
# 
# From -- ./inp_files/53143.got.cif
#   From: 2010.05.17/outbox.cif.g08.bks.cpg/sg12_27_cif.got.tgz:53143.got - 2010.06.03 13:09:07.
