data_PCOD9190190
_publ_section_title
;
Structure prediction by ZEFSAII (Michael W. Deem and Ramdas Pophale) SiO2 
 PCOD9190190
Probable space group: C 2/M
;
_chemical_formula_sum "Si O2"
_cell_formula_units_Z 40
_cell_length_a 16.038761
_cell_length_b 14.977973
_cell_length_c 14.183442
_cell_angle_alpha 90.000000
_cell_angle_beta 151.880492
_cell_angle_gamma 90.000000
_cell_volume 1605.884024
_symmetry_space_group_name_H-M "C 2/M"
_symmetry_group_IT_number 12
_symmetry_cell_setting 'monoclinic'
loop_
_space_group_symop_operation_xyz
x,y,z
-x,y,-z
-x,-y,-z
x,-y,z
1/2+x,1/2+y,z
1/2-x,1/2+y,-z
1/2-x,1/2-y,-z
1/2+x,1/2-y,z
loop_
_atom_site_type_symbol
_atom_site_label
_atom_site_fract_x
_atom_site_fract_y
_atom_site_fract_z
Si Si1 0.237397 0.237952 0.374644
Si Si2 0.786863 0.102071 0.290798
Si Si3 0.534122 0.900421 0.662082
Si Si4 0.437907 0.401946 0.071358
Si Si5 0.230304 0.651004 0.024181
O O1 0.250000 0.250000 0.500000
O O2 0.229833 0.331923 0.316045
O O3 0.601299 0.398567 0.854739
O O4 0.069143 0.177213 0.181303
O O5 0.725261 0.142278 0.129323
O O6 0.000000 0.101672 0.500000
O O7 0.726135 0.000000 0.240275
O O8 0.407399 0.819709 0.510665
O O9 0.469988 0.000000 0.574998
O O10 0.564555 0.892754 0.805494
O O11 0.738417 0.891292 0.831833
O O12 0.506007 0.500000 0.114601
O O13 0.250000 0.750000 0.000000
#
# Coordination Sequence:
#
# PCOD9190190 Si02
#       5
#     8   8   8   8   8
#     4  12  24  39  68 103 143 188 237 289 353 429
#     4  11  24  42  68 105 144 188 239 294 359 427
#     4   9  20  39  70 100 131 181 231 284 351 417
#     4   9  20  40  71 100 132 180 231 287 350 416
#     4  10  19  40  72 100 139 188 232 284 355 427
#
# _framework density 24.908397000000001
#
# number of rings (size 3 to 8) (size 9 to 14) (size 15 to 20)
#    1.200    0.600    0.000    5.400    0.000    3.200 
#    0.000    4.000    4.400   24.000    0.000    0.000 
#    0.000    0.000    0.000    0.000    0.000    0.000 
#
# Total GULP energy -111895.824342 kJ/mol
# GULP energy per Si atom -5594.791217 kJ/mol
# Density = 2.485170 g / cm^3
# Si number density = 24.908397 Si / 1000 Ang^3
#
#
#
# Elastic Constant Matrix: (Units=GPa)
#
#
# Indices 1 2 3 4 5 6 
#
# 1 113.1462 83.6857 58.5008 0.0014 -25.3642 0.0007
# 2 83.6857 250.0965 60.5966 0.0013 -10.1707 0.0011
# 3 58.5008 60.5966 92.8032 0.0019 -13.5487 0.0016
# 4 0.0014 0.0013 0.0019 28.9539 0.0017 7.6470
# 5 -25.3642 -10.1707 -13.5487 0.0017 63.1248 0.0011
# 6 0.0007 0.0011 0.0016 7.6470 0.0011 37.1121
#
#
#
# Elastic Compliance Matrix: (Units=1/GPa)
#
#
# Indices 1 2 3 4 5 6 
#
# 1 0.016137 -0.003459 -0.007277 0.000000 0.004365 0.000000
# 2 -0.003459 0.005492 -0.001527 0.000000 -0.000833 0.000000
# 3 -0.007277 -0.001527 0.016411 -0.000001 0.000352 0.000000
# 4 0.000000 0.000000 -0.000001 0.036525 -0.000001 -0.007526
# 5 0.004365 -0.000833 0.000352 -0.000001 0.017537 0.000000
# 6 0.000000 0.000000 0.000000 -0.007526 0.000000 0.028496
#
#
# Mechanical properties :
#
#
# Convention : Reuss Voigt Hill
#
# Bulk Modulus (GPa) = 73.99340 95.73468 84.86404
# Shear Modulus (GPa) = 33.41575 42.72236 38.06905
#
# Velocity S-wave (km/s) = 3.66668 4.14596 3.91367
# Velocity P-wave (km/s) = 6.90629 7.83817 7.38694
#
# Compressibility (1/GPa) = 0.01351472
#
# Stress axis : x y z
#
# Youngs Moduli (GPa) = 61.96763 182.08000 60.93434
#
# Poissons Ratio (x) = 0.62985 0.44340
# Poissons Ratio (y) = 0.21436 0.09305
# Poissons Ratio (z) = 0.45092 0.27805
#
# Static dielectric constant tensor:
#      x y z
#    x 2.030140 0.000000 -0.015370 
#    y 0.000000 1.969840 0.000000 
#    z -0.015370 0.000000 2.017400 
# 
# From -- ./inp_files/223546.got.cif
#   From: 2010.05.17/outbox.cif.g08.bks.cpg/sg12_112_cif.got.tgz:223546.got - 2010.06.03 13:09:07.
