data_PCOD9190832
_publ_section_title
;
Structure prediction by ZEFSAII (Michael W. Deem and Ramdas Pophale) SiO2 
 PCOD9190832
Probable space group: C 2/M
;
_chemical_formula_sum "Si O2"
_cell_formula_units_Z 64
_cell_length_a 15.272460
_cell_length_b 7.449790
_cell_length_c 27.906553
_cell_angle_alpha 90.000000
_cell_angle_beta 64.761800
_cell_angle_gamma 90.000000
_cell_volume 2872.026412
_symmetry_space_group_name_H-M "C 2/M"
_symmetry_group_IT_number 12
_symmetry_cell_setting 'monoclinic'
loop_
_space_group_symop_operation_xyz
x,y,z
-x,y,-z
-x,-y,-z
x,-y,z
1/2+x,1/2+y,z
1/2-x,1/2+y,-z
1/2-x,1/2-y,-z
1/2+x,1/2-y,z
loop_
_atom_site_type_symbol
_atom_site_label
_atom_site_fract_x
_atom_site_fract_y
_atom_site_fract_z
Si Si1 0.492055 0.281789 0.557005
Si Si2 0.234733 0.282483 0.930125
Si Si3 0.836055 0.280244 0.248262
Si Si4 0.628104 0.287810 0.330354
Si Si5 0.424460 0.217097 0.326515
Si Si6 0.311633 0.805561 0.439373
Si Si7 0.090618 0.292376 0.045919
Si Si8 0.614414 0.780340 0.869723
O O1 0.500000 0.232082 0.500000
O O2 0.501849 0.500000 0.557698
O O3 0.398688 0.226212 0.609501
O O4 0.581571 0.193928 0.563016
O O5 0.237661 0.500000 0.931899
O O6 0.337497 0.217024 0.925468
O O7 0.201270 0.229837 0.885127
O O8 0.152917 0.217515 0.987118
O O9 0.836547 0.500000 0.247063
O O10 0.726679 0.217161 0.284853
O O11 0.902658 0.225928 0.277553
O O12 0.870911 0.220431 0.188027
O O13 0.643201 0.500000 0.331106
O O14 0.531323 0.262973 0.320999
O O15 0.339329 0.286444 0.382423
O O16 0.417997 0.000000 0.329981
O O17 0.250000 0.750000 0.500000
O O18 0.270059 0.000000 0.436269
O O19 0.073247 0.500000 0.037209
O O20 0.986677 0.216371 0.083827
O O21 0.611304 0.000000 0.869819
#
# Coordination Sequence:
#
# PCOD9190832 Si02
#       8
#     8   8   8   8   8   8   8   8
#     4   9  18  31  50  72  95 123 156 193 241 298
#     4   9  17  30  49  73 101 132 165 203 246 288
#     4   9  18  32  52  74  95 129 169 203 242 291
#     4   9  18  33  52  72  96 125 161 201 242 291
#     4   9  19  35  53  71  97 128 161 200 245 294
#     4  10  20  32  49  72  98 124 155 196 244 296
#     4   9  17  30  49  73 101 133 166 202 244 289
#     4   9  17  30  49  73  98 128 170 207 239 287
#
# _framework density 22.283919000000001
#
# number of rings (size 3 to 8) (size 9 to 14) (size 15 to 20)
#    0.000    2.875    0.000    0.750    1.750    3.250 
#    0.000    1.250    0.000    4.500    0.000    0.000 
#    0.000    0.000    0.000    0.000    0.000    0.000 
#
# Total GULP energy -178423.950320 kJ/mol
# GULP energy per Si atom -5575.748447 kJ/mol
# Density = 2.223320 g / cm^3
# Si number density = 22.283919 Si / 1000 Ang^3
#
#
#
# Elastic Constant Matrix: (Units=GPa)
#
#
# Indices 1 2 3 4 5 6 
#
# 1 62.1555 -14.3628 20.5015 0.0000 14.2777 0.0000
# 2 -14.3628 61.5334 -2.8207 0.0000 -1.4806 -0.0001
# 3 20.5015 -2.8207 38.1824 0.0000 24.3241 0.0000
# 4 0.0000 0.0000 0.0000 2.2416 0.0000 2.2418
# 5 14.2777 -1.4806 24.3241 0.0000 41.1610 0.0000
# 6 0.0000 -0.0001 0.0000 2.2418 0.0000 16.8675
#
#
#
# Elastic Compliance Matrix: (Units=1/GPa)
#
#
# Indices 1 2 3 4 5 6 
#
# 1 0.020665 0.004335 -0.010117 0.000000 -0.001033 0.000000
# 2 0.004335 0.017217 -0.000789 0.000000 -0.000418 0.000000
# 3 -0.010117 -0.000789 0.047065 0.000000 -0.024332 0.000000
# 4 0.000000 0.000000 0.000000 0.514500 0.000000 -0.068380
# 5 -0.001033 -0.000418 -0.024332 0.000000 0.039017 0.000000
# 6 0.000000 0.000000 0.000000 -0.068380 0.000000 0.068374
#
#
# Mechanical properties :
#
#
# Convention : Reuss Voigt Hill
#
# Bulk Modulus (GPa) = 13.92701 18.72302 16.32502
# Shear Modulus (GPa) = 6.72120 22.62423 14.67272
#
# Velocity S-wave (km/s) = 1.73860 3.18979 2.56880
# Velocity P-wave (km/s) = 3.20837 4.68899 4.01748
#
# Compressibility (1/GPa) = 0.07180291
#
# Stress axis : x y z
#
# Youngs Moduli (GPa) = 48.39148 58.08245 21.24740
#
# Poissons Ratio (x) = -0.25178 0.21496
# Poissons Ratio (y) = -0.20977 0.01677
# Poissons Ratio (z) = 0.48958 0.04585
#
# Static dielectric constant tensor:
#      x y z
#    x 1.776450 0.000000 -0.000200 
#    y 0.000000 1.862380 0.000000 
#    z -0.000200 0.000000 1.843220 
# 
# From -- ./inp_files/375015.got.cif
#   From: 2010.05.17/outbox.cif.g08.bks.cpg/sg12_188_cif.got.tgz:375015.got - 2010.06.03 13:09:07.
