data_PCOD9190320
_publ_section_title
;
Structure prediction by ZEFSAII (Michael W. Deem and Ramdas Pophale) SiO2 
 PCOD9190320
Probable space group: C 2/M
;
_chemical_formula_sum "Si O2"
_cell_formula_units_Z 48
_cell_length_a 7.276074
_cell_length_b 27.786026
_cell_length_c 12.956163
_cell_angle_alpha 90.000000
_cell_angle_beta 83.947545
_cell_angle_gamma 90.000000
_cell_volume 2604.787647
_symmetry_space_group_name_H-M "C 2/M"
_symmetry_group_IT_number 12
_symmetry_cell_setting 'monoclinic'
loop_
_space_group_symop_operation_xyz
x,y,z
-x,y,-z
-x,-y,-z
x,-y,z
1/2+x,1/2+y,z
1/2-x,1/2+y,-z
1/2-x,1/2-y,-z
1/2+x,1/2-y,z
loop_
_atom_site_type_symbol
_atom_site_label
_atom_site_fract_x
_atom_site_fract_y
_atom_site_fract_z
Si Si1 0.781200 0.694078 0.017083
Si Si2 0.261207 0.188752 0.400735
Si Si3 0.276481 0.868969 0.206320
Si Si4 0.700804 0.799241 0.372200
Si Si5 0.993111 0.056327 0.875527
Si Si6 0.276438 0.865019 0.819091
O O1 0.721183 0.674090 0.131020
O O2 0.750000 0.750000 0.000000
O O3 0.710248 0.661896 0.927074
O O4 0.000000 0.687019 0.000000
O O5 0.209898 0.146910 0.323990
O O6 0.204250 0.187415 0.524324
O O7 0.484241 0.188563 0.390580
O O8 0.211015 0.241604 0.360475
O O9 0.181702 0.915952 0.163715
O O10 0.500763 0.872225 0.192926
O O11 0.773486 0.829701 0.272200
O O12 0.170315 0.084752 0.821297
O O13 0.991867 0.000000 0.850369
O O14 0.000000 0.060515 0.000000
#
# Coordination Sequence:
#
# PCOD9190320 Si02
#       6
#     8   8   8   8   8   8
#     4  10  20  30  48  77 109 146 176 210 269 330
#     4   9  18  32  52  81 115 153 189 219 265 329
#     4  10  21  37  54  80 114 144 182 229 281 331
#     4   9  18  32  52  81 115 153 189 219 265 329
#     4  11  24  40  61  83 105 143 194 241 291 338
#     4  10  21  37  54  80 114 144 182 229 281 331
#
# _framework density 18.427606000000001
#
# number of rings (size 3 to 8) (size 9 to 14) (size 15 to 20)
#    0.000    2.167    1.667    1.000    4.667    0.667 
#    0.000    1.667    0.000    2.000    0.000    4.667 
#    0.000    0.000    0.000    0.000    0.000    0.000 
#
# Total GULP energy -133915.279900 kJ/mol
# GULP energy per Si atom -5579.803329 kJ/mol
# Density = 1.838566 g / cm^3
# Si number density = 18.427606 Si / 1000 Ang^3
#
#
#
# Elastic Constant Matrix: (Units=GPa)
#
#
# Indices 1 2 3 4 5 6 
#
# 1 62.5132 20.6991 21.4875 0.0000 17.4511 0.0000
# 2 20.6991 126.2821 53.9244 0.0000 17.7607 0.0000
# 3 21.4875 53.9244 97.8767 0.0000 12.4571 0.0000
# 4 0.0000 0.0000 0.0000 18.2140 0.0000 6.1105
# 5 17.4511 17.7607 12.4571 0.0000 17.5033 0.0000
# 6 0.0000 0.0000 0.0000 6.1105 0.0000 22.5196
#
#
#
# Elastic Compliance Matrix: (Units=1/GPa)
#
#
# Indices 1 2 3 4 5 6 
#
# 1 0.022638 0.000308 -0.002449 0.000000 -0.021140 0.000000
# 2 0.000308 0.011226 -0.005238 0.000000 -0.007971 0.000000
# 3 -0.002449 -0.005238 0.013914 0.000000 -0.002145 0.000000
# 4 0.000000 0.000000 0.000000 0.060401 0.000000 -0.016389
# 5 -0.021140 -0.007971 -0.002145 0.000000 0.087824 0.000000
# 6 0.000000 0.000000 0.000000 -0.016389 0.000000 0.048853
#
#
# Mechanical properties :
#
#
# Convention : Reuss Voigt Hill
#
# Bulk Modulus (GPa) = 30.28495 53.21043 41.74769
# Shear Modulus (GPa) = 18.47610 24.35144 21.41377
#
# Velocity S-wave (km/s) = 3.16987 3.63914 3.41258
# Velocity P-wave (km/s) = 5.46513 6.82612 6.18318
#
# Compressibility (1/GPa) = 0.03301970
#
# Stress axis : x y z
#
# Youngs Moduli (GPa) = 44.17381 89.07894 71.87235
#
# Poissons Ratio (x) = -0.02748 0.17603
# Poissons Ratio (y) = -0.01363 0.37648
# Poissons Ratio (z) = 0.10819 0.46661
#
# Static dielectric constant tensor:
#      x y z
#    x 1.666090 0.000000 0.001800 
#    y 0.000000 1.626070 0.000000 
#    z 0.001800 0.000000 1.665280 
# 
# From -- ./inp_files/121938.got.cif
#   From: 2010.05.17/outbox.cif.g08.bks.cpg/sg12_61_cif.got.tgz:121938.got - 2010.06.03 13:09:07.
