data_PCOD9190480
_publ_section_title
;
Structure prediction by ZEFSAII (Michael W. Deem and Ramdas Pophale) SiO2 
 PCOD9190480
Probable space group: C 2/M
;
_chemical_formula_sum "Si O2"
_cell_formula_units_Z 56
_cell_length_a 23.735181
_cell_length_b 21.456784
_cell_length_c 11.778772
_cell_angle_alpha 90.000000
_cell_angle_beta 33.419948
_cell_angle_gamma 90.000000
_cell_volume 3303.912569
_symmetry_space_group_name_H-M "C 2/M"
_symmetry_group_IT_number 12
_symmetry_cell_setting 'monoclinic'
loop_
_space_group_symop_operation_xyz
x,y,z
-x,y,-z
-x,-y,-z
x,-y,z
1/2+x,1/2+y,z
1/2-x,1/2+y,-z
1/2-x,1/2-y,-z
1/2+x,1/2-y,z
loop_
_atom_site_type_symbol
_atom_site_label
_atom_site_fract_x
_atom_site_fract_y
_atom_site_fract_z
Si Si1 0.827416 0.429191 0.784942
Si Si2 0.003938 0.760050 0.628898
Si Si3 0.785434 0.195201 0.028590
Si Si4 0.586979 0.932290 0.948184
Si Si5 0.301372 0.766166 0.586439
Si Si6 0.997846 0.609973 0.336163
Si Si7 0.622855 0.811589 0.774753
O O1 0.788676 0.500000 0.849362
O O2 0.747169 0.374619 0.950234
O O3 0.916669 0.421084 0.727640
O O4 0.888603 0.414519 0.564658
O O5 0.995373 0.684760 0.658211
O O6 0.000000 0.771544 0.500000
O O7 0.106156 0.778455 0.525516
O O8 0.905054 0.793954 0.843373
O O9 0.730445 0.204178 0.241140
O O10 0.750000 0.250000 0.000000
O O11 0.652456 0.876342 0.786145
O O12 0.635866 0.000000 0.884487
O O13 0.500000 0.938929 0.000000
O O14 0.530083 0.909297 0.156611
O O15 0.350520 0.808072 0.403630
O O16 0.198205 0.737570 0.707563
O O17 0.500000 0.801130 0.000000
#
# Coordination Sequence:
#
# PCOD9190480 Si02
#       7
#     8   8   8   8   8   8   8
#     4  11  22  33  53  83 114 149 185 228 290 343
#     4  12  20  34  57  86 115 145 187 234 281 337
#     4  12  21  35  57  83 112 147 187 233 280 339
#     4  10  20  31  49  75 107 143 176 218 276 333
#     4  11  21  37  56  81 109 149 186 230 288 326
#     4  11  17  35  52  77 115 144 181 229 283 344
#     4  10  22  37  56  77 113 147 185 235 274 335
#
# _framework density 16.949601000000001
#
# number of rings (size 3 to 8) (size 9 to 14) (size 15 to 20)
#    0.000    1.000    5.714    5.143    0.000    0.000 
#    0.000    0.000    0.000    1.286    0.000    0.000 
#    0.000    6.286    0.000    0.000    0.000    0.000 
#
# Total GULP energy -155945.123911 kJ/mol
# GULP energy per Si atom -5569.468711 kJ/mol
# Density = 1.691102 g / cm^3
# Si number density = 16.949601 Si / 1000 Ang^3
#
#
#
# Elastic Constant Matrix: (Units=GPa)
#
#
# Indices 1 2 3 4 5 6 
#
# 1 72.5810 15.2757 42.7003 0.0000 8.7233 0.0000
# 2 15.2757 105.1235 45.0699 0.0000 -2.3410 0.0000
# 3 42.7003 45.0699 101.2537 0.0000 8.3890 0.0000
# 4 0.0000 0.0000 0.0000 19.0867 0.0000 3.0917
# 5 8.7233 -2.3410 8.3890 0.0000 44.8194 0.0000
# 6 0.0000 0.0000 0.0000 3.0917 0.0000 20.1104
#
#
#
# Elastic Compliance Matrix: (Units=1/GPa)
#
#
# Indices 1 2 3 4 5 6 
#
# 1 0.018568 0.000665 -0.007953 0.000000 -0.002091 0.000000
# 2 0.000665 0.011897 -0.005705 0.000000 0.001560 0.000000
# 3 -0.007953 -0.005705 0.015913 0.000000 -0.001728 0.000000
# 4 0.000000 0.000000 0.000000 0.053730 0.000000 -0.008260
# 5 -0.002091 0.001560 -0.001728 0.000000 0.023124 0.000000
# 6 0.000000 0.000000 0.000000 -0.008260 0.000000 0.050995
#
#
# Mechanical properties :
#
#
# Convention : Reuss Voigt Hill
#
# Bulk Modulus (GPa) = 49.04139 53.89446 51.46793
# Shear Modulus (GPa) = 24.15335 28.53079 26.34207
#
# Velocity S-wave (km/s) = 3.77903 4.10722 3.94654
# Velocity P-wave (km/s) = 6.93093 7.37281 7.15528
#
# Compressibility (1/GPa) = 0.02039094
#
# Stress axis : x y z
#
# Youngs Moduli (GPa) = 53.85616 84.05692 62.84214
#
# Poissons Ratio (x) = -0.05591 0.49980
# Poissons Ratio (y) = -0.03582 0.35852
# Poissons Ratio (z) = 0.42833 0.47956
#
# Static dielectric constant tensor:
#      x y z
#    x 1.620650 0.000000 -0.030700 
#    y 0.000000 1.635270 0.000000 
#    z -0.030700 0.000000 1.733510 
# 
# From -- ./inp_files/184575.got.cif
#   From: 2010.05.17/outbox.cif.g08.bks.cpg/sg12_93_cif.got.tgz:184575.got - 2010.06.03 13:09:07.
