data_PCOD9190471
_publ_section_title
;
Structure prediction by ZEFSAII (Michael W. Deem and Ramdas Pophale) SiO2 
 PCOD9190471
Probable space group: C 2/M
;
_chemical_formula_sum "Si O2"
_cell_formula_units_Z 64
_cell_length_a 22.385035
_cell_length_b 12.787055
_cell_length_c 13.977498
_cell_angle_alpha 90.000000
_cell_angle_beta 143.367229
_cell_angle_gamma 90.000000
_cell_volume 2387.273141
_symmetry_space_group_name_H-M "C 2/M"
_symmetry_group_IT_number 12
_symmetry_cell_setting 'monoclinic'
loop_
_space_group_symop_operation_xyz
x,y,z
-x,y,-z
-x,-y,-z
x,-y,z
1/2+x,1/2+y,z
1/2-x,1/2+y,-z
1/2-x,1/2-y,-z
1/2+x,1/2-y,z
loop_
_atom_site_type_symbol
_atom_site_label
_atom_site_fract_x
_atom_site_fract_y
_atom_site_fract_z
Si Si1 0.117761 0.159582 0.038022
Si Si2 0.246874 0.343721 0.630942
Si Si3 0.820863 0.661074 0.196958
Si Si4 0.699906 0.116043 0.349779
Si Si5 0.969156 0.343928 0.607738
Si Si6 0.794578 0.886205 0.139497
Si Si7 0.971000 0.615768 0.098973
Si Si8 0.001897 0.889133 0.292091
O O1 0.148222 0.126993 0.183985
O O2 0.219609 0.120984 0.115942
O O3 0.100441 0.285585 0.011104
O O4 0.024729 0.121319 0.854794
O O5 0.250868 0.217474 0.632428
O O6 0.233306 0.380190 0.504704
O O7 0.145359 0.378470 0.556690
O O8 0.937595 0.630917 0.342258
O O9 0.817171 0.781917 0.226740
O O10 0.791768 0.645129 0.046925
O O11 0.579735 0.132040 0.191009
O O12 0.721538 0.000000 0.341367
O O13 0.001292 0.385473 0.753046
O O14 0.960303 0.219091 0.615905
O O15 0.894933 0.895841 0.206535
O O16 0.774844 0.000000 0.157549
O O17 0.934323 0.500000 0.025755
O O18 0.054766 0.000000 0.377338
#
# Coordination Sequence:
#
# PCOD9190471 Si02
#       8
#     8   8   8   8   8   8   8   8
#     4  10  20  31  48  79 110 132 161 205 254 297
#     4  10  21  36  54  77 103 129 163 210 257 304
#     4   9  17  27  42  70 104 137 169 195 232 289
#     4   9  20  40  61  75  92 127 171 212 258 308
#     4   9  18  32  50  73 103 141 177 200 230 290
#     4   8  13  24  43  64  91 131 174 208 232 265
#     4   9  18  34  56  79 101 128 167 213 255 295
#     4   8  15  29  48  69  96 133 173 207 237 277
#
# _framework density 26.808831000000001
#
# number of rings (size 3 to 8) (size 9 to 14) (size 15 to 20)
#    0.000    3.000    0.000    2.250    0.000    4.500 
#    0.000    1.250    0.000    0.000    0.000   19.250 
#    0.000    0.000    0.000    0.000    0.000    0.000 
#
# Total GULP energy -178541.296671 kJ/mol
# GULP energy per Si atom -5579.415521 kJ/mol
# Density = 2.674781 g / cm^3
# Si number density = 26.808831 Si / 1000 Ang^3
#
#
#
# Elastic Constant Matrix: (Units=GPa)
#
#
# Indices 1 2 3 4 5 6 
#
# 1 91.5342 11.0340 16.6438 0.0000 30.3214 0.0000
# 2 11.0340 183.4781 -2.3531 0.0000 9.5941 0.0000
# 3 16.6438 -2.3531 98.5809 0.0000 14.8178 0.0000
# 4 0.0000 0.0000 0.0000 -12.0739 0.0000 4.2586
# 5 30.3214 9.5941 14.8178 0.0000 37.8145 0.0000
# 6 0.0000 0.0000 0.0000 4.2586 0.0000 -7.1692
#
#
#
# Elastic Compliance Matrix: (Units=1/GPa)
#
#
# Indices 1 2 3 4 5 6 
#
# 1 0.014947 -0.000302 -0.000787 0.000000 -0.011600 0.000000
# 2 -0.000302 0.005542 0.000381 0.000000 -0.001313 0.000000
# 3 -0.000787 0.000381 0.010844 0.000000 -0.003715 0.000000
# 4 0.000000 0.000000 0.000000 -0.104775 0.000000 -0.062237
# 5 -0.011600 -0.001313 -0.003715 0.000000 0.037535 0.000000
# 6 0.000000 0.000000 0.000000 -0.062237 0.000000 -0.176455
#
#
# Mechanical properties :
#
#
# Convention : Reuss Voigt Hill
#
# Bulk Modulus (GPa) = 33.42753 47.13807 40.28280
# Shear Modulus (GPa) = -24.87911 26.93217 1.02653
#
# Velocity S-wave (km/s) = -3.04965 3.17298 0.61947
# Velocity P-wave (km/s) = 0.30898 5.57180 3.94591
#
# Compressibility (1/GPa) = 0.02991546
#
# Stress axis : x y z
#
# Youngs Moduli (GPa) = 66.90273 180.44178 92.21422
#
# Poissons Ratio (x) = 0.05457 0.07259
# Poissons Ratio (y) = 0.02023 -0.03510
# Poissons Ratio (z) = 0.05266 -0.06869
#
# Static dielectric constant tensor:
#      x y z
#    x 2.122250 0.000000 -0.058720 
#    y 0.000000 2.147660 0.000000 
#    z -0.058720 0.000000 2.110650 
# 
# From -- ./inp_files/240731.got.cif
#   From: 2010.05.17/outbox.cif.g08.bks.cpg/sg12_121_cif.got.tgz:240731.got - 2010.06.03 13:09:07.
