data_PCOD9190518
_publ_section_title
;
Structure prediction by ZEFSAII (Michael W. Deem and Ramdas Pophale) SiO2 
 PCOD9190518
Probable space group: C 2/M
;
_chemical_formula_sum "Si O2"
_cell_formula_units_Z 64
_cell_length_a 29.748004
_cell_length_b 14.450561
_cell_length_c 11.594410
_cell_angle_alpha 90.000000
_cell_angle_beta 43.163486
_cell_angle_gamma 90.000000
_cell_volume 3409.570003
_symmetry_space_group_name_H-M "C 2/M"
_symmetry_group_IT_number 12
_symmetry_cell_setting 'monoclinic'
loop_
_space_group_symop_operation_xyz
x,y,z
-x,y,-z
-x,-y,-z
x,-y,z
1/2+x,1/2+y,z
1/2-x,1/2+y,-z
1/2-x,1/2-y,-z
1/2+x,1/2-y,z
loop_
_atom_site_type_symbol
_atom_site_label
_atom_site_fract_x
_atom_site_fract_y
_atom_site_fract_z
Si Si1 0.485578 0.104659 0.740177
Si Si2 0.167766 0.895273 0.145453
Si Si3 0.197135 0.724678 0.695765
Si Si4 0.073042 0.393133 0.904002
Si Si5 0.393862 0.793976 0.755813
Si Si6 0.280842 0.890099 0.120228
Si Si7 0.274065 0.392930 0.218389
Si Si8 0.629275 0.109365 0.444614
O O1 0.460869 0.174482 0.690319
O O2 0.560540 0.121577 0.639726
O O3 0.483959 0.000000 0.695113
O O4 0.436587 0.107320 0.939475
O O5 0.114405 0.815322 0.238707
O O6 0.215428 0.879030 0.165197
O O7 0.142271 0.000000 0.199262
O O8 0.209651 0.888139 0.948274
O O9 0.250000 0.750000 0.500000
O O10 0.132375 0.675364 0.766241
O O11 0.224050 0.654356 0.743972
O O12 0.182979 0.820217 0.790914
O O13 0.086206 0.500000 0.842598
O O14 0.000000 0.367269 0.000000
O O15 0.381573 0.839197 0.655123
O O16 0.336902 0.835882 0.944756
O O17 0.295427 0.000000 0.098878
O O18 0.282161 0.500000 0.239418
O O19 0.197721 0.363457 0.374555
O O20 0.637081 0.000000 0.406089
#
# Coordination Sequence:
#
# PCOD9190518 Si02
#       8
#     8   8   8   8   8   8   8   8
#     4  10  20  33  53  82 115 153 190 228 291 364
#     4  10  20  34  56  83 112 151 193 237 294 355
#     4  12  25  38  57  87 118 157 203 252 292 352
#     4  10  22  41  62  83 115 156 195 245 306 362
#     4  12  18  31  54  81 119 151 187 230 286 355
#     4  11  20  34  56  84 118 153 188 237 301 361
#     4  10  20  36  56  83 117 151 191 244 295 342
#     4  10  20  31  51  86 121 149 182 230 293 361
#
# _framework density 18.770695
#
# number of rings (size 3 to 8) (size 9 to 14) (size 15 to 20)
#    0.000    1.375    3.750    3.000    1.750    2.000 
#    0.000    0.000    0.000    1.875    0.000    0.000 
#    0.000    0.000    0.000    0.000    0.000    0.000 
#
# Total GULP energy -178693.179955 kJ/mol
# GULP energy per Si atom -5584.161874 kJ/mol
# Density = 1.872797 g / cm^3
# Si number density = 18.770695 Si / 1000 Ang^3
#
#
#
# Elastic Constant Matrix: (Units=GPa)
#
#
# Indices 1 2 3 4 5 6 
#
# 1 82.9554 56.9512 20.2701 0.0000 -10.5599 0.0000
# 2 56.9512 92.3397 25.8524 0.0000 -12.9793 0.0000
# 3 20.2701 25.8524 70.1729 0.0000 -1.1507 0.0000
# 4 0.0000 0.0000 0.0000 24.2355 0.0000 -3.8168
# 5 -10.5599 -12.9793 -1.1507 0.0000 29.2091 0.0000
# 6 0.0000 0.0000 0.0000 -3.8168 0.0000 28.8035
#
#
#
# Elastic Compliance Matrix: (Units=1/GPa)
#
#
# Indices 1 2 3 4 5 6 
#
# 1 0.021159 -0.012323 -0.001538 0.000000 0.002113 0.000000
# 2 -0.012323 0.020094 -0.003772 0.000000 0.004325 0.000000
# 3 -0.001538 -0.003772 0.016058 0.000000 -0.001600 0.000000
# 4 0.000000 0.000000 0.000000 0.042141 0.000000 0.005584
# 5 0.002113 0.004325 -0.001600 0.000000 0.036859 0.000000
# 6 0.000000 0.000000 0.000000 0.005584 0.000000 0.035458
#
#
# Mechanical properties :
#
#
# Convention : Reuss Voigt Hill
#
# Bulk Modulus (GPa) = 45.35946 50.17951 47.76949
# Shear Modulus (GPa) = 23.32275 25.94257 24.63266
#
# Velocity S-wave (km/s) = 3.52875 3.72166 3.62649
# Velocity P-wave (km/s) = 6.38907 6.72746 6.56045
#
# Compressibility (1/GPa) = 0.02204612
#
# Stress axis : x y z
#
# Youngs Moduli (GPa) = 47.26078 49.76682 62.27350
#
# Poissons Ratio (x) = 0.61325 0.09575
# Poissons Ratio (y) = 0.58237 0.23491
# Poissons Ratio (z) = 0.07267 0.18774
#
# Static dielectric constant tensor:
#      x y z
#    x 1.686170 0.000000 0.007640 
#    y 0.000000 1.643340 0.000000 
#    z 0.007640 0.000000 1.683210 
# 
# From -- ./inp_files/189454.got.cif
#   From: 2010.05.17/outbox.cif.g08.bks.cpg/sg12_95_cif.got.tgz:189454.got - 2010.06.03 13:09:07.
