data_PCOD9190209
_publ_section_title
;
Structure prediction by ZEFSAII (Michael W. Deem and Ramdas Pophale) SiO2 
 PCOD9190209
Probable space group: C 2/M
;
_chemical_formula_sum "Si O2"
_cell_formula_units_Z 64
_cell_length_a 11.452603
_cell_length_b 30.719332
_cell_length_c 16.794500
_cell_angle_alpha 90.000000
_cell_angle_beta 150.661606
_cell_angle_gamma 90.000000
_cell_volume 2895.007095
_symmetry_space_group_name_H-M "C 2/M"
_symmetry_group_IT_number 12
_symmetry_cell_setting 'monoclinic'
loop_
_space_group_symop_operation_xyz
x,y,z
-x,y,-z
-x,-y,-z
x,-y,z
1/2+x,1/2+y,z
1/2-x,1/2+y,-z
1/2-x,1/2-y,-z
1/2+x,1/2-y,z
loop_
_atom_site_type_symbol
_atom_site_label
_atom_site_fract_x
_atom_site_fract_y
_atom_site_fract_z
Si Si1 0.970950 0.631770 0.829212
Si Si2 0.622110 0.604163 0.816804
Si Si3 0.047443 0.587844 0.716376
Si Si4 0.672315 0.180105 0.723639
Si Si5 0.348747 0.691496 0.656024
Si Si6 0.486113 0.579893 0.406941
Si Si7 0.622488 0.224402 0.852055
Si Si8 0.248032 0.549640 0.691863
O O1 0.998416 0.681593 0.816808
O O2 0.083289 0.599251 0.829647
O O3 0.693894 0.619071 0.673287
O O4 0.131495 0.621154 0.000482
O O5 0.490718 0.649064 0.710501
O O6 0.638058 0.570589 0.752035
O O7 0.453794 0.581189 0.782232
O O8 0.760497 0.584291 0.542612
O O9 0.140885 0.630147 0.726446
O O10 0.184236 0.551483 0.747973
O O11 0.834657 0.185161 0.743326
O O12 0.408986 0.193296 0.537206
O O13 0.748733 0.204617 0.848924
O O14 0.463767 0.738441 0.716697
O O15 0.500000 0.554188 0.500000
O O16 0.750000 0.250000 0.000000
O O17 0.303416 0.500000 0.702264
O O18 0.000000 0.562397 0.500000
#
# Coordination Sequence:
#
# PCOD9190209 Si02
#       8
#     8   8   8   8   8   8   8   8
#     4  10  24  40  61  91 127 178 214 259 312 386
#     4  12  21  40  67  92 129 167 214 256 334 385
#     4  10  19  41  65  92 128 162 216 255 323 387
#     4  10  21  38  59  83 117 163 213 264 317 376
#     4  11  21  37  61  84 116 168 210 265 320 370
#     4  10  21  39  66  89 120 167 217 257 296 381
#     4  11  23  40  53  86 125 163 217 267 318 367
#     4  11  22  39  72 107 129 158 210 275 326 389
#
# _framework density 22.107026999999999
#
# number of rings (size 3 to 8) (size 9 to 14) (size 15 to 20)
#    0.000    1.375    5.000    0.750    0.000    2.000 
#   13.500    1.250    0.000    9.000    0.000    0.000 
#    0.000    0.000    0.000    0.000    0.000    0.000 
#
# Total GULP energy -178203.680107 kJ/mol
# GULP energy per Si atom -5568.865003 kJ/mol
# Density = 2.205671 g / cm^3
# Si number density = 22.107027 Si / 1000 Ang^3
#
#
#
# Elastic Constant Matrix: (Units=GPa)
#
#
# Indices 1 2 3 4 5 6 
#
# 1 110.8885 32.1008 10.5133 0.0000 -4.5294 0.0000
# 2 32.1008 58.8767 27.7516 0.0000 2.8309 0.0000
# 3 10.5133 27.7516 66.5020 0.0000 -0.9487 0.0000
# 4 0.0000 0.0000 0.0000 9.0573 0.0000 -4.2369
# 5 -4.5294 2.8309 -0.9487 0.0000 29.1710 0.0000
# 6 0.0000 0.0000 0.0000 -4.2369 0.0000 14.6838
#
#
#
# Elastic Compliance Matrix: (Units=1/GPa)
#
#
# Indices 1 2 3 4 5 6 
#
# 1 0.010914 -0.006556 0.001044 0.000000 0.002365 0.000000
# 2 -0.006556 0.025243 -0.009551 0.000000 -0.003778 0.000000
# 3 0.001044 -0.009551 0.018882 0.000000 0.001703 0.000000
# 4 0.000000 0.000000 0.000000 0.127637 0.000000 0.036829
# 5 0.002365 -0.003778 0.001703 0.000000 0.035070 0.000000
# 6 0.000000 0.000000 0.000000 0.036829 0.000000 0.078729
#
#
# Mechanical properties :
#
#
# Convention : Reuss Voigt Hill
#
# Bulk Modulus (GPa) = 40.14113 41.88872 41.01493
# Shear Modulus (GPa) = 14.92959 21.64251 18.28605
#
# Velocity S-wave (km/s) = 2.60153 3.13227 2.87916
# Velocity P-wave (km/s) = 5.21738 5.66311 5.44481
#
# Compressibility (1/GPa) = 0.02491210
#
# Stress axis : x y z
#
# Youngs Moduli (GPa) = 91.62872 39.61489 52.95990
#
# Poissons Ratio (x) = 0.25973 -0.05531
# Poissons Ratio (y) = 0.60074 0.50584
# Poissons Ratio (z) = -0.09569 0.37838
#
# Static dielectric constant tensor:
#      x y z
#    x 1.876510 0.000000 -0.032230 
#    y 0.000000 1.792830 0.000000 
#    z -0.032230 0.000000 1.854910 
# 
# From -- ./inp_files/266331.got.cif
#   From: 2010.05.17/outbox.cif.g08.bks.cpg/sg12_134_cif.got.tgz:266331.got - 2010.06.03 13:09:07.
