data_PCOD9190085
_publ_section_title
;
Structure prediction by ZEFSAII (Michael W. Deem and Ramdas Pophale) SiO2 
 PCOD9190085
Probable space group: C 2/M
;
_chemical_formula_sum "Si O2"
_cell_formula_units_Z 52
_cell_length_a 15.527540
_cell_length_b 8.690379
_cell_length_c 27.020026
_cell_angle_alpha 90.000000
_cell_angle_beta 135.249247
_cell_angle_gamma 90.000000
_cell_volume 2566.933610
_symmetry_space_group_name_H-M "C 2/M"
_symmetry_group_IT_number 12
_symmetry_cell_setting 'monoclinic'
loop_
_space_group_symop_operation_xyz
x,y,z
-x,y,-z
-x,-y,-z
x,-y,z
1/2+x,1/2+y,z
1/2-x,1/2+y,-z
1/2-x,1/2-y,-z
1/2+x,1/2-y,z
loop_
_atom_site_type_symbol
_atom_site_label
_atom_site_fract_x
_atom_site_fract_y
_atom_site_fract_z
Si Si1 0.429554 0.184455 0.318891
Si Si2 0.127100 0.315673 0.316102
Si Si3 0.646740 0.000000 0.918937
Si Si4 0.058459 0.826618 0.833697
Si Si5 0.104719 0.314117 0.582092
Si Si6 0.643208 0.500000 0.062245
Si Si7 0.019686 0.500000 0.066263
Si Si8 0.263293 0.781007 0.836739
O O1 0.547361 0.220545 0.332888
O O2 0.435874 0.229173 0.378694
O O3 0.310923 0.254696 0.243640
O O4 0.415239 0.000000 0.310737
O O5 0.115120 0.500000 0.302113
O O6 0.267269 0.266962 0.377826
O O7 0.064440 0.220234 0.246046
O O8 0.593901 0.165400 0.876758
O O9 0.610621 0.000000 0.961182
O O10 0.788381 0.000000 0.962359
O O11 0.163649 0.845385 0.834801
O O12 0.046067 0.000000 0.852150
O O13 0.121797 0.500000 0.587761
O O14 0.000000 0.274579 0.500000
O O15 0.693255 0.636539 0.115098
O O16 0.500000 0.500000 0.000000
O O17 0.108617 0.364083 0.119223
O O18 0.000000 0.500000 0.000000
#
# Coordination Sequence:
#
# PCOD9190085 Si02
#       8
#     8   8   4   8   8   4   4   8
#     4   9  19  38  63  89 121 165 216 266 323 386
#     4  10  20  36  61  90 128 166 212 271 324 378
#     4  10  24  42  68  96 132 173 217 267 336 389
#     4  10  19  39  67  97 127 165 219 277 321 385
#     4  10  22  39  59  89 131 171 215 268 323 388
#     4  10  20  42  70  96 125 169 218 270 327 397
#     4  12  26  44  62  94 140 174 206 275 331 390
#     4  10  20  39  66  90 126 168 216 270 326 383
#
# _framework density 20.257632999999998
#
# number of rings (size 3 to 8) (size 9 to 14) (size 15 to 20)
#    0.000    2.000    2.308    0.923    2.154    0.923 
#    1.385    6.923    0.000    0.000    0.000    0.000 
#    0.000    0.000    0.000    0.000    0.000    0.000 
#
# Total GULP energy -144865.476442 kJ/mol
# GULP energy per Si atom -5571.749094 kJ/mol
# Density = 2.021153 g / cm^3
# Si number density = 20.257633 Si / 1000 Ang^3
#
#
#
# Elastic Constant Matrix: (Units=GPa)
#
#
# Indices 1 2 3 4 5 6 
#
# 1 109.3646 35.0171 50.2010 0.0000 -2.0211 0.0000
# 2 35.0171 88.5799 35.4889 0.0000 5.6988 0.0000
# 3 50.2010 35.4889 97.6683 0.0000 5.7996 0.0000
# 4 0.0000 0.0000 0.0000 -81.1647 0.0000 5.9280
# 5 -2.0211 5.6988 5.7996 0.0000 35.9934 0.0000
# 6 0.0000 0.0000 0.0000 5.9280 0.0000 16.9875
#
#
#
# Elastic Compliance Matrix: (Units=1/GPa)
#
#
# Indices 1 2 3 4 5 6 
#
# 1 0.012675 -0.002908 -0.005581 0.000000 0.002071 0.000000
# 2 -0.002908 0.013943 -0.003464 0.000000 -0.001813 0.000000
# 3 -0.005581 -0.003464 0.014491 0.000000 -0.002100 0.000000
# 4 0.000000 0.000000 0.000000 -0.012014 0.000000 0.004193
# 5 0.002071 -0.001813 -0.002100 0.000000 0.028525 0.000000
# 6 0.000000 0.000000 0.000000 0.004193 0.000000 0.057404
#
#
# Mechanical properties :
#
#
# Convention : Reuss Voigt Hill
#
# Bulk Modulus (GPa) = 58.13078 59.66964 58.90021
# Shear Modulus (GPa) = 34.56291 6.02364 20.29327
#
# Velocity S-wave (km/s) = 4.13506 1.72626 3.16849
# Velocity P-wave (km/s) = 7.18027 5.78728 6.52108
#
# Compressibility (1/GPa) = 0.01720259
#
# Stress axis : x y z
#
# Youngs Moduli (GPa) = 78.89545 71.71920 69.00862
#
# Poissons Ratio (x) = 0.20855 0.38516
# Poissons Ratio (y) = 0.22941 0.23906
# Poissons Ratio (z) = 0.44034 0.24845
#
# Static dielectric constant tensor:
#      x y z
#    x 1.736260 0.000000 -0.005890 
#    y 0.000000 1.760150 0.000000 
#    z -0.005890 0.000000 1.670980 
# 
# From -- ./inp_files/375740.got.cif
#   From: 2010.05.17/outbox.cif.g08.bks.cpg/sg12_188_cif.got.tgz:375740.got - 2010.06.03 13:09:07.
