data_PCOD9190175
_publ_section_title
;
Structure prediction by ZEFSAII (Michael W. Deem and Ramdas Pophale) SiO2 
 PCOD9190175
Probable space group: C 2/M
;
_chemical_formula_sum "Si O2"
_cell_formula_units_Z 58
_cell_length_a 19.555469
_cell_length_b 25.947117
_cell_length_c 14.013329
_cell_angle_alpha 90.000000
_cell_angle_beta 158.382815
_cell_angle_gamma 90.000000
_cell_volume 2619.523532
_symmetry_space_group_name_H-M "C 2/M"
_symmetry_group_IT_number 12
_symmetry_cell_setting 'monoclinic'
loop_
_space_group_symop_operation_xyz
x,y,z
-x,y,-z
-x,-y,-z
x,-y,z
1/2+x,1/2+y,z
1/2-x,1/2+y,-z
1/2-x,1/2-y,-z
1/2+x,1/2-y,z
loop_
_atom_site_type_symbol
_atom_site_label
_atom_site_fract_x
_atom_site_fract_y
_atom_site_fract_z
Si Si1 0.000740 0.837776 0.316583
Si Si2 0.425515 0.591324 0.051589
Si Si3 0.564805 0.233834 0.318962
Si Si4 0.000000 0.000000 0.000000
Si Si5 0.369601 0.842751 0.422535
Si Si6 0.307733 0.415318 0.202591
Si Si7 0.857644 0.335057 0.899292
Si Si8 0.087964 0.445416 0.745003
O O1 0.951681 0.785029 0.201265
O O2 0.163978 0.821187 0.599388
O O3 0.042510 0.880968 0.288714
O O4 0.858401 0.865668 0.202134
O O5 0.511877 0.546684 0.098657
O O6 0.334518 0.639124 0.875272
O O7 0.245035 0.565664 0.869430
O O8 0.750000 0.250000 0.500000
O O9 0.622025 0.200499 0.485875
O O10 0.434451 0.199585 0.083210
O O11 0.500000 0.829348 0.500000
O O12 0.456594 0.896131 0.576202
O O13 0.500000 0.433580 0.500000
O O14 0.171920 0.393656 0.105916
O O15 0.198177 0.449005 0.986486
O O16 0.000000 0.331099 0.000000
O O17 0.988118 0.500000 0.598081
#
# Coordination Sequence:
#
# PCOD9190175 Si02
#       8
#     8   8   8   2   8   8   8   8
#     4  10  24  42  64  92 137 175 227 278 329 419
#     4  10  24  41  64 102 132 175 220 280 347 413
#     4  12  25  41  64  98 129 182 225 281 345 407
#     4  12  24  40  70  96 144 176 212 294 356 410
#     4  10  24  43  67  96 136 172 234 290 338 414
#     4   9  20  40  62  92 126 174 221 277 331 401
#     4  11  22  41  63  91 133 173 217 273 343 396
#     4  10  19  40  67  95 127 167 225 284 341 398
#
# _framework density 22.141431000000001
#
# number of rings (size 3 to 8) (size 9 to 14) (size 15 to 20)
#    0.000    1.655    3.448    0.000    4.828    3.310 
#    0.000    0.000    0.000    0.414    0.000    0.000 
#    0.000    0.000    0.000    0.000    0.000    0.000 
#
# Total GULP energy -161617.505806 kJ/mol
# GULP energy per Si atom -5573.017442 kJ/mol
# Density = 2.209104 g / cm^3
# Si number density = 22.141431 Si / 1000 Ang^3
#
#
#
# Elastic Constant Matrix: (Units=GPa)
#
#
# Indices 1 2 3 4 5 6 
#
# 1 72.5025 39.0412 13.7942 0.0000 -32.9170 0.0000
# 2 39.0412 106.6338 23.2517 0.0000 -16.7154 0.0000
# 3 13.7942 23.2517 72.2333 -0.0001 -31.6171 0.0000
# 4 0.0000 0.0000 -0.0001 9.3715 -0.0001 -1.6342
# 5 -32.9170 -16.7154 -31.6171 -0.0001 32.4555 0.0000
# 6 0.0000 0.0000 0.0000 -1.6342 0.0000 10.4309
#
#
#
# Elastic Compliance Matrix: (Units=1/GPa)
#
#
# Indices 1 2 3 4 5 6 
#
# 1 0.040779 -0.010594 0.019765 0.000001 0.055157 0.000000
# 2 -0.010594 0.013077 -0.006871 0.000000 -0.010703 0.000000
# 3 0.019765 -0.006871 0.034008 0.000001 0.049637 0.000000
# 4 0.000001 0.000000 0.000001 0.109703 0.000002 0.017187
# 5 0.055157 -0.010703 0.049637 0.000002 0.129595 0.000000
# 6 0.000000 0.000000 0.000000 0.017187 0.000000 0.098562
#
#
# Mechanical properties :
#
#
# Convention : Reuss Voigt Hill
#
# Bulk Modulus (GPa) = 10.81498 44.83818 27.82658
# Shear Modulus (GPa) = 11.06334 22.13710 16.60022
#
# Velocity S-wave (km/s) = 2.23775 3.16540 2.74110
# Velocity P-wave (km/s) = 3.40173 5.80124 4.75532
#
# Compressibility (1/GPa) = 0.09246434
#
# Stress axis : x y z
#
# Youngs Moduli (GPa) = 24.52269 76.47008 29.40512
#
# Poissons Ratio (x) = 0.81010 -0.58120
# Poissons Ratio (y) = 0.25979 0.20205
# Poissons Ratio (z) = -0.48470 0.52544
#
# Static dielectric constant tensor:
#      x y z
#    x 1.861550 0.000000 -0.050200 
#    y 0.000000 1.794820 0.000000 
#    z -0.050200 0.000000 1.820360 
# 
# From -- ./inp_files/235840.got.cif
#   From: 2010.05.17/outbox.cif.g08.bks.cpg/sg12_118_cif.got.tgz:235840.got - 2010.06.03 13:09:07.
