data_PCOD9190206
_publ_section_title
;
Structure prediction by ZEFSAII (Michael W. Deem and Ramdas Pophale) SiO2 
 PCOD9190206
Probable space group: C 2/M
;
_chemical_formula_sum "Si O2"
_cell_formula_units_Z 40
_cell_length_a 14.409298
_cell_length_b 18.882626
_cell_length_c 8.391384
_cell_angle_alpha 90.000000
_cell_angle_beta 130.971646
_cell_angle_gamma 90.000000
_cell_volume 1723.873550
_symmetry_space_group_name_H-M "C 2/M"
_symmetry_group_IT_number 12
_symmetry_cell_setting 'monoclinic'
loop_
_space_group_symop_operation_xyz
x,y,z
-x,y,-z
-x,-y,-z
x,-y,z
1/2+x,1/2+y,z
1/2-x,1/2+y,-z
1/2-x,1/2-y,-z
1/2+x,1/2-y,z
loop_
_atom_site_type_symbol
_atom_site_label
_atom_site_fract_x
_atom_site_fract_y
_atom_site_fract_z
Si Si1 0.294856 0.000000 0.678143
Si Si2 0.489659 0.220780 0.724612
Si Si3 0.500000 0.886891 0.000000
Si Si4 0.375316 0.500000 0.200977
Si Si5 0.175206 0.659219 0.688858
Si Si6 0.198987 0.500000 0.687422
Si Si7 0.449067 0.371548 0.106835
O O1 0.253093 0.000000 0.444289
O O2 0.387407 0.934454 0.813090
O O3 0.195555 0.000000 0.710596
O O4 0.593302 0.209765 0.706999
O O5 0.357827 0.191281 0.519474
O O6 0.478672 0.300738 0.768247
O O7 0.541802 0.166406 0.911844
O O8 0.448897 0.427938 0.249045
O O9 0.287436 0.500000 0.942942
O O10 0.134441 0.576344 0.634420
O O11 0.312467 0.655392 0.907713
O O12 0.500000 0.404261 0.000000
#
# Coordination Sequence:
#
# PCOD9190206 Si02
#       7
#     4   8   4   4   8   4   8
#     4  11  22  37  67 101 139 178 217 285 337 399
#     4  11  22  40  64 101 135 172 217 281 349 394
#     4  11  20  36  60 105 136 166 220 275 354 404
#     4  10  24  45  69  95 127 186 234 271 330 395
#     4  10  23  40  66  98 136 176 223 273 336 407
#     4  10  19  41  65 100 130 175 222 278 333 397
#     4  11  23  44  69  93 133 183 224 277 330 401
#
# _framework density 23.203558000000001
#
# number of rings (size 3 to 8) (size 9 to 14) (size 15 to 20)
#    0.000    1.400    3.000    3.300    0.000    3.200 
#    0.000    8.000    0.000    7.200    0.000    2.800 
#    0.000    0.000    0.000    0.000    0.000    0.000 
#
# Total GULP energy -111557.041759 kJ/mol
# GULP energy per Si atom -5577.852088 kJ/mol
# Density = 2.315075 g / cm^3
# Si number density = 23.203558 Si / 1000 Ang^3
#
#
#
# Elastic Constant Matrix: (Units=GPa)
#
#
# Indices 1 2 3 4 5 6 
#
# 1 70.0822 -8.2792 0.8206 0.0000 -18.4535 0.0000
# 2 -8.2792 119.8955 15.3072 0.0000 -0.2670 0.0000
# 3 0.8206 15.3072 85.9091 0.0000 -5.6145 0.0000
# 4 0.0000 0.0000 0.0000 4.3617 0.0000 2.4937
# 5 -18.4535 -0.2670 -5.6145 0.0000 29.4022 0.0000
# 6 0.0000 0.0000 0.0000 2.4937 0.0000 27.1943
#
#
#
# Elastic Compliance Matrix: (Units=1/GPa)
#
#
# Indices 1 2 3 4 5 6 
#
# 1 0.017279 0.001174 0.000339 0.000000 0.010920 0.000000
# 2 0.001174 0.008616 -0.001512 0.000000 0.000526 0.000000
# 3 0.000339 -0.001512 0.012070 0.000000 0.002504 0.000000
# 4 0.000000 0.000000 0.000000 0.241956 0.000000 -0.022187
# 5 0.010920 0.000526 0.002504 0.000000 0.041348 0.000000
# 6 0.000000 0.000000 0.000000 -0.022187 0.000000 0.038807
#
#
# Mechanical properties :
#
#
# Convention : Reuss Voigt Hill
#
# Bulk Modulus (GPa) = 26.33780 32.39823 29.36802
# Shear Modulus (GPa) = 13.41460 30.06084 21.73772
#
# Velocity S-wave (km/s) = 2.40704 3.60325 3.06408
# Velocity P-wave (km/s) = 4.37041 5.59501 5.02019
#
# Compressibility (1/GPa) = 0.03796824
#
# Stress axis : x y z
#
# Youngs Moduli (GPa) = 57.87334 116.06469 82.84985
#
# Poissons Ratio (x) = -0.13628 -0.02812
# Poissons Ratio (y) = -0.06795 0.12527
# Poissons Ratio (z) = -0.01964 0.17549
#
# Static dielectric constant tensor:
#      x y z
#    x 1.765730 0.000000 0.035000 
#    y 0.000000 1.861620 0.000000 
#    z 0.035000 0.000000 1.947800 
# 
# From -- ./inp_files/63849.got.cif
#   From: 2010.05.17/outbox.cif.g08.bks.cpg/sg12_32_cif.got.tgz:63849.got - 2010.06.03 13:09:07.
