data_PCOD9190022
_publ_section_title
;
Structure prediction by ZEFSAII (Michael W. Deem and Ramdas Pophale) SiO2 
 PCOD9190022
Probable space group: C 2/M
;
_chemical_formula_sum "Si O2"
_cell_formula_units_Z 58
_cell_length_a 8.079278
_cell_length_b 24.385605
_cell_length_c 14.388821
_cell_angle_alpha 90.000000
_cell_angle_beta 80.490754
_cell_angle_gamma 90.000000
_cell_volume 2795.904004
_symmetry_space_group_name_H-M "C 2/M"
_symmetry_group_IT_number 12
_symmetry_cell_setting 'monoclinic'
loop_
_space_group_symop_operation_xyz
x,y,z
-x,y,-z
-x,-y,-z
x,-y,z
1/2+x,1/2+y,z
1/2-x,1/2+y,-z
1/2-x,1/2-y,-z
1/2+x,1/2-y,z
loop_
_atom_site_type_symbol
_atom_site_label
_atom_site_fract_x
_atom_site_fract_y
_atom_site_fract_z
Si Si1 0.301806 0.935358 0.000684
Si Si2 0.915981 0.565442 0.315379
Si Si3 0.111062 0.065331 0.211236
Si Si4 0.387318 0.707728 0.592741
Si Si5 0.697131 0.313532 0.671827
Si Si6 0.000000 0.000000 0.500000
Si Si7 0.747871 0.389389 0.808957
Si Si8 0.254571 0.896601 0.504753
O O1 0.241765 0.900519 0.918607
O O2 0.277571 0.000000 0.979575
O O3 0.500000 0.927260 0.000000
O O4 0.200116 0.924098 0.103985
O O5 0.914508 0.500000 0.314458
O O6 0.744662 0.583379 0.277531
O O7 0.904648 0.583963 0.423241
O O8 0.079974 0.584060 0.244534
O O9 0.921838 0.087062 0.222646
O O10 0.096032 0.000000 0.225973
O O11 0.500000 0.734028 0.500000
O O12 0.501089 0.689378 0.667913
O O13 0.262948 0.754630 0.635054
O O14 0.318420 0.653573 0.550666
O O15 0.747401 0.327476 0.771685
O O16 0.768098 0.363282 0.600420
O O17 0.866895 0.950134 0.478932
#
# Coordination Sequence:
#
# PCOD9190022 Si02
#       8
#     8   8   8   8   8   2   8   8
#     4  10  19  39  63  92 131 175 217 262 326 404
#     4  11  23  38  57  92 134 177 212 253 318 393
#     4  10  21  37  63  88 130 178 216 262 321 392
#     4  10  21  42  66  88 117 173 235 282 324 369
#     4  11  25  41  64  93 123 170 230 287 322 377
#     4  12  20  40  64  94 148 188 218 258 358 408
#     4  12  24  37  60  96 126 163 219 275 326 387
#     4  11  22  39  63  93 137 183 218 269 331 403
#
# _framework density 20.744631999999999
#
# number of rings (size 3 to 8) (size 9 to 14) (size 15 to 20)
#    0.000    1.241    4.138    4.138    3.862    1.103 
#    2.483    0.690    0.000    0.000    0.000   13.517 
#    0.000    0.000    0.000    0.000    0.000    0.000 
#
# Total GULP energy -161589.420014 kJ/mol
# GULP energy per Si atom -5572.048966 kJ/mol
# Density = 2.069742 g / cm^3
# Si number density = 20.744632 Si / 1000 Ang^3
#
#
#
# Elastic Constant Matrix: (Units=GPa)
#
#
# Indices 1 2 3 4 5 6 
#
# 1 81.0315 20.3087 13.5085 0.0000 5.0328 0.0000
# 2 20.3087 91.9856 26.5476 0.0000 13.0828 0.0000
# 3 13.5085 26.5476 58.4536 0.0000 25.7703 0.0000
# 4 0.0000 0.0000 0.0000 85.1110 0.0000 -33.1485
# 5 5.0328 13.0828 25.7703 0.0000 32.9502 0.0000
# 6 0.0000 0.0000 0.0000 -33.1485 0.0000 51.0063
#
#
#
# Elastic Compliance Matrix: (Units=1/GPa)
#
#
# Indices 1 2 3 4 5 6 
#
# 1 0.013274 -0.002366 -0.002310 0.000000 0.000718 0.000000
# 2 -0.002366 0.012947 -0.004924 0.000000 -0.000928 0.000000
# 3 -0.002310 -0.004924 0.028786 0.000000 -0.020205 0.000000
# 4 0.000000 0.000000 0.000000 0.015731 0.000000 0.010224
# 5 0.000718 -0.000928 -0.020205 0.000000 0.046410 0.000000
# 6 0.000000 0.000000 0.000000 0.010224 0.000000 0.026250
#
#
# Mechanical properties :
#
#
# Convention : Reuss Voigt Hill
#
# Bulk Modulus (GPa) = 27.92778 39.13336 33.53057
# Shear Modulus (GPa) = 28.64785 45.22057 36.93421
#
# Velocity S-wave (km/s) = 3.72018 4.67397 4.22408
# Velocity P-wave (km/s) = 5.65198 6.93061 6.32369
#
# Compressibility (1/GPa) = 0.03580664
#
# Stress axis : x y z
#
# Youngs Moduli (GPa) = 75.33316 77.23920 34.73963
#
# Poissons Ratio (x) = 0.18277 0.08024
# Poissons Ratio (y) = 0.17826 0.17106
# Poissons Ratio (z) = 0.17400 0.38033
#
# Static dielectric constant tensor:
#      x y z
#    x 1.930560 0.000000 -0.042670 
#    y 0.000000 1.740420 0.000000 
#    z -0.042670 0.000000 1.775510 
# 
# From -- ./inp_files/198449.got.cif
#   From: 2010.05.17/outbox.cif.g08.bks.cpg/sg12_100_cif.got.tgz:198449.got - 2010.06.03 13:09:07.
