data_PCOD9190529
_publ_section_title
;
Structure prediction by ZEFSAII (Michael W. Deem and Ramdas Pophale) SiO2 
 PCOD9190529
Probable space group: C 2/M
;
_chemical_formula_sum "Si O2"
_cell_formula_units_Z 56
_cell_length_a 9.721293
_cell_length_b 16.987927
_cell_length_c 29.537868
_cell_angle_alpha 90.000000
_cell_angle_beta 33.753676
_cell_angle_gamma 90.000000
_cell_volume 2710.342848
_symmetry_space_group_name_H-M "C 2/M"
_symmetry_group_IT_number 12
_symmetry_cell_setting 'monoclinic'
loop_
_space_group_symop_operation_xyz
x,y,z
-x,y,-z
-x,-y,-z
x,-y,z
1/2+x,1/2+y,z
1/2-x,1/2+y,-z
1/2-x,1/2-y,-z
1/2+x,1/2-y,z
loop_
_atom_site_type_symbol
_atom_site_label
_atom_site_fract_x
_atom_site_fract_y
_atom_site_fract_z
Si Si1 0.953416 0.641990 0.463566
Si Si2 0.334955 0.343838 0.289265
Si Si3 0.063082 0.828763 0.432874
Si Si4 0.467678 0.907416 0.265110
Si Si5 0.740285 0.255193 0.055980
Si Si6 0.982640 0.910292 0.852320
Si Si7 0.726718 0.804344 0.760229
O O1 0.111974 0.613877 0.377257
O O2 0.000000 0.606525 0.500000
O O3 0.040863 0.734092 0.440274
O O4 0.661232 0.641550 0.536566
O O5 0.456348 0.397699 0.217406
O O6 0.245727 0.267142 0.284213
O O7 0.538327 0.319419 0.271699
O O8 0.000000 0.857606 0.500000
O O9 0.319648 0.860338 0.344185
O O10 0.760034 0.892004 0.191274
O O11 0.355181 0.877176 0.248713
O O12 0.429136 0.000000 0.281451
O O13 0.713951 0.345600 0.079061
O O14 0.503457 0.215669 0.144185
O O15 0.750000 0.250000 0.000000
O O16 0.000000 0.219574 0.000000
O O17 0.912548 0.000000 0.880441
#
# Coordination Sequence:
#
# PCOD9190529 Si02
#       7
#     8   8   8   8   8   8   8
#     4  10  20  31  52  83 113 149 192 250 301 336
#     4  11  21  36  63  84 119 158 198 254 287 352
#     4  10  20  32  52  79 114 150 196 244 293 344
#     4  11  22  39  60  83 120 161 202 248 291 351
#     4  11  22  39  64  92 118 150 188 246 298 354
#     4  10  23  41  62  89 120 161 200 238 295 359
#     4  11  22  38  61  90 117 152 202 241 300 354
#
# _framework density 20.661591000000001
#
# number of rings (size 3 to 8) (size 9 to 14) (size 15 to 20)
#    0.000    1.429    1.429    6.000    4.000    1.143 
#    0.000    1.429    0.000    4.286    0.000    0.000 
#    0.000    0.000    0.000    0.000    0.000    0.000 
#
# Total GULP energy -156418.279767 kJ/mol
# GULP energy per Si atom -5586.367135 kJ/mol
# Density = 2.061456 g / cm^3
# Si number density = 20.661591 Si / 1000 Ang^3
#
#
#
# Elastic Constant Matrix: (Units=GPa)
#
#
# Indices 1 2 3 4 5 6 
#
# 1 100.5701 -8.7461 2.0090 -0.0022 6.0350 -0.0015
# 2 -8.7461 26.2175 -6.3798 -0.0075 -3.5496 0.0000
# 3 2.0090 -6.3798 87.6687 -0.0113 11.7436 -0.0011
# 4 -0.0022 -0.0075 -0.0113 8.3719 0.0014 -1.9097
# 5 6.0350 -3.5496 11.7436 0.0014 42.6722 0.0023
# 6 -0.0015 0.0000 -0.0011 -1.9097 0.0023 19.2939
#
#
#
# Elastic Compliance Matrix: (Units=1/GPa)
#
#
# Indices 1 2 3 4 5 6 
#
# 1 0.010302 0.003312 0.000169 0.000006 -0.001228 0.000002
# 2 0.003312 0.040163 0.002556 0.000041 0.002169 0.000004
# 3 0.000169 0.002556 0.012006 0.000020 -0.003115 0.000003
# 4 0.000006 0.000041 0.000020 0.122207 -0.000008 0.012096
# 5 -0.001228 0.002169 -0.003115 -0.000008 0.024646 -0.000004
# 6 0.000002 0.000004 0.000003 0.012096 -0.000004 0.053027
#
#
# Mechanical properties :
#
#
# Convention : Reuss Voigt Hill
#
# Bulk Modulus (GPa) = 13.41471 20.91362 17.16417
# Shear Modulus (GPa) = 18.17359 29.23914 23.70636
#
# Velocity S-wave (km/s) = 2.96899 3.76592 3.39095
# Velocity P-wave (km/s) = 4.27316 5.39013 4.86382
#
# Compressibility (1/GPa) = 0.07454501
#
# Stress axis : x y z
#
# Youngs Moduli (GPa) = 97.07216 24.89861 83.29141
#
# Poissons Ratio (x) = -0.08245 -0.01411
# Poissons Ratio (y) = -0.32146 -0.21292
# Poissons Ratio (z) = -0.01645 -0.06365
#
# Static dielectric constant tensor:
#      x y z
#    x -1.242360 0.000430 0.633340 
#    y 0.000430 1.756550 -0.000090 
#    z 0.633340 -0.000090 1.588400 
# 
# From -- ./inp_files/257178.got.cif
#   From: 2010.05.17/outbox.cif.g08.bks.cpg/sg12_129_cif.got.tgz:257178.got - 2010.06.03 13:09:07.
