data_PCOD9190827
_publ_section_title
;
Structure prediction by ZEFSAII (Michael W. Deem and Ramdas Pophale) SiO2 
 PCOD9190827
Probable space group: C 2/M
;
_chemical_formula_sum "Si O2"
_cell_formula_units_Z 64
_cell_length_a 7.420343
_cell_length_b 17.641381
_cell_length_c 24.370325
_cell_angle_alpha 90.000000
_cell_angle_beta 115.105293
_cell_angle_gamma 90.000000
_cell_volume 2888.820357
_symmetry_space_group_name_H-M "C 2/M"
_symmetry_group_IT_number 12
_symmetry_cell_setting 'monoclinic'
loop_
_space_group_symop_operation_xyz
x,y,z
-x,y,-z
-x,-y,-z
x,-y,z
1/2+x,1/2+y,z
1/2-x,1/2+y,-z
1/2-x,1/2-y,-z
1/2+x,1/2-y,z
loop_
_atom_site_type_symbol
_atom_site_label
_atom_site_fract_x
_atom_site_fract_y
_atom_site_fract_z
Si Si1 0.088552 0.673291 0.893949
Si Si2 0.478768 0.653194 0.870456
Si Si3 0.937127 0.907988 0.349992
Si Si4 0.336734 0.088700 0.779135
Si Si5 0.633033 0.092380 0.610669
Si Si6 0.206296 0.092301 0.552003
Si Si7 0.792980 0.915596 0.008139
Si Si8 0.781758 0.588765 0.253014
O O1 0.278519 0.650029 0.881655
O O2 0.142721 0.643988 0.961445
O O3 0.061178 0.762446 0.886123
O O4 0.898923 0.634348 0.840904
O O5 0.399356 0.630994 0.800447
O O6 0.639124 0.600219 0.921145
O O7 0.162284 0.883528 0.390946
O O8 0.848168 0.881695 0.280715
O O9 0.802942 0.889626 0.384588
O O10 0.936959 0.000000 0.346363
O O11 0.522547 0.093594 0.760218
O O12 0.309373 0.000000 0.788953
O O13 0.422159 0.118928 0.559959
O O14 0.663936 0.113470 0.678607
O O15 0.626805 0.000000 0.607829
O O16 0.000000 0.120167 0.500000
O O17 0.203318 0.000000 0.545597
O O18 0.711743 0.000000 0.990616
O O19 0.000000 0.911729 0.000000
O O20 0.726988 0.500000 0.249076
#
# Coordination Sequence:
#
# PCOD9190827 Si02
#       8
#     8   8   8   8   8   8   8   8
#     4  10  20  32  49  72 100 132 163 211 263 312
#     4  10  20  32  49  72 100 132 163 211 263 312
#     4   9  16  26  42  65  93 129 170 211 257 306
#     4   9  16  29  48  67  90 127 173 215 256 306
#     4   9  16  26  42  65  93 129 170 211 257 306
#     4   9  16  26  40  62  98 137 169 207 253 307
#     4   9  17  32  53  75  96 127 178 218 248 303
#     4   9  16  29  48  67  90 127 173 215 256 306
#
# _framework density 22.154371000000001
#
# number of rings (size 3 to 8) (size 9 to 14) (size 15 to 20)
#    0.000    2.750    1.250    1.125    0.000    4.500 
#    0.000    2.500    0.000    3.000    0.000    0.000 
#    0.000    1.000    0.500    0.000    0.000    0.000 
#
# Total GULP energy -178591.558715 kJ/mol
# GULP energy per Si atom -5580.986210 kJ/mol
# Density = 2.210395 g / cm^3
# Si number density = 22.154371 Si / 1000 Ang^3
#
#
#
# Elastic Constant Matrix: (Units=GPa)
#
#
# Indices 1 2 3 4 5 6 
#
# 1 56.4254 -7.8641 11.4182 0.0000 15.8291 0.0000
# 2 -7.8641 32.1198 17.7450 0.0000 9.1056 0.0000
# 3 11.4182 17.7450 84.7587 0.0000 30.3874 0.0000
# 4 0.0000 0.0000 0.0000 1.9501 0.0000 15.4110
# 5 15.8291 9.1056 30.3874 0.0000 30.0890 0.0000
# 6 0.0000 0.0000 0.0000 15.4110 0.0000 27.9064
#
#
#
# Elastic Compliance Matrix: (Units=1/GPa)
#
#
# Indices 1 2 3 4 5 6 
#
# 1 0.023458 0.009992 0.000402 0.000000 -0.015770 0.000000
# 2 0.009992 0.039954 -0.005473 0.000000 -0.011820 0.000000
# 3 0.000402 -0.005473 0.019394 0.000000 -0.018141 0.000000
# 4 0.000000 0.000000 0.000000 -0.152429 0.000000 0.084177
# 5 -0.015770 -0.011820 -0.018141 0.000000 0.063429 0.000000
# 6 0.000000 0.000000 0.000000 0.084177 0.000000 -0.010652
#
#
# Mechanical properties :
#
#
# Convention : Reuss Voigt Hill
#
# Bulk Modulus (GPa) = 10.79360 23.98914 17.39137
# Shear Modulus (GPa) = 1191.62337 22.12274 606.87306
#
# Velocity S-wave (km/s) = 23.21725 3.16345 16.56876
# Velocity P-wave (km/s) = 26.89987 4.91883 19.33647
#
# Compressibility (1/GPa) = 0.09264749
#
# Stress axis : x y z
#
# Youngs Moduli (GPa) = 42.62964 25.02854 51.56257
#
# Poissons Ratio (x) = -0.25008 -0.02072
# Poissons Ratio (y) = -0.42595 0.28221
# Poissons Ratio (z) = -0.01713 0.13699
#
# Static dielectric constant tensor:
#      x y z
#    x 1.877880 0.000000 0.013470 
#    y 0.000000 1.783560 0.000000 
#    z 0.013470 0.000000 1.824410 
# 
# From -- ./inp_files/372578.got.cif
#   From: 2010.05.17/outbox.cif.g08.bks.cpg/sg12_187_cif.got.tgz:372578.got - 2010.06.03 13:09:07.
