data_PCOD9190788
_publ_section_title
;
Structure prediction by ZEFSAII (Michael W. Deem and Ramdas Pophale) SiO2 
 PCOD9190788
Probable space group: C 2/M
;
_chemical_formula_sum "Si O2"
_cell_formula_units_Z 64
_cell_length_a 30.046089
_cell_length_b 8.753587
_cell_length_c 16.031562
_cell_angle_alpha 90.000000
_cell_angle_beta 117.964597
_cell_angle_gamma 90.000000
_cell_volume 3724.151548
_symmetry_space_group_name_H-M "C 2/M"
_symmetry_group_IT_number 12
_symmetry_cell_setting 'monoclinic'
loop_
_space_group_symop_operation_xyz
x,y,z
-x,y,-z
-x,-y,-z
x,-y,z
1/2+x,1/2+y,z
1/2-x,1/2+y,-z
1/2-x,1/2-y,-z
1/2+x,1/2-y,z
loop_
_atom_site_type_symbol
_atom_site_label
_atom_site_fract_x
_atom_site_fract_y
_atom_site_fract_z
Si Si1 0.675072 0.817853 0.265285
Si Si2 0.073845 0.817834 0.105541
Si Si3 0.288191 0.683852 0.348494
Si Si4 0.041485 0.684125 0.724806
Si Si5 0.059188 0.180940 0.442403
Si Si6 0.161134 0.181768 0.433545
Si Si7 0.884489 0.317506 0.350385
Si Si8 0.476956 0.816141 0.102003
O O1 0.629460 0.734317 0.179249
O O2 0.730593 0.772187 0.282287
O O3 0.672389 0.773969 0.360396
O O4 0.669518 0.000000 0.251044
O O5 0.033254 0.744819 0.133581
O O6 0.069168 0.000000 0.103873
O O7 0.057402 0.755426 0.000638
O O8 0.292000 0.500000 0.348940
O O9 0.304550 0.727877 0.457255
O O10 0.329709 0.751174 0.323087
O O11 0.037395 0.500000 0.717634
O O12 0.090868 0.728920 0.715830
O O13 0.040805 0.727734 0.821218
O O14 0.992770 0.753242 0.636799
O O15 0.103748 0.205237 0.414010
O O16 0.078324 0.259067 0.543930
O O17 0.055121 0.000000 0.453253
O O18 0.168046 0.000000 0.424338
O O19 0.882071 0.500000 0.352021
O O20 0.476734 0.000000 0.094031
#
# Coordination Sequence:
#
# PCOD9190788 Si02
#       8
#     8   8   8   8   8   8   8   8
#     4  11  21  33  52  76 101 133 172 208 248 299
#     4  11  22  36  54  79 108 132 161 202 248 299
#     4   9  20  36  51  71 101 135 172 212 250 293
#     4  10  21  34  51  76 102 131 169 210 250 297
#     4  10  20  32  48  73 105 139 172 206 245 294
#     4   9  18  32  48  72 105 135 168 209 250 293
#     4  10  20  34  51  72 101 135 171 211 252 293
#     4  10  20  37  58  78 103 133 164 200 249 303
#
# _framework density 17.185123000000001
#
# number of rings (size 3 to 8) (size 9 to 14) (size 15 to 20)
#    0.000    2.000    0.000    5.625    0.000    9.000 
#    0.000    0.000    0.000    0.750    0.000    0.000 
#    0.000    0.000    0.000    0.000    0.000    0.000 
#
# Total GULP energy -178703.469178 kJ/mol
# GULP energy per Si atom -5584.483412 kJ/mol
# Density = 1.714601 g / cm^3
# Si number density = 17.185123 Si / 1000 Ang^3
#
#
#
# Elastic Constant Matrix: (Units=GPa)
#
#
# Indices 1 2 3 4 5 6 
#
# 1 127.0327 44.4228 86.8963 0.0000 0.7099 0.0000
# 2 44.4228 46.5448 33.5761 0.0000 -2.4872 0.0000
# 3 86.8963 33.5761 78.2804 0.0000 -4.4384 0.0000
# 4 0.0000 0.0000 0.0000 14.7504 0.0000 7.5823
# 5 0.7099 -2.4872 -4.4384 0.0000 27.9815 0.0000
# 6 0.0000 0.0000 0.0000 7.5823 0.0000 20.2409
#
#
#
# Elastic Compliance Matrix: (Units=1/GPa)
#
#
# Indices 1 2 3 4 5 6 
#
# 1 0.035995 -0.008144 -0.036888 0.000000 -0.007488 0.000000
# 2 -0.008144 0.032965 -0.004966 0.000000 0.002349 0.000000
# 3 -0.036888 -0.004966 0.056388 0.000000 0.009439 0.000000
# 4 0.000000 0.000000 0.000000 0.083963 0.000000 -0.031453
# 5 -0.007488 0.002349 0.009439 0.000000 0.037634 0.000000
# 6 0.000000 0.000000 0.000000 -0.031453 0.000000 0.061187
#
#
# Mechanical properties :
#
#
# Convention : Reuss Voigt Hill
#
# Bulk Modulus (GPa) = 39.44464 64.62759 52.03612
# Shear Modulus (GPa) = 12.00253 18.39207 15.19730
#
# Velocity S-wave (km/s) = 2.64564 3.27499 2.97699
# Velocity P-wave (km/s) = 5.68640 7.21035 6.49324
#
# Compressibility (1/GPa) = 0.02535199
#
# Stress axis : x y z
#
# Youngs Moduli (GPa) = 27.78162 30.33505 17.73431
#
# Poissons Ratio (x) = 0.24705 0.65419
# Poissons Ratio (y) = 0.22626 0.08806
# Poissons Ratio (z) = 1.02481 0.15064
#
# Static dielectric constant tensor:
#      x y z
#    x 1.589060 0.000000 -0.007330 
#    y 0.000000 1.575330 0.000000 
#    z -0.007330 0.000000 1.561130 
# 
# From -- ./inp_files/244240.got.cif
#   From: 2010.05.17/outbox.cif.g08.bks.cpg/sg12_123_cif.got.tgz:244240.got - 2010.06.03 13:09:07.
