data_PCOD9190661
_publ_section_title
;
Structure prediction by ZEFSAII (Michael W. Deem and Ramdas Pophale) SiO2 
 PCOD9190661
Probable space group: C 2/M
;
_chemical_formula_sum "Si O2"
_cell_formula_units_Z 56
_cell_length_a 17.328890
_cell_length_b 26.502914
_cell_length_c 8.758813
_cell_angle_alpha 90.000000
_cell_angle_beta 141.333708
_cell_angle_gamma 90.000000
_cell_volume 2513.269812
_symmetry_space_group_name_H-M "C 2/M"
_symmetry_group_IT_number 12
_symmetry_cell_setting 'monoclinic'
loop_
_space_group_symop_operation_xyz
x,y,z
-x,y,-z
-x,-y,-z
x,-y,z
1/2+x,1/2+y,z
1/2-x,1/2+y,-z
1/2-x,1/2-y,-z
1/2+x,1/2-y,z
loop_
_atom_site_type_symbol
_atom_site_label
_atom_site_fract_x
_atom_site_fract_y
_atom_site_fract_z
Si Si1 0.305170 0.585744 0.466312
Si Si2 0.580905 0.217760 0.939466
Si Si3 0.886300 0.642652 0.606673
Si Si4 0.500000 0.758241 0.500000
Si Si5 0.000000 0.910104 0.000000
Si Si6 0.335427 0.331940 0.939823
Si Si7 0.565103 0.054740 0.934457
Si Si8 0.168072 0.829426 0.700106
O O1 0.210939 0.615295 0.432943
O O2 0.404983 0.561826 0.737330
O O3 0.378485 0.624221 0.470536
O O4 0.210137 0.559116 0.201674
O O5 0.451292 0.191869 0.780905
O O6 0.574698 0.214216 0.744411
O O7 0.612845 0.275904 0.022949
O O8 0.696382 0.182652 0.152340
O O9 0.803970 0.660730 0.337848
O O10 0.996575 0.601830 0.747555
O O11 0.409436 0.720714 0.450100
O O12 0.083087 0.873502 0.021758
O O13 0.336883 0.337233 0.125629
O O14 0.541987 0.000000 0.824646
O O15 0.500000 0.053942 0.000000
#
# Coordination Sequence:
#
# PCOD9190661 Si02
#       8
#     8   8   8   4   4   8   8   8
#     4  10  20  36  57  82 110 145 187 234 286 332
#     4  11  19  32  50  78 112 153 194 231 271 326
#     4  10  20  36  56  83 118 146 189 238 280 325
#     4  10  20  32  46  74 110 154 204 220 264 334
#     4  10  22  38  53  78 116 148 187 232 278 334
#     4  10  22  35  52  80 114 159 191 228 273 328
#     4   9  18  36  62  86 110 143 185 234 287 338
#     4  11  20  33  52  74 108 152 192 229 270 325
#
# _framework density 22.281731000000001
#
# number of rings (size 3 to 8) (size 9 to 14) (size 15 to 20)
#    0.000    1.857    1.429    5.143    0.000    1.143 
#    0.000    3.929    0.000    2.571    0.000    3.500 
#    0.000    0.000    0.000    0.000    0.000    0.000 
#
# Total GULP energy -156096.179876 kJ/mol
# GULP energy per Si atom -5574.863567 kJ/mol
# Density = 2.223102 g / cm^3
# Si number density = 22.281731 Si / 1000 Ang^3
#
#
#
# Elastic Constant Matrix: (Units=GPa)
#
#
# Indices 1 2 3 4 5 6 
#
# 1 56.4544 9.0954 16.4948 0.0000 8.1285 0.0000
# 2 9.0954 84.6213 47.6463 0.0000 -2.0185 0.0000
# 3 16.4948 47.6463 160.6267 0.0000 12.9098 0.0000
# 4 0.0000 0.0000 0.0000 9.0886 0.0000 1.4508
# 5 8.1285 -2.0185 12.9098 0.0000 30.5463 0.0000
# 6 0.0000 0.0000 0.0000 1.4508 0.0000 0.8706
#
#
#
# Elastic Compliance Matrix: (Units=1/GPa)
#
#
# Indices 1 2 3 4 5 6 
#
# 1 0.018958 -0.001518 -0.001121 0.000000 -0.004671 0.000000
# 2 -0.001518 0.014545 -0.004419 0.000000 0.003232 0.000000
# 3 -0.001121 -0.004419 0.007920 0.000000 -0.003341 0.000000
# 4 0.000000 0.000000 0.000000 0.149900 0.000000 -0.249792
# 5 -0.004671 0.003232 -0.003341 0.000000 0.035606 0.000000
# 6 0.000000 0.000000 0.000000 -0.249792 0.000000 1.564885
#
#
# Mechanical properties :
#
#
# Convention : Reuss Voigt Hill
#
# Bulk Modulus (GPa) = 36.61867 49.79727 43.20797
# Shear Modulus (GPa) = 2.75477 23.33218 13.04347
#
# Velocity S-wave (km/s) = 1.11311 3.23947 2.42211
# Velocity P-wave (km/s) = 4.25701 6.03238 5.22072
#
# Compressibility (1/GPa) = 0.02730847
#
# Stress axis : x y z
#
# Youngs Moduli (GPa) = 52.74787 68.74999 126.26421
#
# Poissons Ratio (x) = 0.10435 0.14156
# Poissons Ratio (y) = 0.08006 0.55790
# Poissons Ratio (z) = 0.05914 0.30377
#
# Static dielectric constant tensor:
#      x y z
#    x 1.874850 0.000000 0.019210 
#    y 0.000000 1.838490 0.000000 
#    z 0.019210 0.000000 1.902580 
# 
# From -- ./inp_files/80140.got.cif
#   From: 2010.05.17/outbox.cif.g08.bks.cpg/sg12_41_cif.got.tgz:80140.got - 2010.06.03 13:09:07.
