data_PCOD9190823
_publ_section_title
;
Structure prediction by ZEFSAII (Michael W. Deem and Ramdas Pophale) SiO2 
 PCOD9190823
Probable space group: C 2/M
;
_chemical_formula_sum "Si O2"
_cell_formula_units_Z 64
_cell_length_a 23.739293
_cell_length_b 7.514894
_cell_length_c 21.212139
_cell_angle_alpha 90.000000
_cell_angle_beta 52.271843
_cell_angle_gamma 90.000000
_cell_volume 2993.017537
_symmetry_space_group_name_H-M "C 2/M"
_symmetry_group_IT_number 12
_symmetry_cell_setting 'monoclinic'
loop_
_space_group_symop_operation_xyz
x,y,z
-x,y,-z
-x,-y,-z
x,-y,z
1/2+x,1/2+y,z
1/2-x,1/2+y,-z
1/2-x,1/2-y,-z
1/2+x,1/2-y,z
loop_
_atom_site_type_symbol
_atom_site_label
_atom_site_fract_x
_atom_site_fract_y
_atom_site_fract_z
Si Si1 0.491072 0.714285 0.176454
Si Si2 0.203795 0.217984 0.270790
Si Si3 0.784669 0.206712 0.877727
Si Si4 0.548872 0.282373 0.408646
Si Si5 0.666848 0.211146 0.734316
Si Si6 0.323261 0.211821 0.414978
Si Si7 0.020605 0.205263 0.672184
Si Si8 0.145043 0.783993 0.041163
O O1 0.492729 0.500000 0.178637
O O2 0.416510 0.761599 0.195303
O O3 0.490879 0.781529 0.249531
O O4 0.563167 0.772040 0.092766
O O5 0.199552 0.282201 0.201604
O O6 0.131731 0.266744 0.356605
O O7 0.275343 0.280804 0.256192
O O8 0.205989 0.000000 0.266828
O O9 0.825322 0.280385 0.911026
O O10 0.805816 0.000000 0.860904
O O11 0.700961 0.219437 0.951111
O O12 0.500000 0.222178 0.500000
O O13 0.545394 0.500000 0.410612
O O14 0.519361 0.219110 0.361048
O O15 0.679418 0.281572 0.654947
O O16 0.678765 0.000000 0.723060
O O17 0.250000 0.250000 0.500000
O O18 0.394531 0.288605 0.397436
O O19 0.333611 0.000000 0.406019
O O20 0.997025 0.000000 0.692654
O O21 0.148314 0.000000 0.037878
#
# Coordination Sequence:
#
# PCOD9190823 Si02
#       8
#     8   8   8   8   8   8   8   8
#     4   9  17  31  50  71  98 129 161 200 244 289
#     4   9  17  31  49  71 101 129 159 203 249 290
#     4   9  17  30  50  75 100 128 159 197 246 291
#     4   9  17  27  47  76  99 123 159 202 245 291
#     4   9  19  33  50  71  96 127 165 205 244 288
#     4  10  20  32  49  71  95 126 163 205 247 287
#     4   9  17  30  49  73  97 122 159 201 244 292
#     4   9  17  30  50  75 102 127 159 201 241 288
#
# _framework density 21.383102999999998
#
# number of rings (size 3 to 8) (size 9 to 14) (size 15 to 20)
#    0.000    2.875    0.000    1.125    1.750    4.000 
#    0.000    1.250    0.000    7.125    0.000    0.000 
#    0.000    0.000    0.000    0.000    0.000    0.000 
#
# Total GULP energy -178555.344103 kJ/mol
# GULP energy per Si atom -5579.854503 kJ/mol
# Density = 2.133443 g / cm^3
# Si number density = 21.383103 Si / 1000 Ang^3
#
#
#
# Elastic Constant Matrix: (Units=GPa)
#
#
# Indices 1 2 3 4 5 6 
#
# 1 88.9007 -2.9097 41.5761 0.0039 -13.2224 -0.0079
# 2 -2.9097 56.9451 -7.6013 -0.0128 8.0581 -0.0133
# 3 41.5761 -7.6013 97.5365 0.0021 -23.9633 -0.0056
# 4 0.0039 -0.0128 0.0021 9.1966 -0.0030 -7.9402
# 5 -13.2224 8.0581 -23.9633 -0.0030 28.0882 0.0054
# 6 -0.0079 -0.0133 -0.0056 -7.9402 0.0054 11.8589
#
#
#
# Elastic Compliance Matrix: (Units=1/GPa)
#
#
# Indices 1 2 3 4 5 6 
#
# 1 0.014135 -0.000303 -0.005558 0.000001 0.001999 0.000006
# 2 -0.000303 0.018313 0.000291 0.000103 -0.005147 0.000092
# 3 -0.005558 0.000291 0.015158 0.000005 0.010232 0.000002
# 4 0.000001 0.000103 0.000005 0.257720 -0.000030 0.172558
# 5 0.001999 -0.005147 0.010232 -0.000030 0.046750 -0.000041
# 6 0.000006 0.000092 0.000002 0.172558 -0.000041 0.199862
#
#
# Mechanical properties :
#
#
# Convention : Reuss Voigt Hill
#
# Bulk Modulus (GPa) = 27.42081 33.94585 30.68333
# Shear Modulus (GPa) = 8.69216 23.98321 16.33768
#
# Velocity S-wave (km/s) = 2.01836 3.35266 2.76714
# Velocity P-wave (km/s) = 4.27588 5.55847 4.95882
#
# Compressibility (1/GPa) = 0.03646865
#
# Stress axis : x y z
#
# Youngs Moduli (GPa) = 70.74580 54.60710 65.97084
#
# Poissons Ratio (x) = 0.01652 0.36664
# Poissons Ratio (y) = 0.02140 -0.01923
# Poissons Ratio (z) = 0.39318 -0.01592
#
# Static dielectric constant tensor:
#      x y z
#    x 1.767870 0.000000 -0.004920 
#    y 0.000000 1.844930 0.000000 
#    z -0.004920 0.000000 1.753500 
# 
# From -- ./inp_files/324081.got.cif
#   From: 2010.05.17/outbox.cif.g08.bks.cpg/sg12_163_cif.got.tgz:324081.got - 2010.06.03 13:09:07.
