data_PCOD9190180
_publ_section_title
;
Structure prediction by ZEFSAII (Michael W. Deem and Ramdas Pophale) SiO2 
 PCOD9190180
Probable space group: C 2/M
;
_chemical_formula_sum "Si O2"
_cell_formula_units_Z 40
_cell_length_a 11.708980
_cell_length_b 25.692546
_cell_length_c 9.365401
_cell_angle_alpha 90.000000
_cell_angle_beta 43.744733
_cell_angle_gamma 90.000000
_cell_volume 1948.100062
_symmetry_space_group_name_H-M "C 2/M"
_symmetry_group_IT_number 12
_symmetry_cell_setting 'monoclinic'
loop_
_space_group_symop_operation_xyz
x,y,z
-x,y,-z
-x,-y,-z
x,-y,z
1/2+x,1/2+y,z
1/2-x,1/2+y,-z
1/2-x,1/2-y,-z
1/2+x,1/2-y,z
loop_
_atom_site_type_symbol
_atom_site_label
_atom_site_fract_x
_atom_site_fract_y
_atom_site_fract_z
Si Si1 0.687568 0.709239 0.353514
Si Si2 0.750922 0.680678 0.857870
Si Si3 0.960667 0.941973 0.702597
Si Si4 0.110112 0.158404 0.698787
Si Si5 0.633592 0.877706 0.987475
O O1 0.500000 0.691726 0.500000
O O2 0.705360 0.763701 0.253023
O O3 0.704498 0.697557 0.507021
O O4 0.803812 0.669081 0.169469
O O5 0.708770 0.648487 0.754668
O O6 0.571629 0.683180 0.100262
O O7 0.881319 0.653221 0.846453
O O8 0.776134 0.919707 0.887710
O O9 0.000000 0.944303 0.500000
O O10 0.077463 0.897402 0.659755
O O11 0.979618 0.000000 0.745938
O O12 0.500000 0.902410 0.000000
#
# Coordination Sequence:
#
# PCOD9190180 Si02
#       5
#     8   8   8   8   8
#     4  12  21  38  59  84 122 169 201 232 292 357
#     4  10  23  35  57  87 125 158 195 245 294 347
#     4  10  19  40  68  87 110 155 205 253 298 347
#     4  10  20  40  59  90 122 149 208 251 285 360
#     4  11  23  39  57  87 126 152 198 252 290 359
#
# _framework density 20.532824999999999
#
# number of rings (size 3 to 8) (size 9 to 14) (size 15 to 20)
#    0.000    1.400    6.000    1.200    2.800    2.000 
#    0.000    8.000    0.000    0.000    0.000    2.800 
#    0.000    0.000    0.000    0.000    0.000    0.000 
#
# Total GULP energy -111395.029035 kJ/mol
# GULP energy per Si atom -5569.751452 kJ/mol
# Density = 2.048609 g / cm^3
# Si number density = 20.532825 Si / 1000 Ang^3
#
#
#
# Elastic Constant Matrix: (Units=GPa)
#
#
# Indices 1 2 3 4 5 6 
#
# 1 82.1185 28.6547 28.3906 0.0000 31.1137 0.0000
# 2 28.6547 133.0667 30.6300 0.0000 12.6332 0.0000
# 3 28.3906 30.6300 61.5387 0.0000 32.1885 0.0000
# 4 0.0000 0.0000 0.0000 15.3595 0.0000 6.0005
# 5 31.1137 12.6332 32.1885 0.0000 30.7028 0.0000
# 6 0.0000 0.0000 0.0000 6.0005 0.0000 22.5957
#
#
#
# Elastic Compliance Matrix: (Units=1/GPa)
#
#
# Indices 1 2 3 4 5 6 
#
# 1 0.021267 -0.003363 0.005339 0.000000 -0.025766 0.000000
# 2 -0.003363 0.009079 -0.006191 0.000000 0.006162 0.000000
# 3 0.005339 -0.006191 0.040666 0.000000 -0.045497 0.000000
# 4 0.000000 0.000000 0.000000 0.072643 0.000000 -0.019291
# 5 -0.025766 0.006162 -0.045497 0.000000 0.103844 0.000000
# 6 0.000000 0.000000 0.000000 -0.019291 0.000000 0.049379
#
#
# Mechanical properties :
#
#
# Convention : Reuss Voigt Hill
#
# Bulk Modulus (GPa) = 15.97858 50.23049 33.10453
# Shear Modulus (GPa) = 15.32952 26.33484 20.83218
#
# Velocity S-wave (km/s) = 2.73534 3.58519 3.18870
# Velocity P-wave (km/s) = 4.21604 6.45405 5.45113
#
# Compressibility (1/GPa) = 0.06258377
#
# Stress axis : x y z
#
# Youngs Moduli (GPa) = 47.02042 110.14244 24.59064
#
# Poissons Ratio (x) = 0.37036 -0.13130
# Poissons Ratio (y) = 0.15811 0.15224
# Poissons Ratio (z) = -0.25105 0.68189
#
# Static dielectric constant tensor:
#      x y z
#    x 1.841380 0.000000 0.013690 
#    y 0.000000 1.725410 0.000000 
#    z 0.013690 0.000000 1.794810 
# 
# From -- ./inp_files/52324.got.cif
#   From: 2010.05.17/outbox.cif.g08.bks.cpg/sg12_27_cif.got.tgz:52324.got - 2010.06.03 13:09:07.
