data_PCOD9190538
_publ_section_title
;
Structure prediction by ZEFSAII (Michael W. Deem and Ramdas Pophale) SiO2 
 PCOD9190538
Probable space group: C 2/M
;
_chemical_formula_sum "Si O2"
_cell_formula_units_Z 48
_cell_length_a 12.178071
_cell_length_b 23.467528
_cell_length_c 30.301423
_cell_angle_alpha 90.000000
_cell_angle_beta 161.237822
_cell_angle_gamma 90.000000
_cell_volume 2785.350814
_symmetry_space_group_name_H-M "C 2/M"
_symmetry_group_IT_number 12
_symmetry_cell_setting 'monoclinic'
loop_
_space_group_symop_operation_xyz
x,y,z
-x,y,-z
-x,-y,-z
x,-y,z
1/2+x,1/2+y,z
1/2-x,1/2+y,-z
1/2-x,1/2-y,-z
1/2+x,1/2-y,z
loop_
_atom_site_type_symbol
_atom_site_label
_atom_site_fract_x
_atom_site_fract_y
_atom_site_fract_z
Si Si1 0.817955 0.712765 0.314519
Si Si2 0.621238 0.335422 0.928394
Si Si3 0.038349 0.566552 0.065054
Si Si4 0.669741 0.257869 0.111835
Si Si5 0.716773 0.318662 0.431251
Si Si6 0.088965 0.935624 0.345554
O O1 0.596710 0.672553 0.198973
O O2 0.557326 0.741715 0.249912
O O3 0.093711 0.680656 0.449258
O O4 0.979836 0.762750 0.345754
O O5 0.395712 0.310868 0.881739
O O6 0.764253 0.398129 0.988361
O O7 0.957117 0.295143 0.051195
O O8 0.960758 0.500000 0.035212
O O9 0.405186 0.573617 0.228237
O O10 0.000000 0.587563 0.000000
O O11 0.500000 0.269203 0.000000
O O12 0.520015 0.378033 0.347123
O O13 0.000000 0.312427 0.500000
O O14 0.500000 0.937324 0.500000
O O15 0.980738 0.000000 0.319184
#
# Coordination Sequence:
#
# PCOD9190538 Si02
#       6
#     8   8   8   8   8   8
#     4  10  20  34  48  81 102 140 171 212 268 313
#     4  10  20  31  53  74 104 135 176 212 263 312
#     4  10  21  34  52  78 107 137 175 222 264 306
#     4   9  19  31  50  75 102 134 173 212 257 315
#     4  10  21  32  54  73 110 135 171 217 261 311
#     4   9  20  34  51  73 102 139 174 210 260 311
#
# _framework density 17.233018000000001
#
# number of rings (size 3 to 8) (size 9 to 14) (size 15 to 20)
#    0.000    2.333    0.000    2.500   16.333    0.000 
#    0.000    0.000    0.000    1.500    0.000    0.000 
#    0.000    7.333    0.000    0.000    0.000    0.000 
#
# Total GULP energy -133716.273660 kJ/mol
# GULP energy per Si atom -5571.511402 kJ/mol
# Density = 1.719379 g / cm^3
# Si number density = 17.233018 Si / 1000 Ang^3
#
#
#
# Elastic Constant Matrix: (Units=GPa)
#
#
# Indices 1 2 3 4 5 6 
#
# 1 52.6670 27.1916 11.5409 -0.0145 -2.5161 -0.0096
# 2 27.1916 69.7137 35.2582 -0.0418 -19.4339 -0.0049
# 3 11.5409 35.2582 71.7229 -0.0572 -12.7705 0.0088
# 4 -0.0145 -0.0418 -0.0572 23.0505 -0.0443 -2.8927
# 5 -2.5161 -19.4339 -12.7705 -0.0443 20.0387 -0.0012
# 6 -0.0096 -0.0049 0.0088 -2.8927 -0.0012 17.7159
#
#
#
# Elastic Compliance Matrix: (Units=1/GPa)
#
#
# Indices 1 2 3 4 5 6 
#
# 1 0.024826 -0.012330 0.000556 -0.000021 -0.008487 0.000006
# 2 -0.012330 0.029577 -0.008713 0.000068 0.021584 0.000018
# 3 0.000556 -0.008713 0.018775 0.000037 0.003585 -0.000005
# 4 -0.000021 0.000068 0.000037 0.044291 0.000185 0.007232
# 5 -0.008487 0.021584 0.003585 0.000185 0.072055 0.000035
# 6 0.000006 0.000018 -0.000005 0.007232 0.000035 0.057627
#
#
# Mechanical properties :
#
#
# Convention : Reuss Voigt Hill
#
# Bulk Modulus (GPa) = 31.05282 38.00944 34.53113
# Shear Modulus (GPa) = 16.73024 20.16855 18.44940
#
# Velocity S-wave (km/s) = 3.11919 3.42474 3.27553
# Velocity P-wave (km/s) = 5.57054 6.14349 5.86402
#
# Compressibility (1/GPa) = 0.03220320
#
# Stress axis : x y z
#
# Youngs Moduli (GPa) = 40.28045 33.81002 53.26362
#
# Poissons Ratio (x) = 0.41688 -0.02959
# Poissons Ratio (y) = 0.49666 0.46407
# Poissons Ratio (z) = -0.02238 0.29457
#
# Static dielectric constant tensor:
#      x y z
#    x 1.588010 0.000000 -0.018400 
#    y 0.000000 1.612580 -0.000040 
#    z -0.018400 -0.000040 1.623380 
# 
# From -- ./inp_files/374594.got.cif
#   From: 2010.05.17/outbox.cif.g08.bks.cpg/sg12_188_cif.got.tgz:374594.got - 2010.06.03 13:09:07.
