data_PCOD9190628
_publ_section_title
;
Structure prediction by ZEFSAII (Michael W. Deem and Ramdas Pophale) SiO2 
 PCOD9190628
Probable space group: C 2/M
;
_chemical_formula_sum "Si O2"
_cell_formula_units_Z 64
_cell_length_a 25.749383
_cell_length_b 7.747966
_cell_length_c 18.865413
_cell_angle_alpha 90.000000
_cell_angle_beta 62.834406
_cell_angle_gamma 90.000000
_cell_volume 3348.574001
_symmetry_space_group_name_H-M "C 2/M"
_symmetry_group_IT_number 12
_symmetry_cell_setting 'monoclinic'
loop_
_space_group_symop_operation_xyz
x,y,z
-x,y,-z
-x,-y,-z
x,-y,z
1/2+x,1/2+y,z
1/2-x,1/2+y,-z
1/2-x,1/2-y,-z
1/2+x,1/2-y,z
loop_
_atom_site_type_symbol
_atom_site_label
_atom_site_fract_x
_atom_site_fract_y
_atom_site_fract_z
Si Si1 0.753090 0.705709 0.718354
Si Si2 0.916882 0.799275 0.495613
Si Si3 0.506099 0.712265 0.323174
Si Si4 0.880551 0.791673 0.673044
Si Si5 0.050028 0.295240 0.022538
Si Si6 0.528363 0.297628 0.808751
Si Si7 0.790819 0.293598 0.540107
Si Si8 0.129655 0.208615 0.851715
O O1 0.745937 0.500000 0.717259
O O2 0.813409 0.738609 0.721920
O O3 0.763546 0.770648 0.631542
O O4 0.693780 0.772433 0.790418
O O5 0.904326 0.725777 0.581634
O O6 0.855170 0.785387 0.493845
O O7 0.966935 0.727398 0.413890
O O8 0.931972 0.000000 0.497410
O O9 0.504013 0.500000 0.323577
O O10 0.572925 0.761817 0.296874
O O11 0.480618 0.774351 0.264248
O O12 0.880648 0.000000 0.669842
O O13 0.043782 0.500000 0.032538
O O14 0.109106 0.256955 0.943624
O O15 0.000000 0.226663 0.000000
O O16 0.031696 0.220140 0.109409
O O17 0.541373 0.500000 0.792347
O O18 0.580919 0.226248 0.825211
O O19 0.797558 0.500000 0.540436
O O20 0.750000 0.250000 0.500000
O O21 0.128954 0.000000 0.849421
#
# Coordination Sequence:
#
# PCOD9190628 Si02
#       8
#     8   8   8   8   8   8   8   8
#     4   9  19  33  49  69  94 126 163 199 235 280
#     4   9  17  30  49  69  94 127 165 203 240 278
#     4   9  17  29  50  74  96 125 164 204 238 279
#     4   9  17  31  49  71  96 126 165 204 240 278
#     4   9  17  30  47  69  99 126 147 184 239 290
#     4   9  17  29  48  72  96 124 157 192 233 283
#     4  10  20  32  46  66  97 131 162 197 240 284
#     4   9  17  30  50  72  93 122 160 193 227 284
#
# _framework density 19.112613
#
# number of rings (size 3 to 8) (size 9 to 14) (size 15 to 20)
#    0.000    2.875    0.000    1.125    1.750    4.000 
#    0.000    1.875    0.000    3.750    0.000    0.000 
#    0.000    0.000    0.000    0.000    0.000    0.000 
#
# Total GULP energy -178330.717524 kJ/mol
# GULP energy per Si atom -5572.834923 kJ/mol
# Density = 1.906911 g / cm^3
# Si number density = 19.112613 Si / 1000 Ang^3
#
#
#
# Elastic Constant Matrix: (Units=GPa)
#
#
# Indices 1 2 3 4 5 6 
#
# 1 77.7091 -6.5368 41.1053 -0.0001 -16.9255 -0.0003
# 2 -6.5368 27.3575 -3.6818 0.0003 1.6416 0.0010
# 3 41.1053 -3.6818 79.6880 -0.0001 -27.8720 -0.0002
# 4 -0.0001 0.0003 -0.0001 4.5838 0.0000 -5.0625
# 5 -16.9255 1.6416 -27.8720 0.0000 25.8290 -0.0001
# 6 -0.0003 0.0010 -0.0002 -5.0625 -0.0001 15.4433
#
#
#
# Elastic Compliance Matrix: (Units=1/GPa)
#
#
# Indices 1 2 3 4 5 6 
#
# 1 0.018073 0.003047 -0.008204 0.000000 0.002797 0.000000
# 2 0.003047 0.037306 0.000034 -0.000008 -0.000338 -0.000005
# 3 -0.008204 0.000034 0.023935 0.000001 0.020450 0.000001
# 4 0.000000 -0.000008 0.000001 0.341966 0.000002 0.112100
# 5 0.002797 -0.000338 0.020450 0.000002 0.062638 0.000001
# 6 0.000000 -0.000005 0.000001 0.112100 0.000001 0.101500
#
#
# Mechanical properties :
#
#
# Convention : Reuss Voigt Hill
#
# Bulk Modulus (GPa) = 14.47856 27.39202 20.93529
# Shear Modulus (GPa) = 8.08162 19.42909 13.75536
#
# Velocity S-wave (km/s) = 2.05854 3.19181 2.68563
# Velocity P-wave (km/s) = 3.63895 5.28645 4.53809
#
# Compressibility (1/GPa) = 0.06906766
#
# Stress axis : x y z
#
# Youngs Moduli (GPa) = 55.32970 26.80548 41.77985
#
# Poissons Ratio (x) = -0.08167 0.34275
# Poissons Ratio (y) = -0.16857 -0.00141
# Poissons Ratio (z) = 0.45391 -0.00091
#
# Static dielectric constant tensor:
#      x y z
#    x 1.659390 0.000000 -0.007540 
#    y 0.000000 1.713350 0.000000 
#    z -0.007540 0.000000 1.680640 
# 
# From -- ./inp_files/323653.got.cif
#   From: 2010.05.17/outbox.cif.g08.bks.cpg/sg12_162_cif.got.tgz:323653.got - 2010.06.03 13:09:07.
