data_PCOD9190470
_publ_section_title
;
Structure prediction by ZEFSAII (Michael W. Deem and Ramdas Pophale) SiO2 
 PCOD9190470
Probable space group: C 2/M
;
_chemical_formula_sum "Si O2"
_cell_formula_units_Z 64
_cell_length_a 30.506212
_cell_length_b 19.955122
_cell_length_c 15.902543
_cell_angle_alpha 90.000000
_cell_angle_beta 161.369599
_cell_angle_gamma 90.000000
_cell_volume 3092.634934
_symmetry_space_group_name_H-M "C 2/M"
_symmetry_group_IT_number 12
_symmetry_cell_setting 'monoclinic'
loop_
_space_group_symop_operation_xyz
x,y,z
-x,y,-z
-x,-y,-z
x,-y,z
1/2+x,1/2+y,z
1/2-x,1/2+y,-z
1/2-x,1/2-y,-z
1/2+x,1/2-y,z
loop_
_atom_site_type_symbol
_atom_site_label
_atom_site_fract_x
_atom_site_fract_y
_atom_site_fract_z
Si Si1 0.993859 0.666758 0.401078
Si Si2 0.921912 0.846777 0.089600
Si Si3 0.649992 0.076996 0.549670
Si Si4 0.115941 0.575266 0.150838
Si Si5 0.776765 0.924841 0.608895
Si Si6 0.775617 0.173399 0.350939
Si Si7 0.242389 0.744626 0.112655
Si Si8 0.381768 0.720936 0.844615
O O1 0.054590 0.626769 0.430578
O O2 0.106881 0.724651 0.627962
O O3 0.000000 0.625675 0.500000
O O4 0.843483 0.695789 0.104445
O O5 0.079718 0.865020 0.385295
O O6 0.807926 0.901916 0.859467
O O7 0.860873 0.806780 0.057750
O O8 0.928876 0.794039 0.025120
O O9 0.653632 0.082255 0.454299
O O10 0.622339 0.000000 0.521371
O O11 0.078299 0.500000 0.058762
O O12 0.239110 0.572384 0.442555
O O13 0.156394 0.620234 0.147657
O O14 0.000000 0.603910 0.000000
O O15 0.850367 0.853747 0.753884
O O16 0.836206 0.000000 0.736897
O O17 0.762908 0.208267 0.238838
O O18 0.745798 0.228527 0.371014
O O19 0.500000 0.748992 0.000000
#
# Coordination Sequence:
#
# PCOD9190470 Si02
#       8
#     8   8   8   8   8   8   8   8
#     4  11  22  39  64  93 121 151 187 236 300 364
#     4   9  19  34  53  79 112 150 189 235 292 345
#     4   9  20  38  61  85 114 152 197 246 292 349
#     4  10  22  35  48  73 109 152 199 243 290 344
#     4   9  19  35  52  72 106 151 196 240 289 344
#     4  11  21  34  55  80 115 154 196 242 292 351
#     4  10  21  38  59  89 122 151 186 237 291 357
#     4  10  20  31  48  78 107 144 194 250 295 333
#
# _framework density 20.694327000000001
#
# number of rings (size 3 to 8) (size 9 to 14) (size 15 to 20)
#    0.000    2.125    1.250    2.250    1.750    4.000 
#    0.000    2.500    0.000    0.000    0.000    0.875 
#    0.000    0.000    0.000    0.000    0.000    0.000 
#
# Total GULP energy -178145.754942 kJ/mol
# GULP energy per Si atom -5567.054842 kJ/mol
# Density = 2.064723 g / cm^3
# Si number density = 20.694327 Si / 1000 Ang^3
#
#
#
# Elastic Constant Matrix: (Units=GPa)
#
#
# Indices 1 2 3 4 5 6 
#
# 1 60.4029 8.3220 0.1883 0.0000 -1.1482 0.0000
# 2 8.3220 76.0228 8.2197 0.0000 6.9570 0.0000
# 3 0.1883 8.2197 55.7087 0.0000 16.5419 0.0000
# 4 0.0000 0.0000 0.0000 -41.4394 0.0000 74.8547
# 5 -1.1482 6.9570 16.5419 0.0000 18.8948 0.0000
# 6 0.0000 0.0000 0.0000 74.8547 0.0000 -84.7121
#
#
#
# Elastic Compliance Matrix: (Units=1/GPa)
#
#
# Indices 1 2 3 4 5 6 
#
# 1 0.016872 -0.001997 -0.000385 0.000000 0.002098 0.000000
# 2 -0.001997 0.013869 -0.000658 0.000000 -0.004652 0.000000
# 3 -0.000385 -0.000658 0.024301 0.000000 -0.021056 0.000000
# 4 0.000000 0.000000 0.000000 0.040478 0.000000 0.035768
# 5 0.002098 -0.004652 -0.021056 0.000000 0.073199 0.000000
# 6 0.000000 0.000000 0.000000 0.035768 0.000000 0.019801
#
#
# Mechanical properties :
#
#
# Convention : Reuss Voigt Hill
#
# Bulk Modulus (GPa) = 20.42459 25.06605 22.74532
# Shear Modulus (GPa) = 23.70540 -9.75771 6.97385
#
# Velocity S-wave (km/s) = 3.38820 -2.17380 1.83773
# Velocity P-wave (km/s) = 5.01972 2.41625 3.93928
#
# Compressibility (1/GPa) = 0.04896059
#
# Stress axis : x y z
#
# Youngs Moduli (GPa) = 59.27072 72.10095 41.15001
#
# Poissons Ratio (x) = 0.14400 0.01586
# Poissons Ratio (y) = 0.11838 0.02709
# Poissons Ratio (z) = 0.02284 0.04747
#
# Static dielectric constant tensor:
#      x y z
#    x 1.763100 0.000000 -0.002760 
#    y 0.000000 1.748160 0.000000 
#    z -0.002760 0.000000 1.831460 
# 
# From -- ./inp_files/251942.got.cif
#   From: 2010.05.17/outbox.cif.g08.bks.cpg/sg12_126_cif.got.tgz:251942.got - 2010.06.03 13:09:07.
