data_PCOD9190087
_publ_section_title
;
Structure prediction by ZEFSAII (Michael W. Deem and Ramdas Pophale) SiO2 
 PCOD9190087
Probable space group: C 2/M
;
_chemical_formula_sum "Si O2"
_cell_formula_units_Z 50
_cell_length_a 14.129205
_cell_length_b 15.249356
_cell_length_c 11.932255
_cell_angle_alpha 90.000000
_cell_angle_beta 65.216610
_cell_angle_gamma 90.000000
_cell_volume 2334.152957
_symmetry_space_group_name_H-M "C 2/M"
_symmetry_group_IT_number 12
_symmetry_cell_setting 'monoclinic'
loop_
_space_group_symop_operation_xyz
x,y,z
-x,y,-z
-x,-y,-z
x,-y,z
1/2+x,1/2+y,z
1/2-x,1/2+y,-z
1/2-x,1/2-y,-z
1/2+x,1/2-y,z
loop_
_atom_site_type_symbol
_atom_site_label
_atom_site_fract_x
_atom_site_fract_y
_atom_site_fract_z
Si Si1 0.500000 0.000000 0.500000
Si Si2 0.662330 0.500000 0.995272
Si Si3 0.994279 0.643988 0.298751
Si Si4 0.866088 0.601273 0.144323
Si Si5 0.348276 0.605002 0.638348
Si Si6 0.928596 0.840745 0.371932
Si Si7 0.184683 0.663721 0.054101
Si Si8 0.933137 0.000000 0.205093
O O1 0.491102 0.077874 0.405108
O O2 0.733633 0.584201 0.981156
O O3 0.622397 0.500000 0.887235
O O4 0.558252 0.500000 0.122721
O O5 0.938904 0.738103 0.343011
O O6 0.112980 0.662111 0.199786
O O7 0.937551 0.605357 0.217659
O O8 0.861328 0.500000 0.112424
O O9 0.751560 0.631752 0.241362
O O10 0.888127 0.652695 0.019545
O O11 0.346214 0.500000 0.628274
O O12 0.456452 0.631205 0.641827
O O13 0.349552 0.644287 0.513430
O O14 0.904307 0.911046 0.286556
O O15 0.250000 0.750000 0.000000
#
# Coordination Sequence:
#
# PCOD9190087 Si02
#       8
#     2   4   8   8   8   8   8   4
#     4  12  26  50  64  98 148 190 238 284 342 432
#     4  11  25  41  64  95 139 181 223 278 365 400
#     4  12  27  45  70 100 136 192 231 287 347 407
#     4  11  24  44  72  99 130 177 238 283 336 417
#     4  10  19  39  68 101 127 171 220 272 343 397
#     4  11  21  41  69  98 139 175 222 283 347 414
#     4  12  26  47  71 104 137 181 235 292 350 423
#     4  11  22  41  64 102 136 173 221 290 346 428
#
# _framework density 21.421046
#
# number of rings (size 3 to 8) (size 9 to 14) (size 15 to 20)
#    0.000    0.800    3.200    5.280    2.240    1.280 
#    5.760    0.000    0.000    0.000    0.000    0.000 
#    0.000    0.000    0.000    0.000    0.000    0.000 
#
# Total GULP energy -139500.435906 kJ/mol
# GULP energy per Si atom -5580.017436 kJ/mol
# Density = 2.137229 g / cm^3
# Si number density = 21.421046 Si / 1000 Ang^3
#
#
#
# Elastic Constant Matrix: (Units=GPa)
#
#
# Indices 1 2 3 4 5 6 
#
# 1 50.4922 17.2464 16.0573 0.0000 16.4109 0.0000
# 2 17.2464 154.8529 53.5160 0.0000 15.8267 0.0000
# 3 16.0573 53.5160 109.5506 0.0000 30.4104 0.0000
# 4 0.0000 0.0000 0.0000 16.7534 0.0000 5.1952
# 5 16.4109 15.8267 30.4104 0.0000 30.6521 0.0000
# 6 0.0000 0.0000 0.0000 5.1952 0.0000 14.0586
#
#
#
# Elastic Compliance Matrix: (Units=1/GPa)
#
#
# Indices 1 2 3 4 5 6 
#
# 1 0.024335 -0.001679 0.000869 0.000000 -0.013024 0.000000
# 2 -0.001679 0.007888 -0.003762 0.000000 0.000559 0.000000
# 3 0.000869 -0.003762 0.014392 0.000000 -0.012801 0.000000
# 4 0.000000 0.000000 0.000000 0.067415 0.000000 -0.024913
# 5 -0.013024 0.000559 -0.012801 0.000000 0.052009 0.000000
# 6 0.000000 0.000000 0.000000 -0.024913 0.000000 0.080337
#
#
# Mechanical properties :
#
#
# Convention : Reuss Voigt Hill
#
# Bulk Modulus (GPa) = 26.68831 54.28167 40.48499
# Shear Modulus (GPa) = 18.65588 27.49788 23.07688
#
# Velocity S-wave (km/s) = 2.95433 3.58674 3.28578
# Velocity P-wave (km/s) = 4.91155 6.52291 5.77372
#
# Compressibility (1/GPa) = 0.03746959
#
# Stress axis : x y z
#
# Youngs Moduli (GPa) = 41.09251 126.77703 69.48154
#
# Poissons Ratio (x) = 0.21292 -0.06036
# Poissons Ratio (y) = 0.06901 0.26141
# Poissons Ratio (z) = -0.03570 0.47697
#
# Static dielectric constant tensor:
#      x y z
#    x 1.790800 0.000000 -0.012700 
#    y 0.000000 1.815390 0.000000 
#    z -0.012700 0.000000 1.803270 
# 
# From -- ./inp_files/143685.got.cif
#   From: 2010.05.17/outbox.cif.g08.bks.cpg/sg12_72_cif.got.tgz:143685.got - 2010.06.03 13:09:07.
