data_PCOD9190824
_publ_section_title
;
Structure prediction by ZEFSAII (Michael W. Deem and Ramdas Pophale) SiO2 
 PCOD9190824
Probable space group: C 2/M
;
_chemical_formula_sum "Si O2"
_cell_formula_units_Z 40
_cell_length_a 26.711901
_cell_length_b 7.695580
_cell_length_c 18.909283
_cell_angle_alpha 90.000000
_cell_angle_beta 146.916114
_cell_angle_gamma 90.000000
_cell_volume 2121.815064
_symmetry_space_group_name_H-M "C 2/M"
_symmetry_group_IT_number 12
_symmetry_cell_setting 'monoclinic'
loop_
_space_group_symop_operation_xyz
x,y,z
-x,y,-z
-x,-y,-z
x,-y,z
1/2+x,1/2+y,z
1/2-x,1/2+y,-z
1/2-x,1/2-y,-z
1/2+x,1/2-y,z
loop_
_atom_site_type_symbol
_atom_site_label
_atom_site_fract_x
_atom_site_fract_y
_atom_site_fract_z
Si Si1 0.329787 0.294109 0.651062
Si Si2 0.035070 0.706339 0.303443
Si Si3 0.307615 0.786879 0.400826
Si Si4 0.651223 0.791044 0.851966
Si Si5 0.604943 0.787661 0.639809
O O1 0.336752 0.500000 0.664603
O O2 0.250000 0.250000 0.500000
O O3 0.423247 0.233712 0.725086
O O4 0.287370 0.228873 0.674860
O O5 0.032762 0.500000 0.311310
O O6 0.109001 0.771324 0.448993
O O7 0.934016 0.774122 0.201319
O O8 0.330662 0.731646 0.348846
O O9 0.307622 0.000000 0.401471
O O10 0.636794 0.727971 0.754556
O O11 0.644810 0.000000 0.841797
O O12 0.750000 0.750000 0.000000
O O13 0.500000 0.735699 0.500000
O O14 0.605242 0.000000 0.640528
#
# Coordination Sequence:
#
# PCOD9190824 Si02
#       5
#     8   8   8   8   8
#     4   9  16  25  41  67  96 122 148 188 235 277
#     4   9  16  28  45  66  92 122 155 191 229 274
#     4   8  13  23  42  69  93 111 147 196 233 265
#     4  10  20  32  49  71  96 126 157 193 237 284
#     4   9  14  25  48  72  91 117 156 198 235 270
#
# _framework density 18.851785
#
# number of rings (size 3 to 8) (size 9 to 14) (size 15 to 20)
#    0.000    3.000    2.000    1.800    0.000    0.800 
#    0.000    0.000    0.000    7.800    0.000    8.400 
#    0.000    0.000    0.000    0.000    0.000    0.000 
#
# Total GULP energy -111376.288432 kJ/mol
# GULP energy per Si atom -5568.814422 kJ/mol
# Density = 1.880888 g / cm^3
# Si number density = 18.851785 Si / 1000 Ang^3
#
#
#
# Elastic Constant Matrix: (Units=GPa)
#
#
# Indices 1 2 3 4 5 6 
#
# 1 237.0549 6.4391 87.6218 0.0000 19.0645 0.0000
# 2 6.4391 27.5008 4.7351 0.0000 1.4752 0.0000
# 3 87.6218 4.7351 96.4941 0.0000 7.0595 0.0000
# 4 0.0000 0.0000 0.0000 14.2211 0.0000 4.2296
# 5 19.0645 1.4752 7.0595 0.0000 21.0530 0.0000
# 6 0.0000 0.0000 0.0000 4.2296 0.0000 17.0431
#
#
#
# Elastic Compliance Matrix: (Units=1/GPa)
#
#
# Indices 1 2 3 4 5 6 
#
# 1 0.006684 -0.000355 -0.005752 0.000000 -0.004099 0.000000
# 2 -0.000355 0.036775 -0.001351 0.000000 -0.001803 0.000000
# 3 -0.005752 -0.001351 0.015649 0.000000 0.000056 0.000000
# 4 0.000000 0.000000 0.000000 0.075922 0.000000 -0.018841
# 5 -0.004099 -0.001803 0.000056 0.000000 0.051318 0.000000
# 6 0.000000 0.000000 0.000000 -0.018841 0.000000 0.063350
#
#
# Mechanical properties :
#
#
# Convention : Reuss Voigt Hill
#
# Bulk Modulus (GPa) = 22.62815 62.07132 42.34974
# Shear Modulus (GPa) = 17.89912 27.94703 22.92307
#
# Velocity S-wave (km/s) = 3.08468 3.85445 3.49085
# Velocity P-wave (km/s) = 4.97155 7.26681 6.22586
#
# Compressibility (1/GPa) = 0.04419274
#
# Stress axis : x y z
#
# Youngs Moduli (GPa) = 149.61580 27.19242 63.90350
#
# Poissons Ratio (x) = 0.00965 0.36757
# Poissons Ratio (y) = 0.05307 0.08631
# Poissons Ratio (z) = 0.86058 0.03673
#
# Static dielectric constant tensor:
#      x y z
#    x 1.719450 0.000000 0.014840 
#    y 0.000000 1.714270 0.000000 
#    z 0.014840 0.000000 1.605190 
# 
# From -- ./inp_files/179659.got.cif
#   From: 2010.05.17/outbox.cif.g08.bks.cpg/sg12_90_cif.got.tgz:179659.got - 2010.06.03 13:09:07.
