data_PCOD9190005
_publ_section_title
;
Structure prediction by ZEFSAII (Michael W. Deem and Ramdas Pophale) SiO2 
 PCOD9190005
Probable space group: C 2/M
;
_chemical_formula_sum "Si O2"
_cell_formula_units_Z 64
_cell_length_a 24.392460
_cell_length_b 16.169156
_cell_length_c 16.345943
_cell_angle_alpha 90.000000
_cell_angle_beta 151.112239
_cell_angle_gamma 90.000000
_cell_volume 3114.481834
_symmetry_space_group_name_H-M "C 2/M"
_symmetry_group_IT_number 12
_symmetry_cell_setting 'monoclinic'
loop_
_space_group_symop_operation_xyz
x,y,z
-x,y,-z
-x,-y,-z
x,-y,z
1/2+x,1/2+y,z
1/2-x,1/2+y,-z
1/2-x,1/2-y,-z
1/2+x,1/2-y,z
loop_
_atom_site_type_symbol
_atom_site_label
_atom_site_fract_x
_atom_site_fract_y
_atom_site_fract_z
Si Si1 0.959524 0.369435 0.857873
Si Si2 0.626573 0.693063 0.659246
Si Si3 0.692819 0.409111 0.098377
Si Si4 0.263588 0.846243 0.494810
Si Si5 0.628742 0.157027 0.788277
Si Si6 0.630144 0.155891 0.544080
Si Si7 0.166587 0.594951 0.011569
Si Si8 0.022572 0.170168 0.122497
O O1 0.834976 0.390486 0.659664
O O2 0.960828 0.269012 0.860548
O O3 0.000000 0.397612 0.000000
O O4 0.053782 0.399274 0.917760
O O5 0.500000 0.657070 0.500000
O O6 0.634586 0.756898 0.746496
O O7 0.637961 0.751692 0.593854
O O8 0.726685 0.627980 0.797540
O O9 0.642962 0.500000 0.034907
O O10 0.774026 0.396632 0.127242
O O11 0.777160 0.395277 0.284773
O O12 0.589380 0.346082 0.970722
O O13 0.250000 0.750000 0.500000
O O14 0.337897 0.848376 0.508882
O O15 0.135231 0.872207 0.305950
O O16 0.498570 0.127057 0.607461
O O17 0.651163 0.154591 0.913458
O O18 0.182943 0.500000 0.006198
O O19 0.000000 0.140994 0.000000
#
# Coordination Sequence:
#
# PCOD9190005 Si02
#       8
#     8   8   8   8   8   8   8   8
#     4  10  22  40  64  86 112 159 211 264 305 356
#     4   9  21  38  63  89 118 156 203 255 300 367
#     4  11  22  36  58  87 130 168 194 240 312 384
#     4  10  20  36  62  92 115 150 207 263 308 353
#     4  10  21  40  62  88 122 159 215 256 298 355
#     4  10  19  39  62  93 118 152 210 258 305 357
#     4  12  24  38  60  90 127 162 200 252 314 372
#     4  10  20  37  60  89 122 157 200 249 303 369
#
# _framework density 20.549164999999999
#
# number of rings (size 3 to 8) (size 9 to 14) (size 15 to 20)
#    0.000    1.750    2.500    3.375    3.500    2.250 
#    2.250    0.625    0.000    1.500    0.000    0.000 
#    0.000    0.000    0.000    0.000    0.000    0.000 
#
# Total GULP energy -178595.360560 kJ/mol
# GULP energy per Si atom -5581.105018 kJ/mol
# Density = 2.050239 g / cm^3
# Si number density = 20.549165 Si / 1000 Ang^3
#
#
#
# Elastic Constant Matrix: (Units=GPa)
#
#
# Indices 1 2 3 4 5 6 
#
# 1 88.6619 0.8622 32.8932 0.0000 -5.9157 0.0000
# 2 0.8622 12.4417 18.0097 0.0000 6.7056 0.0000
# 3 32.8932 18.0097 146.9199 0.0000 11.2918 0.0000
# 4 0.0000 0.0000 0.0000 -8.0425 0.0000 1.0957
# 5 -5.9157 6.7056 11.2918 0.0000 34.5588 0.0000
# 6 0.0000 0.0000 0.0000 1.0957 0.0000 1.3840
#
#
#
# Elastic Compliance Matrix: (Units=1/GPa)
#
#
# Indices 1 2 3 4 5 6 
#
# 1 0.012687 0.002480 -0.003359 0.000000 0.002788 0.000000
# 2 0.002480 0.106942 -0.012414 0.000000 -0.016270 0.000000
# 3 -0.003359 -0.012414 0.009169 0.000000 -0.001162 0.000000
# 4 0.000000 0.000000 0.000000 -0.112233 0.000000 0.088854
# 5 0.002788 -0.016270 -0.001162 0.000000 0.032950 0.000000
# 6 0.000000 0.000000 0.000000 0.088854 0.000000 0.652174
#
#
# Mechanical properties :
#
#
# Convention : Reuss Voigt Hill
#
# Bulk Modulus (GPa) = 9.78353 39.06153 24.42253
# Shear Modulus (GPa) = 6.55872 18.66396 12.61134
#
# Velocity S-wave (km/s) = 1.78848 3.01700 2.48002
# Velocity P-wave (km/s) = 3.00603 5.58449 4.48457
#
# Compressibility (1/GPa) = 0.10221258
#
# Stress axis : x y z
#
# Youngs Moduli (GPa) = 78.82253 9.35090 109.05819
#
# Poissons Ratio (x) = -0.02319 0.36629
# Poissons Ratio (y) = -0.19547 1.35383
# Poissons Ratio (z) = 0.26474 0.11608
#
# Static dielectric constant tensor:
#      x y z
#    x 1.732490 0.000000 -0.022000 
#    y 0.000000 1.730780 0.000000 
#    z -0.022000 0.000000 1.766580 
# 
# From -- ./inp_files/241531.got.cif
#   From: 2010.05.17/outbox.cif.g08.bks.cpg/sg12_121_cif.got.tgz:241531.got - 2010.06.03 13:09:07.
