data_PCOD9190477
_publ_section_title
;
Structure prediction by ZEFSAII (Michael W. Deem and Ramdas Pophale) SiO2 
 PCOD9190477
Probable space group: C 2/M
;
_chemical_formula_sum "Si O2"
_cell_formula_units_Z 64
_cell_length_a 15.144480
_cell_length_b 14.884087
_cell_length_c 14.772556
_cell_angle_alpha 90.000000
_cell_angle_beta 90.000109
_cell_angle_gamma 90.000000
_cell_volume 3329.907816
_symmetry_space_group_name_H-M "C 2/M"
_symmetry_group_IT_number 12
_symmetry_cell_setting 'monoclinic'
loop_
_space_group_symop_operation_xyz
x,y,z
-x,y,-z
-x,-y,-z
x,-y,z
1/2+x,1/2+y,z
1/2-x,1/2+y,-z
1/2-x,1/2-y,-z
1/2+x,1/2-y,z
loop_
_atom_site_type_symbol
_atom_site_label
_atom_site_fract_x
_atom_site_fract_y
_atom_site_fract_z
Si Si1 0.821964 0.781714 0.425834
Si Si2 0.112599 0.102854 0.424258
Si Si3 0.178036 0.781714 0.925834
Si Si4 0.683259 0.096684 0.857968
Si Si5 0.484026 0.394063 0.750000
Si Si6 0.695394 0.393456 0.750000
Si Si7 0.612599 0.602854 0.075741
Si Si8 0.816740 0.403316 0.357968
O O1 0.750000 0.750000 0.500000
O O2 0.887974 0.844167 0.482007
O O3 0.780905 0.838547 0.341838
O O4 0.861508 0.688310 0.390236
O O5 0.942911 0.143900 0.658104
O O6 0.214420 0.100325 0.389586
O O7 0.085507 0.000000 0.440295
O O8 0.138492 0.688310 0.890236
O O9 0.219095 0.838548 0.841838
O O10 0.250000 0.750000 0.000000
O O11 0.112026 0.844167 0.982007
O O12 0.785579 0.100325 0.889586
O O13 0.682926 0.097271 0.750000
O O14 0.647156 0.000000 0.889849
O O15 0.457194 0.500000 0.750001
O O16 0.588718 0.390168 0.750000
O O17 0.442911 0.356099 0.841896
O O18 0.721115 0.500000 0.750000
O O19 0.585508 0.500000 0.059705
O O20 0.852843 0.500000 0.389850
#
# Coordination Sequence:
#
# PCOD9190477 Si02
#       8
#     8   8   8   8   8   8   8   8
#     4  10  20  31  49  72 103 135 169 207 252 300
#     4   9  16  29  49  73 100 135 167 196 239 302
#     4  10  20  31  49  72 103 135 169 207 252 300
#     4   9  15  27  48  70  93 124 166 207 240 282
#     4   9  18  31  50  73 105 142 170 193 239 310
#     4  11  22  35  49  77 113 136 159 205 258 306
#     4   9  16  29  49  73 100 135 167 196 239 302
#     4   9  15  27  48  70  93 124 166 207 240 282
#
# _framework density 19.219750000000001
#
# number of rings (size 3 to 8) (size 9 to 14) (size 15 to 20)
#    0.000    2.500    2.500    0.750    0.000    2.000 
#    0.000    3.750    0.000    0.000    0.000    5.250 
#    0.000    0.000    0.000    0.000    0.000    0.000 
#
# Total GULP energy -178238.582044 kJ/mol
# GULP energy per Si atom -5569.955689 kJ/mol
# Density = 1.917601 g / cm^3
# Si number density = 19.219750 Si / 1000 Ang^3
#
#
#
# Elastic Constant Matrix: (Units=GPa)
#
#
# Indices 1 2 3 4 5 6 
#
# 1 15.5590 2.6254 15.4089 0.0000 3.9737 0.0000
# 2 2.6254 139.7352 69.4561 0.0000 5.4195 0.0000
# 3 15.4089 69.4561 135.6643 0.0000 5.7660 0.0000
# 4 0.0000 0.0000 0.0000 35.3348 0.0000 2.3444
# 5 3.9737 5.4195 5.7660 0.0000 24.7218 0.0000
# 6 0.0000 0.0000 0.0000 2.3444 0.0000 6.4235
#
#
#
# Elastic Compliance Matrix: (Units=1/GPa)
#
#
# Indices 1 2 3 4 5 6 
#
# 1 0.076585 0.004125 -0.010352 0.000000 -0.010800 0.000000
# 2 0.004125 0.009844 -0.005443 0.000000 -0.001552 0.000000
# 3 -0.010352 -0.005443 0.011324 0.000000 0.000216 0.000000
# 4 0.000000 0.000000 0.000000 0.029003 0.000000 -0.010585
# 5 -0.010800 -0.001552 0.000216 0.000000 0.042476 0.000000
# 6 0.000000 0.000000 0.000000 -0.010585 0.000000 0.159541
#
#
# Mechanical properties :
#
#
# Convention : Reuss Voigt Hill
#
# Bulk Modulus (GPa) = 13.43798 51.77105 32.60451
# Shear Modulus (GPa) = 13.26551 26.86056 20.06304
#
# Velocity S-wave (km/s) = 2.63002 3.74244 3.23441
# Velocity P-wave (km/s) = 4.02860 6.75791 5.56322
#
# Compressibility (1/GPa) = 0.07441594
#
# Stress axis : x y z
#
# Youngs Moduli (GPa) = 13.05732 101.58102 88.30648
#
# Poissons Ratio (x) = -0.41906 0.91412
# Poissons Ratio (y) = -0.05387 0.48062
# Poissons Ratio (z) = 0.13517 0.55287
#
# Static dielectric constant tensor:
#      x y z
#    x 1.659190 0.000000 0.008210 
#    y 0.000000 1.752580 0.000000 
#    z 0.008210 0.000000 1.760480 
# 
# From -- ./inp_files/224732.got.cif
#   From: 2010.05.17/outbox.cif.g08.bks.cpg/sg12_113_cif.got.tgz:224732.got - 2010.06.03 13:09:07.
