data_PCOD9190892
_publ_section_title
;
Structure prediction by ZEFSAII (Michael W. Deem and Ramdas Pophale) SiO2 
 PCOD9190892
Probable space group: C 2/M
;
_chemical_formula_sum "Si O2"
_cell_formula_units_Z 64
_cell_length_a 29.972187
_cell_length_b 14.005168
_cell_length_c 9.560422
_cell_angle_alpha 90.000000
_cell_angle_beta 117.385777
_cell_angle_gamma 90.000000
_cell_volume 3563.381749
_symmetry_space_group_name_H-M "C 2/M"
_symmetry_group_IT_number 12
_symmetry_cell_setting 'monoclinic'
loop_
_space_group_symop_operation_xyz
x,y,z
-x,y,-z
-x,-y,-z
x,-y,z
1/2+x,1/2+y,z
1/2-x,1/2+y,-z
1/2-x,1/2-y,-z
1/2+x,1/2-y,z
loop_
_atom_site_type_symbol
_atom_site_label
_atom_site_fract_x
_atom_site_fract_y
_atom_site_fract_z
Si Si1 0.997233 0.109583 0.834593
Si Si2 0.309454 0.389695 0.899734
Si Si3 0.402805 0.608267 0.197222
Si Si4 0.228934 0.113950 0.707399
Si Si5 0.790743 0.390552 0.056586
Si Si6 0.548945 0.729619 0.484955
Si Si7 0.843383 0.715302 0.374111
Si Si8 0.760211 0.614226 0.435192
O O1 0.968069 0.175060 0.680477
O O2 0.053405 0.105958 0.854739
O O3 0.977206 0.000000 0.804179
O O4 0.000000 0.141852 0.000000
O O5 0.325099 0.500000 0.894037
O O6 0.260712 0.391233 0.927881
O O7 0.288148 0.350412 0.723636
O O8 0.354962 0.345559 0.051798
O O9 0.389441 0.500000 0.219025
O O10 0.426281 0.658449 0.365423
O O11 0.179099 0.176907 0.657444
O O12 0.249542 0.129303 0.581667
O O13 0.220205 0.000000 0.716207
O O14 0.271607 0.145765 0.879504
O O15 0.808245 0.500000 0.067504
O O16 0.829011 0.330840 0.204248
O O17 0.500000 0.768757 0.500000
O O18 0.597206 0.793728 0.517241
O O19 0.809561 0.662145 0.441849
O O20 0.764291 0.500000 0.416634
#
# Coordination Sequence:
#
# PCOD9190892 Si02
#       8
#     8   8   8   8   8   8   8   8
#     4   9  18  32  48  66  92 128 168 207 250 301
#     4   8  14  26  45  68  93 123 159 198 240 291
#     4   9  16  28  46  65  90 128 166 201 247 297
#     4  10  20  32  49  79 112 137 165 204 247 305
#     4   9  18  33  52  74 101 131 168 210 251 300
#     4  10  21  34  47  68  96 128 171 219 254 289
#     4  11  20  33  53  74 101 140 175 207 255 306
#     4   9  19  35  52  74 107 139 171 210 253 306
#
# _framework density 17.960467000000001
#
# number of rings (size 3 to 8) (size 9 to 14) (size 15 to 20)
#    0.000    2.625    0.000    3.000    0.000    5.500 
#    0.000    5.000    0.000    1.500    0.000    0.000 
#    0.000    5.000    0.000    0.000    0.000    0.000 
#
# Total GULP energy -178333.187518 kJ/mol
# GULP energy per Si atom -5572.912110 kJ/mol
# Density = 1.791959 g / cm^3
# Si number density = 17.960467 Si / 1000 Ang^3
#
#
#
# Elastic Constant Matrix: (Units=GPa)
#
#
# Indices 1 2 3 4 5 6 
#
# 1 70.2293 21.2599 49.9147 0.0000 13.5488 0.0000
# 2 21.2599 43.0689 17.7194 0.0000 2.7825 0.0000
# 3 49.9147 17.7194 123.6470 0.0000 -5.1354 0.0000
# 4 0.0000 0.0000 0.0000 20.4551 0.0000 0.3873
# 5 13.5488 2.7825 -5.1354 0.0000 35.5325 0.0000
# 6 0.0000 0.0000 0.0000 0.3873 0.0000 19.4231
#
#
#
# Elastic Compliance Matrix: (Units=1/GPa)
#
#
# Indices 1 2 3 4 5 6 
#
# 1 0.025478 -0.007958 -0.009580 0.000000 -0.010476 0.000000
# 2 -0.007958 0.027374 -0.000677 0.000000 0.000793 0.000000
# 3 -0.009580 -0.000677 0.012279 0.000000 0.005481 0.000000
# 4 0.000000 0.000000 0.000000 0.048906 0.000000 -0.000975
# 5 -0.010476 0.000793 0.005481 0.000000 0.032868 0.000000
# 6 0.000000 0.000000 0.000000 -0.000975 0.000000 0.051505
#
#
# Mechanical properties :
#
#
# Convention : Reuss Voigt Hill
#
# Bulk Modulus (GPa) = 34.84201 46.08147 40.46174
# Shear Modulus (GPa) = 20.45753 24.95221 22.70487
#
# Velocity S-wave (km/s) = 3.37861 3.73136 3.55936
# Velocity P-wave (km/s) = 5.88740 6.65409 6.28245
#
# Compressibility (1/GPa) = 0.02870099
#
# Stress axis : x y z
#
# Youngs Moduli (GPa) = 39.24936 36.53035 81.43675
#
# Poissons Ratio (x) = 0.29073 0.78015
# Poissons Ratio (y) = 0.31237 0.05515
# Poissons Ratio (z) = 0.37600 0.02474
#
# Static dielectric constant tensor:
#      x y z
#    x 1.616900 0.000000 -0.008690 
#    y 0.000000 1.677960 0.000000 
#    z -0.008690 0.000000 1.640030 
# 
# From -- ./inp_files/111653.got.cif
#   From: 2010.05.17/outbox.cif.g08.bks.cpg/sg12_56_cif.got.tgz:111653.got - 2010.06.03 13:09:07.
