data_PCOD9190482
_publ_section_title
;
Structure prediction by ZEFSAII (Michael W. Deem and Ramdas Pophale) SiO2 
 PCOD9190482
Probable space group: C 2/M
;
_chemical_formula_sum "Si O2"
_cell_formula_units_Z 48
_cell_length_a 15.259005
_cell_length_b 8.717087
_cell_length_c 17.866942
_cell_angle_alpha 90.000000
_cell_angle_beta 90.576542
_cell_angle_gamma 90.000000
_cell_volume 2376.434429
_symmetry_space_group_name_H-M "C 2/M"
_symmetry_group_IT_number 12
_symmetry_cell_setting 'monoclinic'
loop_
_space_group_symop_operation_xyz
x,y,z
-x,y,-z
-x,-y,-z
x,-y,z
1/2+x,1/2+y,z
1/2-x,1/2+y,-z
1/2-x,1/2-y,-z
1/2+x,1/2-y,z
loop_
_atom_site_type_symbol
_atom_site_label
_atom_site_fract_x
_atom_site_fract_y
_atom_site_fract_z
Si Si1 0.692774 0.813212 0.828716
Si Si2 0.396742 0.826312 0.488450
Si Si3 0.850327 0.326638 0.329880
Si Si4 0.642915 0.328606 0.356539
Si Si5 0.031200 0.686962 0.918990
Si Si6 0.615469 0.183517 0.201525
O O1 0.640809 0.760777 0.752855
O O2 0.629994 0.769034 0.896674
O O3 0.790627 0.747427 0.826319
O O4 0.698758 0.000000 0.824976
O O5 0.500000 0.837128 0.500000
O O6 0.381692 0.751031 0.407064
O O7 0.362091 0.743609 0.561527
O O8 0.358795 0.000000 0.485376
O O9 0.888936 0.500000 0.329022
O O10 0.745556 0.336744 0.337694
O O11 0.606241 0.500000 0.358133
O O12 0.600761 0.236933 0.287157
O O13 0.030354 0.500000 0.919663
O O14 0.961510 0.734255 0.854957
O O15 0.000000 0.740484 0.000000
O O16 0.619514 0.000000 0.201141
#
# Coordination Sequence:
#
# PCOD9190482 Si02
#       6
#     8   8   8   8   8   8
#     4   9  18  35  58  80 111 148 183 222 274 330
#     4  10  20  31  49  76 105 135 180 228 266 310
#     4   8  16  31  50  72  98 136 177 217 263 314
#     4  10  20  35  53  72 104 143 181 220 272 325
#     4   9  19  35  58  86 113 145 182 222 273 335
#     4  10  20  35  58  84 111 142 186 231 271 323
#
# _framework density 20.198328
#
# number of rings (size 3 to 8) (size 9 to 14) (size 15 to 20)
#    0.000    2.667    0.000    2.500    2.333    1.000 
#    0.000    5.000    0.000    3.500    0.000    0.000 
#    0.000    0.000    0.000    0.000    0.000    0.000 
#
# Total GULP energy -133754.507677 kJ/mol
# GULP energy per Si atom -5573.104487 kJ/mol
# Density = 2.015236 g / cm^3
# Si number density = 20.198328 Si / 1000 Ang^3
#
#
#
# Elastic Constant Matrix: (Units=GPa)
#
#
# Indices 1 2 3 4 5 6 
#
# 1 31.5679 4.4024 -0.6894 0.0000 -2.7479 0.0000
# 2 4.4024 34.5554 8.1925 0.0000 -4.0848 0.0000
# 3 -0.6894 8.1925 49.1451 0.0000 -11.7748 0.0000
# 4 0.0000 0.0000 0.0000 17.9605 0.0000 5.8445
# 5 -2.7479 -4.0848 -11.7748 0.0000 38.5735 0.0000
# 6 0.0000 0.0000 0.0000 5.8445 0.0000 22.4677
#
#
#
# Elastic Compliance Matrix: (Units=1/GPa)
#
#
# Indices 1 2 3 4 5 6 
#
# 1 0.032520 -0.004273 0.001743 0.000000 0.002396 0.000000
# 2 -0.004273 0.030806 -0.004841 0.000000 0.001480 0.000000
# 3 0.001743 -0.004841 0.022750 0.000000 0.006556 0.000000
# 4 0.000000 0.000000 0.000000 0.060827 0.000000 -0.015823
# 5 0.002396 0.001480 0.006556 0.000000 0.028253 0.000000
# 6 0.000000 0.000000 0.000000 -0.015823 0.000000 0.048624
#
#
# Mechanical properties :
#
#
# Convention : Reuss Voigt Hill
#
# Bulk Modulus (GPa) = 14.01851 15.45326 14.73588
# Shear Modulus (GPa) = 19.06208 22.69121 20.87664
#
# Velocity S-wave (km/s) = 3.07538 3.35538 3.21843
# Velocity P-wave (km/s) = 4.42336 4.76223 4.59592
#
# Compressibility (1/GPa) = 0.07133428
#
# Stress axis : x y z
#
# Youngs Moduli (GPa) = 30.75000 32.46120 43.95587
#
# Poissons Ratio (x) = 0.13871 -0.07660
# Poissons Ratio (y) = 0.13140 0.21278
# Poissons Ratio (z) = -0.05359 0.15713
#
# Static dielectric constant tensor:
#      x y z
#    x 1.713080 0.000000 -0.008030 
#    y 0.000000 1.723930 0.000000 
#    z -0.008030 0.000000 1.778440 
# 
# From -- ./inp_files/267733.got.cif
#   From: 2010.05.17/outbox.cif.g08.bks.cpg/sg12_134_cif.got.tgz:267733.got - 2010.06.03 13:09:07.
