data_PCOD9190719
_publ_section_title
;
Structure prediction by ZEFSAII (Michael W. Deem and Ramdas Pophale) SiO2 
 PCOD9190719
Probable space group: C 2/M
;
_chemical_formula_sum "Si O2"
_cell_formula_units_Z 56
_cell_length_a 17.009935
_cell_length_b 27.252876
_cell_length_c 18.548395
_cell_angle_alpha 90.000000
_cell_angle_beta 21.980263
_cell_angle_gamma 90.000000
_cell_volume 3218.298190
_symmetry_space_group_name_H-M "C 2/M"
_symmetry_group_IT_number 12
_symmetry_cell_setting 'monoclinic'
loop_
_space_group_symop_operation_xyz
x,y,z
-x,y,-z
-x,-y,-z
x,-y,z
1/2+x,1/2+y,z
1/2-x,1/2+y,-z
1/2-x,1/2-y,-z
1/2+x,1/2-y,z
loop_
_atom_site_type_symbol
_atom_site_label
_atom_site_fract_x
_atom_site_fract_y
_atom_site_fract_z
Si Si1 0.000000 0.818205 0.000000
Si Si2 0.248358 0.717470 0.351718
Si Si3 0.620697 0.320422 0.492055
Si Si4 0.500000 0.400674 0.500000
Si Si5 0.926944 0.358866 0.879629
Si Si6 0.060107 0.218944 0.217760
Si Si7 0.954826 0.442495 0.121751
Si Si8 0.593823 0.172829 0.260364
O O1 0.857941 0.791581 0.181970
O O2 0.813374 0.842233 0.111186
O O3 0.112129 0.766664 0.466493
O O4 0.436241 0.726245 0.249131
O O5 0.092938 0.677126 0.521044
O O6 0.463982 0.361491 0.595645
O O7 0.595758 0.310199 0.597227
O O8 0.851722 0.339308 0.279717
O O9 0.704971 0.432159 0.343129
O O10 0.941802 0.360828 0.779864
O O11 0.909952 0.409743 0.937469
O O12 0.753890 0.317731 0.044046
O O13 0.110109 0.271313 0.212687
O O14 0.998195 0.500000 0.094659
O O15 0.000000 0.429332 0.000000
#
# Coordination Sequence:
#
# PCOD9190719 Si02
#       8
#     4   8   8   4   8   8   8   8
#     4  12  24  32  48  70 109 150 183 220 268 312
#     4  11  21  35  49  71 107 149 183 225 265 310
#     4  10  20  32  47  75 104 142 182 223 258 315
#     4  10  21  34  54  80 110 144 184 226 269 326
#     4  11  19  34  55  76 100 144 186 217 274 329
#     4  11  19  34  52  70 108 144 180 228 267 315
#     4  10  22  40  58  81 112 143 180 234 284 325
#     4  11  21  35  50  75 108 146 186 223 270 318
#
# _framework density 17.400500000000001
#
# number of rings (size 3 to 8) (size 9 to 14) (size 15 to 20)
#    0.000    1.286    4.286    3.643    4.000    0.000 
#    6.429    0.000    0.000    0.000    0.000    0.500 
#    0.000    1.143    0.000    0.000    0.000    0.000 
#
# Total GULP energy -155929.300266 kJ/mol
# GULP energy per Si atom -5568.903581 kJ/mol
# Density = 1.736090 g / cm^3
# Si number density = 17.400500 Si / 1000 Ang^3
#
#
#
# Elastic Constant Matrix: (Units=GPa)
#
#
# Indices 1 2 3 4 5 6 
#
# 1 106.0721 35.2565 20.2815 -0.0712 2.3119 0.0474
# 2 35.2565 54.5350 15.3636 -0.0129 4.7049 -0.0440
# 3 20.2815 15.3636 70.4454 0.0356 7.9139 -0.0287
# 4 -0.0712 -0.0129 0.0356 6.8003 0.0207 7.4178
# 5 2.3119 4.7049 7.9139 0.0207 41.8834 -0.0492
# 6 0.0474 -0.0440 -0.0287 7.4178 -0.0492 16.7255
#
#
#
# Elastic Compliance Matrix: (Units=1/GPa)
#
#
# Indices 1 2 3 4 5 6 
#
# 1 0.012258 -0.007415 -0.001972 0.000357 0.000528 -0.000214
# 2 -0.007415 0.024106 -0.002926 -0.000179 -0.001745 0.000153
# 3 -0.001972 -0.002926 0.015685 -0.000231 -0.002526 0.000120
# 4 0.000357 -0.000179 -0.000231 0.284877 -0.000245 -0.126346
# 5 0.000528 -0.001745 -0.002526 -0.000245 0.024520 0.000171
# 6 -0.000214 0.000153 0.000120 -0.126346 0.000171 0.115825
#
#
# Mechanical properties :
#
#
# Convention : Reuss Voigt Hill
#
# Bulk Modulus (GPa) = 36.46551 41.42840 38.94696
# Shear Modulus (GPa) = 9.78400 23.75857 16.77129
#
# Velocity S-wave (km/s) = 2.37382 3.69913 3.10794
# Velocity P-wave (km/s) = 5.33999 6.48885 5.94225
#
# Compressibility (1/GPa) = 0.02742318
#
# Stress axis : x y z
#
# Youngs Moduli (GPa) = 81.57989 41.48417 63.75461
#
# Poissons Ratio (x) = 0.30760 0.12570
# Poissons Ratio (y) = 0.60491 0.18656
# Poissons Ratio (z) = 0.16084 0.12139
#
# Static dielectric constant tensor:
#      x y z
#    x 1.658190 -0.000020 0.019120 
#    y -0.000020 1.590850 0.000090 
#    z 0.019120 0.000090 1.656320 
# 
# From -- ./inp_files/318282.got.cif
#   From: 2010.05.17/outbox.cif.g08.bks.cpg/sg12_160_cif.got.tgz:318282.got - 2010.06.03 13:09:07.
