data_PCOD9190465
_publ_section_title
;
Structure prediction by ZEFSAII (Michael W. Deem and Ramdas Pophale) SiO2 
 PCOD9190465
Probable space group: C 2/M
;
_chemical_formula_sum "Si O2"
_cell_formula_units_Z 48
_cell_length_a 24.217259
_cell_length_b 9.027728
_cell_length_c 15.685717
_cell_angle_alpha 90.000000
_cell_angle_beta 58.746834
_cell_angle_gamma 90.000000
_cell_volume 2931.666819
_symmetry_space_group_name_H-M "C 2/M"
_symmetry_group_IT_number 12
_symmetry_cell_setting 'monoclinic'
loop_
_space_group_symop_operation_xyz
x,y,z
-x,y,-z
-x,-y,-z
x,-y,z
1/2+x,1/2+y,z
1/2-x,1/2+y,-z
1/2-x,1/2-y,-z
1/2+x,1/2-y,z
loop_
_atom_site_type_symbol
_atom_site_label
_atom_site_fract_x
_atom_site_fract_y
_atom_site_fract_z
Si Si1 0.959854 0.321221 0.115942
Si Si2 0.998077 0.329021 0.271107
Si Si3 0.655155 0.170707 0.576876
Si Si4 0.675374 0.323441 0.736534
Si Si5 0.817425 0.678463 0.638842
Si Si6 0.055683 0.822840 0.387163
O O1 0.953281 0.500000 0.125044
O O2 0.888357 0.252589 0.174524
O O3 0.996625 0.277197 0.173916
O O4 0.000000 0.281383 0.000000
O O5 0.020547 0.500000 0.256560
O O6 0.035751 0.233047 0.309642
O O7 0.922664 0.327688 0.357776
O O8 0.678223 0.272284 0.635544
O O9 0.675575 0.218267 0.466674
O O10 0.676017 0.000000 0.574615
O O11 0.668594 0.500000 0.745626
O O12 0.744127 0.282458 0.723407
O O13 0.824659 0.500000 0.638816
O O14 0.875653 0.755069 0.641407
O O15 0.000000 0.775316 0.500000
O O16 0.058704 0.000000 0.387073
#
# Coordination Sequence:
#
# PCOD9190465 Si02
#       6
#     8   8   8   8   8   8
#     4   9  19  37  59  79  99 128 166 207 256 311
#     4   9  17  31  52  74  98 132 170 206 245 295
#     4   9  17  30  48  69  98 138 174 201 241 297
#     4  10  20  31  48  76 104 129 164 210 257 298
#     4  10  20  33  48  68 100 142 176 202 241 299
#     4  11  22  32  46  72 104 138 174 211 246 285
#
# _framework density 16.372938000000001
#
# number of rings (size 3 to 8) (size 9 to 14) (size 15 to 20)
#    0.000    2.333    1.667    2.500    0.000    5.667 
#    0.000    0.000    0.000    1.000    0.000    0.000 
#    0.000    0.000    0.000    0.000    0.000    0.000 
#
# Total GULP energy -133819.895837 kJ/mol
# GULP energy per Si atom -5575.828993 kJ/mol
# Density = 1.633567 g / cm^3
# Si number density = 16.372938 Si / 1000 Ang^3
#
#
#
# Elastic Constant Matrix: (Units=GPa)
#
#
# Indices 1 2 3 4 5 6 
#
# 1 140.0623 50.1562 65.7573 0.0000 -0.8054 0.0000
# 2 50.1562 33.1901 32.5825 0.0000 -0.6877 0.0000
# 3 65.7573 32.5825 107.9923 0.0000 5.0145 0.0000
# 4 0.0000 0.0000 0.0000 15.2447 0.0000 0.3468
# 5 -0.8054 -0.6877 5.0145 0.0000 5.4399 0.0000
# 6 0.0000 0.0000 0.0000 0.3468 0.0000 27.8254
#
#
#
# Elastic Compliance Matrix: (Units=1/GPa)
#
#
# Indices 1 2 3 4 5 6 
#
# 1 0.016536 -0.021148 -0.003842 0.000000 0.003316 0.000000
# 2 -0.021148 0.071630 -0.009413 0.000000 0.014601 0.000000
# 3 -0.003842 -0.009413 0.015170 0.000000 -0.015743 0.000000
# 4 0.000000 0.000000 0.000000 0.065615 0.000000 -0.000818
# 5 0.003316 0.014601 -0.015743 0.000000 0.200675 0.000000
# 6 0.000000 0.000000 0.000000 -0.000818 0.000000 0.035949
#
#
# Mechanical properties :
#
#
# Convention : Reuss Voigt Hill
#
# Bulk Modulus (GPa) = 28.95935 64.24854 46.60395
# Shear Modulus (GPa) = 10.29039 18.55191 14.42115
#
# Velocity S-wave (km/s) = 2.50971 3.36978 2.97103
# Velocity P-wave (km/s) = 5.11116 7.38014 6.34785
#
# Compressibility (1/GPa) = 0.03453116
#
# Stress axis : x y z
#
# Youngs Moduli (GPa) = 60.47588 13.96060 65.91817
#
# Poissons Ratio (x) = 0.29523 0.25326
# Poissons Ratio (y) = 1.27892 0.62047
# Poissons Ratio (z) = 0.23235 0.13141
#
# Static dielectric constant tensor:
#      x y z
#    x 1.548550 0.000000 -0.008020 
#    y 0.000000 1.550600 0.000000 
#    z -0.008020 0.000000 1.544570 
# 
# From -- ./inp_files/229829.got.cif
#   From: 2010.05.17/outbox.cif.g08.bks.cpg/sg12_115_cif.got.tgz:229829.got - 2010.06.03 13:09:07.
