data_PCOD9190856
_publ_section_title
;
Structure prediction by ZEFSAII (Michael W. Deem and Ramdas Pophale) SiO2 
 PCOD9190856
Probable space group: C 2/M
;
_chemical_formula_sum "Si O2"
_cell_formula_units_Z 64
_cell_length_a 17.002923
_cell_length_b 27.561174
_cell_length_c 20.155075
_cell_angle_alpha 90.000000
_cell_angle_beta 160.332907
_cell_angle_gamma 90.000000
_cell_volume 3178.784592
_symmetry_space_group_name_H-M "C 2/M"
_symmetry_group_IT_number 12
_symmetry_cell_setting 'monoclinic'
loop_
_space_group_symop_operation_xyz
x,y,z
-x,y,-z
-x,-y,-z
x,-y,z
1/2+x,1/2+y,z
1/2-x,1/2+y,-z
1/2-x,1/2-y,-z
1/2+x,1/2-y,z
loop_
_atom_site_type_symbol
_atom_site_label
_atom_site_fract_x
_atom_site_fract_y
_atom_site_fract_z
Si Si1 0.491992 0.849888 0.924045
Si Si2 0.115470 0.649995 0.307721
Si Si3 0.297387 0.854262 0.284195
Si Si4 0.746126 0.752372 0.730521
Si Si5 0.974048 0.759049 0.778797
Si Si6 0.478138 0.353995 0.703907
Si Si7 0.244034 0.551914 0.829550
Si Si8 0.118312 0.889346 0.951273
O O1 0.375882 0.867322 0.762373
O O2 0.356034 0.799629 0.833819
O O3 0.500000 0.878579 0.000000
O O4 0.762323 0.843923 0.117968
O O5 0.305680 0.629274 0.509163
O O6 0.149615 0.708073 0.333245
O O7 0.853388 0.641563 0.126194
O O8 0.500000 0.851584 0.500000
O O9 0.277663 0.799030 0.239870
O O10 0.358773 0.898263 0.283017
O O11 0.061513 0.869902 0.135788
O O12 0.500000 0.742923 0.500000
O O13 0.906888 0.773001 0.799688
O O14 0.900793 0.802216 0.672777
O O15 0.250000 0.750000 0.000000
O O16 0.497127 0.388971 0.783062
O O17 0.123642 0.500000 0.721063
O O18 0.500000 0.548361 0.000000
O O19 0.287354 0.561092 0.941748
#
# Coordination Sequence:
#
# PCOD9190856 Si02
#       8
#     8   8   8   8   8   8   8   8
#     4  10  23  36  51  74 109 141 184 234 281 335
#     4  10  22  34  55  75 101 141 182 229 283 336
#     4  10  20  34  53  78 105 148 193 241 282 319
#     4  10  20  32  49  74 104 143 196 243 282 317
#     4  11  17  36  49  69 104 138 185 233 289 323
#     4  11  21  36  56  75 100 146 183 233 283 341
#     4   9  20  37  56  80 113 148 184 235 291 333
#     4  10  20  36  55  76 107 138 187 233 275 339
#
# _framework density 20.133481
#
# number of rings (size 3 to 8) (size 9 to 14) (size 15 to 20)
#    0.000    1.875    5.000    0.375    5.250    1.750 
#    0.000    0.000    0.000    0.000    0.000    0.000 
#    0.000    8.000    0.000    9.000    0.000    0.000 
#
# Total GULP energy -178223.441390 kJ/mol
# GULP energy per Si atom -5569.482543 kJ/mol
# Density = 2.008766 g / cm^3
# Si number density = 20.133481 Si / 1000 Ang^3
#
#
#
# Elastic Constant Matrix: (Units=GPa)
#
#
# Indices 1 2 3 4 5 6 
#
# 1 81.2205 24.6515 23.3974 0.0006 -26.9410 -0.0004
# 2 24.6515 46.9192 11.7472 -0.0035 -3.4444 0.0002
# 3 23.3974 11.7472 97.7162 0.0025 -26.1235 -0.0019
# 4 0.0006 -0.0035 0.0025 -3.5020 0.0003 -1.7355
# 5 -26.9410 -3.4444 -26.1235 0.0003 36.7110 -0.0012
# 6 -0.0004 0.0002 -0.0019 -1.7355 -0.0012 1.2600
#
#
#
# Elastic Compliance Matrix: (Units=1/GPa)
#
#
# Indices 1 2 3 4 5 6 
#
# 1 0.019629 -0.009329 0.000048 0.000002 0.013564 0.000024
# 2 -0.009329 0.026410 -0.002604 -0.000013 -0.006222 -0.000034
# 3 0.000048 -0.002604 0.012941 -0.000001 0.009000 0.000027
# 4 0.000002 -0.000013 -0.000001 -0.169711 -0.000006 -0.233755
# 5 0.013564 -0.006222 0.009000 -0.000006 0.043014 0.000051
# 6 0.000024 -0.000034 0.000027 -0.233755 0.000051 0.471690
#
#
# Mechanical properties :
#
#
# Convention : Reuss Voigt Hill
#
# Bulk Modulus (GPa) = 28.40240 38.38310 33.39275
# Shear Modulus (GPa) = 11.37702 17.96445 14.67073
#
# Velocity S-wave (km/s) = 2.37972 2.99032 2.70232
# Velocity P-wave (km/s) = 4.65708 5.57032 5.13405
#
# Compressibility (1/GPa) = 0.03520829
#
# Stress axis : x y z
#
# Youngs Moduli (GPa) = 50.94456 37.86402 77.27143
#
# Poissons Ratio (x) = 0.35325 -0.00368
# Poissons Ratio (y) = 0.47528 0.20125
# Poissons Ratio (z) = -0.00243 0.09862
#
# Static dielectric constant tensor:
#      x y z
#    x 1.838240 -0.000010 0.018470 
#    y -0.000010 1.786030 -0.000010 
#    z 0.018470 -0.000010 1.816770 
# 
# From -- ./inp_files/318653.got.cif
#   From: 2010.05.17/outbox.cif.g08.bks.cpg/sg12_160_cif.got.tgz:318653.got - 2010.06.03 13:09:07.
