data_PCOD9190656
_publ_section_title
;
Structure prediction by ZEFSAII (Michael W. Deem and Ramdas Pophale) SiO2 
 PCOD9190656
Probable space group: C 2/M
;
_chemical_formula_sum "Si O2"
_cell_formula_units_Z 48
_cell_length_a 15.121504
_cell_length_b 7.631261
_cell_length_c 17.007195
_cell_angle_alpha 90.000000
_cell_angle_beta 105.114775
_cell_angle_gamma 90.000000
_cell_volume 1894.670620
_symmetry_space_group_name_H-M "C 2/M"
_symmetry_group_IT_number 12
_symmetry_cell_setting 'monoclinic'
loop_
_space_group_symop_operation_xyz
x,y,z
-x,y,-z
-x,-y,-z
x,-y,z
1/2+x,1/2+y,z
1/2-x,1/2+y,-z
1/2-x,1/2-y,-z
1/2+x,1/2-y,z
loop_
_atom_site_type_symbol
_atom_site_label
_atom_site_fract_x
_atom_site_fract_y
_atom_site_fract_z
Si Si1 0.466353 0.792563 0.868845
Si Si2 0.839826 0.207024 0.070465
Si Si3 0.734013 0.214543 0.189454
Si Si4 0.781756 0.290688 0.633938
Si Si5 0.515936 0.214198 0.305722
Si Si6 0.914705 0.289965 0.429248
O O1 0.561180 0.767099 0.936331
O O2 0.365378 0.728173 0.868370
O O3 0.485259 0.723749 0.784423
O O4 0.454588 0.000000 0.860048
O O5 0.814106 0.279698 0.151317
O O6 0.846797 0.000000 0.076802
O O7 0.750000 0.250000 0.000000
O O8 0.734276 0.272531 0.279763
O O9 0.738103 0.000000 0.190490
O O10 0.786775 0.500000 0.636978
O O11 0.884277 0.233229 0.636017
O O12 0.688336 0.247428 0.567565
O O13 0.436657 0.275200 0.345810
O O14 0.512976 0.000000 0.302964
O O15 0.921424 0.500000 0.430267
O O16 0.000000 0.223906 0.500000
#
# Coordination Sequence:
#
# PCOD9190656 Si02
#       6
#     8   8   8   8   8   8
#     4   9  17  34  57  75  92 124 168 205 240 284
#     4  11  22  35  50  73 103 131 159 195 242 291
#     4   8  17  34  55  74  95 126 162 201 245 290
#     4   9  17  33  55  74  92 123 169 209 238 278
#     4   8  16  32  53  73  96 128 163 200 244 291
#     4  10  20  32  46  70 105 137 160 192 245 297
#
# _framework density 25.334219999999998
#
# number of rings (size 3 to 8) (size 9 to 14) (size 15 to 20)
#    0.000    2.833    0.000    3.500    0.000    1.667 
#    0.000   10.000    0.000    0.000    0.000    0.000 
#    0.000    0.000    0.000    0.000    0.000    0.000 
#
# Total GULP energy -134012.728067 kJ/mol
# GULP energy per Si atom -5583.863669 kJ/mol
# Density = 2.527656 g / cm^3
# Si number density = 25.334220 Si / 1000 Ang^3
#
#
#
# Elastic Constant Matrix: (Units=GPa)
#
#
# Indices 1 2 3 4 5 6 
#
# 1 174.9499 -2.7627 15.2019 0.0000 29.4514 0.0000
# 2 -2.7627 47.8199 -10.8548 0.0000 -5.6530 0.0000
# 3 15.2019 -10.8548 44.7457 0.0000 21.7569 0.0000
# 4 0.0000 0.0000 0.0000 6.7677 0.0000 7.9031
# 5 29.4514 -5.6530 21.7569 0.0000 45.9825 0.0000
# 6 0.0000 0.0000 0.0000 7.9031 0.0000 15.2628
#
#
#
# Elastic Compliance Matrix: (Units=1/GPa)
#
#
# Indices 1 2 3 4 5 6 
#
# 1 0.006410 -0.000164 -0.000275 0.000000 -0.003996 0.000000
# 2 -0.000164 0.022137 0.005262 0.000000 0.000337 0.000000
# 3 -0.000275 0.005262 0.030286 0.000000 -0.013507 0.000000
# 4 0.000000 0.000000 0.000000 0.373757 0.000000 -0.193531
# 5 -0.003996 0.000337 -0.013507 0.000000 0.030739 0.000000
# 6 0.000000 0.000000 0.000000 -0.193531 0.000000 0.165729
#
#
# Mechanical properties :
#
#
# Convention : Reuss Voigt Hill
#
# Bulk Modulus (GPa) = 14.60314 30.07604 22.33959
# Shear Modulus (GPa) = 7.78529 31.33136 19.55832
#
# Velocity S-wave (km/s) = 1.75491 3.52052 2.78152
# Velocity P-wave (km/s) = 3.14372 5.33131 4.37641
#
# Compressibility (1/GPa) = 0.06847840
#
# Stress axis : x y z
#
# Youngs Moduli (GPa) = 156.01030 45.17406 33.01860
#
# Poissons Ratio (x) = 0.00743 0.00907
# Poissons Ratio (y) = 0.02565 -0.17375
# Poissons Ratio (z) = 0.04286 -0.23771
#
# Static dielectric constant tensor:
#      x y z
#    x 1.923730 0.000000 0.008810 
#    y 0.000000 1.932200 0.000000 
#    z 0.008810 0.000000 2.088990 
# 
# From -- ./inp_files/308293.got.cif
#   From: 2010.05.17/outbox.cif.g08.bks.cpg/sg12_155_cif.got.tgz:308293.got - 2010.06.03 13:09:07.
