data_PCOD9190933
_publ_section_title
;
Structure prediction by ZEFSAII (Michael W. Deem and Ramdas Pophale) SiO2 
 PCOD9190933
Probable space group: C 2/M
;
_chemical_formula_sum "Si O2"
_cell_formula_units_Z 64
_cell_length_a 21.210824
_cell_length_b 7.547395
_cell_length_c 32.005199
_cell_angle_alpha 90.000000
_cell_angle_beta 144.538028
_cell_angle_gamma 90.000000
_cell_volume 2972.520080
_symmetry_space_group_name_H-M "C 2/M"
_symmetry_group_IT_number 12
_symmetry_cell_setting 'monoclinic'
loop_
_space_group_symop_operation_xyz
x,y,z
-x,y,-z
-x,-y,-z
x,-y,z
1/2+x,1/2+y,z
1/2-x,1/2+y,-z
1/2-x,1/2-y,-z
1/2+x,1/2-y,z
loop_
_atom_site_type_symbol
_atom_site_label
_atom_site_fract_x
_atom_site_fract_y
_atom_site_fract_z
Si Si1 0.662579 0.797181 0.761518
Si Si2 0.501929 0.213329 0.160014
Si Si3 0.072543 0.790025 0.393633
Si Si4 0.169343 0.289820 0.995033
Si Si5 0.119973 0.283149 0.578255
Si Si6 0.246813 0.211877 0.272619
Si Si7 0.149291 0.294945 0.846564
Si Si8 0.225655 0.287044 0.551806
O O1 0.542470 0.797225 0.676706
O O2 0.737493 0.715809 0.765700
O O3 0.653203 0.714158 0.802484
O O4 0.700100 0.000000 0.788518
O O5 0.627998 0.256559 0.227131
O O6 0.435324 0.281175 0.164710
O O7 0.489221 0.000000 0.153354
O O8 0.444254 0.275327 0.085708
O O9 0.125013 0.759355 0.467324
O O10 0.164271 0.722195 0.410650
O O11 0.058639 0.000000 0.380191
O O12 0.163224 0.500000 0.998788
O O13 0.231303 0.211088 0.068086
O O14 0.250000 0.250000 0.000000
O O15 0.118888 0.500000 0.578472
O O16 0.163047 0.220956 0.646141
O O17 0.202070 0.227107 0.585826
O O18 0.000000 0.226350 0.500000
O O19 0.262108 0.000000 0.277933
O O20 0.115900 0.500000 0.823411
O O21 0.267580 0.000000 0.444080
#
# Coordination Sequence:
#
# PCOD9190933 Si02
#       8
#     8   8   8   8   8   8   8   8
#     4  10  21  37  54  75 107 144 179 217 267 320
#     4   9  19  35  54  79 110 140 169 214 271 317
#     4  10  20  32  50  76 103 134 175 222 270 318
#     4   9  17  32  55  82 111 142 178 218 265 317
#     4   9  17  31  52  74  98 132 176 221 263 309
#     4  10  21  35  55  80 104 139 183 222 266 319
#     4   9  19  35  56  81 109 143 182 218 262 318
#     4   9  18  33  51  72 100 133 173 222 269 318
#
# _framework density 21.530553999999999
#
# number of rings (size 3 to 8) (size 9 to 14) (size 15 to 20)
#    0.000    2.625    0.000    2.250    1.750    6.000 
#    0.000    1.250    0.000    5.250    0.000    0.000 
#    0.000    0.000    0.000    0.000    0.000    0.000 
#
# Total GULP energy -178512.970528 kJ/mol
# GULP energy per Si atom -5578.530329 kJ/mol
# Density = 2.148155 g / cm^3
# Si number density = 21.530554 Si / 1000 Ang^3
#
#
#
# Elastic Constant Matrix: (Units=GPa)
#
#
# Indices 1 2 3 4 5 6 
#
# 1 129.0212 6.2951 55.1095 0.0001 -26.5197 -0.0001
# 2 6.2951 54.0009 -9.2984 0.0006 -2.4588 -0.0001
# 3 55.1095 -9.2984 88.7804 0.0000 -3.0470 -0.0001
# 4 0.0001 0.0006 0.0000 18.6594 -0.0001 4.8613
# 5 -26.5197 -2.4588 -3.0470 -0.0001 24.3958 0.0001
# 6 -0.0001 -0.0001 -0.0001 4.8613 0.0001 6.5993
#
#
#
# Elastic Compliance Matrix: (Units=1/GPa)
#
#
# Indices 1 2 3 4 5 6 
#
# 1 0.014659 -0.002573 -0.008869 0.000000 0.014568 0.000000
# 2 -0.002573 0.019423 0.003618 -0.000001 -0.000387 0.000001
# 3 -0.008869 0.003618 0.016902 0.000000 -0.007165 0.000001
# 4 0.000000 -0.000001 0.000000 0.066320 0.000001 -0.048854
# 5 0.014568 -0.000387 -0.007165 0.000001 0.055893 -0.000002
# 6 0.000000 0.000001 0.000001 -0.048854 -0.000002 0.187519
#
#
# Mechanical properties :
#
#
# Convention : Reuss Voigt Hill
#
# Bulk Modulus (GPa) = 28.29867 41.77943 35.03905
# Shear Modulus (GPa) = 12.88189 24.57734 18.72961
#
# Velocity S-wave (km/s) = 2.44869 3.38229 2.95262
# Velocity P-wave (km/s) = 4.60074 5.89067 5.28521
#
# Compressibility (1/GPa) = 0.03533735
#
# Stress axis : x y z
#
# Youngs Moduli (GPa) = 68.21899 51.48414 59.16493
#
# Poissons Ratio (x) = 0.13245 0.52472
# Poissons Ratio (y) = 0.17550 -0.21406
# Poissons Ratio (z) = 0.60501 -0.18627
#
# Static dielectric constant tensor:
#      x y z
#    x 1.804860 0.000000 -0.016930 
#    y 0.000000 1.896250 0.000000 
#    z -0.016930 0.000000 1.767670 
# 
# From -- ./inp_files/378501.got.cif
#   From: 2010.05.17/outbox.cif.g08.bks.cpg/sg12_190_cif.got.tgz:378501.got - 2010.06.03 13:09:07.
