data_PCOD9190456
_publ_section_title
;
Structure prediction by ZEFSAII (Michael W. Deem and Ramdas Pophale) SiO2 
 PCOD9190456
Probable space group: C 2/M
;
_chemical_formula_sum "Si O2"
_cell_formula_units_Z 64
_cell_length_a 11.217880
_cell_length_b 14.461919
_cell_length_c 28.848237
_cell_angle_alpha 90.000000
_cell_angle_beta 34.614021
_cell_angle_gamma 90.000000
_cell_volume 2658.513413
_symmetry_space_group_name_H-M "C 2/M"
_symmetry_group_IT_number 12
_symmetry_cell_setting 'monoclinic'
loop_
_space_group_symop_operation_xyz
x,y,z
-x,y,-z
-x,-y,-z
x,-y,z
1/2+x,1/2+y,z
1/2-x,1/2+y,-z
1/2-x,1/2-y,-z
1/2+x,1/2-y,z
loop_
_atom_site_type_symbol
_atom_site_label
_atom_site_fract_x
_atom_site_fract_y
_atom_site_fract_z
Si Si1 0.688223 0.112245 0.377856
Si Si2 0.582555 0.888118 0.781031
Si Si3 0.810406 0.354688 0.031157
Si Si4 0.041258 0.887123 0.625609
Si Si5 0.041087 0.612529 0.688219
Si Si6 0.600502 0.611338 0.781589
Si Si7 0.312438 0.355803 0.028920
Si Si8 0.750946 0.112346 0.530007
O O1 0.769013 0.142566 0.401965
O O2 0.858663 0.138441 0.284485
O O3 0.462626 0.136649 0.429423
O O4 0.681413 0.000000 0.381956
O O5 0.556506 0.857480 0.736122
O O6 0.398310 0.856368 0.873313
O O7 0.818786 0.858978 0.718001
O O8 0.574859 0.000000 0.784392
O O9 0.607025 0.351384 0.128633
O O10 0.881413 0.249908 0.996957
O O11 0.741291 0.397114 0.004131
O O12 0.000000 0.397290 0.000000
O O13 0.069973 0.856919 0.563090
O O14 0.042881 0.000000 0.624185
O O15 0.055509 0.500000 0.684374
O O16 0.213101 0.643248 0.594866
O O17 0.811658 0.635794 0.741824
O O18 0.584655 0.500000 0.787858
O O19 0.500000 0.396958 0.000000
O O20 0.766992 0.000000 0.527436
#
# Coordination Sequence:
#
# PCOD9190456 Si02
#       8
#     8   8   8   8   8   8   8   8
#     4   8  14  24  40  64  97 131 159 191 234 287
#     4  10  20  31  48  72  99 129 164 208 250 288
#     4  10  22  37  55  76  97 126 164 206 250 300
#     4   9  16  24  38  66 102 132 158 196 241 283
#     4   8  15  28  45  69  98 131 168 198 233 286
#     4   9  17  30  50  74 100 125 156 202 248 293
#     4  10  22  40  55  70  98 131 166 206 248 304
#     4   8  13  23  40  63  97 136 164 190 233 286
#
# _framework density 24.073604
#
# number of rings (size 3 to 8) (size 9 to 14) (size 15 to 20)
#    0.000    3.000    0.000    2.625    1.750    3.000 
#    0.000    2.500    0.000    0.000    0.000    3.500 
#    7.500    0.000    0.000    0.000    0.000    0.000 
#
# Total GULP energy -178728.667828 kJ/mol
# GULP energy per Si atom -5585.270870 kJ/mol
# Density = 2.401881 g / cm^3
# Si number density = 24.073604 Si / 1000 Ang^3
#
#
#
# Elastic Constant Matrix: (Units=GPa)
#
#
# Indices 1 2 3 4 5 6 
#
# 1 93.8819 3.0121 15.0831 -0.0016 11.7371 0.0011
# 2 3.0121 98.6419 -10.3177 -0.0001 -1.4848 0.0001
# 3 15.0831 -10.3177 123.7487 -0.0040 8.6488 0.0016
# 4 -0.0016 -0.0001 -0.0040 25.7006 0.0011 -4.8863
# 5 11.7371 -1.4848 8.6488 0.0011 29.1747 0.0001
# 6 0.0011 0.0001 0.0016 -4.8863 0.0001 -22.7771
#
#
#
# Elastic Compliance Matrix: (Units=1/GPa)
#
#
# Indices 1 2 3 4 5 6 
#
# 1 0.011385 -0.000530 -0.001133 0.000001 -0.004271 0.000000
# 2 -0.000530 0.010254 0.000887 0.000000 0.000472 0.000000
# 3 -0.001133 0.000887 0.008433 0.000001 -0.001999 0.000000
# 4 0.000001 0.000000 0.000001 0.037385 -0.000002 -0.008020
# 5 -0.004271 0.000472 -0.001999 -0.000002 0.036611 0.000000
# 6 0.000000 0.000000 0.000000 -0.008020 0.000000 -0.042183
#
#
# Mechanical properties :
#
#
# Convention : Reuss Voigt Hill
#
# Bulk Modulus (GPa) = 35.06733 36.86975 35.96854
# Shear Modulus (GPa) = 68.54581 26.98598 47.76590
#
# Velocity S-wave (km/s) = 5.34184 3.35173 4.45922
# Velocity P-wave (km/s) = 7.25571 5.50704 6.44099
#
# Compressibility (1/GPa) = 0.02851657
#
# Stress axis : x y z
#
# Youngs Moduli (GPa) = 87.83671 97.52562 118.58674
#
# Poissons Ratio (x) = 0.05174 0.13440
# Poissons Ratio (y) = 0.04660 -0.10513
# Poissons Ratio (z) = 0.09955 -0.08646
#
# Static dielectric constant tensor:
#      x y z
#    x 1.918290 0.000000 0.000700 
#    y 0.000000 1.955040 0.000000 
#    z 0.000700 0.000000 1.862360 
# 
# From -- ./inp_files/358972.got.cif
#   From: 2010.05.17/outbox.cif.g08.bks.cpg/sg12_180_cif.got.tgz:358972.got - 2010.06.03 13:09:07.
