data_PCOD9190463
_publ_section_title
;
Structure prediction by ZEFSAII (Michael W. Deem and Ramdas Pophale) SiO2 
 PCOD9190463
Probable space group: C 2/M
;
_chemical_formula_sum "Si O2"
_cell_formula_units_Z 64
_cell_length_a 34.192676
_cell_length_b 13.814850
_cell_length_c 22.584096
_cell_angle_alpha 90.000000
_cell_angle_beta 19.709701
_cell_angle_gamma 90.000000
_cell_volume 3597.824152
_symmetry_space_group_name_H-M "C 2/M"
_symmetry_group_IT_number 12
_symmetry_cell_setting 'monoclinic'
loop_
_space_group_symop_operation_xyz
x,y,z
-x,y,-z
-x,-y,-z
x,-y,z
1/2+x,1/2+y,z
1/2-x,1/2+y,-z
1/2-x,1/2-y,-z
1/2+x,1/2-y,z
loop_
_atom_site_type_symbol
_atom_site_label
_atom_site_fract_x
_atom_site_fract_y
_atom_site_fract_z
Si Si1 0.073118 0.612486 0.276884
Si Si2 0.879688 0.721426 0.334837
Si Si3 0.037584 0.114518 0.701752
Si Si4 0.874971 0.613197 0.465746
Si Si5 0.791045 0.803215 0.641534
Si Si6 0.963105 0.612839 0.984098
Si Si7 0.342341 0.384217 0.888120
Si Si8 0.991181 0.796702 0.446149
O O1 0.067489 0.500000 0.301058
O O2 0.012567 0.681849 0.410248
O O3 0.000442 0.624564 0.319410
O O4 0.207429 0.641722 0.080555
O O5 0.750000 0.750000 0.500000
O O6 0.941579 0.818258 0.271430
O O7 0.877752 0.648841 0.394097
O O8 0.949520 0.672056 0.182072
O O9 0.141873 0.139609 0.506927
O O10 0.918618 0.142691 0.837137
O O11 0.037208 0.000000 0.714594
O O12 0.842466 0.500000 0.516764
O O13 0.795387 0.690928 0.614205
O O14 0.664885 0.842427 0.834515
O O15 0.870209 0.816750 0.586495
O O16 0.961772 0.500000 0.967813
O O17 0.000000 0.617283 0.000000
O O18 0.347991 0.500000 0.876805
O O19 0.410110 0.342526 0.735685
O O20 0.000000 0.831258 0.500000
#
# Coordination Sequence:
#
# PCOD9190463 Si02
#       8
#     8   8   8   8   8   8   8   8
#     4   9  18  33  53  76 102 137 181 222 258 305
#     4  11  23  37  56  82 108 133 175 224 263 315
#     4   9  18  35  57  78 105 143 181 221 268 314
#     4   9  18  35  57  79 105 139 179 223 269 309
#     4   9  19  35  54  78 108 142 179 217 259 314
#     4  11  23  39  59  81 106 137 171 211 264 320
#     4   9  18  33  53  76 104 140 181 220 259 308
#     4  10  20  31  48  75 109 145 174 210 261 310
#
# _framework density 17.788530000000002
#
# number of rings (size 3 to 8) (size 9 to 14) (size 15 to 20)
#    0.000    2.375    0.000    3.375    0.000    5.000 
#    0.000    1.875    0.000    1.500    0.000    0.000 
#    0.000    0.000    0.000    0.000    0.000    0.000 
#
# Total GULP energy -178463.092998 kJ/mol
# GULP energy per Si atom -5576.971656 kJ/mol
# Density = 1.774804 g / cm^3
# Si number density = 17.788530 Si / 1000 Ang^3
#
#
#
# Elastic Constant Matrix: (Units=GPa)
#
#
# Indices 1 2 3 4 5 6 
#
# 1 95.5304 47.0043 49.2468 0.0000 -0.4228 0.0000
# 2 47.0043 101.5572 49.5582 0.0000 -4.6290 0.0000
# 3 49.2468 49.5582 122.6228 0.0000 -17.2304 0.0000
# 4 0.0000 0.0000 0.0000 16.9581 0.0001 -6.9497
# 5 -0.4228 -4.6290 -17.2304 0.0001 16.4994 0.0000
# 6 0.0000 0.0000 0.0000 -6.9497 0.0000 23.6695
#
#
#
# Elastic Compliance Matrix: (Units=1/GPa)
#
#
# Indices 1 2 3 4 5 6 
#
# 1 0.015526 -0.004980 -0.005114 0.000000 -0.006339 0.000000
# 2 -0.004980 0.013921 -0.003628 0.000000 -0.000011 0.000000
# 3 -0.005114 -0.003628 0.013494 0.000000 0.012943 0.000000
# 4 0.000000 0.000000 0.000000 0.067035 0.000000 0.019682
# 5 -0.006339 -0.000011 0.012943 0.000000 0.073959 0.000000
# 6 0.000000 0.000000 0.000000 0.019682 0.000000 0.048027
#
#
# Mechanical properties :
#
#
# Convention : Reuss Voigt Hill
#
# Bulk Modulus (GPa) = 64.52208 67.92542 66.22375
# Shear Modulus (GPa) = 18.89852 23.01883 20.95867
#
# Velocity S-wave (km/s) = 3.26298 3.60116 3.43623
# Velocity P-wave (km/s) = 7.10961 7.45379 7.28373
#
# Compressibility (1/GPa) = 0.01549857
#
# Stress axis : x y z
#
# Youngs Moduli (GPa) = 64.40755 71.83251 74.10842
#
# Poissons Ratio (x) = 0.35769 0.37897
# Poissons Ratio (y) = 0.32072 0.26886
# Poissons Ratio (z) = 0.32937 0.26060
#
# Static dielectric constant tensor:
#      x y z
#    x 1.591780 0.000000 -0.013710 
#    y 0.000000 1.634530 0.000000 
#    z -0.013710 0.000000 1.574170 
# 
# From -- ./inp_files/330332.got.cif
#   From: 2010.05.17/outbox.cif.g08.bks.cpg/sg12_166_cif.got.tgz:330332.got - 2010.06.03 13:09:07.
