data_PCOD9190079
_publ_section_title
;
Structure prediction by ZEFSAII (Michael W. Deem and Ramdas Pophale) SiO2 
 PCOD9190079
Probable space group: C 2/M
;
_chemical_formula_sum "Si O2"
_cell_formula_units_Z 50
_cell_length_a 9.333635
_cell_length_b 16.779416
_cell_length_c 18.484081
_cell_angle_alpha 90.000000
_cell_angle_beta 121.153809
_cell_angle_gamma 90.000000
_cell_volume 2477.356265
_symmetry_space_group_name_H-M "C 2/M"
_symmetry_group_IT_number 12
_symmetry_cell_setting 'monoclinic'
loop_
_space_group_symop_operation_xyz
x,y,z
-x,y,-z
-x,-y,-z
x,-y,z
1/2+x,1/2+y,z
1/2-x,1/2+y,-z
1/2-x,1/2-y,-z
1/2+x,1/2-y,z
loop_
_atom_site_type_symbol
_atom_site_label
_atom_site_fract_x
_atom_site_fract_y
_atom_site_fract_z
Si Si1 0.636297 0.171783 0.975329
Si Si2 0.036782 0.092748 0.928548
Si Si3 0.733050 0.408830 0.249585
Si Si4 0.000000 0.000000 0.500000
Si Si5 0.031825 0.691274 0.589740
Si Si6 0.723663 0.351961 0.614910
Si Si7 0.520751 0.909178 0.202571
O O1 0.545349 0.146633 0.878184
O O2 0.500000 0.183331 0.000000
O O3 0.750000 0.250000 0.000000
O O4 0.767463 0.103160 0.031387
O O5 0.928440 0.126892 0.834074
O O6 0.987096 0.000000 0.917406
O O7 0.000000 0.124392 0.000000
O O8 0.700449 0.500000 0.266162
O O9 0.814808 0.356599 0.333607
O O10 0.873497 0.412302 0.223743
O O11 0.865934 0.929515 0.440379
O O12 0.091262 0.782509 0.597862
O O13 0.000000 0.661331 0.500000
O O14 0.866373 0.679495 0.595882
O O15 0.819031 0.375980 0.713584
O O16 0.548840 0.000000 0.184099
#
# Coordination Sequence:
#
# PCOD9190079 Si02
#       7
#     8   8   8   2   8   8   8
#     4  12  27  40  61  92 131 173 226 277 336 393
#     4  10  19  39  67  91 123 172 212 266 321 393
#     4   9  20  39  67  99 132 173 225 265 335 413
#     4  12  24  48  74 104 128 182 238 270 350 428
#     4  11  24  43  69 101 138 179 220 285 344 398
#     4  11  25  45  74  99 139 177 231 279 346 416
#     4  10  21  42  68  96 129 180 220 275 338 408
#
# _framework density 20.182804000000001
#
# number of rings (size 3 to 8) (size 9 to 14) (size 15 to 20)
#    0.000    1.440    3.200    1.440    3.360    2.880 
#    0.000    0.000    3.520    0.000    0.000    0.000 
#    0.000    0.000    0.000    0.000    0.000    0.000 
#
# Total GULP energy -139349.500063 kJ/mol
# GULP energy per Si atom -5573.980003 kJ/mol
# Density = 2.013687 g / cm^3
# Si number density = 20.182804 Si / 1000 Ang^3
#
#
#
# Elastic Constant Matrix: (Units=GPa)
#
#
# Indices 1 2 3 4 5 6 
#
# 1 75.6114 46.4258 57.3986 0.0000 14.5123 0.0000
# 2 46.4258 119.5646 76.1801 0.0000 -0.2811 0.0000
# 3 57.3986 76.1801 184.0674 0.0000 18.5611 0.0000
# 4 0.0000 0.0000 0.0000 8.7133 0.0000 12.0499
# 5 14.5123 -0.2811 18.5611 0.0000 29.3587 0.0000
# 6 0.0000 0.0000 0.0000 12.0499 0.0000 17.5789
#
#
#
# Elastic Compliance Matrix: (Units=1/GPa)
#
#
# Indices 1 2 3 4 5 6 
#
# 1 0.021036 -0.006183 -0.003147 0.000000 -0.008468 0.000000
# 2 -0.006183 0.013482 -0.004243 0.000000 0.005868 0.000000
# 3 -0.003147 -0.004243 0.008564 0.000000 -0.003899 0.000000
# 4 0.000000 0.000000 0.000000 2.205410 0.000000 -1.511754
# 5 -0.008468 0.005868 -0.003899 0.000000 0.040768 0.000000
# 6 0.000000 0.000000 0.000000 -1.511754 0.000000 1.093156
#
#
# Mechanical properties :
#
#
# Convention : Reuss Voigt Hill
#
# Bulk Modulus (GPa) = 62.75549 82.13914 72.44732
# Shear Modulus (GPa) = 1.46418 24.41278 12.93848
#
# Velocity S-wave (km/s) = 0.85266 3.48168 2.53467
# Velocity P-wave (km/s) = 5.66837 7.54644 6.67380
#
# Compressibility (1/GPa) = 0.01593486
#
# Stress axis : x y z
#
# Youngs Moduli (GPa) = 47.53736 74.17310 116.77407
#
# Poissons Ratio (x) = 0.45861 0.36748
# Poissons Ratio (y) = 0.29392 0.49553
# Poissons Ratio (z) = 0.14960 0.31475
#
# Static dielectric constant tensor:
#      x y z
#    x 1.697890 0.000000 0.010370 
#    y 0.000000 1.773750 0.000000 
#    z 0.010370 0.000000 1.724920 
# 
# From -- ./inp_files/257272.got.cif
#   From: 2010.05.17/outbox.cif.g08.bks.cpg/sg12_129_cif.got.tgz:257272.got - 2010.06.03 13:09:07.
