data_PCOD9190168
_publ_section_title
;
Structure prediction by ZEFSAII (Michael W. Deem and Ramdas Pophale) SiO2 
 PCOD9190168
Probable space group: C 2/M
;
_chemical_formula_sum "Si O2"
_cell_formula_units_Z 42
_cell_length_a 21.060338
_cell_length_b 7.457142
_cell_length_c 12.701304
_cell_angle_alpha 90.000000
_cell_angle_beta 80.328768
_cell_angle_gamma 90.000000
_cell_volume 1966.389574
_symmetry_space_group_name_H-M "C 2/M"
_symmetry_group_IT_number 12
_symmetry_cell_setting 'monoclinic'
loop_
_space_group_symop_operation_xyz
x,y,z
-x,y,-z
-x,-y,-z
x,-y,z
1/2+x,1/2+y,z
1/2-x,1/2+y,-z
1/2-x,1/2-y,-z
1/2+x,1/2-y,z
loop_
_atom_site_type_symbol
_atom_site_label
_atom_site_fract_x
_atom_site_fract_y
_atom_site_fract_z
Si Si1 0.613770 0.792447 0.489366
Si Si2 0.648238 0.281312 0.717994
Si Si3 0.707969 0.217268 0.275787
Si Si4 0.323131 0.213227 0.943159
Si Si5 0.500000 0.500000 0.500000
Si Si6 0.063913 0.793696 0.929591
O O1 0.638247 0.780485 0.602225
O O2 0.669458 0.737391 0.391531
O O3 0.555549 0.656698 0.493321
O O4 0.596564 0.000000 0.470958
O O5 0.647407 0.500000 0.718799
O O6 0.718121 0.222346 0.740063
O O7 0.592753 0.217102 0.813381
O O8 0.673374 0.278154 0.178460
O O9 0.710291 0.000000 0.269294
O O10 0.333216 0.000000 0.942940
O O11 0.250000 0.250000 0.000000
O O12 0.377002 0.292499 0.004531
O O13 0.046869 0.000000 0.909114
O O14 0.000000 0.712241 0.000000
#
# Coordination Sequence:
#
# PCOD9190168 Si02
#       6
#     8   8   8   8   2   8
#     4  11  24  44  68  97 131 175 221 269 330 396
#     4  10  19  40  66  93 134 168 212 278 330 387
#     4   9  20  39  66  95 130 169 215 276 333 389
#     4  11  21  39  63  93 129 170 220 273 323 387
#     4  12  26  48  64  94 138 176 216 266 330 400
#     4  10  22  40  62  93 131 172 215 264 331 393
#
# _framework density 21.358941000000002
#
# number of rings (size 3 to 8) (size 9 to 14) (size 15 to 20)
#    0.000    1.714    2.857    1.429    0.000    2.667 
#    8.571    1.905    0.000    0.000    0.000    0.000 
#    0.000    0.000    0.000    0.000    0.000    0.000 
#
# Total GULP energy -117074.199461 kJ/mol
# GULP energy per Si atom -5574.961879 kJ/mol
# Density = 2.131033 g / cm^3
# Si number density = 21.358941 Si / 1000 Ang^3
#
#
#
# Elastic Constant Matrix: (Units=GPa)
#
#
# Indices 1 2 3 4 5 6 
#
# 1 59.5580 -12.3215 22.7492 0.0000 8.4544 0.0000
# 2 -12.3215 84.8685 -16.7351 0.0000 15.6705 0.0000
# 3 22.7492 -16.7351 157.5130 0.0000 20.5301 0.0000
# 4 0.0000 0.0000 0.0000 25.3573 0.0000 9.1729
# 5 8.4544 15.6705 20.5301 0.0000 -49.8124 0.0000
# 6 0.0000 0.0000 0.0000 9.1729 0.0000 25.0979
#
#
#
# Elastic Compliance Matrix: (Units=1/GPa)
#
#
# Indices 1 2 3 4 5 6 
#
# 1 0.017818 0.001606 -0.002717 0.000000 0.002410 0.000000
# 2 0.001606 0.011360 0.000450 0.000000 0.004032 0.000000
# 3 -0.002717 0.000450 0.006482 0.000000 0.002352 0.000000
# 4 0.000000 0.000000 0.000000 0.045445 0.000000 -0.016609
# 5 0.002410 0.004032 0.002352 0.000000 -0.017429 0.000000
# 6 0.000000 0.000000 0.000000 -0.016609 0.000000 0.045915
#
#
# Mechanical properties :
#
#
# Convention : Reuss Voigt Hill
#
# Bulk Modulus (GPa) = 29.12167 32.14719 30.63443
# Shear Modulus (GPa) = 40.86302 20.67837 30.77070
#
# Velocity S-wave (km/s) = 4.37871 3.11486 3.79970
# Velocity P-wave (km/s) = 6.26324 5.29340 5.79863
#
# Compressibility (1/GPa) = 0.03433869
#
# Stress axis : x y z
#
# Youngs Moduli (GPa) = 56.12194 88.02558 154.26671
#
# Poissons Ratio (x) = -0.14139 0.41913
# Poissons Ratio (y) = -0.09015 -0.06934
# Poissons Ratio (z) = 0.15248 -0.03957
#
# Static dielectric constant tensor:
#      x y z
#    x 1.729720 0.000000 -0.006510 
#    y 0.000000 1.752970 0.000000 
#    z -0.006510 0.000000 1.777270 
# 
# From -- ./inp_files/162974.got.cif
#   From: 2010.05.17/outbox.cif.g08.bks.cpg/sg12_82_cif.got.tgz:162974.got - 2010.06.03 13:09:07.
