data_PCOD9190765
_publ_section_title
;
Structure prediction by ZEFSAII (Michael W. Deem and Ramdas Pophale) SiO2 
 PCOD9190765
Probable space group: C 2/M
;
_chemical_formula_sum "Si O2"
_cell_formula_units_Z 60
_cell_length_a 19.100298
_cell_length_b 7.369803
_cell_length_c 28.570572
_cell_angle_alpha 90.000000
_cell_angle_beta 140.581865
_cell_angle_gamma 90.000000
_cell_volume 2553.710297
_symmetry_space_group_name_H-M "C 2/M"
_symmetry_group_IT_number 12
_symmetry_cell_setting 'monoclinic'
loop_
_space_group_symop_operation_xyz
x,y,z
-x,y,-z
-x,-y,-z
x,-y,z
1/2+x,1/2+y,z
1/2-x,1/2+y,-z
1/2-x,1/2-y,-z
1/2+x,1/2-y,z
loop_
_atom_site_type_symbol
_atom_site_label
_atom_site_fract_x
_atom_site_fract_y
_atom_site_fract_z
Si Si1 0.750000 0.750000 0.000000
Si Si2 0.439446 0.781621 0.752006
Si Si3 0.823805 0.791241 0.136960
Si Si4 0.711216 0.777970 0.171702
Si Si5 0.896529 0.778619 0.341666
Si Si6 0.638641 0.716672 0.471842
Si Si7 0.193265 0.778471 0.603721
Si Si8 0.495561 0.219740 0.109654
O O1 0.688284 0.802041 0.919039
O O2 0.628116 0.713681 0.960623
O O3 0.548266 0.712415 0.782230
O O4 0.321066 0.722247 0.673015
O O5 0.455026 0.727981 0.814218
O O6 0.441509 0.000000 0.750945
O O7 0.751323 0.721080 0.141521
O O8 0.791547 0.000000 0.108248
O O9 0.799943 0.719942 0.256638
O O10 0.587967 0.722387 0.120634
O O11 0.713646 0.000000 0.172753
O O12 0.868798 0.723326 0.380801
O O13 0.020019 0.719722 0.391251
O O14 0.893372 0.000000 0.339499
O O15 0.630262 0.500000 0.470044
O O16 0.750000 0.750000 0.500000
O O17 0.648418 0.782665 0.530503
O O18 0.190026 0.000000 0.602103
O O19 0.488578 0.000000 0.104195
#
# Coordination Sequence:
#
# PCOD9190765 Si02
#       8
#     4   8   8   8   8   8   8   8
#     4  10  20  32  48  72 104 138 162 200 256 318
#     4   9  17  31  53  77 103 138 175 210 258 319
#     4  10  21  34  52  80 109 136 170 216 265 315
#     4   9  17  30  51  79 105 129 169 224 268 302
#     4   9  16  30  52  77 105 136 176 225 266 304
#     4  10  21  33  50  79 110 143 179 222 268 312
#     4   9  16  30  52  77 104 138 181 223 260 307
#     4   9  16  30  51  74  99 129 166 211 260 306
#
# _framework density 23.495227
#
# number of rings (size 3 to 8) (size 9 to 14) (size 15 to 20)
#    0.000    2.667    1.333    0.800    1.867    2.667 
#    0.000    2.000    0.000    6.400    0.000   11.200 
#    0.000    0.000    0.000    0.000    0.000    0.000 
#
# Total GULP energy -167084.401873 kJ/mol
# GULP energy per Si atom -5569.480062 kJ/mol
# Density = 2.344175 g / cm^3
# Si number density = 23.495227 Si / 1000 Ang^3
#
#
#
# Elastic Constant Matrix: (Units=GPa)
#
#
# Indices 1 2 3 4 5 6 
#
# 1 183.9279 -0.3244 50.7617 -0.0002 25.9559 0.0006
# 2 -0.3244 81.9786 -1.3916 -0.0005 -0.8097 0.0010
# 3 50.7617 -1.3916 94.3887 0.0000 30.5184 0.0000
# 4 -0.0002 -0.0005 0.0000 1.0398 0.0000 18.8627
# 5 25.9559 -0.8097 30.5184 0.0000 46.5507 -0.0001
# 6 0.0006 0.0010 0.0000 18.8627 -0.0001 2.6115
#
#
#
# Elastic Compliance Matrix: (Units=1/GPa)
#
#
# Indices 1 2 3 4 5 6 
#
# 1 0.006488 -0.000041 -0.002944 0.000000 -0.001688 0.000000
# 2 -0.000041 0.012202 0.000160 -0.000001 0.000130 0.000000
# 3 -0.002944 0.000160 0.014782 0.000000 -0.008047 0.000000
# 4 0.000000 -0.000001 0.000000 -0.007396 0.000000 0.053422
# 5 -0.001688 0.000130 -0.008047 0.000000 0.027701 0.000000
# 6 0.000000 0.000000 0.000000 0.053422 0.000000 -0.002945
#
#
# Mechanical properties :
#
#
# Convention : Reuss Voigt Hill
#
# Bulk Modulus (GPa) = 35.94343 50.93186 43.43764
# Shear Modulus (GPa) = 76.04027 30.79035 53.41531
#
# Velocity S-wave (km/s) = 5.69512 3.62400 4.77325
# Velocity P-wave (km/s) = 7.65358 6.26385 6.99332
#
# Compressibility (1/GPa) = 0.02782150
#
# Stress axis : x y z
#
# Youngs Moduli (GPa) = 154.14247 81.95278 67.65151
#
# Poissons Ratio (x) = 0.00336 0.19915
# Poissons Ratio (y) = 0.00632 -0.01081
# Poissons Ratio (z) = 0.45375 -0.01310
#
# Static dielectric constant tensor:
#      x y z
#    x 1.874860 0.000000 0.014330 
#    y 0.000000 1.995180 0.000000 
#    z 0.014330 0.000000 1.829170 
# 
# From -- ./inp_files/339617.got.cif
#   From: 2010.05.17/outbox.cif.g08.bks.cpg/sg12_170_cif.got.tgz:339617.got - 2010.06.03 13:09:07.
