data_PCOD9190420
_publ_section_title
;
Structure prediction by ZEFSAII (Michael W. Deem and Ramdas Pophale) SiO2 
 PCOD9190420
Probable space group: C 2/M
;
_chemical_formula_sum "Si O2"
_cell_formula_units_Z 64
_cell_length_a 12.685893
_cell_length_b 23.341028
_cell_length_c 16.015237
_cell_angle_alpha 90.000000
_cell_angle_beta 143.916712
_cell_angle_gamma 90.000000
_cell_volume 2792.934039
_symmetry_space_group_name_H-M "C 2/M"
_symmetry_group_IT_number 12
_symmetry_cell_setting 'monoclinic'
loop_
_space_group_symop_operation_xyz
x,y,z
-x,y,-z
-x,-y,-z
x,-y,z
1/2+x,1/2+y,z
1/2-x,1/2+y,-z
1/2-x,1/2-y,-z
1/2+x,1/2-y,z
loop_
_atom_site_type_symbol
_atom_site_label
_atom_site_fract_x
_atom_site_fract_y
_atom_site_fract_z
Si Si1 0.727876 0.327345 0.067013
Si Si2 0.778226 0.434809 0.444887
Si Si3 0.007588 0.289190 0.908819
Si Si4 0.948078 0.064633 0.112872
Si Si5 0.783237 0.218070 0.406845
Si Si6 0.711121 0.064115 0.127530
Si Si7 0.517666 0.601245 0.422535
Si Si8 0.022576 0.319024 0.384866
O O1 0.869873 0.325063 0.079014
O O2 0.824989 0.322812 0.219236
O O3 0.601096 0.272943 0.972126
O O4 0.615795 0.385425 0.987999
O O5 0.849954 0.500000 0.484802
O O6 0.641103 0.424527 0.280098
O O7 0.648532 0.430464 0.442653
O O8 0.915726 0.382741 0.547539
O O9 0.811198 0.283727 0.742935
O O10 0.000000 0.309250 0.000000
O O11 0.800356 0.065533 0.093489
O O12 0.949104 0.000000 0.079169
O O13 0.901408 0.163457 0.507075
O O14 0.891205 0.275618 0.493431
O O15 0.620856 0.209339 0.367125
O O16 0.825418 0.106321 0.257109
O O17 0.751048 0.000000 0.186054
O O18 0.500000 0.070747 0.000000
O O19 0.500000 0.571424 0.500000
#
# Coordination Sequence:
#
# PCOD9190420 Si02
#       8
#     8   8   8   8   8   8   8   8
#     4  10  21  35  55  84 112 145 184 230 280 328
#     4   9  18  32  51  73  99 138 182 224 274 330
#     4  10  22  38  58  82 111 147 188 230 277 335
#     4   9  18  33  52  75 105 142 184 226 273 333
#     4   9  19  35  52  73 103 144 184 224 274 325
#     4   9  19  33  48  70 106 152 193 231 275 323
#     4  10  20  31  46  71 103 141 184 224 270 326
#     4   9  18  34  53  75 106 139 178 227 276 325
#
# _framework density 22.91497
#
# number of rings (size 3 to 8) (size 9 to 14) (size 15 to 20)
#    0.000    2.625    0.000    1.875    0.000   14.000 
#    0.000    1.250    0.000    0.375    0.000    0.000 
#    0.000    4.500    0.000    0.000    0.000    0.000 
#
# Total GULP energy -178618.290502 kJ/mol
# GULP energy per Si atom -5581.821578 kJ/mol
# Density = 2.286281 g / cm^3
# Si number density = 22.914970 Si / 1000 Ang^3
#
#
#
# Elastic Constant Matrix: (Units=GPa)
#
#
# Indices 1 2 3 4 5 6 
#
# 1 47.7647 -3.5788 10.2654 0.0000 -4.9863 0.0001
# 2 -3.5788 170.6424 95.4850 0.0000 -10.9546 0.0000
# 3 10.2654 95.4850 161.2915 0.0002 -7.2653 0.0002
# 4 0.0000 0.0000 0.0002 24.0775 0.0001 -35.9767
# 5 -4.9863 -10.9546 -7.2653 0.0001 13.5987 0.0001
# 6 0.0001 0.0000 0.0002 -35.9767 0.0001 -22.7076
#
#
#
# Elastic Compliance Matrix: (Units=1/GPa)
#
#
# Indices 1 2 3 4 5 6 
#
# 1 0.022581 0.002430 -0.002474 0.000000 0.008916 0.000000
# 2 0.002430 0.009289 -0.005406 0.000000 0.005485 0.000000
# 3 -0.002474 -0.005406 0.009551 0.000000 -0.000160 0.000000
# 4 0.000000 0.000000 0.000000 0.012334 0.000000 -0.019541
# 5 0.008916 0.005485 -0.000160 0.000000 0.081139 0.000000
# 6 0.000000 0.000000 0.000000 -0.019541 0.000000 -0.013078
#
#
# Mechanical properties :
#
#
# Convention : Reuss Voigt Hill
#
# Bulk Modulus (GPa) = 32.76616 64.89355 48.82986
# Shear Modulus (GPa) = 34.99228 21.49553 28.24391
#
# Velocity S-wave (km/s) = 3.91199 3.06609 3.51458
# Velocity P-wave (km/s) = 5.89363 6.39651 6.15021
#
# Compressibility (1/GPa) = 0.03051929
#
# Stress axis : x y z
#
# Youngs Moduli (GPa) = 44.28584 107.65932 104.70247
#
# Poissons Ratio (x) = -0.26167 0.25908
# Poissons Ratio (y) = -0.10764 0.56607
# Poissons Ratio (z) = 0.10958 0.58206
#
# Static dielectric constant tensor:
#      x y z
#    x 1.832160 0.000000 -0.056430 
#    y 0.000000 1.855610 0.000000 
#    z -0.056430 0.000000 1.790350 
# 
# From -- ./inp_files/272865.got.cif
#   From: 2010.05.17/outbox.cif.g08.bks.cpg/sg12_137_cif.got.tgz:272865.got - 2010.06.03 13:09:07.
