data_PCOD9190461
_publ_section_title
;
Structure prediction by ZEFSAII (Michael W. Deem and Ramdas Pophale) SiO2 
 PCOD9190461
Probable space group: C 2/M
;
_chemical_formula_sum "Si O2"
_cell_formula_units_Z 64
_cell_length_a 20.170901
_cell_length_b 7.327370
_cell_length_c 20.350776
_cell_angle_alpha 90.000000
_cell_angle_beta 72.623817
_cell_angle_gamma 90.000000
_cell_volume 2870.573652
_symmetry_space_group_name_H-M "C 2/M"
_symmetry_group_IT_number 12
_symmetry_cell_setting 'monoclinic'
loop_
_space_group_symop_operation_xyz
x,y,z
-x,y,-z
-x,-y,-z
x,-y,z
1/2+x,1/2+y,z
1/2-x,1/2+y,-z
1/2-x,1/2-y,-z
1/2+x,1/2-y,z
loop_
_atom_site_type_symbol
_atom_site_label
_atom_site_fract_x
_atom_site_fract_y
_atom_site_fract_z
Si Si1 0.961961 0.221817 0.234683
Si Si2 0.419252 0.722493 0.018427
Si Si3 0.317789 0.711836 0.778071
Si Si4 0.173114 0.782224 0.494989
Si Si5 0.396661 0.722067 0.879875
Si Si6 0.112918 0.776949 0.376165
Si Si7 0.961226 0.222486 0.385942
Si Si8 0.843218 0.779604 0.173268
O O1 0.966600 0.281382 0.308533
O O2 0.892587 0.280935 0.218009
O O3 0.028415 0.274382 0.171757
O O4 0.962215 0.000000 0.235695
O O5 0.418854 0.500000 0.019501
O O6 0.389587 0.783542 0.956951
O O7 0.500000 0.776457 0.000000
O O8 0.375896 0.782438 0.094480
O O9 0.339499 0.500000 0.773129
O O10 0.341799 0.785868 0.841577
O O11 0.355361 0.787777 0.702413
O O12 0.235718 0.722652 0.795159
O O13 0.250000 0.750000 0.500000
O O14 0.157309 0.715810 0.425798
O O15 0.110299 0.715262 0.559832
O O16 0.165683 0.000000 0.494925
O O17 0.394710 0.500000 0.883815
O O18 0.031787 0.725002 0.402712
O O19 0.115013 0.000000 0.375226
O O20 0.960325 0.000000 0.385992
O O21 0.844449 0.000000 0.172500
#
# Coordination Sequence:
#
# PCOD9190461 Si02
#       8
#     8   8   8   8   8   8   8   8
#     4   9  15  26  47  75  97 119 162 212 243 272
#     4   9  15  26  46  72  97 123 161 208 248 281
#     4  10  20  33  50  72 100 132 162 198 245 293
#     4  10  21  34  51  77 105 130 158 198 246 291
#     4   9  15  27  48  72  96 124 165 208 241 280
#     4   9  17  32  52  73  97 128 168 206 236 278
#     4   9  16  29  51  75  96 124 167 209 238 272
#     4  10  20  31  48  75 103 127 158 204 251 291
#
# _framework density 22.295193999999999
#
# number of rings (size 3 to 8) (size 9 to 14) (size 15 to 20)
#    0.000    2.625    2.500    0.375    1.750    2.000 
#    0.000    0.000    0.000    3.375    0.000    0.000 
#    0.000    0.000    0.000    0.000    0.000    0.000 
#
# Total GULP energy -178765.735904 kJ/mol
# GULP energy per Si atom -5586.429247 kJ/mol
# Density = 2.224445 g / cm^3
# Si number density = 22.295194 Si / 1000 Ang^3
#
#
#
# Elastic Constant Matrix: (Units=GPa)
#
#
# Indices 1 2 3 4 5 6 
#
# 1 168.5426 -8.0168 61.2191 0.0000 18.7587 0.0001
# 2 -8.0168 84.8959 3.2695 0.0001 4.8543 0.0002
# 3 61.2191 3.2695 112.7674 0.0000 17.2654 0.0000
# 4 0.0000 0.0001 0.0000 -13.8818 0.0000 -6.4859
# 5 18.7587 4.8543 17.2654 0.0000 44.5812 0.0000
# 6 0.0001 0.0002 0.0000 -6.4859 0.0000 14.5465
#
#
#
# Elastic Compliance Matrix: (Units=1/GPa)
#
#
# Indices 1 2 3 4 5 6 
#
# 1 0.007585 0.000968 -0.003871 0.000000 -0.001798 0.000000
# 2 0.000968 0.011979 -0.000649 0.000000 -0.001460 0.000000
# 3 -0.003871 -0.000649 0.011404 0.000000 -0.002717 0.000000
# 4 0.000000 0.000000 0.000000 -0.059617 0.000000 -0.026582
# 5 -0.001798 -0.001460 -0.002717 0.000000 0.024399 0.000000
# 6 0.000000 0.000000 0.000000 -0.026582 0.000000 0.056893
#
#
# Mechanical properties :
#
#
# Convention : Reuss Voigt Hill
#
# Bulk Modulus (GPa) = 41.90297 53.23883 47.57090
# Shear Modulus (GPa) = 73.85372 29.69813 51.77592
#
# Velocity S-wave (km/s) = 5.76171 3.65367 4.82424
# Velocity P-wave (km/s) = 7.94346 6.45988 7.23977
#
# Compressibility (1/GPa) = 0.02386465
#
# Stress axis : x y z
#
# Youngs Moduli (GPa) = 131.83341 83.47898 87.68883
#
# Poissons Ratio (x) = -0.08082 0.33942
# Poissons Ratio (y) = -0.12764 0.05694
# Poissons Ratio (z) = 0.51029 0.05421
#
# Static dielectric constant tensor:
#      x y z
#    x 1.776810 0.000000 0.028220 
#    y 0.000000 1.895600 0.000000 
#    z 0.028220 0.000000 1.784670 
# 
# From -- ./inp_files/309882.got.cif
#   From: 2010.05.17/outbox.cif.g08.bks.cpg/sg12_155_cif.got.tgz:309882.got - 2010.06.03 13:09:07.
