data_PCOD9190096
_publ_section_title
;
Structure prediction by ZEFSAII (Michael W. Deem and Ramdas Pophale) SiO2 
 PCOD9190096
Probable space group: C 2/M
;
_chemical_formula_sum "Si O2"
_cell_formula_units_Z 56
_cell_length_a 21.446735
_cell_length_b 17.940893
_cell_length_c 21.887410
_cell_angle_alpha 90.000000
_cell_angle_beta 159.749090
_cell_angle_gamma 90.000000
_cell_volume 2915.018490
_symmetry_space_group_name_H-M "C 2/M"
_symmetry_group_IT_number 12
_symmetry_cell_setting 'monoclinic'
loop_
_space_group_symop_operation_xyz
x,y,z
-x,y,-z
-x,-y,-z
x,-y,z
1/2+x,1/2+y,z
1/2-x,1/2+y,-z
1/2-x,1/2-y,-z
1/2+x,1/2-y,z
loop_
_atom_site_type_symbol
_atom_site_label
_atom_site_fract_x
_atom_site_fract_y
_atom_site_fract_z
Si Si1 0.632537 0.087636 0.917065
Si Si2 0.644835 0.166068 0.798891
Si Si3 0.215985 0.587451 0.202583
Si Si4 0.904648 0.589039 0.476556
Si Si5 0.098331 0.841179 0.742565
Si Si6 0.506678 0.587643 0.932922
Si Si7 0.753350 0.911698 0.377531
O O1 0.619559 0.133749 0.843139
O O2 0.452323 0.099799 0.791333
O O3 0.644492 0.000000 0.913891
O O4 0.802147 0.112782 0.113073
O O5 0.499550 0.131181 0.618894
O O6 0.626079 0.254537 0.780546
O O7 0.839720 0.138738 0.954284
O O8 0.260027 0.500000 0.232122
O O9 0.308748 0.635882 0.236028
O O10 0.273370 0.606531 0.324218
O O11 0.000000 0.594414 0.000000
O O12 0.930440 0.500000 0.508131
O O13 0.691966 0.603497 0.275518
O O14 0.000000 0.609358 0.500000
O O15 0.891225 0.864651 0.544457
O O16 0.549290 0.500000 0.960539
O O17 0.500000 0.597048 0.000000
O O18 0.792791 0.000000 0.420824
#
# Coordination Sequence:
#
# PCOD9190096 Si02
#       7
#     8   8   8   8   8   8   8
#     4  11  24  45  67  88 122 171 222 264 304 370
#     4  12  26  40  61  96 136 166 204 258 328 388
#     4  10  19  39  68  95 121 162 215 263 308 363
#     4  10  20  38  63  88 119 164 219 269 310 361
#     4  12  25  40  63  94 134 167 199 259 332 386
#     4  10  20  39  66  90 118 166 221 264 302 361
#     4  10  22  41  68  95 122 164 219 266 307 370
#
# _framework density 19.210856
#
# number of rings (size 3 to 8) (size 9 to 14) (size 15 to 20)
#    0.000    1.286    2.857    3.429    0.000    5.714 
#    0.000    1.429    0.000    0.000    0.000    0.000 
#    0.000    0.000    0.000    0.000    0.000    0.000 
#
# Total GULP energy -156618.040500 kJ/mol
# GULP energy per Si atom -5593.501446 kJ/mol
# Density = 1.916713 g / cm^3
# Si number density = 19.210856 Si / 1000 Ang^3
#
#
#
# Elastic Constant Matrix: (Units=GPa)
#
#
# Indices 1 2 3 4 5 6 
#
# 1 68.5895 39.8664 15.9139 -0.0079 -28.0939 -0.0028
# 2 39.8664 79.9997 41.6301 -0.0274 -13.9704 0.0001
# 3 15.9139 41.6301 99.8143 -0.0644 -16.2895 -0.0545
# 4 -0.0079 -0.0274 -0.0644 114.3966 0.0516 22.9104
# 5 -28.0939 -13.9704 -16.2895 0.0516 21.9462 0.0359
# 6 -0.0028 0.0001 -0.0545 22.9104 0.0359 221.2578
#
#
#
# Elastic Compliance Matrix: (Units=1/GPa)
#
#
# Indices 1 2 3 4 5 6 
#
# 1 0.043578 -0.017254 0.008602 -0.000019 0.051186 -0.000004
# 2 -0.017254 0.023507 -0.009348 0.000006 -0.014061 -0.000001
# 3 0.008602 -0.009348 0.015215 -0.000001 0.016354 0.000001
# 4 -0.000019 0.000006 -0.000001 0.008927 -0.000040 -0.000924
# 5 0.051186 -0.014061 0.016354 -0.000040 0.114278 -0.000010
# 6 -0.000004 -0.000001 0.000001 -0.000924 -0.000010 0.004615
#
#
# Mechanical properties :
#
#
# Convention : Reuss Voigt Hill
#
# Bulk Modulus (GPa) = 21.59842 49.24713 35.42278
# Shear Modulus (GPa) = 19.11653 81.58633 50.35143
#
# Velocity S-wave (km/s) = 3.15793 6.52388 5.12511
# Velocity P-wave (km/s) = 4.95620 9.07958 7.31446
#
# Compressibility (1/GPa) = 0.04629968
#
# Stress axis : x y z
#
# Youngs Moduli (GPa) = 22.94748 42.54026 65.72465
#
# Poissons Ratio (x) = 0.73397 -0.56535
# Poissons Ratio (y) = 0.39593 0.61441
# Poissons Ratio (z) = -0.19739 0.39768
#
# Static dielectric constant tensor:
#      x y z
#    x 1.646920 -0.000010 0.009890 
#    y -0.000010 1.640320 -0.000010 
#    z 0.009890 -0.000010 1.662590 
# 
# From -- ./inp_files/322635.got.cif
#   From: 2010.05.17/outbox.cif.g08.bks.cpg/sg12_162_cif.got.tgz:322635.got - 2010.06.03 13:09:07.
