data_PCOD9190871
_publ_section_title
;
Structure prediction by ZEFSAII (Michael W. Deem and Ramdas Pophale) SiO2 
 PCOD9190871
Probable space group: C 2/M
;
_chemical_formula_sum "Si O2"
_cell_formula_units_Z 64
_cell_length_a 21.758176
_cell_length_b 22.958852
_cell_length_c 10.661039
_cell_angle_alpha 90.000000
_cell_angle_beta 36.510138
_cell_angle_gamma 90.000000
_cell_volume 3168.572245
_symmetry_space_group_name_H-M "C 2/M"
_symmetry_group_IT_number 12
_symmetry_cell_setting 'monoclinic'
loop_
_space_group_symop_operation_xyz
x,y,z
-x,y,-z
-x,-y,-z
x,-y,z
1/2+x,1/2+y,z
1/2-x,1/2+y,-z
1/2-x,1/2-y,-z
1/2+x,1/2-y,z
loop_
_atom_site_type_symbol
_atom_site_label
_atom_site_fract_x
_atom_site_fract_y
_atom_site_fract_z
Si Si1 0.380683 0.626387 0.735136
Si Si2 0.320559 0.678915 0.498967
Si Si3 0.746844 0.931478 0.140043
Si Si4 0.626897 0.145622 0.496010
Si Si5 0.760741 0.933233 0.708863
Si Si6 0.889622 0.241201 0.621251
Si Si7 0.077795 0.431385 0.193290
Si Si8 0.383729 0.779072 0.232983
O O1 0.500000 0.628525 0.500000
O O2 0.328532 0.584217 0.718592
O O3 0.336795 0.692659 0.796039
O O4 0.348341 0.599979 0.920192
O O5 0.301431 0.610699 0.536623
O O6 0.395973 0.702889 0.482896
O O7 0.357665 0.713027 0.316404
O O8 0.205421 0.703597 0.717950
O O9 0.709373 0.904124 0.331372
O O10 0.654263 0.921976 0.187481
O O11 0.762681 0.000000 0.121237
O O12 0.651423 0.196797 0.355294
O O13 0.516033 0.114211 0.656322
O O14 0.630225 0.177661 0.624658
O O15 0.772213 0.000000 0.655833
O O16 0.645320 0.924566 0.954753
O O17 0.000000 0.253843 0.500000
O O18 0.044130 0.500000 0.255568
O O19 0.500000 0.784256 0.000000
#
# Coordination Sequence:
#
# PCOD9190871 Si02
#       8
#     8   8   8   8   8   8   8   8
#     4   9  18  33  50  73 107 143 179 211 253 318
#     4   9  19  37  56  78 107 137 177 227 267 313
#     4  10  20  32  49  75 109 148 178 208 261 323
#     4  11  20  32  52  79 109 135 174 224 267 315
#     4   9  17  31  53  78 102 135 176 215 261 313
#     4   9  18  33  54  82 109 135 168 216 272 316
#     4   9  17  30  50  76 110 146 171 201 257 331
#     4  10  21  38  59  77 100 145 191 222 268 325
#
# _framework density 20.198371000000002
#
# number of rings (size 3 to 8) (size 9 to 14) (size 15 to 20)
#    0.000    2.500    0.000    3.375    0.000    2.500 
#    0.000   26.250    0.000    3.750    0.000    0.000 
#    0.000    0.000    0.000    0.000    0.000    0.000 
#
# Total GULP energy -178188.315923 kJ/mol
# GULP energy per Si atom -5568.384873 kJ/mol
# Density = 2.015240 g / cm^3
# Si number density = 20.198371 Si / 1000 Ang^3
#
#
#
# Elastic Constant Matrix: (Units=GPa)
#
#
# Indices 1 2 3 4 5 6 
#
# 1 33.5826 12.2019 16.9348 0.0000 -7.9178 0.0000
# 2 12.2019 117.7136 24.1068 0.0000 11.3235 0.0000
# 3 16.9348 24.1068 67.3931 -0.0001 -5.3023 0.0001
# 4 0.0000 0.0000 -0.0001 28.1978 0.0000 1.7667
# 5 -7.9178 11.3235 -5.3023 0.0000 16.8153 0.0000
# 6 0.0000 0.0000 0.0001 1.7667 0.0000 7.3485
#
#
#
# Elastic Compliance Matrix: (Units=1/GPa)
#
#
# Indices 1 2 3 4 5 6 
#
# 1 0.039448 -0.004590 -0.006733 0.000000 0.019543 0.000000
# 2 -0.004590 0.010693 -0.003495 0.000000 -0.010464 0.000000
# 3 -0.006733 -0.003495 0.018167 0.000000 0.004912 0.000000
# 4 0.000000 0.000000 0.000000 0.036006 0.000000 -0.008657
# 5 0.019543 -0.010464 0.004912 0.000000 0.077267 0.000000
# 6 0.000000 0.000000 0.000000 -0.008657 0.000000 0.138164
#
#
# Mechanical properties :
#
#
# Convention : Reuss Voigt Hill
#
# Bulk Modulus (GPa) = 25.85864 36.13070 30.99467
# Shear Modulus (GPa) = 13.80179 21.50204 17.65192
#
# Velocity S-wave (km/s) = 2.61686 3.26627 2.95943
# Velocity P-wave (km/s) = 4.68623 5.67023 5.20155
#
# Compressibility (1/GPa) = 0.03867179
#
# Stress axis : x y z
#
# Youngs Moduli (GPa) = 25.34982 93.51619 55.04533
#
# Poissons Ratio (x) = 0.42925 0.37063
# Poissons Ratio (y) = 0.11636 0.19238
# Poissons Ratio (z) = 0.17068 0.32683
#
# Static dielectric constant tensor:
#      x y z
#    x 1.779270 0.000000 0.002620 
#    y 0.000000 1.738360 0.000000 
#    z 0.002620 0.000000 1.766280 
# 
# From -- ./inp_files/178399.got.cif
#   From: 2010.05.17/outbox.cif.g08.bks.cpg/sg12_90_cif.got.tgz:178399.got - 2010.06.03 13:09:07.
