data_PCOD9190070
_publ_section_title
;
Structure prediction by ZEFSAII (Michael W. Deem and Ramdas Pophale) SiO2 
 PCOD9190070
Probable space group: C 2/M
;
_chemical_formula_sum "Si O2"
_cell_formula_units_Z 42
_cell_length_a 19.690542
_cell_length_b 7.469215
_cell_length_c 11.897205
_cell_angle_alpha 90.000000
_cell_angle_beta 114.550545
_cell_angle_gamma 90.000000
_cell_volume 1591.569767
_symmetry_space_group_name_H-M "C 2/M"
_symmetry_group_IT_number 12
_symmetry_cell_setting 'monoclinic'
loop_
_space_group_symop_operation_xyz
x,y,z
-x,y,-z
-x,-y,-z
x,-y,z
1/2+x,1/2+y,z
1/2-x,1/2+y,-z
1/2-x,1/2-y,-z
1/2+x,1/2-y,z
loop_
_atom_site_type_symbol
_atom_site_label
_atom_site_fract_x
_atom_site_fract_y
_atom_site_fract_z
Si Si1 0.178359 0.213343 0.370730
Si Si2 0.548633 0.793774 0.891711
Si Si3 0.145768 0.784640 0.759166
Si Si4 0.000000 0.000000 0.000000
Si Si5 0.193248 0.292712 0.120897
Si Si6 0.926269 0.783041 0.514037
O O1 0.250000 0.250000 0.500000
O O2 0.185942 0.286994 0.250449
O O3 0.105422 0.281848 0.389207
O O4 0.173143 0.000000 0.356207
O O5 0.575840 0.781260 0.782744
O O6 0.488059 0.657730 0.894884
O O7 0.533388 0.000000 0.908026
O O8 0.622174 0.714621 0.008313
O O9 0.225883 0.714919 0.854250
O O10 0.136707 0.742697 0.622351
O O11 0.145482 0.000000 0.768176
O O12 0.192890 0.500000 0.086133
O O13 0.000000 0.718578 0.500000
O O14 0.934071 0.000000 0.529155
#
# Coordination Sequence:
#
# PCOD9190070 Si02
#       6
#     8   8   8   2   8   8
#     4  11  21  36  61  92 128 174 222 276 332 394
#     4  11  25  44  68  99 132 175 223 277 333 402
#     4  10  19  39  66  94 133 174 214 278 337 394
#     4  12  26  48  68  90 142 176 220 262 338 416
#     4  10  22  40  65  97 133 168 220 282 338 395
#     4   9  19  36  59  91 127 170 220 267 331 399
#
# _framework density 26.389040999999999
#
# number of rings (size 3 to 8) (size 9 to 14) (size 15 to 20)
#    0.000    1.714    2.857    1.429    1.333    2.286 
#    3.429    0.000    0.000    4.000    0.000    0.000 
#    0.000    0.000    0.000    0.000    0.000    0.000 
#
# Total GULP energy -117310.394279 kJ/mol
# GULP energy per Si atom -5586.209251 kJ/mol
# Density = 2.632898 g / cm^3
# Si number density = 26.389041 Si / 1000 Ang^3
#
#
#
# Elastic Constant Matrix: (Units=GPa)
#
#
# Indices 1 2 3 4 5 6 
#
# 1 113.7357 1.9603 9.5464 0.0000 -24.6019 0.0000
# 2 1.9603 133.1445 4.1842 0.0000 -5.1615 0.0000
# 3 9.5464 4.1842 88.8861 0.0000 -27.3563 0.0000
# 4 0.0000 0.0000 0.0000 17.1630 0.0000 -16.9777
# 5 -24.6019 -5.1615 -27.3563 0.0000 54.4048 0.0000
# 6 0.0000 0.0000 0.0000 -16.9777 0.0000 4.3507
#
#
#
# Elastic Compliance Matrix: (Units=1/GPa)
#
#
# Indices 1 2 3 4 5 6 
#
# 1 0.009756 0.000023 0.000366 0.000000 0.004598 0.000000
# 2 0.000023 0.007540 -0.000159 0.000000 0.000646 0.000000
# 3 0.000366 -0.000159 0.013327 0.000000 0.006852 0.000000
# 4 0.000000 0.000000 0.000000 -0.020371 0.000000 -0.079495
# 5 0.004598 0.000646 0.006852 0.000000 0.023967 0.000000
# 6 0.000000 0.000000 0.000000 -0.079495 0.000000 -0.080362
#
#
# Mechanical properties :
#
#
# Convention : Reuss Voigt Hill
#
# Bulk Modulus (GPa) = 32.17007 40.79425 36.48216
# Shear Modulus (GPa) = -137.95602 36.52206 -50.71698
#
# Velocity S-wave (km/s) = -7.23818 3.72423 -4.38870
# Velocity P-wave (km/s) = 7.59196 5.82971 3.43892
#
# Compressibility (1/GPa) = 0.03108480
#
# Stress axis : x y z
#
# Youngs Moduli (GPa) = 102.50379 132.62029 75.03412
#
# Poissons Ratio (x) = -0.00306 -0.02748
# Poissons Ratio (y) = -0.00237 0.01190
# Poissons Ratio (z) = -0.03754 0.02103
#
# Static dielectric constant tensor:
#      x y z
#    x 2.243220 0.000000 0.045230 
#    y 0.000000 1.975940 0.000000 
#    z 0.045230 0.000000 2.098160 
# 
# From -- ./inp_files/162992.got.cif
#   From: 2010.05.17/outbox.cif.g08.bks.cpg/sg12_82_cif.got.tgz:162992.got - 2010.06.03 13:09:07.
