data_PCOD9190429
_publ_section_title
;
Structure prediction by ZEFSAII (Michael W. Deem and Ramdas Pophale) SiO2 
 PCOD9190429
Probable space group: C 2/M
;
_chemical_formula_sum "Si O2"
_cell_formula_units_Z 56
_cell_length_a 22.997942
_cell_length_b 26.198957
_cell_length_c 19.217327
_cell_angle_alpha 90.000000
_cell_angle_beta 162.936935
_cell_angle_gamma 90.000000
_cell_volume 3397.518058
_symmetry_space_group_name_H-M "C 2/M"
_symmetry_group_IT_number 12
_symmetry_cell_setting 'monoclinic'
loop_
_space_group_symop_operation_xyz
x,y,z
-x,y,-z
-x,-y,-z
x,-y,z
1/2+x,1/2+y,z
1/2-x,1/2+y,-z
1/2-x,1/2-y,-z
1/2+x,1/2-y,z
loop_
_atom_site_type_symbol
_atom_site_label
_atom_site_fract_x
_atom_site_fract_y
_atom_site_fract_z
Si Si1 0.411323 0.438931 0.822661
Si Si2 0.916859 0.890030 0.116950
Si Si3 0.259969 0.810162 0.519934
Si Si4 0.354899 0.058114 0.994312
Si Si5 0.516665 0.109974 0.316577
Si Si6 0.417824 0.137049 0.835662
Si Si7 0.076059 0.058114 0.436653
O O1 0.401603 0.500000 0.803241
O O2 0.545915 0.415091 0.915360
O O3 0.192963 0.415082 0.562415
O O4 0.500000 0.427606 0.000000
O O5 0.046739 0.838287 0.269706
O O6 0.014245 0.926927 0.287056
O O7 0.687833 0.883054 0.875657
O O8 0.250000 0.750000 0.500000
O O9 0.399220 0.838282 0.622189
O O10 0.348176 0.824444 0.696362
O O11 0.468629 0.073074 0.195824
O O12 0.420785 0.099268 0.013636
O O13 0.401530 0.000000 0.027848
O O14 0.123185 0.061563 0.746357
O O15 0.235051 0.099271 0.642207
O O16 0.500000 0.160958 0.000000
O O17 0.148877 0.000000 0.522571
#
# Coordination Sequence:
#
# PCOD9190429 Si02
#       7
#     8   8   8   8   8   8   8
#     4  10  20  31  46  73 106 136 167 207 256 306
#     4   9  18  33  52  72  97 130 168 209 250 298
#     4   9  19  36  55  74  94 123 167 214 254 298
#     4   9  17  29  47  71  98 130 163 188 218 276
#     4   9  18  33  52  72  97 130 168 209 250 298
#     4  10  20  32  47  69  98 127 154 193 244 286
#     4   9  17  29  47  71  98 130 163 188 218 276
#
# _framework density 16.482620000000001
#
# number of rings (size 3 to 8) (size 9 to 14) (size 15 to 20)
#    0.000    2.714    0.000    2.143    0.000    4.571 
#    0.000    5.714    0.000    0.000    0.000    0.000 
#    0.000    0.000    0.000    0.000    0.000    0.000 
#
# Total GULP energy -156133.607603 kJ/mol
# GULP energy per Si atom -5576.200272 kJ/mol
# Density = 1.644510 g / cm^3
# Si number density = 16.482620 Si / 1000 Ang^3
#
#
#
# Elastic Constant Matrix: (Units=GPa)
#
#
# Indices 1 2 3 4 5 6 
#
# 1 92.6826 43.8784 74.5082 -0.0003 -6.1178 -0.0004
# 2 43.8784 112.3702 41.2433 -0.0004 -5.9093 -0.0001
# 3 74.5082 41.2433 91.5749 -0.0020 3.5391 -0.0004
# 4 -0.0003 -0.0004 -0.0020 9.8926 -0.0006 2.0554
# 5 -6.1178 -5.9093 3.5391 -0.0006 29.2159 -0.0004
# 6 -0.0004 -0.0001 -0.0004 2.0554 -0.0004 8.9671
#
#
#
# Elastic Compliance Matrix: (Units=1/GPa)
#
#
# Indices 1 2 3 4 5 6 
#
# 1 0.034990 -0.003047 -0.027484 -0.000004 0.010040 0.000002
# 2 -0.003047 0.011152 -0.002618 0.000000 0.001935 0.000000
# 3 -0.027484 -0.002618 0.034867 0.000006 -0.010508 -0.000001
# 4 -0.000004 0.000000 0.000006 0.106141 0.000000 -0.024329
# 5 0.010040 0.001935 -0.010508 0.000000 0.037995 0.000001
# 6 0.000002 0.000000 -0.000001 -0.024329 0.000001 0.117095
#
#
# Mechanical properties :
#
#
# Convention : Reuss Voigt Hill
#
# Bulk Modulus (GPa) = 67.98222 68.43194 68.20708
# Shear Modulus (GPa) = 12.09361 18.74829 15.42095
#
# Velocity S-wave (km/s) = 2.71166 3.37628 3.06206
# Velocity P-wave (km/s) = 7.15112 7.53703 7.34661
#
# Compressibility (1/GPa) = 0.01470973
#
# Stress axis : x y z
#
# Youngs Moduli (GPa) = 28.57980 89.67300 28.68013
#
# Poissons Ratio (x) = 0.27325 0.78826
# Poissons Ratio (y) = 0.08709 0.07508
# Poissons Ratio (z) = 0.78550 0.23475
#
# Static dielectric constant tensor:
#      x y z
#    x 1.560780 0.000000 0.006110 
#    y 0.000000 1.519470 0.000000 
#    z 0.006110 0.000000 1.563540 
# 
# From -- ./inp_files/219159.got.cif
#   From: 2010.05.17/outbox.cif.g08.bks.cpg/sg12_110_cif.got.tgz:219159.got - 2010.06.03 13:09:07.
