data_PCOD9190042
_publ_section_title
;
Structure prediction by ZEFSAII (Michael W. Deem and Ramdas Pophale) SiO2 
 PCOD9190042
Probable space group: C 2/M
;
_chemical_formula_sum "Si O2"
_cell_formula_units_Z 44
_cell_length_a 9.155036
_cell_length_b 27.341534
_cell_length_c 11.190626
_cell_angle_alpha 90.000000
_cell_angle_beta 128.459602
_cell_angle_gamma 90.000000
_cell_volume 2193.436573
_symmetry_space_group_name_H-M "C 2/M"
_symmetry_group_IT_number 12
_symmetry_cell_setting 'monoclinic'
loop_
_space_group_symop_operation_xyz
x,y,z
-x,y,-z
-x,-y,-z
x,-y,z
1/2+x,1/2+y,z
1/2-x,1/2+y,-z
1/2-x,1/2-y,-z
1/2+x,1/2-y,z
loop_
_atom_site_type_symbol
_atom_site_label
_atom_site_fract_x
_atom_site_fract_y
_atom_site_fract_z
Si Si1 0.208622 0.894643 0.737457
Si Si2 0.000000 0.338567 0.000000
Si Si3 0.137677 0.500000 0.458777
Si Si4 0.698139 0.795145 0.639472
Si Si5 0.862797 0.500000 0.815539
Si Si6 0.275086 0.388852 0.522151
Si Si7 0.572227 0.231962 0.831722
O O1 0.287134 0.879743 0.646535
O O2 0.995629 0.881027 0.635337
O O3 0.235806 0.952391 0.757272
O O4 0.319501 0.872170 0.904405
O O5 0.020674 0.305642 0.125263
O O6 0.056660 0.500000 0.280429
O O7 0.239364 0.446970 0.524007
O O8 0.000000 0.500000 0.500000
O O9 0.500000 0.770087 0.500000
O O10 0.699182 0.848293 0.575587
O O11 0.665764 0.793576 0.764939
O O12 0.898382 0.768879 0.713976
O O13 0.000000 0.500000 0.000000
O O14 0.750000 0.250000 0.000000
#
# Coordination Sequence:
#
# PCOD9190042 Si02
#       7
#     8   4   4   8   4   8   8
#     4  10  21  38  67  96 131 168 217 273 325 398
#     4  12  22  39  64  92 126 175 220 264 336 394
#     4  10  21  39  69  96 133 173 214 271 333 402
#     4  12  25  44  67  97 132 174 228 281 334 396
#     4  10  19  39  65 101 130 171 218 271 329 405
#     4  10  22  41  66  99 130 169 220 270 333 392
#     4  12  25  45  66  91 131 177 224 276 338 400
#
# _framework density 20.059846
#
# number of rings (size 3 to 8) (size 9 to 14) (size 15 to 20)
#    0.000    1.091    2.727    3.818    0.000    3.636 
#    0.000    0.000    0.000    1.091    0.000    0.000 
#    0.000    0.000    0.000    0.000    0.000    0.000 
#
# Total GULP energy -122469.687251 kJ/mol
# GULP energy per Si atom -5566.803966 kJ/mol
# Density = 2.001419 g / cm^3
# Si number density = 20.059846 Si / 1000 Ang^3
#
#
#
# Elastic Constant Matrix: (Units=GPa)
#
#
# Indices 1 2 3 4 5 6 
#
# 1 95.2204 47.6242 20.4616 0.0000 -12.3771 0.0000
# 2 47.6242 117.6728 47.2469 0.0000 -5.1956 0.0000
# 3 20.4616 47.2469 95.9447 0.0000 3.2308 0.0000
# 4 0.0000 0.0000 0.0000 43.7587 0.0000 -20.5442
# 5 -12.3771 -5.1956 3.2308 0.0000 39.8845 0.0000
# 6 0.0000 0.0000 0.0000 -20.5442 0.0000 84.8519
#
#
#
# Elastic Compliance Matrix: (Units=1/GPa)
#
#
# Indices 1 2 3 4 5 6 
#
# 1 0.013664 -0.005175 -0.000487 0.000000 0.003605 0.000000
# 2 -0.005175 0.012684 -0.005158 0.000000 0.000464 0.000000
# 3 -0.000487 -0.005158 0.013130 0.000000 -0.001887 0.000000
# 4 0.000000 0.000000 0.000000 0.025783 0.000000 0.006243
# 5 0.003605 0.000464 -0.001887 0.000000 0.026405 0.000000
# 6 0.000000 0.000000 0.000000 0.006243 0.000000 0.013297
#
#
# Mechanical properties :
#
#
# Convention : Reuss Voigt Hill
#
# Bulk Modulus (GPa) = 56.06195 59.94481 58.00338
# Shear Modulus (GPa) = 37.72196 46.59935 42.16066
#
# Velocity S-wave (km/s) = 4.34114 4.82500 4.58945
# Velocity P-wave (km/s) = 7.28940 7.80952 7.55394
#
# Compressibility (1/GPa) = 0.01783741
#
# Stress axis : x y z
#
# Youngs Moduli (GPa) = 73.18721 78.83839 76.16088
#
# Poissons Ratio (x) = 0.40800 0.03708
# Poissons Ratio (y) = 0.37876 0.39285
# Poissons Ratio (z) = 0.03563 0.40666
#
# Static dielectric constant tensor:
#      x y z
#    x 1.751850 0.000000 0.018180 
#    y 0.000000 1.772170 0.000000 
#    z 0.018180 0.000000 1.785260 
# 
# From -- ./inp_files/41758.got.cif
#   From: 2010.05.17/outbox.cif.g08.bks.cpg/sg12_21_cif.got.tgz:41758.got - 2010.06.03 13:09:07.
