data_PCOD9190861
_publ_section_title
;
Structure prediction by ZEFSAII (Michael W. Deem and Ramdas Pophale) SiO2 
 PCOD9190861
Probable space group: C 2/M
;
_chemical_formula_sum "Si O2"
_cell_formula_units_Z 56
_cell_length_a 28.566248
_cell_length_b 8.707341
_cell_length_c 14.218144
_cell_angle_alpha 90.000000
_cell_angle_beta 60.310314
_cell_angle_gamma 90.000000
_cell_volume 3072.287319
_symmetry_space_group_name_H-M "C 2/M"
_symmetry_group_IT_number 12
_symmetry_cell_setting 'monoclinic'
loop_
_space_group_symop_operation_xyz
x,y,z
-x,y,-z
-x,-y,-z
x,-y,z
1/2+x,1/2+y,z
1/2-x,1/2+y,-z
1/2-x,1/2-y,-z
1/2+x,1/2-y,z
loop_
_atom_site_type_symbol
_atom_site_label
_atom_site_fract_x
_atom_site_fract_y
_atom_site_fract_z
Si Si1 0.081032 0.813103 0.471283
Si Si2 0.973001 0.815109 0.671504
Si Si3 0.817957 0.682914 0.126607
Si Si4 0.221166 0.315817 0.121550
Si Si5 0.192869 0.181567 0.671681
Si Si6 0.883169 0.315396 0.876548
Si Si7 0.187632 0.184876 0.464014
O O1 0.059071 0.765627 0.391267
O O2 0.140270 0.761055 0.442121
O O3 0.034837 0.768345 0.592398
O O4 0.082430 0.000000 0.469336
O O5 0.940872 0.750303 0.791920
O O6 0.971549 0.000000 0.676428
O O7 0.814978 0.500000 0.125026
O O8 0.757676 0.747442 0.167369
O O9 0.835055 0.736728 0.212561
O O10 0.856876 0.735060 0.002195
O O11 0.224303 0.500000 0.120905
O O12 0.159353 0.270687 0.164056
O O13 0.250000 0.250000 0.000000
O O14 0.170777 0.214547 0.589277
O O15 0.255056 0.236105 0.607697
O O16 0.190876 0.000000 0.688736
O O17 0.885382 0.500000 0.876167
O O18 0.194800 0.000000 0.446841
#
# Coordination Sequence:
#
# PCOD9190861 Si02
#       7
#     8   8   8   8   8   8   8
#     4   8  16  32  51  73  97 125 161 199 238 285
#     4   9  17  30  51  75  97 124 163 199 232 287
#     4  10  20  33  48  66  95 134 166 200 245 292
#     4   9  17  29  43  64  95 128 162 197 232 282
#     4  10  20  32  49  75 100 125 164 206 241 289
#     4   9  19  32  45  67  99 128 157 196 242 288
#     4   9  18  34  53  71  98 132 161 197 247 294
#
# _framework density 18.227461999999999
#
# number of rings (size 3 to 8) (size 9 to 14) (size 15 to 20)
#    0.000    2.857    0.000    3.000    2.000    4.000 
#    0.000    2.143    0.000    0.857    0.000    6.000 
#    0.000    0.000    0.000    0.000    0.000    0.000 
#
# Total GULP energy -155998.842141 kJ/mol
# GULP energy per Si atom -5571.387219 kJ/mol
# Density = 1.818598 g / cm^3
# Si number density = 18.227462 Si / 1000 Ang^3
#
#
#
# Elastic Constant Matrix: (Units=GPa)
#
#
# Indices 1 2 3 4 5 6 
#
# 1 33.2724 -0.5634 -5.2614 0.0000 -2.1884 0.0000
# 2 -0.5634 16.4850 11.4949 0.0000 3.5722 0.0000
# 3 -5.2614 11.4949 73.9143 0.0000 -3.1383 0.0000
# 4 0.0000 0.0000 0.0000 25.3545 0.0000 0.0104
# 5 -2.1884 3.5722 -3.1383 0.0000 25.4884 0.0000
# 6 0.0000 0.0000 0.0000 0.0104 0.0000 16.6151
#
#
#
# Elastic Compliance Matrix: (Units=1/GPa)
#
#
# Indices 1 2 3 4 5 6 
#
# 1 0.030638 -0.001398 0.002532 0.000000 0.003138 0.000000
# 2 -0.001398 0.071252 -0.011671 0.000000 -0.011543 0.000000
# 3 0.002532 -0.011671 0.015685 0.000000 0.003784 0.000000
# 4 0.000000 0.000000 0.000000 0.039441 0.000000 -0.000025
# 5 0.003138 -0.011543 0.003784 0.000000 0.041587 0.000000
# 6 0.000000 0.000000 0.000000 -0.000025 0.000000 0.060186
#
#
# Mechanical properties :
#
#
# Convention : Reuss Voigt Hill
#
# Bulk Modulus (GPa) = 10.36256 15.00131 12.68194
# Shear Modulus (GPa) = 16.02410 21.35839 18.69124
#
# Velocity S-wave (km/s) = 2.96821 3.42683 3.20573
# Velocity P-wave (km/s) = 4.17666 4.88932 4.54697
#
# Compressibility (1/GPa) = 0.09650125
#
# Stress axis : x y z
#
# Youngs Moduli (GPa) = 32.63926 14.03461 63.75513
#
# Poissons Ratio (x) = 0.01962 -0.16140
# Poissons Ratio (y) = 0.04563 0.74406
# Poissons Ratio (z) = -0.08263 0.16379
#
# Static dielectric constant tensor:
#      x y z
#    x 1.638340 0.000000 0.011060 
#    y 0.000000 1.615410 0.000000 
#    z 0.011060 0.000000 1.645870 
# 
# From -- ./inp_files/248163.got.cif
#   From: 2010.05.17/outbox.cif.g08.bks.cpg/sg12_125_cif.got.tgz:248163.got - 2010.06.03 13:09:07.
