data_PCOD9190976
_publ_section_title
;
Structure prediction by ZEFSAII (Michael W. Deem and Ramdas Pophale) SiO2 
 PCOD9190976
Probable space group: C 2/M
;
_chemical_formula_sum "Si O2"
_cell_formula_units_Z 56
_cell_length_a 22.005393
_cell_length_b 23.081393
_cell_length_c 9.415960
_cell_angle_alpha 90.000000
_cell_angle_beta 151.709320
_cell_angle_gamma 90.000000
_cell_volume 2266.645892
_symmetry_space_group_name_H-M "C 2/M"
_symmetry_group_IT_number 12
_symmetry_cell_setting 'monoclinic'
loop_
_space_group_symop_operation_xyz
x,y,z
-x,y,-z
-x,-y,-z
x,-y,z
1/2+x,1/2+y,z
1/2-x,1/2+y,-z
1/2-x,1/2-y,-z
1/2+x,1/2-y,z
loop_
_atom_site_type_symbol
_atom_site_label
_atom_site_fract_x
_atom_site_fract_y
_atom_site_fract_z
Si Si1 0.862675 0.566055 0.246463
Si Si2 0.536111 0.563903 0.239997
Si Si3 0.626296 0.301844 0.801070
Si Si4 0.248757 0.436755 0.675648
Si Si5 0.232889 0.148413 0.767377
Si Si6 0.224073 0.687416 0.610502
Si Si7 0.061497 0.725227 0.920589
O O1 0.865063 0.500000 0.198760
O O2 0.836614 0.563641 0.359398
O O3 0.000000 0.594078 0.500000
O O4 0.763870 0.600747 0.948913
O O5 0.594744 0.500000 0.391255
O O6 0.619224 0.620054 0.445153
O O7 0.500000 0.564818 0.000000
O O8 0.397552 0.565883 0.028781
O O9 0.500000 0.339935 0.500000
O O10 0.695342 0.296936 0.790730
O O11 0.442423 0.251561 0.247311
O O12 0.729586 0.323276 0.129791
O O13 0.231544 0.500000 0.567877
O O14 0.222622 0.376806 0.541022
O O15 0.353331 0.167588 0.921729
O O16 0.080962 0.713903 0.315587
O O17 0.341678 0.728851 0.802754
#
# Coordination Sequence:
#
# PCOD9190976 Si02
#       7
#     8   8   8   8   8   8   8
#     4  10  20  32  50  85 132 166 196 250 327 411
#     4  10  24  45  66  90 122 171 238 299 338 382
#     4  10  21  30  48  86 130 163 208 245 309 400
#     4  10  20  37  63  89 124 170 212 267 340 399
#     4  12  21  32  59  88 127 167 216 261 333 393
#     4  10  21  37  54  91 137 172 212 252 318 405
#     4  10  23  33  55  90 137 177 210 254 311 409
#
# _framework density 24.706109999999999
#
# number of rings (size 3 to 8) (size 9 to 14) (size 15 to 20)
#    0.857    0.857    1.429    3.429    4.000    0.000 
#    0.000    2.857    0.000    4.286    0.000   14.000 
#    0.000    0.000    0.000    0.000    0.000    0.000 
#
# Total GULP energy -156157.075781 kJ/mol
# GULP energy per Si atom -5577.038421 kJ/mol
# Density = 2.464988 g / cm^3
# Si number density = 24.706110 Si / 1000 Ang^3
#
#
#
# Elastic Constant Matrix: (Units=GPa)
#
#
# Indices 1 2 3 4 5 6 
#
# 1 83.7583 32.2360 47.8788 0.0000 20.4829 0.0000
# 2 32.2360 133.3110 39.9059 0.0000 7.6685 0.0000
# 3 47.8788 39.9059 106.0682 0.0000 21.2039 0.0000
# 4 0.0000 0.0000 0.0000 32.8042 0.0000 16.3340
# 5 20.4829 7.6685 21.2039 0.0000 43.8816 0.0000
# 6 0.0000 0.0000 0.0000 16.3340 0.0000 9.2387
#
#
#
# Elastic Compliance Matrix: (Units=1/GPa)
#
#
# Indices 1 2 3 4 5 6 
#
# 1 0.017418 -0.002107 -0.006108 0.000000 -0.004811 0.000000
# 2 -0.002107 0.008708 -0.002455 0.000000 0.000648 0.000000
# 3 -0.006108 -0.002455 0.013784 0.000000 -0.003381 0.000000
# 4 0.000000 0.000000 0.000000 0.254734 0.000000 -0.450369
# 5 -0.004811 0.000648 -0.003381 0.000000 0.026554 0.000000
# 6 0.000000 0.000000 0.000000 -0.450369 0.000000 0.904491
#
#
# Mechanical properties :
#
#
# Convention : Reuss Voigt Hill
#
# Bulk Modulus (GPa) = 53.84625 62.57546 58.21086
# Shear Modulus (GPa) = 3.98972 30.72601 17.35787
#
# Velocity S-wave (km/s) = 1.27216 3.53038 2.65349
# Velocity P-wave (km/s) = 4.89897 6.48082 5.74460
#
# Compressibility (1/GPa) = 0.01857140
#
# Stress axis : x y z
#
# Youngs Moduli (GPa) = 57.41209 114.83355 72.54538
#
# Poissons Ratio (x) = 0.24192 0.44312
# Poissons Ratio (y) = 0.12095 0.17809
# Poissons Ratio (z) = 0.35068 0.28190
#
# Static dielectric constant tensor:
#      x y z
#    x 1.978200 0.000000 0.048120 
#    y 0.000000 2.107800 0.000000 
#    z 0.048120 0.000000 2.022410 
# 
# From -- ./inp_files/190448.got.cif
#   From: 2010.05.17/outbox.cif.g08.bks.cpg/sg12_96_cif.got.tgz:190448.got - 2010.06.03 13:09:07.
