data_PCOD9190524
_publ_section_title
;
Structure prediction by ZEFSAII (Michael W. Deem and Ramdas Pophale) SiO2 
 PCOD9190524
Probable space group: C 2/M
;
_chemical_formula_sum "Si O2"
_cell_formula_units_Z 64
_cell_length_a 17.599088
_cell_length_b 22.981277
_cell_length_c 23.116022
_cell_angle_alpha 90.000000
_cell_angle_beta 21.825381
_cell_angle_gamma 90.000000
_cell_volume 3475.860940
_symmetry_space_group_name_H-M "C 2/M"
_symmetry_group_IT_number 12
_symmetry_cell_setting 'monoclinic'
loop_
_space_group_symop_operation_xyz
x,y,z
-x,y,-z
-x,-y,-z
x,-y,z
1/2+x,1/2+y,z
1/2-x,1/2+y,-z
1/2-x,1/2-y,-z
1/2+x,1/2-y,z
loop_
_atom_site_type_symbol
_atom_site_label
_atom_site_fract_x
_atom_site_fract_y
_atom_site_fract_z
Si Si1 0.147841 0.432647 0.951508
Si Si2 0.495725 0.228761 0.395621
Si Si3 0.377479 0.769219 0.269957
Si Si4 0.353020 0.934831 0.353367
Si Si5 0.617206 0.832768 0.197714
Si Si6 0.461495 0.277567 0.089591
Si Si7 0.035036 0.133803 0.344225
Si Si8 0.290496 0.889750 0.278598
O O1 0.203385 0.500000 0.926522
O O2 0.329581 0.390895 0.803498
O O3 0.000000 0.436371 0.000000
O O4 0.014903 0.401425 0.094353
O O5 0.299313 0.228872 0.576676
O O6 0.489096 0.187173 0.344748
O O7 0.717527 0.211797 0.265070
O O8 0.516657 0.296481 0.360503
O O9 0.538409 0.787883 0.204766
O O10 0.491318 0.750643 0.131123
O O11 0.265334 0.828319 0.328524
O O12 0.555273 0.896201 0.218809
O O13 0.278031 0.935075 0.339547
O O14 0.179880 0.898093 0.507771
O O15 0.374237 0.000000 0.359474
O O16 0.857982 0.825345 0.040827
O O17 0.500000 0.244838 0.000000
O O18 0.142404 0.111781 0.328221
#
# Coordination Sequence:
#
# PCOD9190524 Si02
#       8
#     8   8   8   8   8   8   8   8
#     4   9  19  31  44  66 103 148 195 233 263 308
#     4  11  21  36  59  83 118 152 189 246 299 356
#     4  11  20  34  55  86 117 154 182 232 296 359
#     4  11  23  38  56  78 114 159 202 242 282 333
#     4  10  23  38  54  84 119 154 198 239 292 353
#     4  10  22  35  57  82 114 152 190 234 290 360
#     4  11  20  32  56  81 113 152 195 234 287 347
#     4  10  20  31  52  80 113 152 189 231 283 347
#
# _framework density 18.412704999999999
#
# number of rings (size 3 to 8) (size 9 to 14) (size 15 to 20)
#    0.000    1.625    3.750    2.250    3.500    2.000 
#    0.000    0.000    0.000    3.375    0.000    0.000 
#    0.000    5.000    0.000    0.000    0.000    0.000 
#
# Total GULP energy -178173.254903 kJ/mol
# GULP energy per Si atom -5567.914216 kJ/mol
# Density = 1.837080 g / cm^3
# Si number density = 18.412705 Si / 1000 Ang^3
#
#
#
# Elastic Constant Matrix: (Units=GPa)
#
#
# Indices 1 2 3 4 5 6 
#
# 1 59.3072 9.7323 14.8275 -0.0004 5.4821 -0.0141
# 2 9.7323 63.4666 18.7363 0.0039 -5.1536 0.0173
# 3 14.8275 18.7363 85.3068 -0.0069 -0.6448 0.0135
# 4 -0.0004 0.0039 -0.0069 3.3965 -0.0067 1.4436
# 5 5.4821 -5.1536 -0.6448 -0.0067 26.5474 0.0079
# 6 -0.0141 0.0173 0.0135 1.4436 0.0079 9.2822
#
#
#
# Elastic Compliance Matrix: (Units=1/GPa)
#
#
# Indices 1 2 3 4 5 6 
#
# 1 0.018322 -0.002363 -0.002698 -0.000028 -0.004308 0.000044
# 2 -0.002363 0.017427 -0.003388 -0.000005 0.003789 -0.000034
# 3 -0.002698 -0.003388 0.012937 0.000040 0.000214 -0.000023
# 4 -0.000028 -0.000005 0.000040 0.315266 0.000099 -0.049033
# 5 -0.004308 0.003789 0.000214 0.000099 0.039299 -0.000063
# 6 0.000044 -0.000034 -0.000023 -0.049033 -0.000063 0.115360
#
#
# Mechanical properties :
#
#
# Convention : Reuss Voigt Hill
#
# Bulk Modulus (GPa) = 31.45917 32.74141 32.10029
# Shear Modulus (GPa) = 9.15575 18.83083 13.99329
#
# Velocity S-wave (km/s) = 2.23233 3.20145 2.75976
# Velocity P-wave (km/s) = 4.87515 5.61126 5.25611
#
# Compressibility (1/GPa) = 0.03178723
#
# Stress axis : x y z
#
# Youngs Moduli (GPa) = 54.57956 57.38378 77.29674
#
# Poissons Ratio (x) = 0.13559 0.20856
# Poissons Ratio (y) = 0.12896 0.26189
# Poissons Ratio (z) = 0.14727 0.19442
#
# Static dielectric constant tensor:
#      x y z
#    x 1.683260 -0.000010 0.008650 
#    y -0.000010 1.641960 0.000120 
#    z 0.008650 0.000120 1.734440 
# 
# From -- ./inp_files/89629.got.cif
#   From: 2010.05.17/outbox.cif.g08.bks.cpg/sg12_45_cif.got.tgz:89629.got - 2010.06.03 13:09:07.
