data_PCOD9190038
_publ_section_title
;
Structure prediction by ZEFSAII (Michael W. Deem and Ramdas Pophale) SiO2 
 PCOD9190038
Probable space group: C 2/M
;
_chemical_formula_sum "Si O2"
_cell_formula_units_Z 40
_cell_length_a 16.867308
_cell_length_b 14.756220
_cell_length_c 22.682496
_cell_angle_alpha 90.000000
_cell_angle_beta 162.621822
_cell_angle_gamma 90.000000
_cell_volume 1686.219101
_symmetry_space_group_name_H-M "C 2/M"
_symmetry_group_IT_number 12
_symmetry_cell_setting 'monoclinic'
loop_
_space_group_symop_operation_xyz
x,y,z
-x,y,-z
-x,-y,-z
x,-y,z
1/2+x,1/2+y,z
1/2-x,1/2+y,-z
1/2-x,1/2-y,-z
1/2+x,1/2-y,z
loop_
_atom_site_type_symbol
_atom_site_label
_atom_site_fract_x
_atom_site_fract_y
_atom_site_fract_z
Si Si1 0.008593 0.668416 0.069855
Si Si2 0.756692 0.604132 0.476613
Si Si3 0.172941 0.127677 0.067163
Si Si4 0.392646 0.712651 0.516794
Si Si5 0.415359 0.099657 0.125464
O O1 0.317802 0.691345 0.304347
O O2 0.863524 0.618626 0.020292
O O3 0.000000 0.621061 0.000000
O O4 0.867300 0.764991 0.961824
O O5 0.674305 0.500000 0.403757
O O6 0.591605 0.660392 0.408505
O O7 0.829489 0.680253 0.479210
O O8 0.036658 0.596811 0.708983
O O9 0.164041 0.103111 0.991451
O O10 0.000000 0.095770 0.000000
O O11 0.138865 0.670644 0.304128
O O12 0.536054 0.000000 0.215922
#
# Coordination Sequence:
#
# PCOD9190038 Si02
#       5
#     8   8   8   8   8
#     4  11  22  41  65  94 128 174 211 265 333 371
#     4  10  20  36  65  96 125 169 219 259 315 390
#     4  10  19  39  64  95 125 169 207 262 323 379
#     4  10  20  39  63  93 129 170 212 266 320 380
#     4  11  25  41  66  97 129 173 222 263 313 393
#
# _framework density 23.721709000000001
#
# number of rings (size 3 to 8) (size 9 to 14) (size 15 to 20)
#    0.000    1.600    4.000    3.600    0.000    4.400 
#    0.000    0.000    0.000    3.600    0.000    0.000 
#    0.000    0.000    0.000    0.000    0.000    0.000 
#
# Total GULP energy -111485.036845 kJ/mol
# GULP energy per Si atom -5574.251842 kJ/mol
# Density = 2.366772 g / cm^3
# Si number density = 23.721709 Si / 1000 Ang^3
#
#
#
# Elastic Constant Matrix: (Units=GPa)
#
#
# Indices 1 2 3 4 5 6 
#
# 1 210.9051 47.7285 19.5759 -0.0125 7.2741 -0.0173
# 2 47.7285 152.0625 13.4678 -0.0061 2.5259 -0.0528
# 3 19.5759 13.4678 37.3167 -0.0866 14.3237 -0.0603
# 4 -0.0125 -0.0061 -0.0866 32.2817 0.0354 0.7154
# 5 7.2741 2.5259 14.3237 0.0354 36.0972 0.0226
# 6 -0.0173 -0.0528 -0.0603 0.7154 0.0226 -15.9904
#
#
#
# Elastic Compliance Matrix: (Units=1/GPa)
#
#
# Indices 1 2 3 4 5 6 
#
# 1 0.005280 -0.001460 -0.002210 -0.000004 -0.000085 0.000007
# 2 -0.001460 0.007208 -0.002070 -0.000005 0.000611 -0.000014
# 3 -0.002210 -0.002070 0.033595 0.000106 -0.012740 -0.000131
# 4 -0.000004 -0.000005 0.000106 0.030947 -0.000072 0.001384
# 5 -0.000085 0.000611 -0.012740 -0.000072 0.032733 0.000089
# 6 0.000007 -0.000014 -0.000131 0.001384 0.000089 -0.062475
#
#
# Mechanical properties :
#
#
# Convention : Reuss Voigt Hill
#
# Bulk Modulus (GPa) = 28.90060 62.42539 45.66300
# Shear Modulus (GPa) = 71.12201 31.77851 51.45026
#
# Velocity S-wave (km/s) = 5.48151 3.66408 4.66221
# Velocity P-wave (km/s) = 7.22995 6.65383 6.94786
#
# Compressibility (1/GPa) = 0.03460136
#
# Stress axis : x y z
#
# Youngs Moduli (GPa) = 189.39498 138.74045 29.76670
#
# Poissons Ratio (x) = 0.20257 0.06579
# Poissons Ratio (y) = 0.27653 0.06162
# Poissons Ratio (z) = 0.41863 0.28720
#
# Static dielectric constant tensor:
#      x y z
#    x 2.085530 0.000020 -0.031550 
#    y 0.000020 1.874380 -0.000040 
#    z -0.031550 -0.000040 1.929640 
# 
# From -- ./inp_files/343866.got.cif
#   From: 2010.05.17/outbox.cif.g08.bks.cpg/sg12_172_cif.got.tgz:343866.got - 2010.06.03 13:09:07.
