data_PCOD9190590
_publ_section_title
;
Structure prediction by ZEFSAII (Michael W. Deem and Ramdas Pophale) SiO2 
 PCOD9190590
Probable space group: C 2/M
;
_chemical_formula_sum "Si O2"
_cell_formula_units_Z 48
_cell_length_a 15.693334
_cell_length_b 7.477849
_cell_length_c 16.847637
_cell_angle_alpha 90.000000
_cell_angle_beta 59.025070
_cell_angle_gamma 90.000000
_cell_volume 1695.159720
_symmetry_space_group_name_H-M "C 2/M"
_symmetry_group_IT_number 12
_symmetry_cell_setting 'monoclinic'
loop_
_space_group_symop_operation_xyz
x,y,z
-x,y,-z
-x,-y,-z
x,-y,z
1/2+x,1/2+y,z
1/2-x,1/2+y,-z
1/2-x,1/2-y,-z
1/2+x,1/2-y,z
loop_
_atom_site_type_symbol
_atom_site_label
_atom_site_fract_x
_atom_site_fract_y
_atom_site_fract_z
Si Si1 0.002538 0.211806 0.893905
Si Si2 0.199029 0.217986 0.728291
Si Si3 0.892935 0.707515 0.566344
Si Si4 0.201038 0.710709 0.936998
Si Si5 0.100597 0.217605 0.223672
Si Si6 0.100034 0.785074 0.607618
O O1 0.948234 0.269652 0.838025
O O2 0.115407 0.284974 0.830439
O O3 0.015800 0.000000 0.883082
O O4 0.914475 0.234818 0.000619
O O5 0.311422 0.288368 0.664555
O O6 0.151481 0.263868 0.665302
O O7 0.204682 0.000000 0.728742
O O8 0.906131 0.500000 0.580775
O O9 0.852878 0.709563 0.494713
O O10 0.000000 0.795647 0.500000
O O11 0.200420 0.500000 0.928655
O O12 0.285353 0.786075 0.836264
O O13 0.250000 0.750000 0.000000
O O14 0.016161 0.273321 0.326612
O O15 0.103059 0.000000 0.223160
O O16 0.101816 0.000000 0.601972
#
# Coordination Sequence:
#
# PCOD9190590 Si02
#       6
#     8   8   8   8   8   8
#     4   8  13  23  38  56  80 110 142 172 207 251
#     4   8  15  29  47  64  86 118 148 176 218 265
#     4  10  20  32  45  64  90 116 142 177 224 271
#     4   9  14  21  34  55  85 115 139 166 206 252
#     4   7  12  22  36  55  80 109 135 164 207 251
#     4   9  16  29  48  65  83 112 150 182 209 252
#
# _framework density 28.315916000000001
#
# number of rings (size 3 to 8) (size 9 to 14) (size 15 to 20)
#    0.000    3.500    0.000    4.000    0.000    0.333 
#    0.000    9.167    0.000    0.000    0.000    1.167 
#    0.000    9.333    0.000    0.000    0.000    0.000 
#
# Total GULP energy -134175.688693 kJ/mol
# GULP energy per Si atom -5590.653696 kJ/mol
# Density = 2.825147 g / cm^3
# Si number density = 28.315916 Si / 1000 Ang^3
#
#
#
# Elastic Constant Matrix: (Units=GPa)
#
#
# Indices 1 2 3 4 5 6 
#
# 1 104.0986 15.8980 72.0134 0.0000 -49.5875 0.0006
# 2 15.8980 105.6829 4.0435 -0.0001 -4.5714 0.0016
# 3 72.0134 4.0435 321.3004 0.0000 -43.4956 0.0001
# 4 0.0000 -0.0001 0.0000 23.6216 0.0000 7.7310
# 5 -49.5875 -4.5714 -43.4956 0.0000 80.7225 -0.0001
# 6 0.0006 0.0016 0.0001 7.7310 -0.0001 25.5049
#
#
#
# Elastic Compliance Matrix: (Units=1/GPa)
#
#
# Indices 1 2 3 4 5 6 
#
# 1 0.015341 -0.001870 -0.002323 0.000000 0.008067 0.000000
# 2 -0.001870 0.009714 0.000233 0.000000 -0.000473 -0.000001
# 3 -0.002323 0.000233 0.003709 0.000000 0.000585 0.000000
# 4 0.000000 0.000000 0.000000 0.046996 0.000000 -0.014245
# 5 0.008067 -0.000473 0.000585 0.000000 0.017632 0.000000
# 6 0.000000 -0.000001 0.000000 -0.014245 0.000000 0.043526
#
#
# Mechanical properties :
#
#
# Convention : Reuss Voigt Hill
#
# Bulk Modulus (GPa) = 47.97423 79.44352 63.70888
# Shear Modulus (GPa) = 32.94079 55.24496 44.09287
#
# Velocity S-wave (km/s) = 3.41446 4.42183 3.95039
# Velocity P-wave (km/s) = 5.70298 7.36119 6.58450
#
# Compressibility (1/GPa) = 0.02084452
#
# Stress axis : x y z
#
# Youngs Moduli (GPa) = 65.18339 102.94211 269.59713
#
# Poissons Ratio (x) = 0.19250 0.62626
# Poissons Ratio (y) = 0.12189 -0.06277
# Poissons Ratio (z) = 0.15142 -0.02397
#
# Static dielectric constant tensor:
#      x y z
#    x 2.403110 0.000000 -0.003680 
#    y 0.000000 1.992920 0.000000 
#    z -0.003680 0.000000 2.280890 
# 
# From -- ./inp_files/222410.got.cif
#   From: 2010.05.17/outbox.cif.g08.bks.cpg/sg12_112_cif.got.tgz:222410.got - 2010.06.03 13:09:07.
