data_PCOD9190679
_publ_section_title
;
Structure prediction by ZEFSAII (Michael W. Deem and Ramdas Pophale) SiO2 
 PCOD9190679
Probable space group: C 2/M
;
_chemical_formula_sum "Si O2"
_cell_formula_units_Z 56
_cell_length_a 19.580929
_cell_length_b 7.452385
_cell_length_c 19.486259
_cell_angle_alpha 90.000000
_cell_angle_beta 121.022767
_cell_angle_gamma 90.000000
_cell_volume 2436.794489
_symmetry_space_group_name_H-M "C 2/M"
_symmetry_group_IT_number 12
_symmetry_cell_setting 'monoclinic'
loop_
_space_group_symop_operation_xyz
x,y,z
-x,y,-z
-x,-y,-z
x,-y,z
1/2+x,1/2+y,z
1/2-x,1/2+y,-z
1/2-x,1/2-y,-z
1/2+x,1/2-y,z
loop_
_atom_site_type_symbol
_atom_site_label
_atom_site_fract_x
_atom_site_fract_y
_atom_site_fract_z
Si Si1 0.175549 0.709460 0.743687
Si Si2 0.173749 0.210462 0.258604
Si Si3 0.578383 0.780911 0.819126
Si Si4 0.081605 0.716805 0.079636
Si Si5 0.990060 0.782005 0.416711
Si Si6 0.332666 0.213812 0.005257
Si Si7 0.085548 0.206570 0.340237
O O1 0.193759 0.500000 0.763807
O O2 0.249633 0.789784 0.740758
O O3 0.149398 0.780068 0.804700
O O4 0.095228 0.724824 0.657283
O O5 0.102111 0.221965 0.166493
O O6 0.148780 0.287918 0.319584
O O7 0.189875 0.000000 0.279023
O O8 0.599272 0.723748 0.906555
O O9 0.496899 0.710355 0.745556
O O10 0.574288 0.000000 0.814996
O O11 0.079377 0.500000 0.082656
O O12 0.151318 0.779077 0.063241
O O13 0.000000 0.772491 0.000000
O O14 0.000000 0.723826 0.500000
O O15 0.058949 0.716533 0.399975
O O16 0.991482 0.000000 0.415670
O O17 0.340607 0.000000 0.005276
O O18 0.250000 0.250000 0.000000
O O19 0.108674 0.000000 0.364671
#
# Coordination Sequence:
#
# PCOD9190679 Si02
#       7
#     8   8   8   8   8   8   8
#     4   9  18  32  51  74  99 128 161 199 242 287
#     4  10  20  34  51  72  99 130 165 205 247 291
#     4   9  17  31  49  67  90 123 162 200 239 284
#     4  10  21  35  50  70  98 133 171 210 251 292
#     4   9  18  34  55  77 101 128 158 194 238 291
#     4  10  20  32  47  68  94 125 162 206 250 288
#     4   9  18  32  51  73  95 123 159 196 236 285
#
# _framework density 22.981010999999999
#
# number of rings (size 3 to 8) (size 9 to 14) (size 15 to 20)
#    0.000    2.571    0.000    1.714    0.000    5.143 
#    0.000    3.571    0.000    0.000    0.000    0.000 
#    0.000    0.000    0.000    0.000    0.000    0.000 
#
# Total GULP energy -156302.246301 kJ/mol
# GULP energy per Si atom -5582.223082 kJ/mol
# Density = 2.292871 g / cm^3
# Si number density = 22.981011 Si / 1000 Ang^3
#
#
#
# Elastic Constant Matrix: (Units=GPa)
#
#
# Indices 1 2 3 4 5 6 
#
# 1 117.5796 1.0714 21.1126 0.0000 -38.8132 0.0000
# 2 1.0714 74.0972 -4.8420 0.0000 -6.3736 0.0000
# 3 21.1126 -4.8420 86.4547 0.0000 -40.9474 0.0000
# 4 0.0000 0.0000 0.0000 4.8518 0.0000 14.7024
# 5 -38.8132 -6.3736 -40.9474 0.0000 41.7634 0.0000
# 6 0.0000 0.0000 0.0000 14.7024 0.0000 -0.1857
#
#
#
# Elastic Compliance Matrix: (Units=1/GPa)
#
#
# Indices 1 2 3 4 5 6 
#
# 1 0.013480 0.001704 0.005340 0.000000 0.018024 0.000000
# 2 0.001704 0.014406 0.004074 0.000000 0.007777 0.000000
# 3 0.005340 0.004074 0.024524 0.000000 0.029630 0.000000
# 4 0.000000 0.000000 0.000000 0.000856 0.000000 0.067734
# 5 0.018024 0.007777 0.029630 0.000000 0.070933 0.000000
# 6 0.000000 0.000000 0.000000 0.067734 0.000000 -0.022352
#
#
# Mechanical properties :
#
#
# Convention : Reuss Voigt Hill
#
# Bulk Modulus (GPa) = 13.39623 34.75726 24.07675
# Shear Modulus (GPa) = 47.85023 26.67186 37.26104
#
# Velocity S-wave (km/s) = 4.56802 3.41046 4.03101
# Velocity P-wave (km/s) = 5.80210 5.53764 5.67141
#
# Compressibility (1/GPa) = 0.07464784
#
# Stress axis : x y z
#
# Youngs Moduli (GPa) = 74.18322 69.41394 40.77586
#
# Poissons Ratio (x) = -0.11831 -0.21775
# Poissons Ratio (y) = -0.12644 -0.16612
# Poissons Ratio (z) = -0.39615 -0.28279
#
# Static dielectric constant tensor:
#      x y z
#    x 1.960250 0.000000 -0.060040 
#    y 0.000000 1.877360 0.000000 
#    z -0.060040 0.000000 1.832820 
# 
# From -- ./inp_files/275499.got.cif
#   From: 2010.05.17/outbox.cif.g08.bks.cpg/sg12_138_cif.got.tgz:275499.got - 2010.06.03 13:09:07.
