data_PCOD9190189
_publ_section_title
;
Structure prediction by ZEFSAII (Michael W. Deem and Ramdas Pophale) SiO2 
 PCOD9190189
Probable space group: C 2/M
;
_chemical_formula_sum "Si O2"
_cell_formula_units_Z 32
_cell_length_a 9.477415
_cell_length_b 27.423909
_cell_length_c 8.979848
_cell_angle_alpha 90.000000
_cell_angle_beta 46.415421
_cell_angle_gamma 90.000000
_cell_volume 1690.601191
_symmetry_space_group_name_H-M "C 2/M"
_symmetry_group_IT_number 12
_symmetry_cell_setting 'monoclinic'
loop_
_space_group_symop_operation_xyz
x,y,z
-x,y,-z
-x,-y,-z
x,-y,z
1/2+x,1/2+y,z
1/2-x,1/2+y,-z
1/2-x,1/2-y,-z
1/2+x,1/2-y,z
loop_
_atom_site_type_symbol
_atom_site_label
_atom_site_fract_x
_atom_site_fract_y
_atom_site_fract_z
Si Si1 0.874480 0.865026 0.947203
Si Si2 0.379623 0.296967 0.438891
Si Si3 0.805179 0.944605 0.740374
Si Si4 0.450765 0.865412 0.202138
O O1 0.854360 0.908669 0.841580
O O2 0.976510 0.818718 0.791956
O O3 0.647270 0.857361 0.151320
O O4 0.000000 0.877602 0.000000
O O5 0.500000 0.286841 0.500000
O O6 0.250000 0.250000 0.500000
O O7 0.228135 0.339293 0.590721
O O8 0.629083 0.919739 0.775335
O O9 0.000000 0.944901 0.500000
O O10 0.760860 0.000000 0.816641
O O11 0.500000 0.844867 0.000000
#
# Coordination Sequence:
#
# PCOD9190189 Si02
#       4
#     8   8   8   8
#     4  11  24  40  61  94 130 163 201 259 311 368
#     4  12  25  43  62  91 123 165 212 260 307 367
#     4  10  19  40  71  92 120 167 210 251 310 377
#     4  10  20  41  65  87 124 161 209 252 304 373
#
# _framework density 18.928176000000001
#
# number of rings (size 3 to 8) (size 9 to 14) (size 15 to 20)
#    0.000    1.250    7.500    0.000    3.500    7.000 
#    0.000    0.000    0.000    3.000    0.000    0.000 
#    0.000    0.000    0.000    0.000    0.000    0.000 
#
# Total GULP energy -89222.152274 kJ/mol
# GULP energy per Si atom -5576.384517 kJ/mol
# Density = 1.888509 g / cm^3
# Si number density = 18.928176 Si / 1000 Ang^3
#
#
#
# Elastic Constant Matrix: (Units=GPa)
#
#
# Indices 1 2 3 4 5 6 
#
# 1 159.1244 40.7086 23.1415 0.0000 -24.2484 0.0000
# 2 40.7086 118.3888 12.7949 0.0000 -8.1683 0.0000
# 3 23.1415 12.7949 44.0946 0.0000 -21.9958 0.0000
# 4 0.0000 0.0000 0.0000 14.4388 0.0000 -12.3419
# 5 -24.2484 -8.1683 -21.9958 0.0000 31.4389 0.0000
# 6 0.0000 0.0000 0.0000 -12.3419 0.0000 21.5430
#
#
#
# Elastic Compliance Matrix: (Units=1/GPa)
#
#
# Indices 1 2 3 4 5 6 
#
# 1 0.007713 -0.002215 -0.001113 0.000000 0.004595 0.000000
# 2 -0.002215 0.009368 -0.001834 0.000000 -0.000557 0.000000
# 3 -0.001113 -0.001834 0.035528 0.000000 0.023522 0.000000
# 4 0.000000 0.000000 0.000000 0.135719 0.000000 0.077753
# 5 0.004595 -0.000557 0.023522 0.000000 0.051663 0.000000
# 6 0.000000 0.000000 0.000000 0.077753 0.000000 0.090963
#
#
# Mechanical properties :
#
#
# Convention : Reuss Voigt Hill
#
# Bulk Modulus (GPa) = 23.64892 52.76641 38.20766
# Shear Modulus (GPa) = 14.06964 29.81499 21.94232
#
# Velocity S-wave (km/s) = 2.72934 3.97314 3.40846
# Velocity P-wave (km/s) = 4.73852 6.99896 5.97658
#
# Compressibility (1/GPa) = 0.04228524
#
# Stress axis : x y z
#
# Youngs Moduli (GPa) = 129.64989 106.74539 28.14646
#
# Poissons Ratio (x) = 0.23643 0.03134
# Poissons Ratio (y) = 0.28716 0.05162
# Poissons Ratio (z) = 0.14434 0.19577
#
# Static dielectric constant tensor:
#      x y z
#    x 1.708630 0.000000 -0.016020 
#    y 0.000000 1.679670 0.000000 
#    z -0.016020 0.000000 1.689570 
# 
# From -- ./inp_files/40055.got.cif
#   From: 2010.05.17/outbox.cif.g08.bks.cpg/sg12_21_cif.got.tgz:40055.got - 2010.06.03 13:09:07.
