data_PCOD9190714
_publ_section_title
;
Structure prediction by ZEFSAII (Michael W. Deem and Ramdas Pophale) SiO2 
 PCOD9190714
Probable space group: C 2/M
;
_chemical_formula_sum "Si O2"
_cell_formula_units_Z 48
_cell_length_a 13.208143
_cell_length_b 22.280727
_cell_length_c 9.576648
_cell_angle_alpha 90.000000
_cell_angle_beta 129.803939
_cell_angle_gamma 90.000000
_cell_volume 2165.116582
_symmetry_space_group_name_H-M "C 2/M"
_symmetry_group_IT_number 12
_symmetry_cell_setting 'monoclinic'
loop_
_space_group_symop_operation_xyz
x,y,z
-x,y,-z
-x,-y,-z
x,-y,z
1/2+x,1/2+y,z
1/2-x,1/2+y,-z
1/2-x,1/2-y,-z
1/2+x,1/2-y,z
loop_
_atom_site_type_symbol
_atom_site_label
_atom_site_fract_x
_atom_site_fract_y
_atom_site_fract_z
Si Si1 0.963069 0.094487 0.620566
Si Si2 0.813606 0.792155 0.384396
Si Si3 0.784883 0.431268 0.395226
Si Si4 0.077018 0.681924 0.389578
Si Si5 0.370776 0.369044 0.984596
Si Si6 0.879735 0.272683 0.004953
O O1 0.918032 0.162240 0.541892
O O2 0.837284 0.070714 0.599097
O O3 0.000000 0.068216 0.500000
O O4 0.085342 0.097351 0.834958
O O5 0.875209 0.726293 0.446113
O O6 0.688663 0.799934 0.375212
O O7 0.747206 0.803797 0.176805
O O8 0.824251 0.500000 0.413934
O O9 0.898096 0.386714 0.550177
O O10 0.735272 0.402830 0.205045
O O11 0.939871 0.697906 0.196248
O O12 0.349718 0.298108 0.990304
O O13 0.500000 0.370752 0.000000
O O14 0.000000 0.276826 0.000000
#
# Coordination Sequence:
#
# PCOD9190714 Si02
#       6
#     8   8   8   8   8   8
#     4  10  20  32  47  72 109 137 164 202 259 311
#     4   9  15  26  47  72  99 131 164 206 257 307
#     4  10  20  33  51  76 103 134 174 209 242 298
#     4   9  15  26  49  73  97 129 163 209 260 300
#     4   9  16  28  49  72  99 128 165 211 252 291
#     4   9  14  24  47  75  98 128 160 211 261 300
#
# _framework density 22.169706999999999
#
# number of rings (size 3 to 8) (size 9 to 14) (size 15 to 20)
#    0.000    2.667    3.333    0.000    0.000    3.333 
#    0.000    0.833    0.000   12.500    0.000    0.000 
#    0.000    2.333    0.000    0.000    0.000    1.667 
#
# Total GULP energy -133912.097368 kJ/mol
# GULP energy per Si atom -5579.670724 kJ/mol
# Density = 2.211925 g / cm^3
# Si number density = 22.169707 Si / 1000 Ang^3
#
#
#
# Elastic Constant Matrix: (Units=GPa)
#
#
# Indices 1 2 3 4 5 6 
#
# 1 75.2930 -2.6049 34.3728 0.0000 -16.5201 0.0000
# 2 -2.6049 159.0820 70.7971 0.0000 17.0067 0.0000
# 3 34.3728 70.7971 199.5245 0.0000 -0.8963 0.0000
# 4 0.0000 0.0000 0.0000 13.7290 0.0000 1.8696
# 5 -16.5201 17.0067 -0.8963 0.0000 31.0945 0.0000
# 6 0.0000 0.0000 0.0000 1.8696 0.0000 -1.5320
#
#
#
# Elastic Compliance Matrix: (Units=1/GPa)
#
#
# Indices 1 2 3 4 5 6 
#
# 1 0.016530 0.000756 -0.003079 0.000000 0.008280 0.000000
# 2 0.000756 0.008079 -0.003015 0.000000 -0.004104 0.000000
# 3 -0.003079 -0.003015 0.006613 0.000000 0.000204 0.000000
# 4 0.000000 0.000000 0.000000 0.062459 0.000000 0.076222
# 5 0.008280 -0.004104 0.000204 0.000000 0.038810 0.000000
# 6 0.000000 0.000000 0.000000 0.076222 0.000000 -0.559726
#
#
# Mechanical properties :
#
#
# Convention : Reuss Voigt Hill
#
# Bulk Modulus (GPa) = 48.67278 71.00326 59.83802
# Shear Modulus (GPa) = -12.20373 30.74727 9.27177
#
# Velocity S-wave (km/s) = -2.34875 3.72816 2.04726
# Velocity P-wave (km/s) = 3.82711 7.11540 5.71295
#
# Compressibility (1/GPa) = 0.02054537
#
# Stress axis : x y z
#
# Youngs Moduli (GPa) = 60.49707 123.77574 151.21500
#
# Poissons Ratio (x) = -0.09352 0.46552
# Poissons Ratio (y) = -0.04571 0.45596
# Poissons Ratio (z) = 0.18624 0.37322
#
# Static dielectric constant tensor:
#      x y z
#    x 1.900010 0.000000 -0.029840 
#    y 0.000000 1.773060 0.000000 
#    z -0.029840 0.000000 1.838500 
# 
# From -- ./inp_files/77675.got.cif
#   From: 2010.05.17/outbox.cif.g08.bks.cpg/sg12_39_cif.got.tgz:77675.got - 2010.06.03 13:09:07.
