data_PCOD9190136
_publ_section_title
;
Structure prediction by ZEFSAII (Michael W. Deem and Ramdas Pophale) SiO2 
 PCOD9190136
Probable space group: C 2/M
;
_chemical_formula_sum "Si O2"
_cell_formula_units_Z 58
_cell_length_a 28.078713
_cell_length_b 14.891721
_cell_length_c 18.895498
_cell_angle_alpha 90.000000
_cell_angle_beta 21.825190
_cell_angle_gamma 90.000000
_cell_volume 2937.391203
_symmetry_space_group_name_H-M "C 2/M"
_symmetry_group_IT_number 12
_symmetry_cell_setting 'monoclinic'
loop_
_space_group_symop_operation_xyz
x,y,z
-x,y,-z
-x,-y,-z
x,-y,z
1/2+x,1/2+y,z
1/2-x,1/2+y,-z
1/2-x,1/2-y,-z
1/2+x,1/2-y,z
loop_
_atom_site_type_symbol
_atom_site_label
_atom_site_fract_x
_atom_site_fract_y
_atom_site_fract_z
Si Si1 0.004064 0.095554 0.222166
Si Si2 0.085528 0.606129 0.547503
Si Si3 0.195812 0.746377 0.496861
Si Si4 0.500000 0.000000 0.000000
Si Si5 0.692718 0.843611 0.787328
Si Si6 0.362894 0.773719 0.789328
Si Si7 0.988581 0.901920 0.402887
Si Si8 0.774821 0.174853 0.165080
O O1 0.916963 0.181819 0.343779
O O2 0.051564 0.093225 0.237485
O O3 0.935062 0.000000 0.305777
O O4 0.111006 0.110513 0.016457
O O5 0.068588 0.500000 0.578369
O O6 0.139279 0.653756 0.544343
O O7 0.188256 0.630256 0.344770
O O8 0.957377 0.656780 0.698319
O O9 0.250000 0.750000 0.500000
O O10 0.293830 0.785302 0.303370
O O11 0.589280 0.920671 0.916005
O O12 0.836175 0.884268 0.603122
O O13 0.673023 0.770253 0.876646
O O14 0.444891 0.684820 0.656704
O O15 0.306323 0.809785 0.794164
O O16 0.250000 0.750000 0.000000
O O17 0.008108 0.000000 0.408682
#
# Coordination Sequence:
#
# PCOD9190136 Si02
#       8
#     8   8   8   2   8   8   8   8
#     4  10  20  37  64  91 121 163 220 259 314 398
#     4  11  24  42  63  97 133 166 221 273 329 401
#     4  10  22  43  65  90 127 171 210 274 336 384
#     4  12  24  44  68  98 122 172 230 276 336 406
#     4  10  23  41  64  91 127 165 217 272 328 394
#     4  12  22  41  63  93 133 175 221 268 326 396
#     4  10  19  40  62  88 124 172 219 265 314 390
#     4  11  22  40  64  93 133 173 209 276 330 390
#
# _framework density 19.745412000000002
#
# number of rings (size 3 to 8) (size 9 to 14) (size 15 to 20)
#    0.000    1.379    6.207    0.828    2.897    2.759 
#    1.241    0.690    0.000    2.483    0.000    0.000 
#    0.000    0.000    0.000    0.000    0.000    0.000 
#
# Total GULP energy -161495.892546 kJ/mol
# GULP energy per Si atom -5568.823881 kJ/mol
# Density = 1.970047 g / cm^3
# Si number density = 19.745412 Si / 1000 Ang^3
#
#
#
# Elastic Constant Matrix: (Units=GPa)
#
#
# Indices 1 2 3 4 5 6 
#
# 1 112.2426 42.6761 13.4481 0.0000 3.3952 0.0000
# 2 42.6761 164.9663 24.1008 0.0000 -9.3775 0.0000
# 3 13.4481 24.1008 51.7546 0.0000 10.3780 0.0000
# 4 0.0000 0.0000 0.0000 14.7545 0.0000 3.6713
# 5 3.3952 -9.3775 10.3780 0.0000 22.0040 0.0000
# 6 0.0000 0.0000 0.0000 3.6713 0.0000 -2.4933
#
#
#
# Elastic Compliance Matrix: (Units=1/GPa)
#
#
# Indices 1 2 3 4 5 6 
#
# 1 0.010077 -0.002590 -0.000971 0.000000 -0.002201 0.000000
# 2 -0.002590 0.007629 -0.003989 0.000000 0.005532 0.000000
# 3 -0.000971 -0.003989 0.024014 0.000000 -0.012876 0.000000
# 4 0.000000 0.000000 0.000000 0.049602 0.000000 0.073037
# 5 -0.002201 0.005532 -0.012876 0.000000 0.054217 0.000000
# 6 0.000000 0.000000 0.000000 0.073037 0.000000 -0.293532
#
#
# Mechanical properties :
#
#
# Convention : Reuss Voigt Hill
#
# Bulk Modulus (GPa) = 37.56626 54.37929 45.97278
# Shear Modulus (GPa) = -40.31629 23.43562 -8.44034
#
# Velocity S-wave (km/s) = -4.52354 3.44886 -2.06975
# Velocity P-wave (km/s) = 2.86645 6.59239 4.19780
#
# Compressibility (1/GPa) = 0.02661963
#
# Stress axis : x y z
#
# Youngs Moduli (GPa) = 99.23607 131.07582 41.64270
#
# Poissons Ratio (x) = 0.33950 0.04043
# Poissons Ratio (y) = 0.25703 0.16612
# Poissons Ratio (z) = 0.09636 0.52287
#
# Static dielectric constant tensor:
#      x y z
#    x 2.002200 0.000000 -0.070710 
#    y 0.000000 1.655650 0.000000 
#    z -0.070710 0.000000 1.735680 
# 
# From -- ./inp_files/330249.got.cif
#   From: 2010.05.17/outbox.cif.g08.bks.cpg/sg12_166_cif.got.tgz:330249.got - 2010.06.03 13:09:07.
