data_PCOD9190544
_publ_section_title
;
Structure prediction by ZEFSAII (Michael W. Deem and Ramdas Pophale) SiO2 
 PCOD9190544
Probable space group: C 2/M
;
_chemical_formula_sum "Si O2"
_cell_formula_units_Z 56
_cell_length_a 28.425931
_cell_length_b 12.508173
_cell_length_c 24.528258
_cell_angle_alpha 90.000000
_cell_angle_beta 20.397265
_cell_angle_gamma 90.000000
_cell_volume 3039.569597
_symmetry_space_group_name_H-M "C 2/M"
_symmetry_group_IT_number 12
_symmetry_cell_setting 'monoclinic'
loop_
_space_group_symop_operation_xyz
x,y,z
-x,y,-z
-x,-y,-z
x,-y,z
1/2+x,1/2+y,z
1/2-x,1/2+y,-z
1/2-x,1/2-y,-z
1/2+x,1/2-y,z
loop_
_atom_site_type_symbol
_atom_site_label
_atom_site_fract_x
_atom_site_fract_y
_atom_site_fract_z
Si Si1 0.083380 0.748357 0.727483
Si Si2 0.345824 0.872294 0.458998
Si Si3 0.290414 0.126523 0.240543
Si Si4 0.503826 0.373855 0.430237
Si Si5 0.867874 0.877518 0.902184
Si Si6 0.446064 0.126582 0.970295
Si Si7 0.388918 0.774009 0.775437
O O1 0.213408 0.800294 0.615386
O O2 0.124161 0.662865 0.636520
O O3 0.977055 0.691850 0.882830
O O4 0.005361 0.843502 0.782190
O O5 0.474563 0.836784 0.355444
O O6 0.324331 0.000000 0.486397
O O7 0.149363 0.159411 0.419179
O O8 0.416399 0.136912 0.143671
O O9 0.273312 0.000000 0.249586
O O10 0.330923 0.168423 0.136641
O O11 0.500000 0.364655 0.500000
O O12 0.530438 0.500000 0.388592
O O13 0.596457 0.293072 0.295984
O O14 0.863888 0.811210 0.850843
O O15 0.865935 0.000000 0.890370
O O16 0.740838 0.849601 0.078575
O O17 0.424908 0.000000 0.981919
#
# Coordination Sequence:
#
# PCOD9190544 Si02
#       7
#     8   8   8   8   8   8   8
#     4  10  20  31  53  81 102 137 174 211 272 306
#     4  10  20  35  52  77 107 136 177 220 257 311
#     4   8  16  29  46  72 104 136 163 201 266 312
#     4  10  20  33  52  81 110 134 168 220 270 316
#     4  10  21  37  54  78 109 139 175 217 258 312
#     4   9  16  29  49  75 106 134 167 210 258 320
#     4  10  21  36  57  79 103 144 178 206 269 321
#
# _framework density 18.423660999999999
#
# number of rings (size 3 to 8) (size 9 to 14) (size 15 to 20)
#    0.000    2.429    0.000    3.429    2.000    0.000 
#    0.000    5.714    0.000    1.714    0.000    5.000 
#    0.000    0.000    0.000    0.000    0.000    0.000 
#
# Total GULP energy -156044.403375 kJ/mol
# GULP energy per Si atom -5573.014406 kJ/mol
# Density = 1.838173 g / cm^3
# Si number density = 18.423661 Si / 1000 Ang^3
#
#
#
# Elastic Constant Matrix: (Units=GPa)
#
#
# Indices 1 2 3 4 5 6 
#
# 1 30.7337 8.7317 -1.7971 -0.0002 -1.9143 0.0002
# 2 8.7317 68.4335 3.7408 -0.0001 1.0821 0.0001
# 3 -1.7971 3.7408 32.7380 -0.0005 0.0212 0.0004
# 4 -0.0002 -0.0001 -0.0005 24.2902 0.0004 4.3553
# 5 -1.9143 1.0821 0.0212 0.0004 25.9018 -0.0003
# 6 0.0002 0.0001 0.0004 4.3553 -0.0003 11.3574
#
#
#
# Elastic Compliance Matrix: (Units=1/GPa)
#
#
# Indices 1 2 3 4 5 6 
#
# 1 0.034133 -0.004529 0.002389 0.000000 0.002710 -0.000001
# 2 -0.004529 0.015315 -0.001998 0.000000 -0.000973 0.000000
# 3 0.002389 -0.001998 0.030905 0.000001 0.000235 -0.000002
# 4 0.000000 0.000000 0.000001 0.044209 -0.000001 -0.016953
# 5 0.002710 -0.000973 0.000235 -0.000001 0.038848 0.000001
# 6 -0.000001 0.000000 -0.000002 -0.016953 0.000001 0.094550
#
#
# Mechanical properties :
#
#
# Convention : Reuss Voigt Hill
#
# Bulk Modulus (GPa) = 13.87380 17.02845 15.45112
# Shear Modulus (GPa) = 17.22597 20.39186 18.80892
#
# Velocity S-wave (km/s) = 3.06108 3.33051 3.19864
# Velocity P-wave (km/s) = 4.47665 4.90434 4.69537
#
# Compressibility (1/GPa) = 0.07207829
#
# Stress axis : x y z
#
# Youngs Moduli (GPa) = 29.29741 65.29483 32.35744
#
# Poissons Ratio (x) = 0.29569 -0.07731
# Poissons Ratio (y) = 0.13268 0.06465
# Poissons Ratio (z) = -0.07000 0.13046
#
# Static dielectric constant tensor:
#      x y z
#    x 1.676500 0.000000 -0.038900 
#    y 0.000000 1.592160 0.000000 
#    z -0.038900 0.000000 1.700390 
# 
# From -- ./inp_files/349144.got.cif
#   From: 2010.05.17/outbox.cif.g08.bks.cpg/sg12_175_cif.got.tgz:349144.got - 2010.06.03 13:09:07.
