data_PCOD9190555
_publ_section_title
;
Structure prediction by ZEFSAII (Michael W. Deem and Ramdas Pophale) SiO2 
 PCOD9190555
Probable space group: C 2/M
;
_chemical_formula_sum "Si O2"
_cell_formula_units_Z 58
_cell_length_a 28.318131
_cell_length_b 20.689072
_cell_length_c 15.168036
_cell_angle_alpha 90.000000
_cell_angle_beta 160.932756
_cell_angle_gamma 90.000000
_cell_volume 2903.048749
_symmetry_space_group_name_H-M "C 2/M"
_symmetry_group_IT_number 12
_symmetry_cell_setting 'monoclinic'
loop_
_space_group_symop_operation_xyz
x,y,z
-x,y,-z
-x,-y,-z
x,-y,z
1/2+x,1/2+y,z
1/2-x,1/2+y,-z
1/2-x,1/2-y,-z
1/2+x,1/2-y,z
loop_
_atom_site_type_symbol
_atom_site_label
_atom_site_fract_x
_atom_site_fract_y
_atom_site_fract_z
Si Si1 0.953159 0.250011 0.316207
Si Si2 0.594184 0.705727 0.082089
Si Si3 0.500000 0.500000 0.500000
Si Si4 0.873724 0.929541 0.941749
Si Si5 0.577900 0.599241 0.773026
Si Si6 0.071636 0.290818 0.346231
Si Si7 0.030630 0.429668 0.312987
Si Si8 0.629670 0.884985 0.799832
O O1 0.064818 0.278069 0.439939
O O2 0.000000 0.245056 0.500000
O O3 0.927315 0.176864 0.240715
O O4 0.838572 0.309889 0.115918
O O5 0.578617 0.629765 0.033953
O O6 0.764205 0.718350 0.394489
O O7 0.500000 0.724596 0.000000
O O8 0.534779 0.743361 0.892287
O O9 0.471895 0.557648 0.525336
O O10 0.698655 0.927242 0.639615
O O11 0.914464 0.000000 0.979053
O O12 0.930852 0.920721 0.141375
O O13 0.733967 0.582444 0.005458
O O14 0.017881 0.364119 0.234936
O O15 0.005952 0.500000 0.227861
O O16 0.927929 0.421595 0.216304
O O17 0.500000 0.882830 0.500000
#
# Coordination Sequence:
#
# PCOD9190555 Si02
#       8
#     8   8   2   8   8   8   8   8
#     4  10  21  35  56  86 121 159 194 238 283 353
#     4  11  23  41  66  92 118 152 199 256 311 359
#     4  12  28  36  46  80 114 180 196 218 288 360
#     4  10  20  36  59  81 116 151 195 248 296 347
#     4  12  21  37  50  75 123 160 197 231 281 347
#     4  10  22  40  63  92 121 154 197 247 307 357
#     4   9  19  34  54  87 115 151 193 242 289 343
#     4  10  20  31  54  82 106 149 200 239 280 322
#
# _framework density 19.978995999999999
#
# number of rings (size 3 to 8) (size 9 to 14) (size 15 to 20)
#    0.000    1.655    4.138    0.828    2.897    2.759 
#    0.000    0.000    0.000    0.414    0.000    0.000 
#    0.000    0.000    0.000    0.000    0.000    0.000 
#
# Total GULP energy -161490.874768 kJ/mol
# GULP energy per Si atom -5568.650854 kJ/mol
# Density = 1.993352 g / cm^3
# Si number density = 19.978996 Si / 1000 Ang^3
#
#
#
# Elastic Constant Matrix: (Units=GPa)
#
#
# Indices 1 2 3 4 5 6 
#
# 1 44.2518 -4.1469 3.1408 0.0000 9.6879 0.0000
# 2 -4.1469 134.6751 13.6560 0.0000 -1.7204 0.0000
# 3 3.1408 13.6560 21.8167 0.0000 6.5815 0.0000
# 4 0.0000 0.0000 0.0000 -3.3377 0.0000 15.0124
# 5 9.6879 -1.7204 6.5815 0.0000 24.1277 0.0000
# 6 0.0000 0.0000 0.0000 15.0124 0.0000 0.0826
#
#
#
# Elastic Compliance Matrix: (Units=1/GPa)
#
#
# Indices 1 2 3 4 5 6 
#
# 1 0.024855 0.000760 -0.001154 0.000000 -0.009611 0.000000
# 2 0.000760 0.008050 -0.005698 0.000000 0.001823 0.000000
# 3 -0.001154 -0.005698 0.053995 0.000000 -0.014671 0.000000
# 4 0.000000 0.000000 0.000000 -0.000366 0.000000 0.066530
# 5 -0.009611 0.001823 -0.014671 0.000000 0.049437 0.000000
# 6 0.000000 0.000000 0.000000 0.066530 0.000000 0.014791
#
#
# Mechanical properties :
#
#
# Convention : Reuss Voigt Hill
#
# Bulk Modulus (GPa) = 13.38428 25.11592 19.25010
# Shear Modulus (GPa) = 26.61656 16.71412 21.66534
#
# Velocity S-wave (km/s) = 3.65393 2.89551 3.29660
# Velocity P-wave (km/s) = 4.95129 4.87618 4.91388
#
# Compressibility (1/GPa) = 0.07471452
#
# Stress axis : x y z
#
# Youngs Moduli (GPa) = 40.23310 124.22759 18.52015
#
# Poissons Ratio (x) = -0.09437 0.02138
# Poissons Ratio (y) = -0.03056 0.10553
# Poissons Ratio (z) = 0.04644 0.70786
#
# Static dielectric constant tensor:
#      x y z
#    x 1.669760 0.000000 0.005360 
#    y 0.000000 1.780450 0.000000 
#    z 0.005360 0.000000 1.740160 
# 
# From -- ./inp_files/207758.got.cif
#   From: 2010.05.17/outbox.cif.g08.bks.cpg/sg12_104_cif.got.tgz:207758.got - 2010.06.03 13:09:07.
