data_PCOD9190411
_publ_section_title
;
Structure prediction by ZEFSAII (Michael W. Deem and Ramdas Pophale) SiO2 
 PCOD9190411
Probable space group: C 2/M
;
_chemical_formula_sum "Si O2"
_cell_formula_units_Z 64
_cell_length_a 22.337365
_cell_length_b 10.360772
_cell_length_c 20.642329
_cell_angle_alpha 90.000000
_cell_angle_beta 131.165630
_cell_angle_gamma 90.000000
_cell_volume 3596.400717
_symmetry_space_group_name_H-M "C 2/M"
_symmetry_group_IT_number 12
_symmetry_cell_setting 'monoclinic'
loop_
_space_group_symop_operation_xyz
x,y,z
-x,y,-z
-x,-y,-z
x,-y,z
1/2+x,1/2+y,z
1/2-x,1/2+y,-z
1/2-x,1/2-y,-z
1/2+x,1/2-y,z
loop_
_atom_site_type_symbol
_atom_site_label
_atom_site_fract_x
_atom_site_fract_y
_atom_site_fract_z
Si Si1 0.617631 0.360163 0.079148
Si Si2 0.836000 0.848765 0.624141
Si Si3 0.949771 0.640889 0.057494
Si Si4 0.193124 0.351798 0.789846
Si Si5 0.384057 0.761623 0.788585
Si Si6 0.817371 0.651038 0.072297
Si Si7 0.690416 0.350067 0.534282
Si Si8 0.296939 0.648155 0.313941
O O1 0.589903 0.500000 0.037321
O O2 0.711374 0.347638 0.131519
O O3 0.610948 0.345146 0.151479
O O4 0.572151 0.248617 0.009883
O O5 0.889437 0.797870 0.720829
O O6 0.758227 0.758137 0.574709
O O7 0.863195 0.836787 0.568464
O O8 0.817919 0.000000 0.622497
O O9 0.932567 0.500000 0.016967
O O10 0.892014 0.660387 0.077588
O O11 0.040644 0.649274 0.144396
O O12 0.172944 0.500000 0.757362
O O13 0.159027 0.321123 0.836476
O O14 0.176423 0.249861 0.721283
O O15 0.297375 0.826878 0.737836
O O16 0.789781 0.500000 0.051154
O O17 0.750000 0.750000 0.000000
O O18 0.721294 0.500000 0.553875
O O19 0.659628 0.334480 0.585568
O O20 0.306137 0.500000 0.299141
#
# Coordination Sequence:
#
# PCOD9190411 Si02
#       8
#     8   8   8   8   8   8   8   8
#     4  10  20  33  48  67  94 126 159 196 235 278
#     4   9  16  28  46  66  93 129 161 188 225 277
#     4  11  23  35  50  68  91 125 163 199 240 284
#     4   9  18  32  49  69  93 119 153 197 240 277
#     4  10  20  31  45  69  99 127 159 192 230 276
#     4  10  20  36  53  70  89 118 159 204 245 282
#     4   8  15  27  44  69  97 125 156 191 229 271
#     4   9  17  29  47  70  98 125 152 187 229 276
#
# _framework density 17.795570999999999
#
# number of rings (size 3 to 8) (size 9 to 14) (size 15 to 20)
#    0.000    2.500    1.250    1.125    0.000    8.500 
#    0.000    0.000    0.000    0.000    0.000    0.875 
#    0.000    6.000    0.000    0.000    0.000    0.000 
#
# Total GULP energy -178152.825241 kJ/mol
# GULP energy per Si atom -5567.275789 kJ/mol
# Density = 1.775507 g / cm^3
# Si number density = 17.795571 Si / 1000 Ang^3
#
#
#
# Elastic Constant Matrix: (Units=GPa)
#
#
# Indices 1 2 3 4 5 6 
#
# 1 47.2052 21.2814 22.2406 0.0000 -22.1809 0.0000
# 2 21.2814 113.2013 51.6256 0.0000 -33.4221 0.0000
# 3 22.2406 51.6256 90.0876 0.0000 -39.9562 0.0000
# 4 0.0000 0.0000 0.0000 25.3503 0.0000 -6.8183
# 5 -22.1809 -33.4221 -39.9562 0.0000 28.7871 0.0000
# 6 0.0000 0.0000 0.0000 -6.8183 0.0000 13.1709
#
#
#
# Elastic Compliance Matrix: (Units=1/GPa)
#
#
# Indices 1 2 3 4 5 6 
#
# 1 0.035883 0.001550 0.008622 0.000000 0.041415 0.000000
# 2 0.001550 0.013653 -0.001682 0.000000 0.014710 0.000000
# 3 0.008622 -0.001682 0.031260 0.000000 0.048079 0.000000
# 4 0.000000 0.000000 0.000000 0.045828 0.000000 0.023724
# 5 0.041415 0.014710 0.048079 0.000000 0.150460 0.000000
# 6 0.000000 0.000000 0.000000 0.023724 0.000000 0.088207
#
#
# Mechanical properties :
#
#
# Convention : Reuss Voigt Hill
#
# Bulk Modulus (GPa) = 10.22761 48.97659 29.60210
# Shear Modulus (GPa) = 13.12667 23.81810 18.47239
#
# Velocity S-wave (km/s) = 2.71889 3.66242 3.22535
# Velocity P-wave (km/s) = 3.95174 6.74285 5.52640
#
# Compressibility (1/GPa) = 0.09777455
#
# Stress axis : x y z
#
# Youngs Moduli (GPa) = 27.86804 73.24555 31.98988
#
# Poissons Ratio (x) = -0.11350 -0.27581
# Poissons Ratio (y) = -0.04318 0.05381
# Poissons Ratio (z) = -0.24027 0.12319
#
# Static dielectric constant tensor:
#      x y z
#    x 1.619260 0.000000 -0.027260 
#    y 0.000000 1.618080 0.000000 
#    z -0.027260 0.000000 1.624000 
# 
# From -- ./inp_files/324296.got.cif
#   From: 2010.05.17/outbox.cif.g08.bks.cpg/sg12_163_cif.got.tgz:324296.got - 2010.06.03 13:09:07.
