data_PCOD9190648
_publ_section_title
;
Structure prediction by ZEFSAII (Michael W. Deem and Ramdas Pophale) SiO2 
 PCOD9190648
Probable space group: C 2/M
;
_chemical_formula_sum "Si O2"
_cell_formula_units_Z 56
_cell_length_a 30.448460
_cell_length_b 7.516458
_cell_length_c 20.060437
_cell_angle_alpha 90.000000
_cell_angle_beta 144.577812
_cell_angle_gamma 90.000000
_cell_volume 2661.000330
_symmetry_space_group_name_H-M "C 2/M"
_symmetry_group_IT_number 12
_symmetry_cell_setting 'monoclinic'
loop_
_space_group_symop_operation_xyz
x,y,z
-x,y,-z
-x,-y,-z
x,-y,z
1/2+x,1/2+y,z
1/2-x,1/2+y,-z
1/2-x,1/2-y,-z
1/2+x,1/2-y,z
loop_
_atom_site_type_symbol
_atom_site_label
_atom_site_fract_x
_atom_site_fract_y
_atom_site_fract_z
Si Si1 0.745578 0.713464 0.295816
Si Si2 0.163931 0.789070 0.869966
Si Si3 0.610337 0.205314 0.942367
Si Si4 0.444981 0.783019 0.769488
Si Si5 0.309873 0.787062 0.515221
Si Si6 0.274987 0.286703 0.187666
Si Si7 0.082239 0.794276 0.116048
O O1 0.738749 0.500000 0.294170
O O2 0.782357 0.782449 0.409627
O O3 0.790614 0.749527 0.283843
O O4 0.659243 0.784197 0.181460
O O5 0.112282 0.709868 0.864131
O O6 0.166172 0.723794 0.796239
O O7 0.150568 0.000000 0.854766
O O8 0.250000 0.750000 0.000000
O O9 0.531442 0.281768 0.870660
O O10 0.610734 0.000000 0.964141
O O11 0.690096 0.285082 0.065929
O O12 0.391494 0.725030 0.642658
O O13 0.409117 0.715404 0.793706
O O14 0.445106 0.000000 0.771552
O O15 0.250000 0.750000 0.500000
O O16 0.314842 0.000000 0.515009
O O17 0.271552 0.500000 0.174432
O O18 0.077890 0.000000 0.088320
O O19 0.000000 0.711114 0.000000
#
# Coordination Sequence:
#
# PCOD9190648 Si02
#       7
#     8   8   8   8   8   8   8
#     4  10  20  32  47  69  97 127 164 205 242 289
#     4   9  17  30  49  74 102 131 162 197 239 293
#     4   9  18  32  49  74 103 128 160 202 245 294
#     4  10  20  33  51  72  96 128 166 207 247 289
#     4  10  20  35  52  70  93 127 171 212 247 289
#     4   9  18  31  48  72 100 126 157 196 240 292
#     4  10  20  32  46  69 101 131 159 197 245 295
#
# _framework density 21.044718
#
# number of rings (size 3 to 8) (size 9 to 14) (size 15 to 20)
#    0.000    2.429    1.429    2.143    0.000    4.857 
#    0.000    0.000    0.000    0.857    0.000    6.000 
#    0.000    0.000    0.000    0.000    0.000    0.000 
#
# Total GULP energy -156169.440712 kJ/mol
# GULP energy per Si atom -5577.480025 kJ/mol
# Density = 2.099682 g / cm^3
# Si number density = 21.044718 Si / 1000 Ang^3
#
#
#
# Elastic Constant Matrix: (Units=GPa)
#
#
# Indices 1 2 3 4 5 6 
#
# 1 78.5102 -12.9211 1.1189 0.0000 -30.9305 0.0000
# 2 -12.9211 58.5646 1.5717 0.0000 6.0305 0.0000
# 3 1.1189 1.5717 65.7640 0.0000 -25.8480 0.0000
# 4 0.0000 0.0000 0.0000 9.2328 0.0000 -10.2087
# 5 -30.9305 6.0305 -25.8480 0.0000 34.9320 0.0000
# 6 0.0000 0.0000 0.0000 -10.2087 0.0000 15.9274
#
#
#
# Elastic Compliance Matrix: (Units=1/GPa)
#
#
# Indices 1 2 3 4 5 6 
#
# 1 0.024653 0.002070 0.011239 0.000000 0.029788 0.000000
# 2 0.002070 0.017797 -0.001336 0.000000 -0.002228 0.000000
# 3 0.011239 -0.001336 0.026861 0.000000 0.030058 0.000000
# 4 0.000000 0.000000 0.000000 0.371817 0.000000 0.238317
# 5 0.029788 -0.002228 0.030058 0.000000 0.077629 0.000000
# 6 0.000000 0.000000 0.000000 0.238317 0.000000 0.215535
#
#
# Mechanical properties :
#
#
# Convention : Reuss Voigt Hill
#
# Bulk Modulus (GPa) = 10.72303 20.26420 15.49362
# Shear Modulus (GPa) = 6.74371 26.22306 16.48338
#
# Velocity S-wave (km/s) = 1.79204 3.53379 2.80171
# Velocity P-wave (km/s) = 3.06404 5.12838 4.22425
#
# Compressibility (1/GPa) = 0.09325719
#
# Stress axis : x y z
#
# Youngs Moduli (GPa) = 40.56248 56.18852 37.22932
#
# Poissons Ratio (x) = -0.11633 -0.41842
# Poissons Ratio (y) = -0.08398 0.04975
# Poissons Ratio (z) = -0.45588 0.07508
#
# Static dielectric constant tensor:
#      x y z
#    x 1.771450 0.000000 -0.027430 
#    y 0.000000 1.738050 0.000000 
#    z -0.027430 0.000000 1.784300 
# 
# From -- ./inp_files/287913.got.cif
#   From: 2010.05.17/outbox.cif.g08.bks.cpg/sg12_144_cif.got.tgz:287913.got - 2010.06.03 13:09:07.
