data_PCOD9190075
_publ_section_title
;
Structure prediction by ZEFSAII (Michael W. Deem and Ramdas Pophale) SiO2 
 PCOD9190075
Probable space group: C 2/M
;
_chemical_formula_sum "Si O2"
_cell_formula_units_Z 58
_cell_length_a 20.329658
_cell_length_b 7.579198
_cell_length_c 16.267499
_cell_angle_alpha 90.000000
_cell_angle_beta 82.734811
_cell_angle_gamma 90.000000
_cell_volume 2486.413135
_symmetry_space_group_name_H-M "C 2/M"
_symmetry_group_IT_number 12
_symmetry_cell_setting 'monoclinic'
loop_
_space_group_symop_operation_xyz
x,y,z
-x,y,-z
-x,-y,-z
x,-y,z
1/2+x,1/2+y,z
1/2-x,1/2+y,-z
1/2-x,1/2-y,-z
1/2+x,1/2-y,z
loop_
_atom_site_type_symbol
_atom_site_label
_atom_site_fract_x
_atom_site_fract_y
_atom_site_fract_z
Si Si1 0.950491 0.285455 0.256182
Si Si2 0.292845 0.788915 0.073446
Si Si3 0.000000 0.500000 0.500000
Si Si4 0.784667 0.215000 0.751313
Si Si5 0.401973 0.310860 0.492618
Si Si6 0.315039 0.212063 0.370997
Si Si7 0.441664 0.783884 0.069217
Si Si8 0.579556 0.203045 0.331209
O O1 0.952865 0.500000 0.255254
O O2 0.881282 0.236882 0.309210
O O3 0.952772 0.228307 0.161457
O O4 0.015026 0.227419 0.295988
O O5 0.257181 0.727135 0.162645
O O6 0.368287 0.724525 0.054523
O O7 0.296976 0.000000 0.081350
O O8 0.250000 0.750000 0.000000
O O9 0.952511 0.655016 0.465379
O O10 0.746847 0.271269 0.673808
O O11 0.858344 0.291615 0.739363
O O12 0.788259 0.000000 0.751318
O O13 0.428661 0.500000 0.462548
O O14 0.331832 0.282261 0.458774
O O15 0.397537 0.303857 0.591512
O O16 0.311918 0.000000 0.375782
O O17 0.442212 0.000000 0.068127
O O18 0.500000 0.724621 0.000000
O O19 0.566056 0.000000 0.364491
#
# Coordination Sequence:
#
# PCOD9190075 Si02
#       8
#     8   8   2   8   8   8   8   8
#     4   9  18  33  58  87 118 161 209 262 322 375
#     4  10  21  38  61  90 124 165 210 264 326 397
#     4  12  22  44  64  98 140 172 224 270 330 396
#     4  10  22  40  62  90 126 174 219 263 333 406
#     4  12  25  41  66  98 134 177 224 278 337 396
#     4  10  19  39  67  88 123 170 220 278 330 392
#     4   9  17  32  57  91 121 153 208 263 315 382
#     4  11  23  39  62  94 132 168 212 278 336 393
#
# _framework density 23.326775000000001
#
# number of rings (size 3 to 8) (size 9 to 14) (size 15 to 20)
#    0.000    1.793    2.759    1.448    3.862    1.655 
#    0.000    0.690    0.000    2.069    0.000    0.000 
#    0.000    0.000    0.000    0.000    0.000    0.000 
#
# Total GULP energy -162064.924730 kJ/mol
# GULP energy per Si atom -5588.445680 kJ/mol
# Density = 2.327368 g / cm^3
# Si number density = 23.326775 Si / 1000 Ang^3
#
#
#
# Elastic Constant Matrix: (Units=GPa)
#
#
# Indices 1 2 3 4 5 6 
#
# 1 142.7960 5.5977 46.9885 0.0000 9.2660 0.0000
# 2 5.5977 97.7078 0.6738 0.0000 -2.6396 0.0000
# 3 46.9885 0.6738 85.1458 0.0000 13.3710 0.0000
# 4 0.0000 0.0000 0.0000 6.0992 0.0000 4.1473
# 5 9.2660 -2.6396 13.3710 0.0000 43.8114 0.0000
# 6 0.0000 0.0000 0.0000 4.1473 0.0000 5.8006
#
#
#
# Elastic Compliance Matrix: (Units=1/GPa)
#
#
# Indices 1 2 3 4 5 6 
#
# 1 0.008585 -0.000471 -0.004668 0.000000 -0.000419 0.000000
# 2 -0.000471 0.010280 0.000069 0.000000 0.000698 0.000000
# 3 -0.004668 0.000069 0.014877 0.000000 -0.003549 0.000000
# 4 0.000000 0.000000 0.000000 0.319094 0.000000 -0.228147
# 5 -0.000419 0.000698 -0.003549 0.000000 0.024039 0.000000
# 6 0.000000 0.000000 0.000000 -0.228147 0.000000 0.335517
#
#
# Mechanical properties :
#
#
# Convention : Reuss Voigt Hill
#
# Bulk Modulus (GPa) = 42.36906 48.01885 45.19395
# Shear Modulus (GPa) = 6.84558 29.30153 18.07355
#
# Velocity S-wave (km/s) = 1.71494 3.54804 2.78654
# Velocity P-wave (km/s) = 4.70362 6.11676 5.45614
#
# Compressibility (1/GPa) = 0.02360213
#
# Stress axis : x y z
#
# Youngs Moduli (GPa) = 116.48601 97.27669 67.21590
#
# Poissons Ratio (x) = 0.04581 0.31376
# Poissons Ratio (y) = 0.05486 -0.00463
# Poissons Ratio (z) = 0.54375 -0.00671
#
# Static dielectric constant tensor:
#      x y z
#    x 1.851220 0.000000 0.022170 
#    y 0.000000 1.904240 0.000000 
#    z 0.022170 0.000000 1.785930 
# 
# From -- ./inp_files/313866.got.cif
#   From: 2010.05.17/outbox.cif.g08.bks.cpg/sg12_157_cif.got.tgz:313866.got - 2010.06.03 13:09:07.
