data_PCOD9190356
_publ_section_title
;
Structure prediction by ZEFSAII (Michael W. Deem and Ramdas Pophale) SiO2 
 PCOD9190356
Probable space group: C 2/M
;
_chemical_formula_sum "Si O2"
_cell_formula_units_Z 56
_cell_length_a 27.719209
_cell_length_b 18.051104
_cell_length_c 7.533368
_cell_angle_alpha 90.000000
_cell_angle_beta 134.036147
_cell_angle_gamma 90.000000
_cell_volume 2709.836690
_symmetry_space_group_name_H-M "C 2/M"
_symmetry_group_IT_number 12
_symmetry_cell_setting 'monoclinic'
loop_
_space_group_symop_operation_xyz
x,y,z
-x,y,-z
-x,-y,-z
x,-y,z
1/2+x,1/2+y,z
1/2-x,1/2+y,-z
1/2-x,1/2-y,-z
1/2+x,1/2-y,z
loop_
_atom_site_type_symbol
_atom_site_label
_atom_site_fract_x
_atom_site_fract_y
_atom_site_fract_z
Si Si1 0.158268 0.714935 0.189321
Si Si2 0.276788 0.371329 0.584672
Si Si3 0.373288 0.785917 0.478128
Si Si4 0.495050 0.579383 0.701336
Si Si5 0.157441 0.884934 0.605467
Si Si6 0.222786 0.419154 0.822883
Si Si7 0.017975 0.759823 0.746928
O O1 0.213138 0.652514 0.299345
O O2 0.192929 0.794911 0.257559
O O3 0.140688 0.706627 0.350226
O O4 0.086947 0.715414 0.915580
O O5 0.326635 0.400597 0.561358
O O6 0.252523 0.413983 0.696952
O O7 0.346709 0.703731 0.365419
O O8 0.329894 0.851939 0.281691
O O9 0.453701 0.782464 0.660400
O O10 0.500000 0.577061 0.500000
O O11 0.522264 0.500000 0.837588
O O12 0.416276 0.585277 0.541552
O O13 0.526829 0.657182 0.851437
O O14 0.214981 0.914012 0.882793
O O15 0.190280 0.500000 0.759636
O O16 0.000000 0.774756 0.500000
#
# Coordination Sequence:
#
# PCOD9190356 Si02
#       7
#     8   8   8   8   8   8   8
#     4   9  18  36  56  85 113 145 188 237 291 324
#     4   9  21  36  59  84 116 145 189 243 274 344
#     4   9  20  37  56  82 113 150 194 243 277 339
#     4   9  19  34  51  81 118 150 185 222 278 344
#     4  10  20  37  61  84 111 158 195 233 278 333
#     4  11  23  36  58  86 117 153 190 237 296 344
#     4  10  20  30  58  87 108 150 193 235 284 336
#
# _framework density 20.66545
#
# number of rings (size 3 to 8) (size 9 to 14) (size 15 to 20)
#    0.000    2.429    0.000    2.143    8.000    1.143 
#    0.000    0.000    0.000   19.286    0.000    0.000 
#    0.000    0.000    0.000    0.000    0.000    0.000 
#
# Total GULP energy -156136.160591 kJ/mol
# GULP energy per Si atom -5576.291450 kJ/mol
# Density = 2.061841 g / cm^3
# Si number density = 20.665450 Si / 1000 Ang^3
#
#
#
# Elastic Constant Matrix: (Units=GPa)
#
#
# Indices 1 2 3 4 5 6 
#
# 1 88.7505 16.6728 1.9210 0.0000 17.3762 0.0000
# 2 16.6728 47.8648 2.0687 0.0000 -3.9104 0.0000
# 3 1.9210 2.0687 55.4224 0.0000 8.2046 0.0000
# 4 0.0000 0.0000 0.0000 92.8867 0.0000 -88.2367
# 5 17.3762 -3.9104 8.2046 0.0000 23.8440 0.0000
# 6 0.0000 0.0000 0.0000 -88.2367 0.0000 100.0306
#
#
#
# Elastic Compliance Matrix: (Units=1/GPa)
#
#
# Indices 1 2 3 4 5 6 
#
# 1 0.014827 -0.006241 0.001549 0.000000 -0.012362 0.000000
# 2 -0.006241 0.023903 -0.002033 0.000000 0.009168 0.000000
# 3 0.001549 -0.002033 0.019263 0.000000 -0.008091 0.000000
# 4 0.000000 0.000000 0.000000 0.066430 0.000000 0.058598
# 5 -0.012362 0.009168 -0.008091 0.000000 0.055235 0.000000
# 6 0.000000 0.000000 0.000000 0.058598 0.000000 0.061686
#
#
# Mechanical properties :
#
#
# Convention : Reuss Voigt Hill
#
# Bulk Modulus (GPa) = 22.45070 25.92918 24.18994
# Shear Modulus (GPa) = 18.54303 54.77727 36.66015
#
# Velocity S-wave (km/s) = 2.99874 5.15405 4.21644
# Velocity P-wave (km/s) = 4.78303 6.92772 5.95276
#
# Compressibility (1/GPa) = 0.04454204
#
# Stress axis : x y z
#
# Youngs Moduli (GPa) = 67.44554 41.83551 51.91255
#
# Poissons Ratio (x) = 0.26111 -0.08041
# Poissons Ratio (y) = 0.42096 0.10554
# Poissons Ratio (z) = -0.10447 0.08505
#
# Static dielectric constant tensor:
#      x y z
#    x 1.690460 0.000000 -0.073530 
#    y 0.000000 1.808400 0.000000 
#    z -0.073530 0.000000 1.678970 
# 
# From -- ./inp_files/112657.got.cif
#   From: 2010.05.17/outbox.cif.g08.bks.cpg/sg12_57_cif.got.tgz:112657.got - 2010.06.03 13:09:07.
