data_PCOD9190054
_publ_section_title
;
Structure prediction by ZEFSAII (Michael W. Deem and Ramdas Pophale) SiO2 
 PCOD9190054
Probable space group: C 2/M
;
_chemical_formula_sum "Si O2"
_cell_formula_units_Z 50
_cell_length_a 16.841437
_cell_length_b 14.810707
_cell_length_c 10.931554
_cell_angle_alpha 90.000000
_cell_angle_beta 67.243887
_cell_angle_gamma 90.000000
_cell_volume 2514.449874
_symmetry_space_group_name_H-M "C 2/M"
_symmetry_group_IT_number 12
_symmetry_cell_setting 'monoclinic'
loop_
_space_group_symop_operation_xyz
x,y,z
-x,y,-z
-x,-y,-z
x,-y,z
1/2+x,1/2+y,z
1/2-x,1/2+y,-z
1/2-x,1/2-y,-z
1/2+x,1/2-y,z
loop_
_atom_site_type_symbol
_atom_site_label
_atom_site_fract_x
_atom_site_fract_y
_atom_site_fract_z
Si Si1 0.897485 0.155207 0.937766
Si Si2 0.093228 0.335208 0.907689
Si Si3 0.524292 0.246378 0.707158
Si Si4 0.222120 0.898785 0.204343
Si Si5 0.083860 0.397832 0.361588
Si Si6 0.822773 0.248419 0.561653
Si Si7 0.500000 0.500000 0.000000
O O1 0.816567 0.130767 0.902981
O O2 0.975349 0.169308 0.794130
O O3 0.928331 0.078440 0.010101
O O4 0.890227 0.248532 0.015568
O O5 0.083120 0.298137 0.776257
O O6 0.174982 0.397882 0.866057
O O7 0.000000 0.373663 0.000000
O O8 0.451256 0.172481 0.717646
O O9 0.585236 0.270376 0.557979
O O10 0.196671 0.825691 0.323062
O O11 0.191210 0.000000 0.252268
O O12 0.104762 0.500000 0.309457
O O13 0.161207 0.346459 0.385119
O O14 0.000000 0.404726 0.500000
O O15 0.750000 0.250000 0.500000
#
# Coordination Sequence:
#
# PCOD9190054 Si02
#       7
#     8   8   8   8   8   8   2
#     4  11  22  41  68  93 126 172 212 264 322 383
#     4  10  22  42  68  88 125 172 211 266 329 379
#     4  10  19  39  65  91 128 167 206 259 324 383
#     4  12  25  41  65  97 131 168 218 272 324 388
#     4   9  19  35  62  91 119 166 215 253 308 382
#     4  11  22  39  63  90 134 171 202 263 330 381
#     4  12  20  40  72  98 120 172 226 254 316 392
#
# _framework density 19.885065000000001
#
# number of rings (size 3 to 8) (size 9 to 14) (size 15 to 20)
#    0.000    1.440    6.400    0.480    0.000    1.600 
#    1.440    3.200    5.280    0.000    0.000    0.000 
#    0.000    0.000    0.000    0.000    0.000    0.000 
#
# Total GULP energy -139219.684961 kJ/mol
# GULP energy per Si atom -5568.787398 kJ/mol
# Density = 1.983981 g / cm^3
# Si number density = 19.885065 Si / 1000 Ang^3
#
#
#
# Elastic Constant Matrix: (Units=GPa)
#
#
# Indices 1 2 3 4 5 6 
#
# 1 132.7019 34.6769 15.2755 0.0000 23.6809 0.0000
# 2 34.6769 96.1776 19.8169 0.0000 1.4337 0.0000
# 3 15.2755 19.8169 48.5364 0.0000 4.4397 0.0000
# 4 0.0000 0.0000 0.0000 -6.1009 0.0000 -11.6851
# 5 23.6809 1.4337 4.4397 0.0000 29.0695 0.0000
# 6 0.0000 0.0000 0.0000 -11.6851 0.0000 19.5833
#
#
#
# Elastic Compliance Matrix: (Units=1/GPa)
#
#
# Indices 1 2 3 4 5 6 
#
# 1 0.009882 -0.003224 -0.001087 0.000000 -0.007725 0.000000
# 2 -0.003224 0.012405 -0.004294 0.000000 0.002670 0.000000
# 3 -0.001087 -0.004294 0.022918 0.000000 -0.002403 0.000000
# 4 0.000000 0.000000 0.000000 -0.076492 0.000000 -0.045642
# 5 -0.007725 0.002670 -0.002403 0.000000 0.040929 0.000000
# 6 0.000000 0.000000 0.000000 -0.045642 0.000000 0.023830
#
#
# Mechanical properties :
#
#
# Convention : Reuss Voigt Hill
#
# Bulk Modulus (GPa) = 35.72153 46.32826 41.02490
# Shear Modulus (GPa) = 83.31448 22.35349 52.83398
#
# Velocity S-wave (km/s) = 6.47989 3.35645 5.16017
# Velocity P-wave (km/s) = 8.60164 6.19432 7.49526
#
# Compressibility (1/GPa) = 0.02799432
#
# Stress axis : x y z
#
# Youngs Moduli (GPa) = 101.19651 80.61408 43.63306
#
# Poissons Ratio (x) = 0.25988 0.04744
# Poissons Ratio (y) = 0.32623 0.18738
# Poissons Ratio (z) = 0.11002 0.34619
#
# Static dielectric constant tensor:
#      x y z
#    x 1.723870 0.000000 -0.000220 
#    y 0.000000 1.658130 0.000000 
#    z -0.000220 0.000000 1.731050 
# 
# From -- ./inp_files/143684.got.cif
#   From: 2010.05.17/outbox.cif.g08.bks.cpg/sg12_72_cif.got.tgz:143684.got - 2010.06.03 13:09:07.
