data_PCOD9190225
_publ_section_title
;
Structure prediction by ZEFSAII (Michael W. Deem and Ramdas Pophale) SiO2 
 PCOD9190225
Probable space group: C 2/M
;
_chemical_formula_sum "Si O2"
_cell_formula_units_Z 36
_cell_length_a 9.318812
_cell_length_b 14.754417
_cell_length_c 21.381334
_cell_angle_alpha 90.000000
_cell_angle_beta 143.325705
_cell_angle_gamma 90.000000
_cell_volume 1755.839214
_symmetry_space_group_name_H-M "C 2/M"
_symmetry_group_IT_number 12
_symmetry_cell_setting 'monoclinic'
loop_
_space_group_symop_operation_xyz
x,y,z
-x,y,-z
-x,-y,-z
x,-y,z
1/2+x,1/2+y,z
1/2-x,1/2+y,-z
1/2-x,1/2-y,-z
1/2+x,1/2-y,z
loop_
_atom_site_type_symbol
_atom_site_label
_atom_site_fract_x
_atom_site_fract_y
_atom_site_fract_z
Si Si1 0.395395 0.697703 0.770888
Si Si2 0.417594 0.199228 0.903518
Si Si3 0.372895 0.500000 0.742286
Si Si4 0.528069 0.500000 0.362344
Si Si5 0.972124 0.184791 0.564135
Si Si6 0.111225 0.500000 0.124583
O O1 0.474092 0.736694 0.865413
O O2 0.627213 0.691344 0.806769
O O3 0.291612 0.595834 0.741122
O O4 0.205483 0.765695 0.674283
O O5 0.514944 0.096648 0.927223
O O6 0.500000 0.232649 0.000000
O O7 0.666643 0.500000 0.847691
O O8 0.678282 0.500000 0.350149
O O9 0.568537 0.589745 0.415768
O O10 0.253225 0.500000 0.240098
O O11 0.750000 0.250000 0.500000
O O12 0.000000 0.171840 0.500000
#
# Coordination Sequence:
#
# PCOD9190225 Si02
#       6
#     8   8   4   4   8   4
#     4  11  21  41  57  87 123 154 198 252 294 352
#     4  11  21  37  64  90 117 158 201 245 302 357
#     4   8  18  35  61  76 115 165 185 240 309 339
#     4  10  19  42  59  87 120 160 198 246 290 357
#     4  12  24  39  64  92 120 161 201 245 300 357
#     4   8  17  37  61  82 117 155 196 238 294 353
#
# _framework density 20.503015999999999
#
# number of rings (size 3 to 8) (size 9 to 14) (size 15 to 20)
#    0.667    0.889    2.222    4.000    0.000    0.889 
#    0.000    7.222    0.000    0.000    0.000    0.000 
#    0.000    0.000    0.000    0.000    0.000    0.000 
#
# Total GULP energy -100509.379258 kJ/mol
# GULP energy per Si atom -5583.854403 kJ/mol
# Density = 2.045635 g / cm^3
# Si number density = 20.503016 Si / 1000 Ang^3
#
#
#
# Elastic Constant Matrix: (Units=GPa)
#
#
# Indices 1 2 3 4 5 6 
#
# 1 65.4662 51.4404 23.0409 0.0000 -27.0517 0.0000
# 2 51.4404 189.1140 43.0353 0.0000 -32.1283 0.0000
# 3 23.0409 43.0353 71.8990 -0.0001 -28.4246 0.0001
# 4 0.0000 0.0000 -0.0001 18.7542 0.0000 -7.5778
# 5 -27.0517 -32.1283 -28.4246 0.0000 45.9692 0.0000
# 6 0.0000 0.0000 0.0001 -7.5778 0.0000 25.1762
#
#
#
# Elastic Compliance Matrix: (Units=1/GPa)
#
#
# Indices 1 2 3 4 5 6 
#
# 1 0.023184 -0.004413 -0.000813 0.000000 0.010057 0.000000
# 2 -0.004413 0.007218 -0.002566 0.000000 0.000862 0.000000
# 3 -0.000813 -0.002566 0.019597 0.000000 0.009846 0.000000
# 4 0.000000 0.000000 0.000000 0.060704 0.000000 0.018271
# 5 0.010057 0.000862 0.009846 0.000000 0.034362 0.000000
# 6 0.000000 0.000000 0.000000 0.018271 0.000000 0.045219
#
#
# Mechanical properties :
#
#
# Convention : Reuss Voigt Hill
#
# Bulk Modulus (GPa) = 29.05510 62.39025 45.72267
# Shear Modulus (GPa) = 23.00543 31.91077 27.45810
#
# Velocity S-wave (km/s) = 3.35334 3.94940 3.66351
# Velocity P-wave (km/s) = 5.40324 7.16190 6.34381
#
# Compressibility (1/GPa) = 0.03441737
#
# Stress axis : x y z
#
# Youngs Moduli (GPa) = 43.13325 138.53499 51.02764
#
# Poissons Ratio (x) = 0.61133 0.04146
# Poissons Ratio (y) = 0.19034 0.13093
# Poissons Ratio (z) = 0.03505 0.35545
#
# Static dielectric constant tensor:
#      x y z
#    x 1.716650 0.000000 0.035670 
#    y 0.000000 1.742730 0.000000 
#    z 0.035670 0.000000 1.784400 
# 
# From -- ./inp_files/127968.got.cif
#   From: 2010.05.17/outbox.cif.g08.bks.cpg/sg12_64_cif.got.tgz:127968.got - 2010.06.03 13:09:07.
