data_PCOD9190791
_publ_section_title
;
Structure prediction by ZEFSAII (Michael W. Deem and Ramdas Pophale) SiO2 
 PCOD9190791
Probable space group: C 2/M
;
_chemical_formula_sum "Si O2"
_cell_formula_units_Z 64
_cell_length_a 28.967011
_cell_length_b 8.450406
_cell_length_c 14.829969
_cell_angle_alpha 90.000000
_cell_angle_beta 74.936937
_cell_angle_gamma 90.000000
_cell_volume 3505.394626
_symmetry_space_group_name_H-M "C 2/M"
_symmetry_group_IT_number 12
_symmetry_cell_setting 'monoclinic'
loop_
_space_group_symop_operation_xyz
x,y,z
-x,y,-z
-x,-y,-z
x,-y,z
1/2+x,1/2+y,z
1/2-x,1/2+y,-z
1/2-x,1/2-y,-z
1/2+x,1/2-y,z
loop_
_atom_site_type_symbol
_atom_site_label
_atom_site_fract_x
_atom_site_fract_y
_atom_site_fract_z
Si Si1 0.386122 0.313134 0.598866
Si Si2 0.316166 0.691228 0.783746
Si Si3 0.416787 0.188607 0.390031
Si Si4 0.639019 0.307254 0.053392
Si Si5 0.981986 0.318124 0.613235
Si Si6 0.708822 0.690968 0.856274
Si Si7 0.123791 0.190673 0.773050
Si Si8 0.945437 0.806847 0.029726
O O1 0.381924 0.500000 0.587604
O O2 0.340973 0.253255 0.678808
O O3 0.394191 0.237913 0.496956
O O4 0.433262 0.278566 0.635187
O O5 0.318047 0.500000 0.782557
O O6 0.346843 0.747344 0.854490
O O7 0.261646 0.742270 0.822270
O O8 0.471999 0.248773 0.357748
O O9 0.387108 0.245724 0.319917
O O10 0.420405 0.000000 0.387899
O O11 0.638145 0.500000 0.054820
O O12 0.680667 0.261218 0.961565
O O13 0.588386 0.256309 0.036510
O O14 0.972188 0.500000 0.644922
O O15 0.000000 0.321886 0.500000
O O16 0.711282 0.500000 0.855376
O O17 0.674214 0.739711 0.791410
O O18 0.082589 0.239771 0.865034
O O19 0.123469 0.000000 0.770365
O O20 0.946238 0.000000 0.028018
O O21 0.000000 0.751231 0.000000
#
# Coordination Sequence:
#
# PCOD9190791 Si02
#       8
#     8   8   8   8   8   8   8   8
#     4  10  20  32  48  74 103 128 161 206 248 286
#     4  10  20  32  49  74 101 127 159 205 252 291
#     4  10  20  34  52  72  97 133 169 200 241 293
#     4   8  15  29  47  70 100 129 160 196 236 290
#     4   8  16  31  48  67  94 127 160 193 234 286
#     4   9  18  33  52  72  96 128 164 202 245 294
#     4   9  18  32  51  75  99 127 168 209 240 283
#     4   8  14  26  47  75 105 133 158 192 241 290
#
# _framework density 18.257573000000001
#
# number of rings (size 3 to 8) (size 9 to 14) (size 15 to 20)
#    0.000    3.000    0.000    3.375    0.000    5.250 
#    0.000    3.125    0.000    1.125    0.000    0.000 
#    0.000    0.000    0.000    0.000    0.000    0.000 
#
# Total GULP energy -178324.078473 kJ/mol
# GULP energy per Si atom -5572.627452 kJ/mol
# Density = 1.821602 g / cm^3
# Si number density = 18.257573 Si / 1000 Ang^3
#
#
#
# Elastic Constant Matrix: (Units=GPa)
#
#
# Indices 1 2 3 4 5 6 
#
# 1 125.2709 9.3720 72.4616 0.0000 -0.8059 0.0000
# 2 9.3720 5.9490 11.6534 0.0000 2.8832 0.0000
# 3 72.4616 11.6534 84.9864 0.0000 12.9160 0.0000
# 4 0.0000 0.0000 0.0000 4.3200 0.0000 -3.1072
# 5 -0.8059 2.8832 12.9160 0.0000 29.4012 0.0000
# 6 0.0000 0.0000 0.0000 -3.1072 0.0000 24.6514
#
#
#
# Elastic Compliance Matrix: (Units=1/GPa)
#
#
# Indices 1 2 3 4 5 6 
#
# 1 0.017124 0.000338 -0.015766 0.000000 0.007362 0.000000
# 2 0.000338 0.232240 -0.030724 0.000000 -0.009268 0.000000
# 3 -0.015766 -0.030724 0.031106 0.000000 -0.011084 0.000000
# 4 0.000000 0.000000 0.000000 0.254559 0.000000 0.032086
# 5 0.007362 -0.009268 -0.011084 0.000000 0.039992 0.000000
# 6 0.000000 0.000000 0.000000 0.032086 0.000000 0.044610
#
#
# Mechanical properties :
#
#
# Convention : Reuss Voigt Hill
#
# Bulk Modulus (GPa) = 5.31445 44.79780 25.05612
# Shear Modulus (GPa) = 6.45445 19.85581 13.15513
#
# Velocity S-wave (km/s) = 1.88226 3.30136 2.68718
# Velocity P-wave (km/s) = 2.76423 6.25474 4.83543
#
# Compressibility (1/GPa) = 0.18816630
#
# Stress axis : x y z
#
# Youngs Moduli (GPa) = 58.39612 4.30588 32.14764
#
# Poissons Ratio (x) = -0.00145 0.50684
# Poissons Ratio (y) = -0.01971 0.98771
# Poissons Ratio (z) = 0.92067 0.13229
#
# Static dielectric constant tensor:
#      x y z
#    x 1.636830 0.000000 0.003250 
#    y 0.000000 1.627100 0.000000 
#    z 0.003250 0.000000 1.621720 
# 
# From -- ./inp_files/243812.got.cif
#   From: 2010.05.17/outbox.cif.g08.bks.cpg/sg12_122_cif.got.tgz:243812.got - 2010.06.03 13:09:07.
