data_PCOD9190680
_publ_section_title
;
Structure prediction by ZEFSAII (Michael W. Deem and Ramdas Pophale) SiO2 
 PCOD9190680
Probable space group: C 2/M
;
_chemical_formula_sum "Si O2"
_cell_formula_units_Z 56
_cell_length_a 28.569004
_cell_length_b 9.529296
_cell_length_c 17.818826
_cell_angle_alpha 90.000000
_cell_angle_beta 138.924329
_cell_angle_gamma 90.000000
_cell_volume 3187.402183
_symmetry_space_group_name_H-M "C 2/M"
_symmetry_group_IT_number 12
_symmetry_cell_setting 'monoclinic'
loop_
_space_group_symop_operation_xyz
x,y,z
-x,y,-z
-x,-y,-z
x,-y,z
1/2+x,1/2+y,z
1/2-x,1/2+y,-z
1/2-x,1/2-y,-z
1/2+x,1/2-y,z
loop_
_atom_site_type_symbol
_atom_site_label
_atom_site_fract_x
_atom_site_fract_y
_atom_site_fract_z
Si Si1 0.077844 0.163223 0.067192
Si Si2 0.769741 0.660355 0.916816
Si Si3 0.285046 0.839548 0.753285
Si Si4 0.591946 0.662746 0.904179
Si Si5 0.499345 0.165504 0.315984
Si Si6 0.853737 0.334379 0.425784
Si Si7 0.132776 0.336592 0.735024
O O1 0.142281 0.257001 0.175533
O O2 0.087765 0.000000 0.101290
O O3 0.080703 0.168512 0.980180
O O4 0.000000 0.209463 0.000000
O O5 0.771287 0.500000 0.945730
O O6 0.777859 0.658559 0.835676
O O7 0.695305 0.737590 0.840848
O O8 0.836509 0.749605 0.026266
O O9 0.215650 0.757253 0.641015
O O10 0.287118 0.000000 0.729926
O O11 0.599402 0.500000 0.891409
O O12 0.527497 0.737630 0.783598
O O13 0.577732 0.198604 0.441136
O O14 0.441452 0.185504 0.312462
O O15 0.496982 0.000000 0.292602
O O16 0.837178 0.500000 0.413748
O O17 0.873783 0.312487 0.362260
O O18 0.153680 0.500000 0.770372
#
# Coordination Sequence:
#
# PCOD9190680 Si02
#       7
#     8   8   8   8   8   8   8
#     4   9  18  34  56  78  97 119 150 189 234 287
#     4   9  17  30  47  67  94 126 159 197 239 282
#     4   9  17  29  48  75 101 123 151 192 239 280
#     4  10  20  33  49  70  96 125 155 190 238 291
#     4  10  20  32  47  68  96 130 164 200 238 275
#     4   9  17  31  50  69  93 129 169 201 230 270
#     4   9  17  30  48  69  92 123 167 209 238 268
#
# _framework density 17.569165999999999
#
# number of rings (size 3 to 8) (size 9 to 14) (size 15 to 20)
#    0.000    2.714    0.000    1.714    0.000    7.714 
#    0.000    0.000    0.000    5.143    0.000    0.000 
#    0.000    0.000    0.000    0.000    0.000    0.000 
#
# Total GULP energy -156223.205505 kJ/mol
# GULP energy per Si atom -5579.400197 kJ/mol
# Density = 1.752918 g / cm^3
# Si number density = 17.569166 Si / 1000 Ang^3
#
#
#
# Elastic Constant Matrix: (Units=GPa)
#
#
# Indices 1 2 3 4 5 6 
#
# 1 21.2304 45.5840 46.9401 0.0000 33.8825 0.0000
# 2 45.5840 113.3403 81.9611 0.0000 32.5834 0.0000
# 3 46.9401 81.9611 106.5029 0.0000 31.4627 0.0000
# 4 0.0000 0.0000 0.0000 30.9735 0.0000 5.3841
# 5 33.8825 32.5834 31.4627 0.0000 28.5961 0.0000
# 6 0.0000 0.0000 0.0000 5.3841 0.0000 14.8163
#
#
#
# Elastic Compliance Matrix: (Units=1/GPa)
#
#
# Indices 1 2 3 4 5 6 
#
# 1 -0.049438 0.000827 0.006114 0.000000 0.050909 0.000000
# 2 0.000827 0.021429 -0.013857 0.000000 -0.010151 0.000000
# 3 0.006114 -0.013857 0.021978 0.000000 -0.015636 0.000000
# 4 0.000000 0.000000 0.000000 0.034463 0.000000 -0.012523
# 5 0.050909 -0.010151 -0.015636 0.000000 0.003419 0.000000
# 6 0.000000 0.000000 0.000000 -0.012523 0.000000 0.072044
#
#
# Mechanical properties :
#
#
# Convention : Reuss Voigt Hill
#
# Bulk Modulus (GPa) = -50.34293 65.56047 7.60877
# Shear Modulus (GPa) = 45.00221 19.31640 32.15931
#
# Velocity S-wave (km/s) = 5.06655 3.31939 4.28301
# Velocity P-wave (km/s) = 2.34738 7.21719 5.36647
#
# Compressibility (1/GPa) = -0.01986376
#
# Stress axis : x y z
#
# Youngs Moduli (GPa) = -20.22725 46.66561 45.50070
#
# Poissons Ratio (x) = -0.03859 -0.27818
# Poissons Ratio (y) = 0.01673 0.63049
# Poissons Ratio (z) = 0.12366 0.64664
#
# Static dielectric constant tensor:
#      x y z
#    x 1.588740 0.000000 -0.013910 
#    y 0.000000 1.595310 0.000000 
#    z -0.013910 0.000000 1.584690 
# 
# From -- ./inp_files/280965.got.cif
#   From: 2010.05.17/outbox.cif.g08.bks.cpg/sg12_141_cif.got.tgz:280965.got - 2010.06.03 13:09:07.
