data_PCOD9190313
_publ_section_title
;
Structure prediction by ZEFSAII (Michael W. Deem and Ramdas Pophale) SiO2 
 PCOD9190313
Probable space group: C 2/M
;
_chemical_formula_sum "Si O2"
_cell_formula_units_Z 48
_cell_length_a 22.225462
_cell_length_b 14.612808
_cell_length_c 6.773636
_cell_angle_alpha 90.000000
_cell_angle_beta 112.780480
_cell_angle_gamma 90.000000
_cell_volume 2028.312900
_symmetry_space_group_name_H-M "C 2/M"
_symmetry_group_IT_number 12
_symmetry_cell_setting 'monoclinic'
loop_
_space_group_symop_operation_xyz
x,y,z
-x,y,-z
-x,-y,-z
x,-y,z
1/2+x,1/2+y,z
1/2-x,1/2+y,-z
1/2-x,1/2-y,-z
1/2+x,1/2-y,z
loop_
_atom_site_type_symbol
_atom_site_label
_atom_site_fract_x
_atom_site_fract_y
_atom_site_fract_z
Si Si1 0.416585 0.394348 0.194383
Si Si2 0.314557 0.104466 0.600859
Si Si3 0.053945 0.893453 0.297644
Si Si4 0.818176 0.804621 0.645299
Si Si5 0.321285 0.258825 0.175686
Si Si6 0.578257 0.895263 0.603498
O O1 0.410564 0.500000 0.136923
O O2 0.482073 0.352691 0.186135
O O3 0.429529 0.388847 0.448309
O O4 0.350260 0.342031 0.088159
O O5 0.244921 0.129461 0.401901
O O6 0.320989 0.199927 0.730148
O O7 0.380805 0.101958 0.551988
O O8 0.307385 0.000000 0.673315
O O9 0.112565 0.852513 0.250521
O O10 0.048794 0.000000 0.245438
O O11 0.816242 0.784568 0.402047
O O12 0.375471 0.178099 0.228188
O O13 0.250000 0.250000 0.000000
O O14 0.500000 0.871134 0.500000
O O15 0.581201 0.000000 0.685872
#
# Coordination Sequence:
#
# PCOD9190313 Si02
#       6
#     8   8   8   8   8   8
#     4   8  15  25  40  64  94 123 153 192 239 287
#     4   9  17  29  46  72  97 123 162 210 252 289
#     4   8  13  23  41  66  91 117 150 193 241 283
#     4   9  17  28  46  69  99 126 159 202 247 294
#     4  10  20  30  47  73 102 134 165 199 254 303
#     4   9  19  34  53  74  97 131 174 216 253 295
#
# _framework density 23.664985000000001
#
# number of rings (size 3 to 8) (size 9 to 14) (size 15 to 20)
#    0.000    3.167    0.000    1.500    7.000    1.333 
#    0.000    0.000    0.000    1.000    0.000    3.500 
#    0.000   13.667    0.000    0.000    0.000    0.000 
#
# Total GULP energy -133623.586859 kJ/mol
# GULP energy per Si atom -5567.649452 kJ/mol
# Density = 2.361112 g / cm^3
# Si number density = 23.664985 Si / 1000 Ang^3
#
#
#
# Elastic Constant Matrix: (Units=GPa)
#
#
# Indices 1 2 3 4 5 6 
#
# 1 167.1548 59.5468 58.5501 0.0000 44.0680 0.0000
# 2 59.5468 97.6886 15.4675 0.0000 37.5991 0.0000
# 3 58.5501 15.4675 88.4212 0.0000 35.7976 0.0000
# 4 0.0000 0.0000 0.0000 18.2946 0.0000 18.9662
# 5 44.0680 37.5991 35.7976 0.0000 70.3840 0.0000
# 6 0.0000 0.0000 0.0000 18.9662 0.0000 40.7398
#
#
#
# Elastic Compliance Matrix: (Units=1/GPa)
#
#
# Indices 1 2 3 4 5 6 
#
# 1 0.009763 -0.004778 -0.005274 0.000000 -0.000878 0.000000
# 2 -0.004778 0.015256 0.003254 0.000000 -0.006813 0.000000
# 3 -0.005274 0.003254 0.017126 0.000000 -0.007146 0.000000
# 4 0.000000 0.000000 0.000000 0.105653 0.000000 -0.049186
# 5 -0.000878 -0.006813 -0.007146 0.000000 0.022032 0.000000
# 6 0.000000 0.000000 0.000000 -0.049186 0.000000 0.047445
#
#
# Mechanical properties :
#
#
# Convention : Reuss Voigt Hill
#
# Bulk Modulus (GPa) = 35.02818 68.93260 51.98039
# Shear Modulus (GPa) = 20.79969 40.53035 30.66502
#
# Velocity S-wave (km/s) = 2.96788 4.14293 3.60362
# Velocity P-wave (km/s) = 5.15541 7.21644 6.27117
#
# Compressibility (1/GPa) = 0.02854844
#
# Stress axis : x y z
#
# Youngs Moduli (GPa) = 102.42256 65.54638 58.39188
#
# Poissons Ratio (x) = 0.31321 0.30794
# Poissons Ratio (y) = 0.48942 -0.18998
# Poissons Ratio (z) = 0.54015 -0.21326
#
# Static dielectric constant tensor:
#      x y z
#    x 1.987790 0.000000 -0.086370 
#    y 0.000000 1.926320 0.000000 
#    z -0.086370 0.000000 2.030880 
# 
# From -- ./inp_files/175858.got.cif
#   From: 2010.05.17/outbox.cif.g08.bks.cpg/sg12_88_cif.got.tgz:175858.got - 2010.06.03 13:09:07.
