data_PCOD9190667
_publ_section_title
;
Structure prediction by ZEFSAII (Michael W. Deem and Ramdas Pophale) SiO2 
 PCOD9190667
Probable space group: C 2/M
;
_chemical_formula_sum "Si O2"
_cell_formula_units_Z 48
_cell_length_a 14.123114
_cell_length_b 7.729155
_cell_length_c 18.822470
_cell_angle_alpha 90.000000
_cell_angle_beta 115.760176
_cell_angle_gamma 90.000000
_cell_volume 1850.466367
_symmetry_space_group_name_H-M "C 2/M"
_symmetry_group_IT_number 12
_symmetry_cell_setting 'monoclinic'
loop_
_space_group_symop_operation_xyz
x,y,z
-x,y,-z
-x,-y,-z
x,-y,z
1/2+x,1/2+y,z
1/2-x,1/2+y,-z
1/2-x,1/2-y,-z
1/2+x,1/2-y,z
loop_
_atom_site_type_symbol
_atom_site_label
_atom_site_fract_x
_atom_site_fract_y
_atom_site_fract_z
Si Si1 0.921737 0.795165 0.074249
Si Si2 0.172121 0.800117 0.741153
Si Si3 0.714292 0.209144 0.092743
Si Si4 0.982281 0.791826 0.412726
Si Si5 0.959825 0.705362 0.755854
Si Si6 0.688418 0.810796 0.407879
O O1 0.815668 0.729007 0.080091
O O2 0.018166 0.725703 0.152612
O O3 0.927128 0.000000 0.082880
O O4 0.891115 0.757204 0.982776
O O5 0.259715 0.721019 0.820341
O O6 0.062462 0.792728 0.751919
O O7 0.130345 0.732168 0.652703
O O8 0.201909 0.000000 0.739858
O O9 0.718337 0.000000 0.096060
O O10 0.071833 0.689161 0.402316
O O11 0.000000 0.762397 0.500000
O O12 0.993803 0.000000 0.403703
O O13 0.963749 0.500000 0.744363
O O14 0.851153 0.767627 0.682061
O O15 0.750000 0.750000 0.500000
O O16 0.734760 0.000000 0.407967
#
# Coordination Sequence:
#
# PCOD9190667 Si02
#       6
#     8   8   8   8   8   8
#     4   9  15  21  31  48  71 101 134 167 205 250
#     4   8  14  24  37  54  77 107 140 171 208 252
#     4   8  13  20  30  46  71 102 134 167 201 243
#     4   9  17  30  48  68  91 119 150 185 224 265
#     4   9  16  25  37  54  76 104 137 172 212 254
#     4  10  20  32  47  66  89 118 151 187 224 264
#
# _framework density 25.939408
#
# number of rings (size 3 to 8) (size 9 to 14) (size 15 to 20)
#    0.000    3.167    0.000    2.500    0.000    6.333 
#    0.000    0.000    0.000    0.000    0.000    0.000 
#    0.000    1.333    0.000   15.333    0.000   12.333 
#
# Total GULP energy -133675.354405 kJ/mol
# GULP energy per Si atom -5569.806434 kJ/mol
# Density = 2.588037 g / cm^3
# Si number density = 25.939408 Si / 1000 Ang^3
#
#
#
# Elastic Constant Matrix: (Units=GPa)
#
#
# Indices 1 2 3 4 5 6 
#
# 1 65.5728 3.2460 31.3828 0.0000 33.6069 0.0000
# 2 3.2460 50.2447 26.8274 0.0000 -5.7268 0.0000
# 3 31.3828 26.8274 369.7086 0.0000 5.0920 0.0000
# 4 0.0000 0.0000 0.0000 33.3476 0.0000 1.9177
# 5 33.6069 -5.7268 5.0920 0.0000 33.2504 0.0000
# 6 0.0000 0.0000 0.0000 1.9177 0.0000 -1.9068
#
#
#
# Elastic Compliance Matrix: (Units=1/GPa)
#
#
# Indices 1 2 3 4 5 6 
#
# 1 0.034865 -0.005220 -0.002087 0.000000 -0.035818 0.000000
# 2 -0.005220 0.021978 -0.001279 0.000000 0.009258 0.000000
# 3 -0.002087 -0.001279 0.002955 0.000000 0.001437 0.000000
# 4 0.000000 0.000000 0.000000 0.028348 0.000000 0.028509
# 5 -0.035818 0.009258 0.001437 0.000000 0.067651 0.000000
# 6 0.000000 0.000000 0.000000 0.028509 0.000000 -0.495771
#
#
# Mechanical properties :
#
#
# Convention : Reuss Voigt Hill
#
# Bulk Modulus (GPa) = 23.46091 67.60427 45.53259
# Shear Modulus (GPa) = -16.20265 41.20957 12.50346
#
# Velocity S-wave (km/s) = -2.50198 3.99016 2.19789
# Velocity P-wave (km/s) = 0.84711 6.88095 4.90230
#
# Compressibility (1/GPa) = 0.04262409
#
# Stress axis : x y z
#
# Youngs Moduli (GPa) = 28.68215 45.49999 338.40363
#
# Poissons Ratio (x) = 0.23753 0.70638
# Poissons Ratio (y) = 0.14973 0.43288
# Poissons Ratio (z) = 0.05987 0.05820
#
# Static dielectric constant tensor:
#      x y z
#    x 2.201750 0.000000 -0.123340 
#    y 0.000000 1.979550 0.000000 
#    z -0.123340 0.000000 2.241820 
# 
# From -- ./inp_files/236331.got.cif
#   From: 2010.05.17/outbox.cif.g08.bks.cpg/sg12_119_cif.got.tgz:236331.got - 2010.06.03 13:09:07.
