data_PCOD9190353
_publ_section_title
;
Structure prediction by ZEFSAII (Michael W. Deem and Ramdas Pophale) SiO2 
 PCOD9190353
Probable space group: C 2/M
;
_chemical_formula_sum "Si O2"
_cell_formula_units_Z 46
_cell_length_a 21.280247
_cell_length_b 20.986914
_cell_length_c 8.654525
_cell_angle_alpha 90.000000
_cell_angle_beta 30.672156
_cell_angle_gamma 90.000000
_cell_volume 1971.719304
_symmetry_space_group_name_H-M "C 2/M"
_symmetry_group_IT_number 12
_symmetry_cell_setting 'monoclinic'
loop_
_space_group_symop_operation_xyz
x,y,z
-x,y,-z
-x,-y,-z
x,-y,z
1/2+x,1/2+y,z
1/2-x,1/2+y,-z
1/2-x,1/2-y,-z
1/2+x,1/2-y,z
loop_
_atom_site_type_symbol
_atom_site_label
_atom_site_fract_x
_atom_site_fract_y
_atom_site_fract_z
Si Si1 0.084894 0.500000 0.167109
Si Si2 0.972954 0.277197 0.237443
Si Si3 0.006571 0.862882 0.797984
Si Si4 0.256038 0.861976 0.815060
Si Si5 0.718014 0.000000 0.341072
Si Si6 0.872087 0.641827 0.869604
Si Si7 0.508597 0.500000 0.796973
Si Si8 0.000000 0.500000 0.000000
O O1 0.148874 0.569484 0.029871
O O2 0.000000 0.500000 0.500000
O O3 0.011032 0.500000 0.162629
O O4 0.856991 0.321904 0.510442
O O5 0.091260 0.307964 0.075044
O O6 0.000000 0.276594 0.000000
O O7 0.938352 0.205577 0.360076
O O8 0.873052 0.858741 0.998714
O O9 0.000000 0.864429 0.000000
O O10 0.061978 0.931550 0.632859
O O11 0.266418 0.840593 0.970778
O O12 0.302268 0.934874 0.708883
O O13 0.652124 0.000000 0.648532
O O14 0.866146 0.000000 0.049194
O O15 0.000000 0.641603 0.500000
O O16 0.500000 0.500000 0.000000
#
# Coordination Sequence:
#
# PCOD9190353 Si02
#       8
#     4   8   8   8   4   8   4   2
#     4  10  20  32  50  80 125 167 198 230 286 360
#     4  10  21  32  50  80 113 142 181 229 283 341
#     4   9  19  35  56  82 107 140 193 240 286 337
#     4  10  20  36  56  79 115 149 188 235 284 349
#     4  10  20  30  56  90 111 150 191 238 295 336
#     4   9  18  32  49  75 110 154 187 225 278 346
#     4   8  16  36  58  78 107 144 197 245 276 336
#     4  12  20  28  56  88 132 158 178 248 302 366
#
# _framework density 23.329892999999998
#
# number of rings (size 3 to 8) (size 9 to 14) (size 15 to 20)
#    0.000    2.435    0.000    3.652    4.870    3.478 
#    0.000    0.000    0.000    0.000    0.000    5.478 
#    0.000    0.957    0.000    0.000    0.000    0.000 
#
# Total GULP energy -128055.133902 kJ/mol
# GULP energy per Si atom -5567.614517 kJ/mol
# Density = 2.327679 g / cm^3
# Si number density = 23.329893 Si / 1000 Ang^3
#
#
#
# Elastic Constant Matrix: (Units=GPa)
#
#
# Indices 1 2 3 4 5 6 
#
# 1 165.4075 35.5359 31.3583 -0.0001 6.1220 0.0001
# 2 35.5359 189.2977 29.0677 0.0000 3.3186 0.0000
# 3 31.3583 29.0677 56.6322 -0.0001 4.8018 0.0001
# 4 -0.0001 0.0000 -0.0001 1.9211 0.0000 -5.9180
# 5 6.1220 3.3186 4.8018 0.0000 19.0939 0.0000
# 6 0.0001 0.0000 0.0001 -5.9180 0.0000 36.6675
#
#
#
# Elastic Compliance Matrix: (Units=1/GPa)
#
#
# Indices 1 2 3 4 5 6 
#
# 1 0.006884 -0.000761 -0.003316 0.000000 -0.001241 0.000000
# 2 -0.000761 0.005820 -0.002555 0.000000 -0.000125 0.000000
# 3 -0.003316 -0.002555 0.021128 0.000002 -0.003806 0.000000
# 4 0.000000 0.000000 0.000002 1.035208 -0.000002 0.167080
# 5 -0.001241 -0.000125 -0.003806 -0.000002 0.053750 0.000000
# 6 0.000000 0.000000 0.000000 0.167080 0.000000 0.054238
#
#
# Mechanical properties :
#
#
# Convention : Reuss Voigt Hill
#
# Bulk Modulus (GPa) = 48.62036 67.02902 57.82469
# Shear Modulus (GPa) = 4.17659 32.56155 18.36907
#
# Velocity S-wave (km/s) = 1.33945 3.73996 2.80904
# Velocity P-wave (km/s) = 4.82470 6.88789 5.94646
#
# Compressibility (1/GPa) = 0.02056752
#
# Stress axis : x y z
#
# Youngs Moduli (GPa) = 145.26936 171.81671 47.33069
#
# Poissons Ratio (x) = 0.13081 0.15693
# Poissons Ratio (y) = 0.11060 0.12094
# Poissons Ratio (z) = 0.48166 0.43902
#
# Static dielectric constant tensor:
#      x y z
#    x 1.844570 0.000000 -0.135050 
#    y 0.000000 1.938410 0.000000 
#    z -0.135050 0.000000 1.847970 
# 
# From -- ./inp_files/89471.got.cif
#   From: 2010.05.17/outbox.cif.g08.bks.cpg/sg12_45_cif.got.tgz:89471.got - 2010.06.03 13:09:07.
