data_PCOD9190880
_publ_section_title
;
Structure prediction by ZEFSAII (Michael W. Deem and Ramdas Pophale) SiO2 
 PCOD9190880
Probable space group: C 2/M
;
_chemical_formula_sum "Si O2"
_cell_formula_units_Z 56
_cell_length_a 11.787604
_cell_length_b 24.319277
_cell_length_c 12.219069
_cell_angle_alpha 90.000000
_cell_angle_beta 71.431006
_cell_angle_gamma 90.000000
_cell_volume 3320.439457
_symmetry_space_group_name_H-M "C 2/M"
_symmetry_group_IT_number 12
_symmetry_cell_setting 'monoclinic'
loop_
_space_group_symop_operation_xyz
x,y,z
-x,y,-z
-x,-y,-z
x,-y,z
1/2+x,1/2+y,z
1/2-x,1/2+y,-z
1/2-x,1/2-y,-z
1/2+x,1/2-y,z
loop_
_atom_site_type_symbol
_atom_site_label
_atom_site_fract_x
_atom_site_fract_y
_atom_site_fract_z
Si Si1 0.180264 0.653930 0.173752
Si Si2 0.042347 0.282108 0.810213
Si Si3 0.635414 0.935721 0.000703
Si Si4 0.230849 0.797826 0.644608
Si Si5 0.139660 0.813097 0.436456
Si Si6 0.259017 0.358152 0.808646
Si Si7 0.392676 0.307527 0.966700
O O1 0.236139 0.655422 0.277920
O O2 0.275779 0.692668 0.078958
O O3 0.047023 0.678130 0.226644
O O4 0.167141 0.601247 0.097787
O O5 0.112478 0.236149 0.718783
O O6 0.142736 0.318131 0.840015
O O7 0.951214 0.249900 0.915801
O O8 0.716803 0.914887 0.874942
O O9 0.650223 0.000000 0.019156
O O10 0.500000 0.925952 0.000000
O O11 0.209979 0.819071 0.529028
O O12 0.330178 0.749168 0.613074
O O13 0.187401 0.854097 0.328701
O O14 0.000000 0.819605 0.500000
O O15 0.354365 0.334566 0.865111
O O16 0.500000 0.337350 0.000000
#
# Coordination Sequence:
#
# PCOD9190880 Si02
#       7
#     8   8   8   8   8   8   8
#     4  11  21  31  52  79 109 145 179 224 269 325
#     4  11  19  31  47  80 112 146 181 208 259 330
#     4  10  21  39  60  80 104 134 179 239 289 325
#     4  10  20  32  49  76 116 151 181 214 256 306
#     4  10  20  34  50  75 113 155 186 210 248 319
#     4  10  22  35  53  78 106 145 183 221 263 325
#     4  11  22  27  45  75 114 143 172 211 263 324
#
# _framework density 16.865238000000002
#
# number of rings (size 3 to 8) (size 9 to 14) (size 15 to 20)
#    0.000    1.571    2.857    3.857    4.000    0.000 
#    0.000    0.000    0.000    8.143    0.000    2.000 
#    0.000    0.000    0.000    0.000    0.000    0.000 
#
# Total GULP energy -156037.207209 kJ/mol
# GULP energy per Si atom -5572.757400 kJ/mol
# Density = 1.682685 g / cm^3
# Si number density = 16.865238 Si / 1000 Ang^3
#
#
#
# Elastic Constant Matrix: (Units=GPa)
#
#
# Indices 1 2 3 4 5 6 
#
# 1 96.7432 34.6893 41.1539 0.0000 -4.1370 0.0000
# 2 34.6893 45.2485 40.8051 0.0000 -0.9194 0.0000
# 3 41.1539 40.8051 109.2452 0.0000 16.4683 0.0000
# 4 0.0000 0.0000 0.0000 14.3694 0.0000 2.1261
# 5 -4.1370 -0.9194 16.4683 0.0000 26.6307 0.0000
# 6 0.0000 0.0000 0.0000 2.1261 0.0000 10.7052
#
#
#
# Elastic Compliance Matrix: (Units=1/GPa)
#
#
# Indices 1 2 3 4 5 6 
#
# 1 0.014856 -0.008662 -0.002937 0.000000 0.003825 0.000000
# 2 -0.008662 0.040846 -0.013237 0.000000 0.008250 0.000000
# 3 -0.002937 -0.013237 0.016920 0.000000 -0.011376 0.000000
# 4 0.000000 0.000000 0.000000 0.071699 0.000000 -0.014240
# 5 0.003825 0.008250 -0.011376 0.000000 0.045465 0.000000
# 6 0.000000 0.000000 0.000000 -0.014240 0.000000 0.096241
#
#
# Mechanical properties :
#
#
# Convention : Reuss Voigt Hill
#
# Bulk Modulus (GPa) = 43.57801 53.83707 48.70754
# Shear Modulus (GPa) = 14.56240 19.31362 16.93801
#
# Velocity S-wave (km/s) = 2.94165 3.38771 3.17253
# Velocity P-wave (km/s) = 6.11823 6.87702 6.50869
#
# Compressibility (1/GPa) = 0.02294735
#
# Stress axis : x y z
#
# Youngs Moduli (GPa) = 67.31333 24.48212 59.10304
#
# Poissons Ratio (x) = 0.21207 0.17361
# Poissons Ratio (y) = 0.58310 0.78236
# Poissons Ratio (z) = 0.19773 0.32408
#
# Static dielectric constant tensor:
#      x y z
#    x 1.624540 0.000000 0.010850 
#    y 0.000000 1.552750 0.000000 
#    z 0.010850 0.000000 1.607390 
# 
# From -- ./inp_files/134829.got.cif
#   From: 2010.05.17/outbox.cif.g08.bks.cpg/sg12_68_cif.got.tgz:134829.got - 2010.06.03 13:09:07.
