data_PCOD9190272
_publ_section_title
;
Structure prediction by ZEFSAII (Michael W. Deem and Ramdas Pophale) SiO2 
 PCOD9190272
Probable space group: C 2/M
;
_chemical_formula_sum "Si O2"
_cell_formula_units_Z 56
_cell_length_a 17.951339
_cell_length_b 21.135772
_cell_length_c 8.092760
_cell_angle_alpha 90.000000
_cell_angle_beta 89.670680
_cell_angle_gamma 90.000000
_cell_volume 3070.467120
_symmetry_space_group_name_H-M "C 2/M"
_symmetry_group_IT_number 12
_symmetry_cell_setting 'monoclinic'
loop_
_space_group_symop_operation_xyz
x,y,z
-x,y,-z
-x,-y,-z
x,-y,z
1/2+x,1/2+y,z
1/2-x,1/2+y,-z
1/2-x,1/2-y,-z
1/2+x,1/2-y,z
loop_
_atom_site_type_symbol
_atom_site_label
_atom_site_fract_x
_atom_site_fract_y
_atom_site_fract_z
Si Si1 0.173108 0.799453 0.182037
Si Si2 0.122138 0.201150 0.810906
Si Si3 0.071350 0.426631 0.803194
Si Si4 0.420363 0.126885 0.829010
Si Si5 0.316600 0.833957 0.323388
Si Si6 0.970879 0.238018 0.682798
Si Si7 0.772172 0.666351 0.698639
O O1 0.242127 0.845239 0.216892
O O2 0.106989 0.799784 0.317008
O O3 0.210228 0.729885 0.196640
O O4 0.136120 0.805720 0.004936
O O5 0.141639 0.272543 0.749216
O O6 0.184485 0.156036 0.726337
O O7 0.035733 0.196885 0.765876
O O8 0.087534 0.500000 0.827765
O O9 0.127133 0.392140 0.679123
O O10 0.985076 0.417574 0.756141
O O11 0.081582 0.388699 0.976396
O O12 0.450188 0.197756 0.783780
O O13 0.337115 0.119690 0.759571
O O14 0.289423 0.819868 0.508126
O O15 0.000000 0.255048 0.500000
#
# Coordination Sequence:
#
# PCOD9190272 Si02
#       7
#     8   8   8   8   8   8   8
#     4  10  20  29  48  74  98 134 169 197 246 316
#     4  11  18  31  49  75 101 135 165 197 244 318
#     4  11  23  37  54  69  94 136 186 223 251 291
#     4  10  20  34  50  68  96 134 172 212 258 289
#     4  11  19  34  49  68 101 130 168 213 259 292
#     4  11  20  30  49  78 109 136 165 201 254 311
#     4  10  20  30  50  71  99 131 164 205 258 310
#
# _framework density 18.238268999999999
#
# number of rings (size 3 to 8) (size 9 to 14) (size 15 to 20)
#    0.000    1.429    1.429    9.857    4.000    0.000 
#    0.000    2.143    0.000    0.000    0.000    0.000 
#    0.000   15.429    0.000    0.000    0.000    0.143 
#
# Total GULP energy -156145.355157 kJ/mol
# GULP energy per Si atom -5576.619827 kJ/mol
# Density = 1.819676 g / cm^3
# Si number density = 18.238269 Si / 1000 Ang^3
#
#
#
# Elastic Constant Matrix: (Units=GPa)
#
#
# Indices 1 2 3 4 5 6 
#
# 1 92.2151 15.0774 -2.6283 0.0000 -1.9115 0.0000
# 2 15.0774 30.4090 15.1725 0.0000 -4.9836 0.0000
# 3 -2.6283 15.1725 38.7903 0.0000 -5.3305 0.0000
# 4 0.0000 0.0000 0.0000 4.2338 0.0000 -0.4781
# 5 -1.9115 -4.9836 -5.3305 0.0000 34.5227 0.0000
# 6 0.0000 0.0000 0.0000 -0.4781 0.0000 9.0761
#
#
#
# Elastic Compliance Matrix: (Units=1/GPa)
#
#
# Indices 1 2 3 4 5 6 
#
# 1 0.012280 -0.008065 0.004005 0.000000 0.000134 0.000000
# 2 -0.008065 0.046575 -0.018289 0.000000 0.003453 0.000000
# 3 0.004005 -0.018289 0.033585 0.000000 0.002767 0.000000
# 4 0.000000 0.000000 0.000000 0.237606 0.000000 0.012516
# 5 0.000134 0.003453 0.002767 0.000000 0.029900 0.000000
# 6 0.000000 0.000000 0.000000 0.012516 0.000000 0.110838
#
#
# Mechanical properties :
#
#
# Convention : Reuss Voigt Hill
#
# Bulk Modulus (GPa) = 20.94621 24.07306 22.50964
# Shear Modulus (GPa) = 9.40918 18.48605 13.94762
#
# Velocity S-wave (km/s) = 2.27381 3.18714 2.76840
# Velocity P-wave (km/s) = 4.28991 5.17414 4.75263
#
# Compressibility (1/GPa) = 0.04774132
#
# Stress axis : x y z
#
# Youngs Moduli (GPa) = 81.43480 21.47069 29.77515
#
# Poissons Ratio (x) = 0.17316 -0.11925
# Poissons Ratio (y) = 0.65676 0.54457
# Poissons Ratio (z) = -0.32614 0.39269
#
# Static dielectric constant tensor:
#      x y z
#    x 1.725430 0.000000 0.009750 
#    y 0.000000 1.592600 0.000000 
#    z 0.009750 0.000000 1.677710 
# 
# From -- ./inp_files/76881.got.cif
#   From: 2010.05.17/outbox.cif.g08.bks.cpg/sg12_39_cif.got.tgz:76881.got - 2010.06.03 13:09:07.
