data_PCOD9190186
_publ_section_title
;
Structure prediction by ZEFSAII (Michael W. Deem and Ramdas Pophale) SiO2 
 PCOD9190186
Probable space group: C 2/M
;
_chemical_formula_sum "Si O2"
_cell_formula_units_Z 40
_cell_length_a 13.302619
_cell_length_b 17.797118
_cell_length_c 11.671527
_cell_angle_alpha 90.000000
_cell_angle_beta 135.622411
_cell_angle_gamma 90.000000
_cell_volume 1932.547134
_symmetry_space_group_name_H-M "C 2/M"
_symmetry_group_IT_number 12
_symmetry_cell_setting 'monoclinic'
loop_
_space_group_symop_operation_xyz
x,y,z
-x,y,-z
-x,-y,-z
x,-y,z
1/2+x,1/2+y,z
1/2-x,1/2+y,-z
1/2-x,1/2-y,-z
1/2+x,1/2-y,z
loop_
_atom_site_type_symbol
_atom_site_label
_atom_site_fract_x
_atom_site_fract_y
_atom_site_fract_z
Si Si1 0.467035 0.774272 0.603887
Si Si2 0.887332 0.000000 0.646039
Si Si3 0.212214 0.000000 0.869188
Si Si4 0.500000 0.243035 0.000000
Si Si5 0.849630 0.163200 0.684894
Si Si6 0.600878 0.128291 0.897732
Si Si7 0.864108 0.500000 0.745441
O O1 0.500000 0.757329 0.500000
O O2 0.314503 0.817492 0.479238
O O3 0.444396 0.699509 0.659955
O O4 0.579542 0.827890 0.761294
O O5 0.871342 0.074947 0.707068
O O6 0.043338 0.000000 0.715080
O O7 0.764352 0.000000 0.449605
O O8 0.299965 0.000000 0.821125
O O9 0.263096 0.074156 0.979204
O O10 0.601556 0.293343 0.162043
O O11 0.407671 0.189768 0.008708
O O12 0.464647 0.072647 0.807100
#
# Coordination Sequence:
#
# PCOD9190186 Si02
#       7
#     8   4   4   4   8   8   4
#     4  10  22  42  68  93 125 173 226 261 315 389
#     4  12  25  41  58  97 143 167 204 268 332 389
#     4  11  23  35  66 103 127 166 218 270 326 378
#     4  10  20  40  70  86 128 174 210 270 320 372
#     4  10  24  42  63  95 133 172 210 269 328 379
#     4  10  19  40  68  96 123 166 225 268 311 379
#     4  11  19  39  65  94 130 167 211 266 329 373
#
# _framework density 20.698070999999999
#
# number of rings (size 3 to 8) (size 9 to 14) (size 15 to 20)
#    0.000    1.600    4.000    0.900    0.000    5.200 
#    0.000    8.500    0.000    0.000    0.000    0.000 
#    0.000    0.000    0.000    0.000    0.000    0.000 
#
# Total GULP energy -111853.986637 kJ/mol
# GULP energy per Si atom -5592.699332 kJ/mol
# Density = 2.065096 g / cm^3
# Si number density = 20.698071 Si / 1000 Ang^3
#
#
#
# Elastic Constant Matrix: (Units=GPa)
#
#
# Indices 1 2 3 4 5 6 
#
# 1 42.7217 21.8552 28.8872 0.0000 -9.7240 0.0000
# 2 21.8552 156.2562 55.3821 0.0000 -11.4302 0.0000
# 3 28.8872 55.3821 101.9582 0.0000 -19.8983 0.0000
# 4 0.0000 0.0000 0.0000 28.4545 0.0000 -2.9483
# 5 -9.7240 -11.4302 -19.8983 0.0000 38.0776 0.0000
# 6 0.0000 0.0000 0.0000 -2.9483 0.0000 4.6718
#
#
#
# Elastic Compliance Matrix: (Units=1/GPa)
#
#
# Indices 1 2 3 4 5 6 
#
# 1 0.029625 -0.001430 -0.006931 0.000000 0.003514 0.000000
# 2 -0.001430 0.007995 -0.003943 0.000000 -0.000026 0.000000
# 3 -0.006931 -0.003943 0.014852 0.000000 0.004807 0.000000
# 4 0.000000 0.000000 0.000000 0.037603 0.000000 0.023731
# 5 0.003514 -0.000026 0.004807 0.000000 0.029664 0.000000
# 6 0.000000 0.000000 0.000000 0.023731 0.000000 0.229029
#
#
# Mechanical properties :
#
#
# Convention : Reuss Voigt Hill
#
# Bulk Modulus (GPa) = 35.88768 57.02055 46.45411
# Shear Modulus (GPa) = 13.06631 27.22821 20.14726
#
# Velocity S-wave (km/s) = 2.51526 3.63091 3.12330
# Velocity P-wave (km/s) = 5.08052 6.72209 5.95811
#
# Compressibility (1/GPa) = 0.02786471
#
# Stress axis : x y z
#
# Youngs Moduli (GPa) = 33.75498 125.07301 67.33317
#
# Poissons Ratio (x) = 0.17886 0.46668
# Poissons Ratio (y) = 0.04827 0.26548
# Poissons Ratio (z) = 0.23395 0.49313
#
# Static dielectric constant tensor:
#      x y z
#    x 1.732350 0.000000 0.015740 
#    y 0.000000 1.722350 0.000000 
#    z 0.015740 0.000000 1.724150 
# 
# From -- ./inp_files/145884.got.cif
#   From: 2010.05.17/outbox.cif.g08.bks.cpg/sg12_73_cif.got.tgz:145884.got - 2010.06.03 13:09:07.
