data_PCOD9190416
_publ_section_title
;
Structure prediction by ZEFSAII (Michael W. Deem and Ramdas Pophale) SiO2 
 PCOD9190416
Probable space group: C 2/M
;
_chemical_formula_sum "Si O2"
_cell_formula_units_Z 48
_cell_length_a 23.629258
_cell_length_b 11.413645
_cell_length_c 15.621820
_cell_angle_alpha 90.000000
_cell_angle_beta 154.059168
_cell_angle_gamma 90.000000
_cell_volume 1843.008325
_symmetry_space_group_name_H-M "C 2/M"
_symmetry_group_IT_number 12
_symmetry_cell_setting 'monoclinic'
loop_
_space_group_symop_operation_xyz
x,y,z
-x,y,-z
-x,-y,-z
x,-y,z
1/2+x,1/2+y,z
1/2-x,1/2+y,-z
1/2-x,1/2-y,-z
1/2+x,1/2-y,z
loop_
_atom_site_type_symbol
_atom_site_label
_atom_site_fract_x
_atom_site_fract_y
_atom_site_fract_z
Si Si1 0.577767 0.374749 0.429916
Si Si2 0.342112 0.625496 0.647495
Si Si3 0.763186 0.126780 0.175521
Si Si4 0.981016 0.369593 0.873281
Si Si5 0.613818 0.873551 0.473754
Si Si6 0.156136 0.628077 0.720693
O O1 0.506016 0.500000 0.325442
O O2 0.673315 0.376682 0.477078
O O3 0.648851 0.375962 0.618051
O O4 0.524754 0.242053 0.350753
O O5 0.407768 0.500000 0.757162
O O6 0.418899 0.743290 0.770706
O O7 0.215790 0.629175 0.535313
O O8 0.796965 0.249632 0.176580
O O9 0.785669 0.000000 0.163104
O O10 0.616974 0.131222 0.008878
O O11 0.924236 0.500000 0.776544
O O12 0.000000 0.370882 0.000000
O O13 0.695114 0.869493 0.672804
O O14 0.545572 0.000000 0.380331
O O15 0.193743 0.500000 0.806902
O O16 0.000000 0.630728 0.500000
#
# Coordination Sequence:
#
# PCOD9190416 Si02
#       6
#     8   8   8   8   8   8
#     4   9  17  30  47  67  93 124 156 189 226 271
#     4  10  20  31  46  70  98 128 158 186 223 274
#     4   9  18  32  49  70  96 124 155 190 229 275
#     4  10  20  32  46  66  95 130 160 187 225 273
#     4   9  17  28  43  66  93 121 155 192 228 269
#     4   9  17  29  45  66  92 121 154 194 238 276
#
# _framework density 26.044374999999999
#
# number of rings (size 3 to 8) (size 9 to 14) (size 15 to 20)
#    0.000    2.667    0.000    2.500    0.000    4.000 
#    0.000    0.000    0.000    0.000    0.000    4.667 
#    0.000    2.667    0.000    1.167    0.000    0.000 
#
# Total GULP energy -133817.734820 kJ/mol
# GULP energy per Si atom -5575.738951 kJ/mol
# Density = 2.598510 g / cm^3
# Si number density = 26.044375 Si / 1000 Ang^3
#
#
#
# Elastic Constant Matrix: (Units=GPa)
#
#
# Indices 1 2 3 4 5 6 
#
# 1 87.1822 4.9690 13.1169 0.0000 15.5346 0.0000
# 2 4.9690 375.2100 45.8161 0.0000 22.4101 0.0000
# 3 13.1169 45.8161 34.0552 0.0000 2.1068 0.0000
# 4 0.0000 0.0000 0.0000 45.0478 0.0000 -52.5738
# 5 15.5346 22.4101 2.1068 0.0000 26.2619 0.0000
# 6 0.0000 0.0000 0.0000 -52.5738 0.0000 190.5446
#
#
#
# Elastic Compliance Matrix: (Units=1/GPa)
#
#
# Indices 1 2 3 4 5 6 
#
# 1 0.013898 0.001102 -0.006300 0.000000 -0.008656 0.000000
# 2 0.001102 0.003433 -0.004846 0.000000 -0.003193 0.000000
# 3 -0.006300 -0.004846 0.038012 0.000000 0.004812 0.000000
# 4 0.000000 0.000000 0.000000 0.032742 0.000000 0.009034
# 5 -0.008656 -0.003193 0.004812 0.000000 0.045537 0.000000
# 6 0.000000 0.000000 0.000000 0.009034 0.000000 0.007741
#
#
# Mechanical properties :
#
#
# Convention : Reuss Voigt Hill
#
# Bulk Modulus (GPa) = 28.36447 69.36125 48.86286
# Shear Modulus (GPa) = 28.86823 81.20723 55.03773
#
# Velocity S-wave (km/s) = 3.33291 5.58999 4.60197
# Velocity P-wave (km/s) = 5.07204 8.26764 6.85855
#
# Compressibility (1/GPa) = 0.03525538
#
# Stress axis : x y z
#
# Youngs Moduli (GPa) = 71.95433 291.29487 26.30752
#
# Poissons Ratio (x) = -0.32109 0.16575
# Poissons Ratio (y) = -0.07931 0.12747
# Poissons Ratio (z) = 0.45334 1.41148
#
# Static dielectric constant tensor:
#      x y z
#    x 2.067390 0.000000 -0.048180 
#    y 0.000000 2.122800 0.000000 
#    z -0.048180 0.000000 2.064950 
# 
# From -- ./inp_files/289450.got.cif
#   From: 2010.05.17/outbox.cif.g08.bks.cpg/sg12_145_cif.got.tgz:289450.got - 2010.06.03 13:09:07.
