data_PCOD9190709
_publ_section_title
;
Structure prediction by ZEFSAII (Michael W. Deem and Ramdas Pophale) SiO2 
 PCOD9190709
Probable space group: C 2/M
;
_chemical_formula_sum "Si O2"
_cell_formula_units_Z 64
_cell_length_a 19.396533
_cell_length_b 7.419700
_cell_length_c 22.592097
_cell_angle_alpha 90.000000
_cell_angle_beta 57.433614
_cell_angle_gamma 90.000000
_cell_volume 2740.155502
_symmetry_space_group_name_H-M "C 2/M"
_symmetry_group_IT_number 12
_symmetry_cell_setting 'monoclinic'
loop_
_space_group_symop_operation_xyz
x,y,z
-x,y,-z
-x,-y,-z
x,-y,z
1/2+x,1/2+y,z
1/2-x,1/2+y,-z
1/2-x,1/2-y,-z
1/2+x,1/2-y,z
loop_
_atom_site_type_symbol
_atom_site_label
_atom_site_fract_x
_atom_site_fract_y
_atom_site_fract_z
Si Si1 0.849231 0.278958 0.221408
Si Si2 0.370648 0.282658 0.955016
Si Si3 0.883015 0.722408 0.735511
Si Si4 0.948071 0.290985 0.286647
Si Si5 0.038424 0.292162 0.925162
Si Si6 0.224011 0.786042 0.578735
Si Si7 0.260744 0.208827 0.892201
Si Si8 0.321069 0.202720 0.644165
O O1 0.843881 0.500000 0.225419
O O2 0.914700 0.217271 0.240232
O O3 0.881701 0.218740 0.143011
O O4 0.763972 0.199867 0.280320
O O5 0.369684 0.500000 0.955672
O O6 0.462635 0.213738 0.915055
O O7 0.325734 0.220304 0.916452
O O8 0.320394 0.217694 0.036883
O O9 0.880923 0.500000 0.735381
O O10 0.807603 0.783424 0.812689
O O11 0.878105 0.783132 0.669151
O O12 0.968707 0.783020 0.724556
O O13 0.966109 0.500000 0.267303
O O14 0.867509 0.281574 0.365411
O O15 0.056765 0.500000 0.930381
O O16 0.000000 0.200758 0.000000
O O17 0.250000 0.750000 0.500000
O O18 0.290515 0.714166 0.596103
O O19 0.221208 0.000000 0.590028
O O20 0.244601 0.000000 0.887382
O O21 0.351113 0.000000 0.617600
#
# Coordination Sequence:
#
# PCOD9190709 Si02
#       8
#     8   8   8   8   8   8   8   8
#     4   9  18  33  51  72  99 137 179 215 261 318
#     4  10  20  32  47  71  97 128 175 224 269 314
#     4   9  17  32  55  79 103 135 174 214 261 310
#     4   9  17  32  56  80 102 134 174 211 250 305
#     4  10  21  34  48  67  97 137 178 221 270 321
#     4  10  20  36  58  83 110 140 171 205 247 302
#     4   9  18  33  52  70  96 135 171 210 263 322
#     4   9  19  34  55  82 108 134 171 218 262 305
#
# _framework density 23.356338000000001
#
# number of rings (size 3 to 8) (size 9 to 14) (size 15 to 20)
#    0.000    2.625    0.000    1.500    1.750    3.750 
#    0.000    5.000    0.000    3.750    0.000    0.000 
#    0.000    0.000    0.000    0.000    0.000    0.000 
#
# Total GULP energy -178599.217976 kJ/mol
# GULP energy per Si atom -5581.225562 kJ/mol
# Density = 2.330318 g / cm^3
# Si number density = 23.356338 Si / 1000 Ang^3
#
#
#
# Elastic Constant Matrix: (Units=GPa)
#
#
# Indices 1 2 3 4 5 6 
#
# 1 84.8862 6.9649 -1.3865 0.0004 6.3243 0.0016
# 2 6.9649 93.9645 -8.2188 0.0005 4.0623 0.0013
# 3 -1.3865 -8.2188 91.6896 0.0001 20.2101 0.0002
# 4 0.0004 0.0005 0.0001 0.6517 0.0002 -3.9522
# 5 6.3243 4.0623 20.2101 0.0002 26.5139 0.0002
# 6 0.0016 0.0013 0.0002 -3.9522 0.0002 9.6201
#
#
#
# Elastic Compliance Matrix: (Units=1/GPa)
#
#
# Indices 1 2 3 4 5 6 
#
# 1 0.012108 -0.000670 0.000886 0.000011 -0.003461 0.000003
# 2 -0.000670 0.010947 0.001569 0.000010 -0.002713 0.000003
# 3 0.000886 0.001569 0.013414 0.000002 -0.010676 0.000001
# 4 0.000011 0.000010 0.000002 -1.028822 0.000006 -0.422673
# 5 -0.003461 -0.002713 -0.010676 0.000006 0.047095 0.000002
# 6 0.000003 0.000003 0.000001 -0.422673 0.000002 -0.069698
#
#
# Mechanical properties :
#
#
# Convention : Reuss Voigt Hill
#
# Bulk Modulus (GPa) = 24.97687 29.47327 27.22507
# Shear Modulus (GPa) = -4.97423 25.56918 10.29748
#
# Velocity S-wave (km/s) = -1.46094 3.31228 2.10201
# Velocity P-wave (km/s) = 2.80558 5.22251 4.19201
#
# Compressibility (1/GPa) = 0.04003705
#
# Stress axis : x y z
#
# Youngs Moduli (GPa) = 82.59161 91.35288 74.55089
#
# Poissons Ratio (x) = 0.06124 -0.06603
# Poissons Ratio (y) = 0.05537 -0.11698
# Poissons Ratio (z) = -0.07316 -0.14335
#
# Static dielectric constant tensor:
#      x y z
#    x 1.938550 0.000000 0.042790 
#    y 0.000000 1.929220 0.000000 
#    z 0.042790 0.000000 1.859230 
# 
# From -- ./inp_files/346099.got.cif
#   From: 2010.05.17/outbox.cif.g08.bks.cpg/sg12_174_cif.got.tgz:346099.got - 2010.06.03 13:09:07.
