data_PCOD9190321
_publ_section_title
;
Structure prediction by ZEFSAII (Michael W. Deem and Ramdas Pophale) SiO2 
 PCOD9190321
Probable space group: C 2/M
;
_chemical_formula_sum "Si O2"
_cell_formula_units_Z 44
_cell_length_a 23.764788
_cell_length_b 9.367839
_cell_length_c 16.361336
_cell_angle_alpha 90.000000
_cell_angle_beta 134.289857
_cell_angle_gamma 90.000000
_cell_volume 2607.316466
_symmetry_space_group_name_H-M "C 2/M"
_symmetry_group_IT_number 12
_symmetry_cell_setting 'monoclinic'
loop_
_space_group_symop_operation_xyz
x,y,z
-x,y,-z
-x,-y,-z
x,-y,z
1/2+x,1/2+y,z
1/2-x,1/2+y,-z
1/2-x,1/2-y,-z
1/2+x,1/2-y,z
loop_
_atom_site_type_symbol
_atom_site_label
_atom_site_fract_x
_atom_site_fract_y
_atom_site_fract_z
Si Si1 0.816874 0.334045 0.616134
Si Si2 0.243310 0.166992 0.113210
Si Si3 0.500000 0.749396 0.000000
Si Si4 0.320906 0.843069 0.812673
Si Si5 0.125453 0.331878 0.874868
Si Si6 0.521864 0.335101 0.208770
O O1 0.822548 0.500000 0.596144
O O2 0.750000 0.250000 0.500000
O O3 0.800944 0.333713 0.697153
O O4 0.899308 0.251912 0.692283
O O5 0.223424 0.219881 0.183258
O O6 0.331959 0.183944 0.169791
O O7 0.222368 0.000000 0.080921
O O8 0.188530 0.267804 0.002318
O O9 0.584095 0.829841 0.081807
O O10 0.504971 0.671652 0.093256
O O11 0.297725 0.000000 0.820387
O O12 0.112076 0.500000 0.876205
O O13 0.047939 0.242173 0.813561
O O14 0.529160 0.500000 0.239029
#
# Coordination Sequence:
#
# PCOD9190321 Si02
#       6
#     8   8   4   8   8   8
#     4  10  22  39  57  79 105 138 178 218 266 314
#     4  10  20  32  49  75 107 142 178 214 258 310
#     4  10  20  30  48  78 110 138 174 210 258 318
#     4  10  20  33  53  77 107 140 173 215 262 315
#     4  10  20  33  49  73 108 144 177 214 257 311
#     4  11  21  33  53  79 108 140 175 218 262 312
#
# _framework density 16.875589000000002
#
# number of rings (size 3 to 8) (size 9 to 14) (size 15 to 20)
#    0.000    1.818    1.818    2.727    0.000    7.273 
#    0.000    0.000    0.000    1.091    0.000    7.636 
#    0.000    0.000    0.000    0.000    0.000    0.000 
#
# Total GULP energy -122629.636388 kJ/mol
# GULP energy per Si atom -5574.074381 kJ/mol
# Density = 1.683718 g / cm^3
# Si number density = 16.875589 Si / 1000 Ang^3
#
#
#
# Elastic Constant Matrix: (Units=GPa)
#
#
# Indices 1 2 3 4 5 6 
#
# 1 94.6348 62.0483 30.5626 0.0000 14.7396 0.0000
# 2 62.0483 148.9022 47.2900 0.0000 11.8688 0.0000
# 3 30.5626 47.2900 93.4522 0.0000 9.5634 0.0000
# 4 0.0000 0.0000 0.0000 20.1911 0.0000 3.7387
# 5 14.7396 11.8688 9.5634 0.0000 13.0481 0.0000
# 6 0.0000 0.0000 0.0000 3.7387 0.0000 -1.4287
#
#
#
# Elastic Compliance Matrix: (Units=1/GPa)
#
#
# Indices 1 2 3 4 5 6 
#
# 1 0.016570 -0.005458 -0.001351 0.000000 -0.012763 0.000000
# 2 -0.005458 0.010071 -0.003248 0.000000 -0.000614 0.000000
# 3 -0.001351 -0.003248 0.013327 0.000000 -0.005287 0.000000
# 4 0.000000 0.000000 0.000000 0.033361 0.000000 0.087303
# 5 -0.012763 -0.000614 -0.005287 0.000000 0.095490 0.000000
# 6 0.000000 0.000000 0.000000 0.087303 0.000000 -0.471486
#
#
# Mechanical properties :
#
#
# Convention : Reuss Voigt Hill
#
# Bulk Modulus (GPa) = 50.37009 68.53233 59.45121
# Shear Modulus (GPa) = -18.12033 19.50132 0.69049
#
# Velocity S-wave (km/s) = -3.28038 3.40309 0.64036
# Velocity P-wave (km/s) = 3.94523 7.49265 5.98768
#
# Compressibility (1/GPa) = 0.01985305
#
# Stress axis : x y z
#
# Youngs Moduli (GPa) = 60.35038 99.29551 75.03422
#
# Poissons Ratio (x) = 0.54200 0.10135
# Poissons Ratio (y) = 0.32942 0.24373
# Poissons Ratio (z) = 0.08152 0.32254
#
# Static dielectric constant tensor:
#      x y z
#    x 1.598960 0.000000 -0.008730 
#    y 0.000000 1.579200 0.000000 
#    z -0.008730 0.000000 1.538760 
# 
# From -- ./inp_files/288536.got.cif
#   From: 2010.05.17/outbox.cif.g08.bks.cpg/sg12_145_cif.got.tgz:288536.got - 2010.06.03 13:09:07.
