data_PCOD9190236
_publ_section_title
;
Structure prediction by ZEFSAII (Michael W. Deem and Ramdas Pophale) SiO2 
 PCOD9190236
Probable space group: C 2/M
;
_chemical_formula_sum "Si O2"
_cell_formula_units_Z 36
_cell_length_a 22.441545
_cell_length_b 15.128006
_cell_length_c 8.455243
_cell_angle_alpha 90.000000
_cell_angle_beta 140.576682
_cell_angle_gamma 90.000000
_cell_volume 1822.909035
_symmetry_space_group_name_H-M "C 2/M"
_symmetry_group_IT_number 12
_symmetry_cell_setting 'monoclinic'
loop_
_space_group_symop_operation_xyz
x,y,z
-x,y,-z
-x,-y,-z
x,-y,z
1/2+x,1/2+y,z
1/2-x,1/2+y,-z
1/2-x,1/2-y,-z
1/2+x,1/2-y,z
loop_
_atom_site_type_symbol
_atom_site_label
_atom_site_fract_x
_atom_site_fract_y
_atom_site_fract_z
Si Si1 0.713160 0.254495 0.100595
Si Si2 0.500000 0.655657 0.000000
Si Si3 0.942248 0.097053 0.217630
Si Si4 0.413475 0.897228 0.028123
Si Si5 0.392465 0.183439 0.661649
O O1 0.667352 0.160603 0.054670
O O2 0.798725 0.293638 0.378151
O O3 0.750000 0.250000 0.000000
O O4 0.630624 0.324897 0.937142
O O5 0.494916 0.604293 0.155584
O O6 0.584368 0.725309 0.198110
O O7 0.000000 0.106192 0.500000
O O8 0.897676 0.000000 0.132317
O O9 0.387540 0.889693 0.788597
O O10 0.419220 0.000000 0.087538
O O11 0.515618 0.847438 0.251015
#
# Coordination Sequence:
#
# PCOD9190236 Si02
#       5
#     8   4   8   8   8
#     4  12  25  40  66  93 134 172 217 268 331 391
#     4  10  19  42  69  88 126 172 213 260 341 380
#     4  11  24  42  64  94 129 169 218 270 324 394
#     4  10  22  42  68  96 129 166 217 273 327 391
#     4  10  20  41  68  94 122 171 213 267 331 388
#
# _framework density 19.748653999999998
#
# number of rings (size 3 to 8) (size 9 to 14) (size 15 to 20)
#    0.000    1.556    4.444    3.667    0.000    2.667 
#    0.000    2.222    0.000    0.000    0.000    0.000 
#    0.000    0.000    0.000    0.000    0.000    0.000 
#
# Total GULP energy -100286.589747 kJ/mol
# GULP energy per Si atom -5571.477208 kJ/mol
# Density = 1.970371 g / cm^3
# Si number density = 19.748654 Si / 1000 Ang^3
#
#
#
# Elastic Constant Matrix: (Units=GPa)
#
#
# Indices 1 2 3 4 5 6 
#
# 1 118.2186 39.9065 35.1317 0.0000 -3.1193 0.0000
# 2 39.9065 134.1839 47.4805 0.0000 8.0676 0.0000
# 3 35.1317 47.4805 73.2767 0.0000 -0.1622 0.0000
# 4 0.0000 0.0000 0.0000 17.5472 0.0000 -14.7090
# 5 -3.1193 8.0676 -0.1622 0.0000 22.9750 0.0000
# 6 0.0000 0.0000 0.0000 -14.7090 0.0000 49.0669
#
#
#
# Elastic Compliance Matrix: (Units=1/GPa)
#
#
# Indices 1 2 3 4 5 6 
#
# 1 0.010239 -0.001856 -0.003701 0.000000 0.002016 0.000000
# 2 -0.001856 0.010286 -0.005783 0.000000 -0.003905 0.000000
# 3 -0.003701 -0.005783 0.019173 0.000000 0.001664 0.000000
# 4 0.000000 0.000000 0.000000 0.076116 0.000000 0.022818
# 5 0.002016 -0.003905 0.001664 0.000000 0.045182 0.000000
# 6 0.000000 0.000000 0.000000 0.022818 0.000000 0.027221
#
#
# Mechanical properties :
#
#
# Convention : Reuss Voigt Hill
#
# Bulk Modulus (GPa) = 58.77331 63.41296 61.09313
# Shear Modulus (GPa) = 23.08724 31.46185 27.27454
#
# Velocity S-wave (km/s) = 3.42285 3.99571 3.72033
# Velocity P-wave (km/s) = 6.74140 7.31214 7.03256
#
# Compressibility (1/GPa) = 0.01701453
#
# Stress axis : x y z
#
# Youngs Moduli (GPa) = 97.66795 97.22188 52.15769
#
# Poissons Ratio (x) = 0.18049 0.19306
# Poissons Ratio (y) = 0.18132 0.30165
# Poissons Ratio (z) = 0.36152 0.56227
#
# Static dielectric constant tensor:
#      x y z
#    x 1.764560 0.000000 -0.002240 
#    y 0.000000 1.692210 0.000000 
#    z -0.002240 0.000000 1.704810 
# 
# From -- ./inp_files/86424.got.cif
#   From: 2010.05.17/outbox.cif.g08.bks.cpg/sg12_44_cif.got.tgz:86424.got - 2010.06.03 13:09:07.
