data_PCOD9190446
_publ_section_title
;
Structure prediction by ZEFSAII (Michael W. Deem and Ramdas Pophale) SiO2 
 PCOD9190446
Probable space group: C 2/M
;
_chemical_formula_sum "Si O2"
_cell_formula_units_Z 56
_cell_length_a 19.587514
_cell_length_b 7.418867
_cell_length_c 23.140434
_cell_angle_alpha 90.000000
_cell_angle_beta 128.791442
_cell_angle_gamma 90.000000
_cell_volume 2620.996168
_symmetry_space_group_name_H-M "C 2/M"
_symmetry_group_IT_number 12
_symmetry_cell_setting 'monoclinic'
loop_
_space_group_symop_operation_xyz
x,y,z
-x,y,-z
-x,-y,-z
x,-y,z
1/2+x,1/2+y,z
1/2-x,1/2+y,-z
1/2-x,1/2-y,-z
1/2+x,1/2-y,z
loop_
_atom_site_type_symbol
_atom_site_label
_atom_site_fract_x
_atom_site_fract_y
_atom_site_fract_z
Si Si1 0.045193 0.280326 0.298984
Si Si2 0.239796 0.715684 0.426746
Si Si3 0.235604 0.282299 0.867503
Si Si4 0.929572 0.290397 0.006397
Si Si5 0.916629 0.280034 0.129304
Si Si6 0.608207 0.217949 0.698105
Si Si7 0.403136 0.708824 0.440604
O O1 0.045909 0.500000 0.300178
O O2 0.144476 0.216025 0.356541
O O3 0.995079 0.226747 0.213883
O O4 0.982975 0.225557 0.319638
O O5 0.237692 0.500000 0.416403
O O6 0.250000 0.750000 0.500000
O O7 0.323394 0.787299 0.435690
O O8 0.237261 0.500000 0.868315
O O9 0.333594 0.217940 0.927877
O O10 0.173654 0.223812 0.887785
O O11 0.186084 0.226013 0.782651
O O12 0.954287 0.500000 0.027427
O O13 0.926101 0.213604 0.069229
O O14 0.000000 0.209253 0.000000
O O15 0.914974 0.500000 0.127923
O O16 0.617912 0.284281 0.638399
O O17 0.608025 0.000000 0.696248
O O18 0.500000 0.790360 0.500000
O O19 0.410413 0.500000 0.463213
#
# Coordination Sequence:
#
# PCOD9190446 Si02
#       7
#     8   8   8   8   8   8   8
#     4   8  15  30  51  71  91 122 165 204 237 280
#     4  10  20  33  51  73  97 129 164 197 238 286
#     4   9  18  33  52  71  94 127 163 200 243 289
#     4  10  20  31  47  74 102 128 161 200 241 287
#     4   8  15  30  50  70  94 124 161 203 240 283
#     4   9  18  33  53  74  93 121 165 207 241 285
#     4  10  21  34  48  72 105 134 159 196 249 296
#
# _framework density 21.365922999999999
#
# number of rings (size 3 to 8) (size 9 to 14) (size 15 to 20)
#    0.000    2.857    0.000    3.000    0.000    2.857 
#    0.000    2.857    0.000    2.571    0.000    0.000 
#    0.000    0.000    0.000    0.000    0.000    0.000 
#
# Total GULP energy -156336.567882 kJ/mol
# GULP energy per Si atom -5583.448853 kJ/mol
# Density = 2.131729 g / cm^3
# Si number density = 21.365923 Si / 1000 Ang^3
#
#
#
# Elastic Constant Matrix: (Units=GPa)
#
#
# Indices 1 2 3 4 5 6 
#
# 1 205.3227 -1.7295 121.9485 0.0000 7.7177 0.0000
# 2 -1.7295 65.7706 -11.0387 0.0000 2.2329 -0.0001
# 3 121.9485 -11.0387 117.8218 0.0000 6.9330 0.0000
# 4 0.0000 0.0000 0.0000 16.9447 0.0000 -5.2224
# 5 7.7177 2.2329 6.9330 0.0000 38.6992 0.0000
# 6 0.0000 -0.0001 0.0000 -5.2224 0.0000 -32.9500
#
#
#
# Elastic Compliance Matrix: (Units=1/GPa)
#
#
# Indices 1 2 3 4 5 6 
#
# 1 0.012878 -0.001927 -0.013508 0.000000 -0.000037 0.000000
# 2 -0.001927 0.015788 0.003542 0.000000 -0.001161 0.000000
# 3 -0.013508 0.003542 0.022895 0.000000 -0.001612 0.000000
# 4 0.000000 0.000000 0.000000 0.056267 0.000000 -0.008918
# 5 -0.000037 -0.001161 -0.001612 0.000000 0.026204 0.000000
# 6 0.000000 0.000000 0.000000 -0.008918 0.000000 -0.028936
#
#
# Mechanical properties :
#
#
# Convention : Reuss Voigt Hill
#
# Bulk Modulus (GPa) = 36.00314 67.47508 51.73911
# Shear Modulus (GPa) = 36.19524 23.18774 29.69149
#
# Velocity S-wave (km/s) = 4.12037 3.29791 3.73187
# Velocity P-wave (km/s) = 6.28680 6.79345 6.54503
#
# Compressibility (1/GPa) = 0.02777536
#
# Stress axis : x y z
#
# Youngs Moduli (GPa) = 77.65039 63.34078 43.67785
#
# Poissons Ratio (x) = 0.12207 0.58999
# Poissons Ratio (y) = 0.14965 -0.15471
# Poissons Ratio (z) = 1.04888 -0.22436
#
# Static dielectric constant tensor:
#      x y z
#    x 1.759620 0.000000 0.006160 
#    y 0.000000 1.849810 0.000000 
#    z 0.006160 0.000000 1.731880 
# 
# From -- ./inp_files/321044.got.cif
#   From: 2010.05.17/outbox.cif.g08.bks.cpg/sg12_161_cif.got.tgz:321044.got - 2010.06.03 13:09:07.
