data_PCOD9190508
_publ_section_title
;
Structure prediction by ZEFSAII (Michael W. Deem and Ramdas Pophale) SiO2 
 PCOD9190508
Probable space group: C 2/M
;
_chemical_formula_sum "Si O2"
_cell_formula_units_Z 36
_cell_length_a 20.273234
_cell_length_b 9.353152
_cell_length_c 7.565359
_cell_angle_alpha 90.000000
_cell_angle_beta 108.941822
_cell_angle_gamma 90.000000
_cell_volume 1356.851203
_symmetry_space_group_name_H-M "C 2/M"
_symmetry_group_IT_number 12
_symmetry_cell_setting 'monoclinic'
loop_
_space_group_symop_operation_xyz
x,y,z
-x,y,-z
-x,-y,-z
x,-y,z
1/2+x,1/2+y,z
1/2-x,1/2+y,-z
1/2-x,1/2-y,-z
1/2+x,1/2-y,z
loop_
_atom_site_type_symbol
_atom_site_label
_atom_site_fract_x
_atom_site_fract_y
_atom_site_fract_z
Si Si1 0.667891 0.252792 0.221513
Si Si2 0.744267 0.500000 0.862546
Si Si3 0.589947 0.000000 0.729598
Si Si4 0.919028 0.500000 0.875186
Si Si5 0.259579 0.000000 0.295365
Si Si6 0.074588 0.000000 0.975934
Si Si7 0.092600 0.000000 0.580291
Si Si8 0.500000 0.750323 0.500000
O O1 0.719144 0.148967 0.157083
O O2 0.722801 0.364171 0.354464
O O3 0.616224 0.358447 0.070835
O O4 0.613282 0.136820 0.251995
O O5 0.673900 0.500000 0.685046
O O6 0.735916 0.500000 0.067061
O O7 0.543116 0.140737 0.659719
O O8 0.612041 0.000000 0.952001
O O9 0.657326 0.000000 0.660082
O O10 0.000000 0.500000 0.000000
O O11 0.066563 0.000000 0.760249
O O12 0.000000 0.000000 0.000000
O O13 0.058588 0.142720 0.470867
#
# Coordination Sequence:
#
# PCOD9190508 Si02
#       8
#     8   4   4   4   4   4   4   4
#     4  10  20  31  50  88 114 139 176 220 315 323
#     4  11  19  31  58  85 115 138 175 252 297 321
#     4  11  21  37  57  82 120 137 199 217 286 338
#     4  11  22  35  55  84 121 151 177 229 284 344
#     4  11  19  31  58  85 115 138 175 252 297 321
#     4  11  22  35  55  84 121 151 177 229 284 344
#     4  11  21  37  57  82 120 137 199 217 286 338
#     4  10  24  36  52  82 110 168 174 230 264 334
#
# _framework density 26.532017
#
# number of rings (size 3 to 8) (size 9 to 14) (size 15 to 20)
#    0.000    1.333    4.444    4.000    0.000    0.000 
#    0.000    0.000    0.000    0.000    0.000  108.889 
#    0.000    0.000    0.000    0.000    0.000    0.000 
#
# Total GULP energy -100569.961861 kJ/mol
# GULP energy per Si atom -5587.220103 kJ/mol
# Density = 2.647163 g / cm^3
# Si number density = 26.532017 Si / 1000 Ang^3
#
#
#
# Elastic Constant Matrix: (Units=GPa)
#
#
# Indices 1 2 3 4 5 6 
#
# 1 145.7506 66.2141 57.3068 0.0000 40.0524 0.0000
# 2 66.2141 241.2301 63.5333 0.0000 21.7334 0.0000
# 3 57.3068 63.5333 85.9190 0.0000 5.6000 0.0000
# 4 0.0000 0.0000 0.0000 36.1464 0.0000 2.4412
# 5 40.0524 21.7334 5.6000 0.0000 41.1524 0.0000
# 6 0.0000 0.0000 0.0000 2.4412 0.0000 29.0770
#
#
#
# Elastic Compliance Matrix: (Units=1/GPa)
#
#
# Indices 1 2 3 4 5 6 
#
# 1 0.013363 -0.000585 -0.007721 0.000000 -0.011646 0.000000
# 2 -0.000585 0.005383 -0.003473 0.000000 -0.001801 0.000000
# 3 -0.007721 -0.003473 0.018915 0.000000 0.006775 0.000000
# 4 0.000000 0.000000 0.000000 0.027823 0.000000 -0.002336
# 5 -0.011646 -0.001801 0.006775 0.000000 0.035664 0.000000
# 6 0.000000 0.000000 0.000000 -0.002336 0.000000 0.034588
#
#
# Mechanical properties :
#
#
# Convention : Reuss Voigt Hill
#
# Bulk Modulus (GPa) = 70.90738 94.11202 82.50970
# Shear Modulus (GPa) = 30.48873 40.33153 35.41013
#
# Velocity S-wave (km/s) = 3.39356 3.90309 3.65721
# Velocity P-wave (km/s) = 6.49140 7.47397 6.99994
#
# Compressibility (1/GPa) = 0.01410290
#
# Stress axis : x y z
#
# Youngs Moduli (GPa) = 74.83269 185.77355 52.86751
#
# Poissons Ratio (x) = 0.10871 0.40820
# Poissons Ratio (y) = 0.04379 0.18360
# Poissons Ratio (z) = 0.57780 0.64515
#
# Static dielectric constant tensor:
#      x y z
#    x 2.211400 0.000000 0.043870 
#    y 0.000000 2.096010 0.000000 
#    z 0.043870 0.000000 2.057380 
# 
# From -- ./inp_files/162348.got.cif
#   From: 2010.05.17/outbox.cif.g08.bks.cpg/sg12_82_cif.got.tgz:162348.got - 2010.06.03 13:09:07.
