data_PCOD9190372
_publ_section_title
;
Structure prediction by ZEFSAII (Michael W. Deem and Ramdas Pophale) SiO2 
 PCOD9190372
Probable space group: C 2/M
;
_chemical_formula_sum "Si O2"
_cell_formula_units_Z 56
_cell_length_a 19.365048
_cell_length_b 7.423872
_cell_length_c 21.284316
_cell_angle_alpha 90.000000
_cell_angle_beta 62.073195
_cell_angle_gamma 90.000000
_cell_volume 2703.573747
_symmetry_space_group_name_H-M "C 2/M"
_symmetry_group_IT_number 12
_symmetry_cell_setting 'monoclinic'
loop_
_space_group_symop_operation_xyz
x,y,z
-x,y,-z
-x,-y,-z
x,-y,z
1/2+x,1/2+y,z
1/2-x,1/2+y,-z
1/2-x,1/2-y,-z
1/2+x,1/2-y,z
loop_
_atom_site_type_symbol
_atom_site_label
_atom_site_fract_x
_atom_site_fract_y
_atom_site_fract_z
Si Si1 0.817611 0.713114 0.206328
Si Si2 0.713660 0.217783 0.919895
Si Si3 0.494722 0.220644 0.346515
Si Si4 0.373299 0.787234 0.919946
Si Si5 0.085044 0.291433 0.497923
Si Si6 0.029615 0.278909 0.786101
Si Si7 0.155115 0.282749 0.343659
O O1 0.831102 0.500000 0.193595
O O2 0.808415 0.785453 0.139566
O O3 0.891323 0.782693 0.213916
O O4 0.736991 0.736303 0.277955
O O5 0.802141 0.264220 0.901492
O O6 0.709647 0.000000 0.921456
O O7 0.657963 0.284860 0.000037
O O8 0.432604 0.283991 0.425630
O O9 0.476800 0.277458 0.283641
O O10 0.581252 0.276356 0.332781
O O11 0.494034 0.000000 0.348363
O O12 0.453651 0.717087 0.857195
O O13 0.385089 0.000000 0.924151
O O14 0.107857 0.500000 0.497515
O O15 0.142282 0.214165 0.420498
O O16 0.000000 0.290211 0.500000
O O17 0.028889 0.500000 0.785559
O O18 0.150003 0.500000 0.348832
#
# Coordination Sequence:
#
# PCOD9190372 Si02
#       7
#     8   8   8   8   8   8   8
#     4  10  20  31  42  62  94 124 145 171 215 265
#     4   9  18  31  47  68  92 115 140 177 224 263
#     4   8  13  24  45  69  87 107 144 190 223 249
#     4   9  17  31  51  70  86 110 148 186 214 250
#     4   7  11  21  40  66  88 105 136 185 228 253
#     4   9  17  28  43  64  89 118 150 179 210 255
#     4   9  16  28  48  69  86 110 148 188 220 253
#
# _framework density 20.713324
#
# number of rings (size 3 to 8) (size 9 to 14) (size 15 to 20)
#    0.000    3.286    0.000    2.571    0.000    2.286 
#    0.000    4.286    0.000    4.714    0.000    5.000 
#    0.000    0.000    0.000    0.000    0.000    0.000 
#
# Total GULP energy -156134.281321 kJ/mol
# GULP energy per Si atom -5576.224333 kJ/mol
# Density = 2.066618 g / cm^3
# Si number density = 20.713324 Si / 1000 Ang^3
#
#
#
# Elastic Constant Matrix: (Units=GPa)
#
#
# Indices 1 2 3 4 5 6 
#
# 1 135.4879 -5.9990 132.4072 -0.0003 4.9296 0.0000
# 2 -5.9990 59.9915 -3.0253 -0.0011 -2.8780 -0.0002
# 3 132.4072 -3.0253 199.5518 0.0002 10.1009 0.0001
# 4 -0.0003 -0.0011 0.0002 16.2256 -0.0001 -10.5279
# 5 4.9296 -2.8780 10.1009 -0.0001 -8.3871 0.0004
# 6 0.0000 -0.0002 0.0001 -10.5279 0.0004 10.1723
#
#
#
# Elastic Compliance Matrix: (Units=1/GPa)
#
#
# Indices 1 2 3 4 5 6 
#
# 1 0.020925 0.001187 -0.013637 0.000003 -0.004532 0.000003
# 2 0.001187 0.016520 -0.000269 0.000004 -0.005295 0.000005
# 3 -0.013637 -0.000269 0.013626 -0.000002 0.008487 -0.000003
# 4 0.000003 0.000004 -0.000002 0.187630 0.000005 0.194189
# 5 -0.004532 -0.005295 0.008487 0.000005 -0.109856 0.000010
# 6 0.000003 0.000005 -0.000003 0.194189 0.000010 0.299283
#
#
# Mechanical properties :
#
#
# Convention : Reuss Voigt Hill
#
# Bulk Modulus (GPa) = 39.01168 71.31080 55.16124
# Shear Modulus (GPa) = 10.81994 21.71204 16.26599
#
# Velocity S-wave (km/s) = 2.28801 3.24113 2.80534
# Velocity P-wave (km/s) = 5.08478 6.96483 6.09770
#
# Compressibility (1/GPa) = 0.02563335
#
# Stress axis : x y z
#
# Youngs Moduli (GPa) = 47.79009 60.53218 73.39015
#
# Poissons Ratio (x) = -0.07187 1.00080
# Poissons Ratio (y) = -0.05674 0.01977
# Poissons Ratio (z) = 0.65170 0.01630
#
# Static dielectric constant tensor:
#      x y z
#    x 1.684140 0.000000 0.012340 
#    y 0.000000 1.786620 0.000000 
#    z 0.012340 0.000000 1.757220 
# 
# From -- ./inp_files/313668.got.cif
#   From: 2010.05.17/outbox.cif.g08.bks.cpg/sg12_157_cif.got.tgz:313668.got - 2010.06.03 13:09:07.
