data_PCOD9190686
_publ_section_title
;
Structure prediction by ZEFSAII (Michael W. Deem and Ramdas Pophale) SiO2 
 PCOD9190686
Probable space group: C 2/M
;
_chemical_formula_sum "Si O2"
_cell_formula_units_Z 40
_cell_length_a 9.231996
_cell_length_b 13.004605
_cell_length_c 30.545000
_cell_angle_alpha 90.000000
_cell_angle_beta 148.579874
_cell_angle_gamma 90.000000
_cell_volume 1911.738459
_symmetry_space_group_name_H-M "C 2/M"
_symmetry_group_IT_number 12
_symmetry_cell_setting 'monoclinic'
loop_
_space_group_symop_operation_xyz
x,y,z
-x,y,-z
-x,-y,-z
x,-y,z
1/2+x,1/2+y,z
1/2-x,1/2+y,-z
1/2-x,1/2-y,-z
1/2+x,1/2-y,z
loop_
_atom_site_type_symbol
_atom_site_label
_atom_site_fract_x
_atom_site_fract_y
_atom_site_fract_z
Si Si1 0.214866 0.121504 0.020947
Si Si2 0.731947 0.880508 0.399645
Si Si3 0.664878 0.382815 0.912285
Si Si4 0.817886 0.302996 0.799677
Si Si5 0.261386 0.276980 0.314567
O O1 0.510920 0.133997 0.120076
O O2 0.172526 0.000000 0.004984
O O3 0.119229 0.160703 0.949373
O O4 0.000000 0.165597 0.000000
O O5 0.498722 0.803803 0.360086
O O6 0.820315 0.843257 0.373526
O O7 0.000000 0.875288 0.500000
O O8 0.636614 0.000000 0.373309
O O9 0.568852 0.500000 0.880644
O O10 0.493542 0.303675 0.839225
O O11 0.000000 0.387832 0.000000
O O12 0.796445 0.343702 0.744482
O O13 0.518727 0.280612 0.742611
#
# Coordination Sequence:
#
# PCOD9190686 Si02
#       5
#     8   8   8   8   8
#     4  10  20  32  47  69 102 150 203 248 289 339
#     4  10  22  44  70  92 122 160 193 237 298 366
#     4  10  20  33  51  75 107 156 211 251 289 344
#     4  11  20  34  54  80 118 155 192 251 307 345
#     4  10  23  37  60  95 122 153 198 246 300 366
#
# _framework density 20.923363999999999
#
# number of rings (size 3 to 8) (size 9 to 14) (size 15 to 20)
#    0.000    1.800    0.000    4.200    0.000    4.800 
#    0.000    3.000    0.000   10.800    0.000    0.000 
#    0.000    0.000    0.000    0.000    0.000    0.000 
#
# Total GULP energy -111486.775469 kJ/mol
# GULP energy per Si atom -5574.338773 kJ/mol
# Density = 2.087574 g / cm^3
# Si number density = 20.923364 Si / 1000 Ang^3
#
#
#
# Elastic Constant Matrix: (Units=GPa)
#
#
# Indices 1 2 3 4 5 6 
#
# 1 117.8489 3.6089 33.3298 0.0000 -20.6016 0.0000
# 2 3.6089 81.6361 13.9560 0.0000 -6.5495 0.0000
# 3 33.3298 13.9560 80.5887 0.0001 -14.1059 0.0000
# 4 0.0000 0.0000 0.0001 20.2381 0.0000 5.2127
# 5 -20.6016 -6.5495 -14.1059 0.0000 42.3582 0.0000
# 6 0.0000 0.0000 0.0000 5.2127 0.0000 17.9801
#
#
#
# Elastic Compliance Matrix: (Units=1/GPa)
#
#
# Indices 1 2 3 4 5 6 
#
# 1 0.010160 0.000475 -0.003617 0.000000 0.003810 0.000000
# 2 0.000475 0.012713 -0.002138 0.000000 0.001485 0.000000
# 3 -0.003617 -0.002138 0.014770 0.000000 0.002829 0.000000
# 4 0.000000 0.000000 0.000000 0.053399 0.000000 -0.015481
# 5 0.003810 0.001485 0.002829 0.000000 0.026633 0.000000
# 6 0.000000 0.000000 0.000000 -0.015481 0.000000 0.060105
#
#
# Mechanical properties :
#
#
# Convention : Reuss Voigt Hill
#
# Bulk Modulus (GPa) = 36.92450 42.42923 39.67687
# Shear Modulus (GPa) = 25.33325 31.39389 28.36357
#
# Velocity S-wave (km/s) = 3.48338 3.87773 3.68583
# Velocity P-wave (km/s) = 5.81931 6.35386 6.09245
#
# Compressibility (1/GPa) = 0.02708229
#
# Stress axis : x y z
#
# Youngs Moduli (GPa) = 98.42503 78.65890 67.70421
#
# Poissons Ratio (x) = -0.03736 0.24490
# Poissons Ratio (y) = -0.04675 0.14476
# Poissons Ratio (z) = 0.35603 0.16818
#
# Static dielectric constant tensor:
#      x y z
#    x 1.790010 0.000000 0.048430 
#    y 0.000000 1.773250 0.000000 
#    z 0.048430 0.000000 1.717800 
# 
# From -- ./inp_files/194558.got.cif
#   From: 2010.05.17/outbox.cif.g08.bks.cpg/sg12_98_cif.got.tgz:194558.got - 2010.06.03 13:09:07.
