data_PCOD9190520
_publ_section_title
;
Structure prediction by ZEFSAII (Michael W. Deem and Ramdas Pophale) SiO2 
 PCOD9190520
Probable space group: C 2/M
;
_chemical_formula_sum "Si O2"
_cell_formula_units_Z 48
_cell_length_a 25.682775
_cell_length_b 22.034930
_cell_length_c 11.713226
_cell_angle_alpha 90.000000
_cell_angle_beta 23.451178
_cell_angle_gamma 90.000000
_cell_volume 2638.017939
_symmetry_space_group_name_H-M "C 2/M"
_symmetry_group_IT_number 12
_symmetry_cell_setting 'monoclinic'
loop_
_space_group_symop_operation_xyz
x,y,z
-x,y,-z
-x,-y,-z
x,-y,z
1/2+x,1/2+y,z
1/2-x,1/2+y,-z
1/2-x,1/2-y,-z
1/2+x,1/2-y,z
loop_
_atom_site_type_symbol
_atom_site_label
_atom_site_fract_x
_atom_site_fract_y
_atom_site_fract_z
Si Si1 0.116068 0.933694 0.359887
Si Si2 0.950430 0.171973 0.785494
Si Si3 0.369418 0.674648 0.197308
Si Si4 0.706508 0.851118 0.117635
Si Si5 0.963658 0.311346 0.744226
Si Si6 0.378900 0.178240 0.164973
O O1 0.000000 0.938148 0.500000
O O2 0.065597 0.876671 0.535413
O O3 0.127134 0.000000 0.393217
O O4 0.248972 0.914727 0.027834
O O5 0.003389 0.240859 0.684063
O O6 0.876618 0.155501 0.051339
O O7 0.841327 0.170719 0.904960
O O8 0.366846 0.748262 0.195129
O O9 0.249456 0.653519 0.515504
O O10 0.500000 0.656904 0.000000
O O11 0.589684 0.847793 0.444640
O O12 0.646578 0.813449 0.132474
O O13 0.906176 0.336085 0.978314
O O14 0.500000 0.160607 0.000000
#
# Coordination Sequence:
#
# PCOD9190520 Si02
#       6
#     8   8   8   8   8   8
#     4   9  20  36  53  72  98 140 181 209 247 301
#     4  10  20  31  52  74 107 137 168 216 258 311
#     4   9  18  29  46  72  98 136 175 208 250 301
#     4  10  21  32  48  78 107 135 168 210 261 312
#     4  10  21  29  49  80 109 135 165 206 270 317
#     4   9  17  31  45  65 106 143 168 197 247 323
#
# _framework density 18.195478999999999
#
# number of rings (size 3 to 8) (size 9 to 14) (size 15 to 20)
#    0.000    2.500    0.000    1.500   11.667    2.667 
#    0.000    1.667    0.000    0.500    0.000    0.000 
#    0.000    7.333    0.000    0.000    0.000    0.000 
#
# Total GULP energy -133650.747243 kJ/mol
# GULP energy per Si atom -5568.781135 kJ/mol
# Density = 1.815406 g / cm^3
# Si number density = 18.195479 Si / 1000 Ang^3
#
#
#
# Elastic Constant Matrix: (Units=GPa)
#
#
# Indices 1 2 3 4 5 6 
#
# 1 76.0693 5.3900 48.1137 0.0001 23.9561 -0.0001
# 2 5.3900 60.2537 40.8115 -0.0001 6.1623 0.0000
# 3 48.1137 40.8115 156.8015 -0.0003 21.5840 0.0000
# 4 0.0001 -0.0001 -0.0003 3.7722 0.0002 -3.0009
# 5 23.9561 6.1623 21.5840 0.0002 26.1289 0.0001
# 6 -0.0001 0.0000 0.0000 -3.0009 0.0001 -6.0823
#
#
#
# Elastic Compliance Matrix: (Units=1/GPa)
#
#
# Indices 1 2 3 4 5 6 
#
# 1 0.021193 0.003221 -0.005147 0.000000 -0.015938 0.000000
# 2 0.003221 0.020643 -0.005962 0.000000 -0.002896 0.000000
# 3 -0.005147 -0.005962 0.009777 0.000001 -0.001951 0.000000
# 4 0.000000 0.000000 0.000001 0.190372 -0.000002 -0.093928
# 5 -0.015938 -0.002896 -0.001951 -0.000002 0.055179 0.000002
# 6 0.000000 0.000000 0.000000 -0.093928 0.000002 -0.118069
#
#
# Mechanical properties :
#
#
# Convention : Reuss Voigt Hill
#
# Bulk Modulus (GPa) = 27.90580 53.52830 40.71705
# Shear Modulus (GPa) = 24.17578 18.01773 21.09675
#
# Velocity S-wave (km/s) = 3.64905 3.15021 3.40876
# Velocity P-wave (km/s) = 5.75535 6.53560 6.15784
#
# Compressibility (1/GPa) = 0.03583485
#
# Stress axis : x y z
#
# Youngs Moduli (GPa) = 47.18641 48.44230 102.27715
#
# Poissons Ratio (x) = -0.15601 0.52644
# Poissons Ratio (y) = -0.15197 0.60982
# Poissons Ratio (z) = 0.24288 0.28884
#
# Static dielectric constant tensor:
#      x y z
#    x 1.643400 0.000000 0.012990 
#    y 0.000000 1.623520 0.000000 
#    z 0.012990 0.000000 1.648850 
# 
# From -- ./inp_files/185011.got.cif
#   From: 2010.05.17/outbox.cif.g08.bks.cpg/sg12_93_cif.got.tgz:185011.got - 2010.06.03 13:09:07.
