data_PCOD9190037
_publ_section_title
;
Structure prediction by ZEFSAII (Michael W. Deem and Ramdas Pophale) SiO2 
 PCOD9190037
Probable space group: C 2/M
;
_chemical_formula_sum "Si O2"
_cell_formula_units_Z 64
_cell_length_a 25.431175
_cell_length_b 18.272706
_cell_length_c 17.224185
_cell_angle_alpha 90.000000
_cell_angle_beta 19.975593
_cell_angle_gamma 90.000000
_cell_volume 2734.330669
_symmetry_space_group_name_H-M "C 2/M"
_symmetry_group_IT_number 12
_symmetry_cell_setting 'monoclinic'
loop_
_space_group_symop_operation_xyz
x,y,z
-x,y,-z
-x,-y,-z
x,-y,z
1/2+x,1/2+y,z
1/2-x,1/2+y,-z
1/2-x,1/2-y,-z
1/2+x,1/2-y,z
loop_
_atom_site_type_symbol
_atom_site_label
_atom_site_fract_x
_atom_site_fract_y
_atom_site_fract_z
Si Si1 0.782198 0.738612 0.203526
Si Si2 0.259902 0.917482 0.302900
Si Si3 0.388751 0.584660 0.812589
Si Si4 0.612905 0.785375 0.589217
Si Si5 0.939414 0.118793 0.999092
Si Si6 0.755765 0.292066 0.073411
Si Si7 0.824138 0.586608 0.745931
Si Si8 0.787552 0.868578 0.472666
O O1 0.814251 0.653608 0.179440
O O2 0.666676 0.770942 0.427423
O O3 0.929710 0.791904 0.007825
O O4 0.710888 0.745207 0.216809
O O5 0.306302 0.907549 0.328978
O O6 0.072636 0.910099 0.567196
O O7 0.296680 0.000000 0.224832
O O8 0.352496 0.500000 0.848992
O O9 0.339428 0.634822 0.809402
O O10 0.288521 0.610770 0.026603
O O11 0.699709 0.848027 0.516045
O O12 0.656713 0.708410 0.568191
O O13 0.435680 0.804392 0.837709
O O14 0.771904 0.096339 0.200578
O O15 0.000000 0.098322 0.000000
O O16 0.060476 0.090372 0.767654
O O17 0.750000 0.250000 0.000000
O O18 0.837924 0.500000 0.739442
O O19 0.000000 0.614950 0.500000
#
# Coordination Sequence:
#
# PCOD9190037 Si02
#       8
#     8   8   8   8   8   8   8   8
#     4  11  24  39  62  99 133 170 225 284 339 395
#     4  10  22  43  69  95 129 178 227 273 332 409
#     4  10  22  41  63  86 123 172 219 269 334 405
#     4  10  22  38  61  92 130 169 208 276 333 392
#     4  12  22  38  65 102 136 175 225 285 339 408
#     4  12  24  40  63  95 129 170 223 277 336 407
#     4  10  23  43  65  94 135 176 217 278 352 414
#     4  10  19  39  64  93 126 170 218 263 336 395
#
# _framework density 23.406094
#
# number of rings (size 3 to 8) (size 9 to 14) (size 15 to 20)
#    0.000    1.375    3.750    2.250    1.750    2.750 
#    2.250    1.875    0.000    2.625    0.000    0.000 
#    0.000    0.000    0.000    0.000    0.000    0.000 
#
# Total GULP energy -178799.615699 kJ/mol
# GULP energy per Si atom -5587.487991 kJ/mol
# Density = 2.335282 g / cm^3
# Si number density = 23.406094 Si / 1000 Ang^3
#
#
#
# Elastic Constant Matrix: (Units=GPa)
#
#
# Indices 1 2 3 4 5 6 
#
# 1 142.0814 6.1133 33.1001 0.0002 4.9515 -0.0003
# 2 6.1133 80.0144 -1.1070 -0.0006 2.3099 -0.0004
# 3 33.1001 -1.1070 54.9056 -0.0006 -2.6530 -0.0005
# 4 0.0002 -0.0006 -0.0006 18.0466 -0.0004 4.4374
# 5 4.9515 2.3099 -2.6530 -0.0004 41.2927 0.0004
# 6 -0.0003 -0.0004 -0.0005 4.4374 0.0004 28.5848
#
#
#
# Elastic Compliance Matrix: (Units=1/GPa)
#
#
# Indices 1 2 3 4 5 6 
#
# 1 0.008294 -0.000667 -0.005076 0.000000 -0.001283 0.000000
# 2 -0.000667 0.012574 0.000627 0.000000 -0.000583 0.000000
# 3 -0.005076 0.000627 0.021380 0.000001 0.001947 0.000000
# 4 0.000000 0.000000 0.000001 0.057611 0.000001 -0.008943
# 5 -0.001283 -0.000583 0.001947 0.000001 0.024529 0.000000
# 6 0.000000 0.000000 0.000000 -0.008943 0.000000 0.036372
#
#
# Mechanical properties :
#
#
# Convention : Reuss Voigt Hill
#
# Bulk Modulus (GPa) = 31.23264 39.24603 35.23933
# Shear Modulus (GPa) = 27.52351 33.51115 30.51733
#
# Velocity S-wave (km/s) = 3.43288 3.78792 3.61476
# Velocity P-wave (km/s) = 5.39311 5.99458 5.70178
#
# Compressibility (1/GPa) = 0.03201779
#
# Stress axis : x y z
#
# Youngs Moduli (GPa) = 120.56798 79.52784 46.77340
#
# Poissons Ratio (x) = 0.05303 0.23740
# Poissons Ratio (y) = 0.08040 -0.02934
# Poissons Ratio (z) = 0.61195 -0.04989
#
# Static dielectric constant tensor:
#      x y z
#    x 1.918120 0.000000 0.020480 
#    y 0.000000 1.938620 0.000000 
#    z 0.020480 0.000000 1.919320 
# 
# From -- ./inp_files/294145.got.cif
#   From: 2010.05.17/outbox.cif.g08.bks.cpg/sg12_148_cif.got.tgz:294145.got - 2010.06.03 13:09:07.
