data_PCOD9190543
_publ_section_title
;
Structure prediction by ZEFSAII (Michael W. Deem and Ramdas Pophale) SiO2 
 PCOD9190543
Probable space group: C 2/M
;
_chemical_formula_sum "Si O2"
_cell_formula_units_Z 60
_cell_length_a 24.074858
_cell_length_b 23.056758
_cell_length_c 15.983383
_cell_angle_alpha 90.000000
_cell_angle_beta 159.839049
_cell_angle_gamma 90.000000
_cell_volume 3057.874666
_symmetry_space_group_name_H-M "C 2/M"
_symmetry_group_IT_number 12
_symmetry_cell_setting 'monoclinic'
loop_
_space_group_symop_operation_xyz
x,y,z
-x,y,-z
-x,-y,-z
x,-y,z
1/2+x,1/2+y,z
1/2-x,1/2+y,-z
1/2-x,1/2-y,-z
1/2+x,1/2-y,z
loop_
_atom_site_type_symbol
_atom_site_label
_atom_site_fract_x
_atom_site_fract_y
_atom_site_fract_z
Si Si1 0.160081 0.674004 0.065357
Si Si2 0.597384 0.801565 0.426517
Si Si3 0.184533 0.932945 0.498030
Si Si4 0.735195 0.697442 0.175015
Si Si5 0.953556 0.902811 0.521847
Si Si6 0.500000 0.137482 0.000000
Si Si7 0.418367 0.648515 0.801239
Si Si8 0.626593 0.300546 0.851616
O O1 0.279653 0.622513 0.252595
O O2 0.256418 0.733896 0.192327
O O3 0.045636 0.666496 0.824045
O O4 0.051584 0.676678 0.994986
O O5 0.760276 0.815176 0.605408
O O6 0.534070 0.734767 0.344055
O O7 0.633573 0.821958 0.572260
O O8 0.071105 0.930311 0.421051
O O9 0.120119 0.896475 0.327451
O O10 0.208062 0.000000 0.509028
O O11 0.352024 0.902497 0.761056
O O12 0.560156 0.689599 0.968763
O O13 0.715407 0.669877 0.056182
O O14 0.000000 0.933335 0.500000
O O15 0.072089 0.847908 0.707680
O O16 0.500000 0.620728 0.000000
O O17 0.750000 0.250000 0.000000
#
# Coordination Sequence:
#
# PCOD9190543 Si02
#       8
#     8   8   8   8   8   4   8   8
#     4  10  20  31  53  80 115 156 176 223 276 340
#     4  10  20  34  51  79 117 150 186 216 280 342
#     4  11  23  41  61  81 109 149 197 251 294 329
#     4  10  20  33  51  82 114 151 184 221 271 347
#     4  11  22  39  55  83 118 147 197 235 279 340
#     4  10  21  34  56  86 112 142 185 232 296 344
#     4  10  21  36  57  84 115 142 186 236 283 350
#     4  11  22  34  55  80 119 158 190 223 274 343
#
# _framework density 19.621471
#
# number of rings (size 3 to 8) (size 9 to 14) (size 15 to 20)
#    0.000    1.600    4.000    1.800    2.800    2.667 
#    0.000    0.000    0.000    0.000    0.000    0.000 
#    0.000    5.333    0.000    0.000    0.000    0.000 
#
# Total GULP energy -167170.827404 kJ/mol
# GULP energy per Si atom -5572.360913 kJ/mol
# Density = 1.957681 g / cm^3
# Si number density = 19.621471 Si / 1000 Ang^3
#
#
#
# Elastic Constant Matrix: (Units=GPa)
#
#
# Indices 1 2 3 4 5 6 
#
# 1 103.3780 16.2426 33.2294 0.0000 -30.1062 0.0000
# 2 16.2426 58.5899 17.1621 0.0000 -11.0522 0.0000
# 3 33.2294 17.1621 117.5637 0.0000 -37.5520 0.0000
# 4 0.0000 0.0000 0.0000 5.8476 0.0000 2.2036
# 5 -30.1062 -11.0522 -37.5520 0.0000 37.5044 0.0000
# 6 0.0000 0.0000 0.0000 2.2036 0.0000 8.2699
#
#
#
# Elastic Compliance Matrix: (Units=1/GPa)
#
#
# Indices 1 2 3 4 5 6 
#
# 1 0.012794 -0.001664 -0.000367 0.000000 0.009412 0.000000
# 2 -0.001664 0.018442 -0.001342 0.000000 0.002756 0.000000
# 3 -0.000367 -0.001342 0.012622 0.000000 0.011948 0.000000
# 4 0.000000 0.000000 0.000000 0.190098 0.000000 -0.050652
# 5 0.009412 0.002756 0.011948 0.000000 0.046995 0.000000
# 6 0.000000 0.000000 0.000000 -0.050652 0.000000 0.134417
#
#
# Mechanical properties :
#
#
# Convention : Reuss Voigt Hill
#
# Bulk Modulus (GPa) = 26.94463 45.86665 36.40564
# Shear Modulus (GPa) = 11.50795 24.51755 18.01275
#
# Velocity S-wave (km/s) = 2.42440 3.53870 3.03316
# Velocity P-wave (km/s) = 4.64747 6.33427 5.55527
#
# Compressibility (1/GPa) = 0.03711315
#
# Stress axis : x y z
#
# Youngs Moduli (GPa) = 78.16371 54.22447 79.22641
#
# Poissons Ratio (x) = 0.09022 0.02906
# Poissons Ratio (y) = 0.13005 0.10630
# Poissons Ratio (z) = 0.02867 0.07275
#
# Static dielectric constant tensor:
#      x y z
#    x 1.820070 0.000000 -0.000850 
#    y 0.000000 1.648860 0.000000 
#    z -0.000850 0.000000 1.713430 
# 
# From -- ./inp_files/208958.got.cif
#   From: 2010.05.17/outbox.cif.g08.bks.cpg/sg12_105_cif.got.tgz:208958.got - 2010.06.03 13:09:07.
