data_PCOD9190881
_publ_section_title
;
Structure prediction by ZEFSAII (Michael W. Deem and Ramdas Pophale) SiO2 
 PCOD9190881
Probable space group: C 2/M
;
_chemical_formula_sum "Si O2"
_cell_formula_units_Z 64
_cell_length_a 19.722059
_cell_length_b 9.327354
_cell_length_c 27.017399
_cell_angle_alpha 90.000000
_cell_angle_beta 46.777865
_cell_angle_gamma 90.000000
_cell_volume 3621.641607
_symmetry_space_group_name_H-M "C 2/M"
_symmetry_group_IT_number 12
_symmetry_cell_setting 'monoclinic'
loop_
_space_group_symop_operation_xyz
x,y,z
-x,y,-z
-x,-y,-z
x,-y,z
1/2+x,1/2+y,z
1/2-x,1/2+y,-z
1/2-x,1/2-y,-z
1/2+x,1/2-y,z
loop_
_atom_site_type_symbol
_atom_site_label
_atom_site_fract_x
_atom_site_fract_y
_atom_site_fract_z
Si Si1 0.942541 0.328803 0.162134
Si Si2 0.351853 0.166088 0.592111
Si Si3 0.549926 0.828565 0.207411
Si Si4 0.766160 0.828236 0.722438
Si Si5 0.547746 0.166811 0.554053
Si Si6 0.554090 0.328828 0.021853
Si Si7 0.240127 0.670718 0.057084
Si Si8 0.045179 0.828275 0.313383
O O1 0.950806 0.500000 0.150186
O O2 0.835480 0.284702 0.207614
O O3 0.973813 0.300792 0.202892
O O4 0.011305 0.249263 0.090584
O O5 0.284735 0.259570 0.659479
O O6 0.450675 0.170108 0.571829
O O7 0.374310 0.213198 0.524772
O O8 0.322159 0.000000 0.605666
O O9 0.649198 0.787292 0.133346
O O10 0.534298 0.742931 0.265443
O O11 0.551600 0.000000 0.216514
O O12 0.852266 0.790188 0.715407
O O13 0.766374 0.000000 0.717352
O O14 0.529629 0.264095 0.610596
O O15 0.564029 0.000000 0.559290
O O16 0.541774 0.500000 0.033950
O O17 0.500000 0.281894 0.000000
O O18 0.663817 0.301087 0.962382
O O19 0.232682 0.500000 0.051603
O O20 0.250000 0.750000 0.000000
O O21 0.038654 0.000000 0.314400
#
# Coordination Sequence:
#
# PCOD9190881 Si02
#       8
#     8   8   8   8   8   8   8   8
#     4  10  21  38  55  73 100 137 175 205 247 305
#     4   8  14  26  47  74 101 133 169 204 246 298
#     4  10  21  36  54  73  98 135 173 208 248 298
#     4   9  19  33  49  74 106 134 165 208 254 301
#     4   8  14  27  47  72 103 134 167 205 246 296
#     4  10  22  37  54  79 106 130 163 211 260 301
#     4  10  20  36  56  77 100 130 170 210 251 301
#     4  10  20  32  49  77 106 132 166 209 255 298
#
# _framework density 17.671544999999998
#
# number of rings (size 3 to 8) (size 9 to 14) (size 15 to 20)
#    0.000    2.625    1.250    1.125    1.750    2.750 
#    0.000    2.500    0.000    0.750    0.000    0.000 
#    0.000    0.000    0.000    0.000    0.000    0.000 
#
# Total GULP energy -178370.097627 kJ/mol
# GULP energy per Si atom -5574.065551 kJ/mol
# Density = 1.763132 g / cm^3
# Si number density = 17.671545 Si / 1000 Ang^3
#
#
#
# Elastic Constant Matrix: (Units=GPa)
#
#
# Indices 1 2 3 4 5 6 
#
# 1 42.0145 14.1744 2.1596 0.0000 16.1170 0.0003
# 2 14.1744 18.7012 16.9302 0.0002 15.3217 0.0006
# 3 2.1596 16.9302 49.5436 0.0000 25.0935 0.0000
# 4 0.0000 0.0002 0.0000 32.3713 0.0000 4.7781
# 5 16.1170 15.3217 25.0935 0.0000 27.8952 0.0001
# 6 0.0003 0.0006 0.0000 4.7781 0.0001 17.5824
#
#
#
# Elastic Compliance Matrix: (Units=1/GPa)
#
#
# Indices 1 2 3 4 5 6 
#
# 1 0.044548 -0.030370 0.023924 0.000000 -0.030578 0.000000
# 2 -0.030370 0.121528 -0.028076 0.000000 -0.023948 -0.000003
# 3 0.023924 -0.028076 0.051299 0.000000 -0.044549 0.000001
# 4 0.000000 0.000000 0.000000 0.032182 0.000000 -0.008746
# 5 -0.030578 -0.023948 -0.044549 0.000000 0.106744 0.000001
# 6 0.000000 -0.000003 0.000001 -0.008746 0.000001 0.059252
#
#
# Mechanical properties :
#
#
# Convention : Reuss Voigt Hill
#
# Bulk Modulus (GPa) = 6.74167 19.64307 13.19237
# Shear Modulus (GPa) = 9.36257 20.70279 15.03268
#
# Velocity S-wave (km/s) = 2.30426 3.42648 2.91979
# Velocity P-wave (km/s) = 3.30193 5.17630 4.34148
#
# Compressibility (1/GPa) = 0.14833127
#
# Stress axis : x y z
#
# Youngs Moduli (GPa) = 22.44785 8.22852 19.49349
#
# Poissons Ratio (x) = 0.24990 -0.46637
# Poissons Ratio (y) = 0.68175 0.54730
# Poissons Ratio (z) = -0.53705 0.23102
#
# Static dielectric constant tensor:
#      x y z
#    x 1.610250 0.000000 -0.010070 
#    y 0.000000 1.587380 0.000000 
#    z -0.010070 0.000000 1.585820 
# 
# From -- ./inp_files/345989.got.cif
#   From: 2010.05.17/outbox.cif.g08.bks.cpg/sg12_173_cif.got.tgz:345989.got - 2010.06.03 13:09:07.
