data_PCOD9190786
_publ_section_title
;
Structure prediction by ZEFSAII (Michael W. Deem and Ramdas Pophale) SiO2 
 PCOD9190786
Probable space group: C 2/M
;
_chemical_formula_sum "Si O2"
_cell_formula_units_Z 64
_cell_length_a 32.521026
_cell_length_b 8.982604
_cell_length_c 14.655636
_cell_angle_alpha 90.000000
_cell_angle_beta 116.981433
_cell_angle_gamma 90.000000
_cell_volume 3815.256372
_symmetry_space_group_name_H-M "C 2/M"
_symmetry_group_IT_number 12
_symmetry_cell_setting 'monoclinic'
loop_
_space_group_symop_operation_xyz
x,y,z
-x,y,-z
-x,-y,-z
x,-y,z
1/2+x,1/2+y,z
1/2-x,1/2+y,-z
1/2-x,1/2-y,-z
1/2+x,1/2-y,z
loop_
_atom_site_type_symbol
_atom_site_label
_atom_site_fract_x
_atom_site_fract_y
_atom_site_fract_z
Si Si1 0.299946 0.320916 0.945940
Si Si2 0.471792 0.174567 0.326864
Si Si3 0.888922 0.178820 0.354673
Si Si4 0.569984 0.677496 0.413912
Si Si5 0.387475 0.322179 0.913458
Si Si6 0.075287 0.321984 0.224037
Si Si7 0.968411 0.326264 0.106278
Si Si8 0.201918 0.179078 0.844530
O O1 0.296489 0.500000 0.938909
O O2 0.341988 0.274947 0.923568
O O3 0.250969 0.250820 0.870376
O O4 0.309139 0.279878 0.061195
O O5 0.430230 0.242899 0.342075
O O6 0.519670 0.260307 0.391335
O O7 0.461533 0.187520 0.208282
O O8 0.478032 0.000000 0.353717
O O9 0.895438 0.210326 0.468237
O O10 0.840008 0.224595 0.262898
O O11 0.893463 0.000000 0.346971
O O12 0.567085 0.500000 0.398596
O O13 0.582944 0.753941 0.331691
O O14 0.386923 0.500000 0.903219
O O15 0.392092 0.245920 0.819901
O O16 0.432048 0.272418 0.016263
O O17 0.078812 0.500000 0.231850
O O18 0.021940 0.286789 0.143359
O O19 0.961890 0.500000 0.073938
O O20 0.206139 0.000000 0.844927
#
# Coordination Sequence:
#
# PCOD9190786 Si02
#       8
#     8   8   8   8   8   8   8   8
#     4   9  19  34  51  75 104 129 157 197 244 295
#     4  10  20  32  48  73 105 138 170 204 243 291
#     4  10  20  33  51  75 101 131 168 208 249 295
#     4  10  20  34  51  71  99 134 170 209 250 290
#     4  11  21  32  51  76 100 130 167 205 247 297
#     4  10  21  36  51  70 100 134 169 209 248 290
#     4   9  19  33  47  69 102 135 166 203 244 287
#     4   9  18  34  54  75 101 131 161 196 243 297
#
# _framework density 16.774759
#
# number of rings (size 3 to 8) (size 9 to 14) (size 15 to 20)
#    0.000    2.250    0.000    3.750    0.000    9.500 
#    0.000    2.500    0.000    0.750    0.000    0.000 
#    0.000    0.000    0.000    0.000    0.000    0.000 
#
# Total GULP energy -178640.118374 kJ/mol
# GULP energy per Si atom -5582.503699 kJ/mol
# Density = 1.673658 g / cm^3
# Si number density = 16.774759 Si / 1000 Ang^3
#
#
#
# Elastic Constant Matrix: (Units=GPa)
#
#
# Indices 1 2 3 4 5 6 
#
# 1 131.9601 52.3941 79.5149 0.0000 -10.8280 0.0000
# 2 52.3941 45.8921 51.6741 0.0000 -1.4616 0.0000
# 3 79.5149 51.6741 120.4924 0.0000 11.3937 0.0000
# 4 0.0000 0.0000 0.0000 22.1069 0.0000 0.7344
# 5 -10.8280 -1.4616 11.3937 0.0000 12.5897 0.0000
# 6 0.0000 0.0000 0.0000 0.7344 0.0000 26.9735
#
#
#
# Elastic Compliance Matrix: (Units=1/GPa)
#
#
# Indices 1 2 3 4 5 6 
#
# 1 0.021302 -0.008610 -0.013127 0.000000 0.029202 0.000000
# 2 -0.008610 0.052909 -0.018470 0.000000 0.015452 0.000000
# 3 -0.013127 -0.018470 0.028601 0.000000 -0.039318 0.000000
# 4 0.000000 0.000000 0.000000 0.045276 0.000000 -0.001233
# 5 0.029202 0.015452 -0.039318 0.000000 0.141922 0.000000
# 6 0.000000 0.000000 0.000000 -0.001233 0.000000 0.037107
#
#
# Mechanical properties :
#
#
# Convention : Reuss Voigt Hill
#
# Bulk Modulus (GPa) = 44.64452 73.94564 59.29508
# Shear Modulus (GPa) = 12.04831 19.98478 16.01655
#
# Velocity S-wave (km/s) = 2.68291 3.45535 3.09334
# Velocity P-wave (km/s) = 6.02239 7.75219 6.94139
#
# Compressibility (1/GPa) = 0.02239917
#
# Stress axis : x y z
#
# Youngs Moduli (GPa) = 46.94292 18.90036 34.96442
#
# Poissons Ratio (x) = 0.16273 0.45897
# Poissons Ratio (y) = 0.40418 0.64578
# Poissons Ratio (z) = 0.61620 0.34908
#
# Static dielectric constant tensor:
#      x y z
#    x 1.542140 0.000000 -0.014910 
#    y 0.000000 1.557860 0.000000 
#    z -0.014910 0.000000 1.567530 
# 
# From -- ./inp_files/249160.got.cif
#   From: 2010.05.17/outbox.cif.g08.bks.cpg/sg12_125_cif.got.tgz:249160.got - 2010.06.03 13:09:07.
