data_PCOD9190062
_publ_section_title
;
Structure prediction by ZEFSAII (Michael W. Deem and Ramdas Pophale) SiO2 
 PCOD9190062
Probable space group: C 2/M
;
_chemical_formula_sum "Si O2"
_cell_formula_units_Z 48
_cell_length_a 13.341657
_cell_length_b 26.845285
_cell_length_c 10.539943
_cell_angle_alpha 90.000000
_cell_angle_beta 145.505408
_cell_angle_gamma 90.000000
_cell_volume 2137.885440
_symmetry_space_group_name_H-M "C 2/M"
_symmetry_group_IT_number 12
_symmetry_cell_setting 'monoclinic'
loop_
_space_group_symop_operation_xyz
x,y,z
-x,y,-z
-x,-y,-z
x,-y,z
1/2+x,1/2+y,z
1/2-x,1/2+y,-z
1/2-x,1/2-y,-z
1/2+x,1/2-y,z
loop_
_atom_site_type_symbol
_atom_site_label
_atom_site_fract_x
_atom_site_fract_y
_atom_site_fract_z
Si Si1 0.612849 0.900421 0.231618
Si Si2 0.024313 0.943457 0.377146
Si Si3 0.448531 0.628363 0.075074
Si Si4 0.106878 0.661459 0.813119
Si Si5 0.752208 0.213686 0.622697
Si Si6 0.286744 0.693489 0.260798
O O1 0.768375 0.936670 0.432770
O O2 0.489335 0.884981 0.218582
O O3 0.699074 0.849586 0.259263
O O4 0.500000 0.923002 0.000000
O O5 0.000000 0.930121 0.500000
O O6 0.940219 0.904978 0.191946
O O7 0.963625 0.000000 0.296719
O O8 0.595753 0.672037 0.237706
O O9 0.500000 0.599952 0.000000
O O10 0.251277 0.649365 0.858306
O O11 0.945199 0.691993 0.588190
O O12 0.216933 0.685801 0.044964
O O13 0.750000 0.250000 0.500000
O O14 0.778458 0.252263 0.764333
O O15 0.500000 0.690783 0.500000
#
# Coordination Sequence:
#
# PCOD9190062 Si02
#       6
#     8   8   8   8   8   8
#     4  10  19  39  66 100 139 177 226 286 350 405
#     4  11  23  46  79 109 135 172 231 294 356 427
#     4  12  29  47  70 102 144 190 233 290 360 418
#     4  11  24  44  66  90 140 192 230 285 339 408
#     4  12  25  41  63  99 142 189 246 282 340 407
#     4  11  23  38  65  97 139 187 235 293 338 396
#
# _framework density 22.452092
#
# number of rings (size 3 to 8) (size 9 to 14) (size 15 to 20)
#    0.000    0.833    3.333    4.500    4.667    2.000 
#    0.000    0.833    0.000    1.000    0.000    0.000 
#    0.000    0.000    0.000    0.000    0.000    0.000 
#
# Total GULP energy -134339.838108 kJ/mol
# GULP energy per Si atom -5597.493254 kJ/mol
# Density = 2.240099 g / cm^3
# Si number density = 22.452092 Si / 1000 Ang^3
#
#
#
# Elastic Constant Matrix: (Units=GPa)
#
#
# Indices 1 2 3 4 5 6 
#
# 1 133.1854 35.7205 29.0184 0.0000 12.9308 0.0000
# 2 35.7205 84.0987 20.9907 0.0000 -0.7245 0.0000
# 3 29.0184 20.9907 99.3026 0.0000 23.6106 0.0000
# 4 0.0000 0.0000 0.0000 15.0705 0.0000 -12.2095
# 5 12.9308 -0.7245 23.6106 0.0000 42.9580 0.0000
# 6 0.0000 0.0000 0.0000 -12.2095 0.0000 17.5312
#
#
#
# Elastic Compliance Matrix: (Units=1/GPa)
#
#
# Indices 1 2 3 4 5 6 
#
# 1 0.008935 -0.003460 -0.001411 0.000000 -0.001973 0.000000
# 2 -0.003460 0.014032 -0.002599 0.000000 0.002706 0.000000
# 3 -0.001411 -0.002599 0.012586 0.000000 -0.006537 0.000000
# 4 0.000000 0.000000 0.000000 0.152268 0.000000 0.106046
# 5 -0.001973 0.002706 -0.006537 0.000000 0.027511 0.000000
# 6 0.000000 0.000000 0.000000 0.106046 0.000000 0.130896
#
#
# Mechanical properties :
#
#
# Convention : Reuss Voigt Hill
#
# Bulk Modulus (GPa) = 48.50856 54.22732 51.36794
# Shear Modulus (GPa) = 13.58554 30.50242 22.04398
#
# Velocity S-wave (km/s) = 2.46253 3.68986 3.13680
# Velocity P-wave (km/s) = 5.45322 6.50833 6.00400
#
# Compressibility (1/GPa) = 0.02061492
#
# Stress axis : x y z
#
# Youngs Moduli (GPa) = 111.91697 71.26392 79.45376
#
# Poissons Ratio (x) = 0.24658 0.11208
# Poissons Ratio (y) = 0.38724 0.20646
# Poissons Ratio (z) = 0.15788 0.18518
#
# Static dielectric constant tensor:
#      x y z
#    x 1.914880 0.000000 -0.028360 
#    y 0.000000 1.850300 0.000000 
#    z -0.028360 0.000000 1.858570 
# 
# From -- ./inp_files/149849.got.cif
#   From: 2010.05.17/outbox.cif.g08.bks.cpg/sg12_75_cif.got.tgz:149849.got - 2010.06.03 13:09:07.
