data_PCOD9190958
_publ_section_title
;
Structure prediction by ZEFSAII (Michael W. Deem and Ramdas Pophale) SiO2 
 PCOD9190958
Probable space group: C 2/M
;
_chemical_formula_sum "Si O2"
_cell_formula_units_Z 48
_cell_length_a 29.869369
_cell_length_b 7.581965
_cell_length_c 12.267639
_cell_angle_alpha 90.000000
_cell_angle_beta 139.096139
_cell_angle_gamma 90.000000
_cell_volume 1819.164648
_symmetry_space_group_name_H-M "C 2/M"
_symmetry_group_IT_number 12
_symmetry_cell_setting 'monoclinic'
loop_
_space_group_symop_operation_xyz
x,y,z
-x,y,-z
-x,-y,-z
x,-y,z
1/2+x,1/2+y,z
1/2-x,1/2+y,-z
1/2-x,1/2-y,-z
1/2+x,1/2-y,z
loop_
_atom_site_type_symbol
_atom_site_label
_atom_site_fract_x
_atom_site_fract_y
_atom_site_fract_z
Si Si1 0.545005 0.784467 0.243426
Si Si2 0.997562 0.297540 0.613132
Si Si3 0.100880 0.714821 0.125173
Si Si4 0.353970 0.296040 0.121289
Si Si5 0.293310 0.205812 0.228325
Si Si6 0.746927 0.790896 0.365804
O O1 0.545867 0.719349 0.368377
O O2 0.596908 0.727776 0.244915
O O3 0.547051 0.000000 0.250896
O O4 0.469955 0.733929 0.060036
O O5 0.973132 0.500000 0.553708
O O6 0.077867 0.300413 0.792518
O O7 0.000000 0.209046 0.500000
O O8 0.102197 0.500000 0.128070
O O9 0.170090 0.776759 0.197061
O O10 0.360506 0.500000 0.102238
O O11 0.345724 0.286158 0.238098
O O12 0.282240 0.223027 0.943235
O O13 0.298218 0.220228 0.368179
O O14 0.294080 0.000000 0.203343
O O15 0.750000 0.750000 0.500000
O O16 0.749869 0.000000 0.360084
#
# Coordination Sequence:
#
# PCOD9190958 Si02
#       6
#     8   8   8   8   8   8
#     4   8  14  28  49  73  98 127 171 220 261 302
#     4  10  20  32  50  78 110 144 179 217 265 324
#     4   8  15  28  49  73  97 130 172 218 260 302
#     4  10  21  37  58  82 108 141 182 231 284 333
#     4  10  21  38  59  81 106 140 185 233 280 333
#     4  11  22  35  53  80 113 147 181 220 271 327
#
# _framework density 26.385739999999998
#
# number of rings (size 3 to 8) (size 9 to 14) (size 15 to 20)
#    0.000    2.500    0.000    3.500    0.000    5.000 
#    0.000    3.333    0.000    2.000    0.000    8.167 
#    0.000    0.000    0.000    0.000    0.000    0.000 
#
# Total GULP energy -134196.412296 kJ/mol
# GULP energy per Si atom -5591.517179 kJ/mol
# Density = 2.632568 g / cm^3
# Si number density = 26.385740 Si / 1000 Ang^3
#
#
#
# Elastic Constant Matrix: (Units=GPa)
#
#
# Indices 1 2 3 4 5 6 
#
# 1 190.3616 -5.4574 37.1959 0.0000 -30.3713 0.0000
# 2 -5.4574 83.5576 -5.7277 0.0000 -2.9910 0.0000
# 3 37.1959 -5.7277 66.3975 0.0000 -25.2656 0.0000
# 4 0.0000 0.0000 0.0000 13.0569 0.0000 -7.5998
# 5 -30.3713 -2.9910 -25.2656 0.0000 60.9498 0.0000
# 6 0.0000 0.0000 0.0000 -7.5998 0.0000 9.0925
#
#
#
# Elastic Compliance Matrix: (Units=1/GPa)
#
#
# Indices 1 2 3 4 5 6 
#
# 1 0.006089 0.000286 -0.002644 0.000000 0.001953 0.000000
# 2 0.000286 0.012128 0.001385 0.000000 0.001312 0.000000
# 3 -0.002644 0.001385 0.019217 0.000000 0.006717 0.000000
# 4 0.000000 0.000000 0.000000 0.149149 0.000000 0.124665
# 5 0.001953 0.001312 0.006717 0.000000 0.020229 0.000000
# 6 0.000000 0.000000 0.000000 0.124665 0.000000 0.214182
#
#
# Mechanical properties :
#
#
# Convention : Reuss Voigt Hill
#
# Bulk Modulus (GPa) = 28.17640 43.59312 35.88476
# Shear Modulus (GPa) = 11.50035 37.57355 24.53695
#
# Velocity S-wave (km/s) = 2.08998 3.77770 3.05279
# Velocity P-wave (km/s) = 4.06520 5.96535 5.10447
#
# Compressibility (1/GPa) = 0.03549069
#
# Stress axis : x y z
#
# Youngs Moduli (GPa) = 164.21855 82.45103 52.03692
#
# Poissons Ratio (x) = -0.02361 0.13757
# Poissons Ratio (y) = -0.04703 -0.07207
# Poissons Ratio (z) = 0.43413 -0.11420
#
# Static dielectric constant tensor:
#      x y z
#    x 2.041070 0.000000 -0.027000 
#    y 0.000000 1.966890 0.000000 
#    z -0.027000 0.000000 2.210540 
# 
# From -- ./inp_files/180264.got.cif
#   From: 2010.05.17/outbox.cif.g08.bks.cpg/sg12_91_cif.got.tgz:180264.got - 2010.06.03 13:09:07.
