data_PCOD9190833
_publ_section_title
;
Structure prediction by ZEFSAII (Michael W. Deem and Ramdas Pophale) SiO2 
 PCOD9190833
Probable space group: C 2/M
;
_chemical_formula_sum "Si O2"
_cell_formula_units_Z 64
_cell_length_a 22.886182
_cell_length_b 9.303763
_cell_length_c 21.200355
_cell_angle_alpha 90.000000
_cell_angle_beta 138.346440
_cell_angle_gamma 90.000000
_cell_volume 3000.210789
_symmetry_space_group_name_H-M "C 2/M"
_symmetry_group_IT_number 12
_symmetry_cell_setting 'monoclinic'
loop_
_space_group_symop_operation_xyz
x,y,z
-x,y,-z
-x,-y,-z
x,-y,z
1/2+x,1/2+y,z
1/2-x,1/2+y,-z
1/2-x,1/2-y,-z
1/2+x,1/2-y,z
loop_
_atom_site_type_symbol
_atom_site_label
_atom_site_fract_x
_atom_site_fract_y
_atom_site_fract_z
Si Si1 0.751235 0.167639 0.109670
Si Si2 0.928588 0.339991 0.749882
Si Si3 0.919154 0.832224 0.179698
Si Si4 0.350199 0.331661 0.325780
Si Si5 0.022098 0.834257 0.398108
Si Si6 0.396251 0.828752 0.926048
Si Si7 0.800758 0.829485 0.736185
Si Si8 0.168926 0.658767 0.460210
O O1 0.821768 0.229497 0.116794
O O2 0.800180 0.177453 0.217459
O O3 0.652202 0.214230 0.047266
O O4 0.746227 0.000000 0.088462
O O5 0.935276 0.500000 0.784376
O O6 0.854956 0.244282 0.723995
O O7 0.894187 0.356381 0.651135
O O8 0.021761 0.260515 0.819753
O O9 0.971049 0.832838 0.289118
O O10 0.914602 0.000000 0.156375
O O11 0.348923 0.500000 0.342762
O O12 0.449812 0.287552 0.390860
O O13 0.295568 0.236862 0.330203
O O14 0.108942 0.740474 0.462099
O O15 0.045358 0.000000 0.429154
O O16 0.354329 0.725982 0.840196
O O17 0.374683 0.000000 0.898822
O O18 0.500000 0.816675 0.000000
O O19 0.799122 0.000000 0.729984
O O20 0.197148 0.500000 0.504063
O O21 0.250000 0.750000 0.500000
#
# Coordination Sequence:
#
# PCOD9190833 Si02
#       8
#     8   8   8   8   8   8   8   8
#     4   7  11  22  42  67  91 116 149 187 228 272
#     4  10  20  33  48  68  94 124 159 195 232 279
#     4   8  13  24  43  66  91 117 148 189 233 274
#     4   8  14  27  46  67  92 122 155 191 231 278
#     4   8  14  26  46  69  93 121 153 191 234 277
#     4   9  17  31  51  72  96 128 161 192 231 282
#     4  11  21  31  47  71  98 127 157 195 239 278
#     4  10  20  32  49  72  98 127 158 195 237 282
#
# _framework density 21.331835999999999
#
# number of rings (size 3 to 8) (size 9 to 14) (size 15 to 20)
#    0.000    3.125    0.000    4.125    0.000    2.250 
#    0.000    6.250    0.000    1.500    0.000    5.250 
#    0.000    0.000    0.000    0.000    0.000    0.000 
#
# Total GULP energy -178349.492653 kJ/mol
# GULP energy per Si atom -5573.421645 kJ/mol
# Density = 2.128328 g / cm^3
# Si number density = 21.331836 Si / 1000 Ang^3
#
#
#
# Elastic Constant Matrix: (Units=GPa)
#
#
# Indices 1 2 3 4 5 6 
#
# 1 177.8185 100.8622 37.8810 0.0000 64.0779 0.0000
# 2 100.8622 127.5759 29.2563 0.0000 33.5670 0.0000
# 3 37.8810 29.2563 50.3643 0.0000 16.9440 0.0000
# 4 0.0000 0.0000 0.0000 12.0139 0.0000 11.3050
# 5 64.0779 33.5670 16.9440 0.0000 40.7757 0.0000
# 6 0.0000 0.0000 0.0000 11.3050 0.0000 23.2345
#
#
#
# Elastic Compliance Matrix: (Units=1/GPa)
#
#
# Indices 1 2 3 4 5 6 
#
# 1 0.018659 -0.008712 -0.001769 0.000000 -0.021416 0.000000
# 2 -0.008712 0.014645 -0.002912 0.000000 0.002844 0.000000
# 3 -0.001769 -0.002912 0.024571 0.000000 -0.005033 0.000000
# 4 0.000000 0.000000 0.000000 0.153533 0.000000 -0.074703
# 5 -0.021416 0.002844 -0.005033 0.000000 0.057930 0.000000
# 6 0.000000 0.000000 0.000000 -0.074703 0.000000 0.079387
#
#
# Mechanical properties :
#
#
# Convention : Reuss Voigt Hill
#
# Bulk Modulus (GPa) = 32.16404 76.86195 54.51300
# Shear Modulus (GPa) = 12.95762 27.72210 20.33986
#
# Velocity S-wave (km/s) = 2.46729 3.60886 3.09123
# Velocity P-wave (km/s) = 4.81948 7.31266 6.19283
#
# Compressibility (1/GPa) = 0.03109062
#
# Stress axis : x y z
#
# Youngs Moduli (GPa) = 53.59229 68.28051 40.69907
#
# Poissons Ratio (x) = 0.59484 0.07199
# Poissons Ratio (y) = 0.46688 0.11851
# Poissons Ratio (z) = 0.09480 0.19882
#
# Static dielectric constant tensor:
#      x y z
#    x 1.816660 0.000000 -0.017130 
#    y 0.000000 1.738630 0.000000 
#    z -0.017130 0.000000 1.858460 
# 
# From -- ./inp_files/365226.got.cif
#   From: 2010.05.17/outbox.cif.g08.bks.cpg/sg12_183_cif.got.tgz:365226.got - 2010.06.03 13:09:07.
