data_PCOD9190394
_publ_section_title
;
Structure prediction by ZEFSAII (Michael W. Deem and Ramdas Pophale) SiO2 
 PCOD9190394
Probable space group: C 2/M
;
_chemical_formula_sum "Si O2"
_cell_formula_units_Z 48
_cell_length_a 16.127252
_cell_length_b 7.609499
_cell_length_c 35.308206
_cell_angle_alpha 90.000000
_cell_angle_beta 153.670390
_cell_angle_gamma 90.000000
_cell_volume 1921.849721
_symmetry_space_group_name_H-M "C 2/M"
_symmetry_group_IT_number 12
_symmetry_cell_setting 'monoclinic'
loop_
_space_group_symop_operation_xyz
x,y,z
-x,y,-z
-x,-y,-z
x,-y,z
1/2+x,1/2+y,z
1/2-x,1/2+y,-z
1/2-x,1/2-y,-z
1/2+x,1/2-y,z
loop_
_atom_site_type_symbol
_atom_site_label
_atom_site_fract_x
_atom_site_fract_y
_atom_site_fract_z
Si Si1 0.272299 0.215163 0.293416
Si Si2 0.556736 0.703002 0.133779
Si Si3 0.947887 0.701809 0.246351
Si Si4 0.451657 0.203975 0.439798
Si Si5 0.354028 0.787918 0.597919
Si Si6 0.911654 0.500000 0.024733
Si Si7 0.697914 0.500000 0.862355
O O1 0.107320 0.265544 0.197067
O O2 0.303652 0.278456 0.349214
O O3 0.464884 0.268668 0.351304
O O4 0.268339 0.000000 0.292372
O O5 0.497028 0.500000 0.108966
O O6 0.755262 0.707112 0.192375
O O7 0.423566 0.830590 0.056109
O O8 0.973331 0.500000 0.245894
O O9 0.102514 0.759661 0.340311
O O10 0.915686 0.831768 0.198486
O O11 0.500000 0.290506 0.500000
O O12 0.657715 0.209630 0.504953
O O13 0.403289 0.000000 0.426141
O O14 0.345009 0.000000 0.592577
O O15 0.105721 0.500000 0.079995
O O16 0.750761 0.500000 0.927655
#
# Coordination Sequence:
#
# PCOD9190394 Si02
#       7
#     8   8   8   8   8   4   4
#     4   8  15  30  47  63  87 122 162 193 227 275
#     4   8  14  26  41  57  85 120 151 190 225 264
#     4   8  15  26  40  60  84 117 155 187 225 271
#     4  10  20  31  44  66  95 123 148 194 241 283
#     4   9  17  30  47  64  85 120 164 197 224 270
#     4   9  16  24  36  64  91 116 154 178 224 291
#     4   9  16  24  38  60  93 122 142 184 230 279
#
# _framework density 24.975937999999999
#
# number of rings (size 3 to 8) (size 9 to 14) (size 15 to 20)
#    0.000    3.333    0.000    2.500    1.167    1.000 
#    3.000    3.333    0.000    0.000    0.000    0.000 
#    0.000    1.333    0.667    0.000    0.000    0.000 
#
# Total GULP energy -134254.205132 kJ/mol
# GULP energy per Si atom -5593.925214 kJ/mol
# Density = 2.491909 g / cm^3
# Si number density = 24.975938 Si / 1000 Ang^3
#
#
#
# Elastic Constant Matrix: (Units=GPa)
#
#
# Indices 1 2 3 4 5 6 
#
# 1 84.0031 23.6884 48.4748 -0.0002 -11.6981 0.0000
# 2 23.6884 107.9778 83.4727 0.0000 -15.2589 -0.0005
# 3 48.4748 83.4727 234.4493 -0.0011 -53.1099 0.0001
# 4 -0.0002 0.0000 -0.0011 30.5412 0.0000 8.1347
# 5 -11.6981 -15.2589 -53.1099 0.0000 56.7328 0.0000
# 6 0.0000 -0.0005 0.0001 8.1347 0.0000 20.9788
#
#
#
# Elastic Compliance Matrix: (Units=1/GPa)
#
#
# Indices 1 2 3 4 5 6 
#
# 1 0.013619 -0.001133 -0.002342 0.000000 0.000311 0.000000
# 2 -0.001133 0.012921 -0.004609 0.000000 -0.001073 0.000000
# 3 -0.002342 -0.004609 0.007615 0.000000 0.005406 0.000000
# 4 0.000000 0.000000 0.000000 0.036514 0.000000 -0.014159
# 5 0.000311 -0.001073 0.005406 0.000000 0.022463 0.000000
# 6 0.000000 0.000000 0.000000 -0.014159 0.000000 0.053157
#
#
# Mechanical properties :
#
#
# Convention : Reuss Voigt Hill
#
# Bulk Modulus (GPa) = 55.59785 81.96690 68.78237
# Shear Modulus (GPa) = 29.68175 39.70353 34.69264
#
# Velocity S-wave (km/s) = 3.45108 3.99139 3.73103
# Velocity P-wave (km/s) = 6.17971 7.35739 6.79412
#
# Compressibility (1/GPa) = 0.01798631
#
# Stress axis : x y z
#
# Youngs Moduli (GPa) = 73.42902 77.39124 131.31458
#
# Poissons Ratio (x) = 0.08771 0.30751
# Poissons Ratio (y) = 0.08322 0.60527
# Poissons Ratio (z) = 0.17196 0.35672
#
# Static dielectric constant tensor:
#      x y z
#    x 2.096430 0.000000 -0.006640 
#    y 0.000000 1.881470 0.000000 
#    z -0.006640 0.000000 1.934550 
# 
# From -- ./inp_files/280084.got.cif
#   From: 2010.05.17/outbox.cif.g08.bks.cpg/sg12_141_cif.got.tgz:280084.got - 2010.06.03 13:09:07.
