data_PCOD9190137
_publ_section_title
;
Structure prediction by ZEFSAII (Michael W. Deem and Ramdas Pophale) SiO2 
 PCOD9190137
Probable space group: C 2/M
;
_chemical_formula_sum "Si O2"
_cell_formula_units_Z 64
_cell_length_a 16.749727
_cell_length_b 17.099281
_cell_length_c 19.971766
_cell_angle_alpha 90.000000
_cell_angle_beta 34.309718
_cell_angle_gamma 90.000000
_cell_volume 3224.215125
_symmetry_space_group_name_H-M "C 2/M"
_symmetry_group_IT_number 12
_symmetry_cell_setting 'monoclinic'
loop_
_space_group_symop_operation_xyz
x,y,z
-x,y,-z
-x,-y,-z
x,-y,z
1/2+x,1/2+y,z
1/2-x,1/2+y,-z
1/2-x,1/2-y,-z
1/2+x,1/2-y,z
loop_
_atom_site_type_symbol
_atom_site_label
_atom_site_fract_x
_atom_site_fract_y
_atom_site_fract_z
Si Si1 0.651887 0.697131 0.519347
Si Si2 0.639259 0.164830 0.153141
Si Si3 0.095560 0.682223 0.870720
Si Si4 0.866908 0.280054 0.693797
Si Si5 0.167771 0.585954 0.384684
Si Si6 0.864431 0.589725 0.287741
Si Si7 0.935076 0.808998 0.890539
Si Si8 0.391590 0.589863 0.330131
O O1 0.750000 0.750000 0.500000
O O2 0.524032 0.744749 0.573276
O O3 0.753136 0.650427 0.398187
O O4 0.584102 0.636369 0.618857
O O5 0.627537 0.174254 0.240199
O O6 0.518391 0.105534 0.213390
O O7 0.605877 0.247760 0.139945
O O8 0.798856 0.150474 0.018110
O O9 0.250485 0.712574 0.783201
O O10 0.116074 0.613846 0.802812
O O11 0.014657 0.754286 0.889311
O O12 0.000000 0.660037 0.000000
O O13 0.808083 0.339019 0.678331
O O14 0.224076 0.500000 0.322630
O O15 0.228949 0.596263 0.417076
O O16 0.000000 0.580230 0.500000
O O17 0.820735 0.500000 0.327437
O O18 0.028743 0.872664 0.788108
O O19 0.428151 0.500000 0.313883
#
# Coordination Sequence:
#
# PCOD9190137 Si02
#       8
#     8   8   8   8   8   8   8   8
#     4  12  23  41  64  93 121 167 219 264 307 371
#     4  10  21  37  66  91 119 163 214 258 302 362
#     4  11  23  41  68  93 126 170 211 262 315 375
#     4  12  22  37  66  95 121 167 218 261 308 378
#     4  10  23  37  56  90 129 164 199 252 319 381
#     4  11  26  45  63  93 133 167 209 265 321 375
#     4  10  19  40  62  93 126 159 212 255 301 370
#     4  11  22  39  61  89 131 167 198 252 324 379
#
# _framework density 19.849792000000001
#
# number of rings (size 3 to 8) (size 9 to 14) (size 15 to 20)
#    0.000    1.125    5.000    1.875    1.750    1.250 
#    0.000    1.875    0.000    2.250    0.000    0.000 
#    0.000    0.000    0.000    0.000    0.000    0.000 
#
# Total GULP energy -178661.652155 kJ/mol
# GULP energy per Si atom -5583.176630 kJ/mol
# Density = 1.980461 g / cm^3
# Si number density = 19.849792 Si / 1000 Ang^3
#
#
#
# Elastic Constant Matrix: (Units=GPa)
#
#
# Indices 1 2 3 4 5 6 
#
# 1 52.3555 11.1802 1.8274 -0.0009 4.3396 0.0002
# 2 11.1802 77.2701 21.5166 -0.0015 8.7237 0.0002
# 3 1.8274 21.5166 79.7949 -0.0029 2.7485 0.0009
# 4 -0.0009 -0.0015 -0.0029 10.0583 0.0016 -2.2334
# 5 4.3396 8.7237 2.7485 0.0016 35.5091 -0.0004
# 6 0.0002 0.0002 0.0009 -2.2334 -0.0004 13.7065
#
#
#
# Elastic Compliance Matrix: (Units=1/GPa)
#
#
# Indices 1 2 3 4 5 6 
#
# 1 0.019825 -0.002767 0.000353 0.000002 -0.001770 0.000000
# 2 -0.002767 0.014740 -0.003808 0.000001 -0.002988 0.000000
# 3 0.000353 -0.003808 0.013556 0.000003 -0.000157 0.000000
# 4 0.000002 0.000001 0.000003 0.103153 -0.000005 0.016808
# 5 -0.001770 -0.002988 -0.000157 -0.000005 0.029124 0.000000
# 6 0.000000 0.000000 0.000000 0.016808 0.000000 0.075697
#
#
# Mechanical properties :
#
#
# Convention : Reuss Voigt Hill
#
# Bulk Modulus (GPa) = 28.02908 30.94099 29.48504
# Shear Modulus (GPa) = 17.82961 23.51453 20.67207
#
# Velocity S-wave (km/s) = 3.00029 3.44557 3.23061
# Velocity P-wave (km/s) = 5.11406 5.60809 5.36676
#
# Compressibility (1/GPa) = 0.03567723
#
# Stress axis : x y z
#
# Youngs Moduli (GPa) = 50.44015 67.84355 73.76620
#
# Poissons Ratio (x) = 0.18772 -0.02604
# Poissons Ratio (y) = 0.13957 0.28092
# Poissons Ratio (z) = -0.01781 0.25837
#
# Static dielectric constant tensor:
#      x y z
#    x 1.717260 0.000000 -0.026510 
#    y 0.000000 1.728390 0.000000 
#    z -0.026510 0.000000 1.717280 
# 
# From -- ./inp_files/271723.got.cif
#   From: 2010.05.17/outbox.cif.g08.bks.cpg/sg12_136_cif.got.tgz:271723.got - 2010.06.03 13:09:07.
