data_PCOD9190514
_publ_section_title
;
Structure prediction by ZEFSAII (Michael W. Deem and Ramdas Pophale) SiO2 
 PCOD9190514
Probable space group: C 2/M
;
_chemical_formula_sum "Si O2"
_cell_formula_units_Z 64
_cell_length_a 20.265263
_cell_length_b 7.334794
_cell_length_c 19.612661
_cell_angle_alpha 90.000000
_cell_angle_beta 77.413088
_cell_angle_gamma 90.000000
_cell_volume 2845.192319
_symmetry_space_group_name_H-M "C 2/M"
_symmetry_group_IT_number 12
_symmetry_cell_setting 'monoclinic'
loop_
_space_group_symop_operation_xyz
x,y,z
-x,y,-z
-x,-y,-z
x,-y,z
1/2+x,1/2+y,z
1/2-x,1/2+y,-z
1/2-x,1/2-y,-z
1/2+x,1/2-y,z
loop_
_atom_site_type_symbol
_atom_site_label
_atom_site_fract_x
_atom_site_fract_y
_atom_site_fract_z
Si Si1 0.702843 0.287371 0.223046
Si Si2 0.694467 0.279065 0.379258
Si Si3 0.665535 0.778066 0.878941
Si Si4 0.083959 0.278509 0.762343
Si Si5 0.929248 0.722290 0.980946
Si Si6 0.661616 0.222515 0.608372
Si Si7 0.573141 0.210810 0.502287
Si Si8 0.934086 0.719903 0.823735
O O1 0.720369 0.500000 0.227459
O O2 0.704046 0.213578 0.299489
O O3 0.759676 0.214688 0.158582
O O4 0.629149 0.273127 0.207658
O O5 0.692818 0.500000 0.379460
O O6 0.760012 0.220524 0.407991
O O7 0.624352 0.217113 0.427455
O O8 0.618035 0.725382 0.825993
O O9 0.665252 0.000000 0.882608
O O10 0.632162 0.716850 0.956979
O O11 0.084432 0.500000 0.761649
O O12 0.127133 0.221900 0.687352
O O13 0.006319 0.218530 0.778667
O O14 0.929316 0.500000 0.979879
O O15 0.925660 0.782578 0.903682
O O16 0.000000 0.776083 0.000000
O O17 0.615976 0.288250 0.555977
O O18 0.662474 0.000000 0.606338
O O19 0.500000 0.290657 0.500000
O O20 0.559959 0.000000 0.524172
O O21 0.935875 0.500000 0.824705
#
# Coordination Sequence:
#
# PCOD9190514 Si02
#       8
#     8   8   8   8   8   8   8   8
#     4  10  21  35  51  74 104 139 174 209 254 308
#     4  10  20  36  57  75  98 137 180 213 242 296
#     4   9  15  28  50  74 101 134 175 216 251 295
#     4   9  15  27  51  78  99 129 175 218 250 290
#     4   9  15  26  47  78 106 128 169 224 260 290
#     4   9  17  32  53  76 102 134 174 210 246 303
#     4  10  22  36  53  81 111 134 160 205 264 313
#     4  10  20  31  51  81 107 133 169 218 267 301
#
# _framework density 22.494085999999999
#
# number of rings (size 3 to 8) (size 9 to 14) (size 15 to 20)
#    0.000    2.500    2.500    0.375    1.750    1.250 
#    0.000    0.000    0.000    1.875    0.000    0.000 
#    0.000    0.000    0.000    0.000    0.000    0.000 
#
# Total GULP energy -178798.803877 kJ/mol
# GULP energy per Si atom -5587.462621 kJ/mol
# Density = 2.244289 g / cm^3
# Si number density = 22.494086 Si / 1000 Ang^3
#
#
#
# Elastic Constant Matrix: (Units=GPa)
#
#
# Indices 1 2 3 4 5 6 
#
# 1 170.1139 -7.1477 46.1024 0.0000 -13.1999 0.0000
# 2 -7.1477 82.9066 -3.7393 0.0000 1.5629 0.0000
# 3 46.1024 -3.7393 86.4766 0.0000 -11.7123 0.0000
# 4 0.0000 0.0000 0.0000 3.7865 0.0000 -9.5940
# 5 -13.1999 1.5629 -11.7123 0.0000 42.0308 0.0000
# 6 0.0000 0.0000 0.0000 -9.5940 0.0000 40.4656
#
#
#
# Elastic Compliance Matrix: (Units=1/GPa)
#
#
# Indices 1 2 3 4 5 6 
#
# 1 0.006942 0.000417 -0.003523 0.000000 0.001183 0.000000
# 2 0.000417 0.012114 0.000268 0.000000 -0.000245 0.000000
# 3 -0.003523 0.000268 0.013824 0.000000 0.002736 0.000000
# 4 0.000000 0.000000 0.000000 0.661453 0.000000 0.156824
# 5 0.001183 -0.000245 0.002736 0.000000 0.024935 0.000000
# 6 0.000000 0.000000 0.000000 0.156824 0.000000 0.061894
#
#
# Mechanical properties :
#
#
# Convention : Reuss Voigt Hill
#
# Bulk Modulus (GPa) = 36.75614 45.54756 41.15185
# Shear Modulus (GPa) = 6.28215 37.54203 21.91209
#
# Velocity S-wave (km/s) = 1.67298 4.08974 3.12449
# Velocity P-wave (km/s) = 4.48415 6.52640 5.59918
#
# Compressibility (1/GPa) = 0.02720634
#
# Stress axis : x y z
#
# Youngs Moduli (GPa) = 144.04056 82.54597 72.33749
#
# Poissons Ratio (x) = -0.03445 0.25484
# Poissons Ratio (y) = -0.06011 -0.01940
# Poissons Ratio (z) = 0.50744 -0.02214
#
# Static dielectric constant tensor:
#      x y z
#    x 1.791490 0.000000 -0.013440 
#    y 0.000000 1.889610 0.000000 
#    z -0.013440 0.000000 1.791840 
# 
# From -- ./inp_files/276443.got.cif
#   From: 2010.05.17/outbox.cif.g08.bks.cpg/sg12_139_cif.got.tgz:276443.got - 2010.06.03 13:09:07.
