data_PCOD9190479
_publ_section_title
;
Structure prediction by ZEFSAII (Michael W. Deem and Ramdas Pophale) SiO2 
 PCOD9190479
Probable space group: C 2/M
;
_chemical_formula_sum "Si O2"
_cell_formula_units_Z 56
_cell_length_a 10.198445
_cell_length_b 14.668170
_cell_length_c 21.983555
_cell_angle_alpha 90.000000
_cell_angle_beta 127.169975
_cell_angle_gamma 90.000000
_cell_volume 2620.490338
_symmetry_space_group_name_H-M "C 2/M"
_symmetry_group_IT_number 12
_symmetry_cell_setting 'monoclinic'
loop_
_space_group_symop_operation_xyz
x,y,z
-x,y,-z
-x,-y,-z
x,-y,z
1/2+x,1/2+y,z
1/2-x,1/2+y,-z
1/2-x,1/2-y,-z
1/2+x,1/2-y,z
loop_
_atom_site_type_symbol
_atom_site_label
_atom_site_fract_x
_atom_site_fract_y
_atom_site_fract_z
Si Si1 0.804365 0.395438 0.124676
Si Si2 0.684111 0.365952 0.538197
Si Si3 0.713172 0.323610 0.288841
Si Si4 0.136643 0.388441 0.991019
Si Si5 0.030440 0.654181 0.297634
Si Si6 0.509218 0.390457 0.118227
Si Si7 0.312411 0.856025 0.444946
O O1 0.763644 0.500000 0.098020
O O2 0.883900 0.358420 0.085093
O O3 0.633737 0.353195 0.101272
O O4 0.926755 0.395574 0.216316
O O5 0.500000 0.395738 0.500000
O O6 0.830421 0.396497 0.623999
O O7 0.687744 0.255078 0.548100
O O8 0.721474 0.389282 0.479180
O O9 0.626433 0.231880 0.287320
O O10 0.594203 0.367970 0.206043
O O11 0.739375 0.378777 0.358733
O O12 0.892016 0.310258 0.307034
O O13 0.128327 0.500000 0.991054
O O14 0.321409 0.360241 0.060836
O O15 0.000000 0.355218 0.000000
O O16 0.506642 0.500000 0.111440
O O17 0.500000 0.886107 0.500000
#
# Coordination Sequence:
#
# PCOD9190479 Si02
#       7
#     8   8   8   8   8   8   8
#     4   9  18  34  55  74  96 129 164 199 239 288
#     4   9  17  27  44  68  94 126 166 201 238 280
#     4  10  20  31  49  75 101 129 161 203 246 286
#     4   9  17  31  52  77  99 123 161 202 239 285
#     4  10  20  32  48  75 102 127 163 202 245 289
#     4   9  18  34  54  74  98 128 164 199 238 290
#     4   9  15  27  44  66  95 125 162 203 236 279
#
# _framework density 21.370047
#
# number of rings (size 3 to 8) (size 9 to 14) (size 15 to 20)
#    0.000    2.714    1.429    0.429    6.000    2.857 
#    0.000    0.714    0.000    1.714    0.000    0.000 
#    0.000    0.000    0.000    0.000    0.000    0.000 
#
# Total GULP energy -156161.093555 kJ/mol
# GULP energy per Si atom -5577.181913 kJ/mol
# Density = 2.132141 g / cm^3
# Si number density = 21.370047 Si / 1000 Ang^3
#
#
#
# Elastic Constant Matrix: (Units=GPa)
#
#
# Indices 1 2 3 4 5 6 
#
# 1 226.2447 18.0163 102.1411 0.0000 -12.5728 0.0000
# 2 18.0163 48.3441 2.8905 0.0000 0.6758 0.0000
# 3 102.1411 2.8905 144.9310 0.0000 -13.0877 0.0000
# 4 0.0000 0.0000 0.0000 20.9701 0.0000 -2.1541
# 5 -12.5728 0.6758 -13.0877 0.0000 37.9954 0.0000
# 6 0.0000 0.0000 0.0000 -2.1541 0.0000 2.7465
#
#
#
# Elastic Compliance Matrix: (Units=1/GPa)
#
#
# Indices 1 2 3 4 5 6 
#
# 1 0.006729 -0.002240 -0.004637 0.000000 0.000669 0.000000
# 2 -0.002240 0.021465 0.001083 0.000000 -0.000750 0.000000
# 3 -0.004637 0.001083 0.010327 0.000000 0.002004 0.000000
# 4 0.000000 0.000000 0.000000 0.051866 0.000000 0.040678
# 5 0.000669 -0.000750 0.002004 0.000000 0.027244 0.000000
# 6 0.000000 0.000000 0.000000 0.040678 0.000000 0.396001
#
#
# Mechanical properties :
#
#
# Convention : Reuss Voigt Hill
#
# Bulk Modulus (GPa) = 37.12902 73.95729 55.54316
# Shear Modulus (GPa) = 9.35982 32.10719 20.73351
#
# Velocity S-wave (km/s) = 2.09509 3.88034 3.11820
# Velocity P-wave (km/s) = 4.82333 7.39994 6.24594
#
# Compressibility (1/GPa) = 0.02693311
#
# Stress axis : x y z
#
# Youngs Moduli (GPa) = 148.60825 46.58640 96.83047
#
# Poissons Ratio (x) = 0.10434 0.44903
# Poissons Ratio (y) = 0.33285 -0.10484
# Poissons Ratio (z) = 0.68914 -0.05044
#
# Static dielectric constant tensor:
#      x y z
#    x 1.774610 0.000000 -0.013430 
#    y 0.000000 1.812340 0.000000 
#    z -0.013430 0.000000 1.772600 
# 
# From -- ./inp_files/198341.got.cif
#   From: 2010.05.17/outbox.cif.g08.bks.cpg/sg12_100_cif.got.tgz:198341.got - 2010.06.03 13:09:07.
