data_PCOD9190200
_publ_section_title
;
Structure prediction by ZEFSAII (Michael W. Deem and Ramdas Pophale) SiO2 
 PCOD9190200
Probable space group: C 2/M
;
_chemical_formula_sum "Si O2"
_cell_formula_units_Z 60
_cell_length_a 15.306553
_cell_length_b 24.697963
_cell_length_c 8.369875
_cell_angle_alpha 90.000000
_cell_angle_beta 72.923897
_cell_angle_gamma 90.000000
_cell_volume 3024.663343
_symmetry_space_group_name_H-M "C 2/M"
_symmetry_group_IT_number 12
_symmetry_cell_setting 'monoclinic'
loop_
_space_group_symop_operation_xyz
x,y,z
-x,y,-z
-x,-y,-z
x,-y,z
1/2+x,1/2+y,z
1/2-x,1/2+y,-z
1/2-x,1/2-y,-z
1/2+x,1/2-y,z
loop_
_atom_site_type_symbol
_atom_site_label
_atom_site_fract_x
_atom_site_fract_y
_atom_site_fract_z
Si Si1 0.500000 0.291297 0.500000
Si Si2 0.737252 0.630228 0.774592
Si Si3 0.601513 0.062960 0.483969
Si Si4 0.379870 0.438350 0.682491
Si Si5 0.446200 0.608101 0.317186
Si Si6 0.900366 0.559659 0.130410
Si Si7 0.737875 0.143356 0.869884
Si Si8 0.704280 0.749886 0.348973
O O1 0.526129 0.332645 0.629386
O O2 0.405826 0.259409 0.584405
O O3 0.816001 0.593449 0.649774
O O4 0.638508 0.614994 0.754505
O O5 0.768843 0.691413 0.725721
O O6 0.730880 0.630661 0.968228
O O7 0.500000 0.085147 0.500000
O O8 0.606587 0.063527 0.673755
O O9 0.603941 0.000000 0.430240
O O10 0.355963 0.500000 0.721367
O O11 0.456481 0.419645 0.770237
O O12 0.414301 0.428897 0.483384
O O13 0.297560 0.396885 0.731333
O O14 0.857831 0.500000 0.110138
O O15 0.860681 0.616194 0.088052
O O16 0.000000 0.556738 0.000000
O O17 0.754041 0.202688 0.787873
O O18 0.750000 0.750000 0.500000
#
# Coordination Sequence:
#
# PCOD9190200 Si02
#       8
#     4   8   8   8   8   8   8   8
#     4  10  20  42  69  90 117 160 212 272 312 376
#     4  12  26  39  63  94 128 169 209 263 326 391
#     4  10  22  41  64  93 125 164 215 268 320 388
#     4  10  20  38  66  92 125 171 215 258 316 381
#     4  10  19  41  62  94 123 158 214 267 314 376
#     4  10  21  40  65  91 127 169 212 264 321 377
#     4  12  24  41  59  92 136 163 210 263 322 386
#     4  12  23  45  69  92 121 165 221 264 322 386
#
# _framework density 19.836919000000002
#
# number of rings (size 3 to 8) (size 9 to 14) (size 15 to 20)
#    0.000    1.333    4.000    4.000    0.933    4.800 
#    2.400    0.667    0.000    0.000    0.000    0.000 
#    0.000    0.000    0.000    0.000    0.000    0.000 
#
# Total GULP energy -167130.056638 kJ/mol
# GULP energy per Si atom -5571.001888 kJ/mol
# Density = 1.979177 g / cm^3
# Si number density = 19.836919 Si / 1000 Ang^3
#
#
#
# Elastic Constant Matrix: (Units=GPa)
#
#
# Indices 1 2 3 4 5 6 
#
# 1 115.3170 29.2764 23.5508 0.0000 4.8862 0.0000
# 2 29.2764 94.2454 10.5507 0.0000 -7.6691 0.0000
# 3 23.5508 10.5507 65.0032 0.0000 5.3132 0.0000
# 4 0.0000 0.0000 0.0000 -6.3440 0.0000 -5.1332
# 5 4.8862 -7.6691 5.3132 0.0000 30.9322 0.0000
# 6 0.0000 0.0000 0.0000 -5.1332 0.0000 20.8667
#
#
#
# Elastic Compliance Matrix: (Units=1/GPa)
#
#
# Indices 1 2 3 4 5 6 
#
# 1 0.010118 -0.002950 -0.003039 0.000000 -0.001808 0.000000
# 2 -0.002950 0.011953 -0.001168 0.000000 0.003630 0.000000
# 3 -0.003039 -0.001168 0.016896 0.000000 -0.002712 0.000000
# 4 0.000000 0.000000 0.000000 -0.131461 0.000000 -0.032340
# 5 -0.001808 0.003630 -0.002712 0.000000 0.033980 0.000000
# 6 0.000000 0.000000 0.000000 -0.032340 0.000000 0.039968
#
#
# Mechanical properties :
#
#
# Convention : Reuss Voigt Hill
#
# Bulk Modulus (GPa) = 40.56315 44.59126 42.57721
# Shear Modulus (GPa) = 1254.42793 23.17014 638.79904
#
# Velocity S-wave (km/s) = 25.17426 3.42135 17.96453
# Velocity P-wave (km/s) = 29.41910 6.17538 21.25581
#
# Compressibility (1/GPa) = 0.02465292
#
# Stress axis : x y z
#
# Youngs Moduli (GPa) = 98.83432 83.66020 59.18481
#
# Poissons Ratio (x) = 0.24679 0.17988
# Poissons Ratio (y) = 0.29155 0.06913
# Poissons Ratio (z) = 0.30038 0.09772
#
# Static dielectric constant tensor:
#      x y z
#    x 1.836700 0.000000 0.051910 
#    y 0.000000 1.597260 0.000000 
#    z 0.051910 0.000000 1.546980 
# 
# From -- ./inp_files/65833.got.cif
#   From: 2010.05.17/outbox.cif.g08.bks.cpg/sg12_33_cif.got.tgz:65833.got - 2010.06.03 13:09:07.
