data_PCOD9190184
_publ_section_title
;
Structure prediction by ZEFSAII (Michael W. Deem and Ramdas Pophale) SiO2 
 PCOD9190184
Probable space group: C 2/M
;
_chemical_formula_sum "Si O2"
_cell_formula_units_Z 58
_cell_length_a 10.825352
_cell_length_b 30.851085
_cell_length_c 17.392225
_cell_angle_alpha 90.000000
_cell_angle_beta 148.153857
_cell_angle_gamma 90.000000
_cell_volume 3064.822975
_symmetry_space_group_name_H-M "C 2/M"
_symmetry_group_IT_number 12
_symmetry_cell_setting 'monoclinic'
loop_
_space_group_symop_operation_xyz
x,y,z
-x,y,-z
-x,-y,-z
x,-y,z
1/2+x,1/2+y,z
1/2-x,1/2+y,-z
1/2-x,1/2-y,-z
1/2+x,1/2-y,z
loop_
_atom_site_type_symbol
_atom_site_label
_atom_site_fract_x
_atom_site_fract_y
_atom_site_fract_z
Si Si1 0.000000 0.500000 0.000000
Si Si2 0.008317 0.112860 0.682524
Si Si3 0.240820 0.303248 0.580829
Si Si4 0.233831 0.709336 0.393438
Si Si5 0.345931 0.878717 0.725783
Si Si6 0.711684 0.918089 0.032989
Si Si7 0.114549 0.051662 0.141752
Si Si8 0.664445 0.052063 0.415059
O O1 0.921728 0.462558 0.020836
O O2 0.881135 0.152196 0.657630
O O3 0.836364 0.072954 0.569918
O O4 0.118519 0.126766 0.659392
O O5 0.224562 0.100750 0.850526
O O6 0.212669 0.296337 0.474112
O O7 0.356432 0.258182 0.671424
O O8 0.000000 0.308232 0.500000
O O9 0.500000 0.709711 0.500000
O O10 0.114625 0.666815 0.295459
O O11 0.305892 0.919078 0.646484
O O12 0.562591 0.890170 0.894960
O O13 0.964733 0.927090 0.129256
O O14 0.391832 0.059228 0.292254
O O15 0.080956 0.000000 0.129056
O O16 0.000000 0.065605 0.000000
O O17 0.703850 0.000000 0.426074
#
# Coordination Sequence:
#
# PCOD9190184 Si02
#       8
#     2   8   8   8   8   8   8   8
#     4  12  24  44  58  96 120 192 218 252 318 396
#     4  12  25  41  60  98 130 166 211 273 318 378
#     4  10  22  38  65  98 127 161 208 268 336 389
#     4  10  19  40  68  94 124 163 212 268 325 389
#     4  12  22  42  64  93 126 172 216 264 317 388
#     4  12  26  39  65  86 131 173 220 259 320 382
#     4  10  21  40  61  84 118 169 217 262 312 373
#     4  11  25  38  62  94 127 167 214 266 315 367
#
# _framework density 18.924422
#
# number of rings (size 3 to 8) (size 9 to 14) (size 15 to 20)
#    0.000    0.966    6.207    0.414    3.862    1.103 
#    0.000    2.069    0.000    0.000    0.000    0.000 
#    0.000    0.000    0.000    0.000    0.000    0.000 
#
# Total GULP energy -161440.951805 kJ/mol
# GULP energy per Si atom -5566.929373 kJ/mol
# Density = 1.888135 g / cm^3
# Si number density = 18.924422 Si / 1000 Ang^3
#
#
#
# Elastic Constant Matrix: (Units=GPa)
#
#
# Indices 1 2 3 4 5 6 
#
# 1 96.0826 38.3337 10.0870 0.0000 1.7216 0.0000
# 2 38.3337 166.5331 60.8448 0.0000 -4.3546 0.0000
# 3 10.0870 60.8448 94.8748 0.0000 -8.7973 0.0000
# 4 0.0000 0.0000 0.0000 -8.6141 0.0000 -20.0134
# 5 1.7216 -4.3546 -8.7973 0.0000 23.1371 0.0000
# 6 0.0000 0.0000 0.0000 -20.0134 0.0000 43.1915
#
#
#
# Elastic Compliance Matrix: (Units=1/GPa)
#
#
# Indices 1 2 3 4 5 6 
#
# 1 0.011520 -0.002867 0.000502 0.000000 -0.001206 0.000000
# 2 -0.002867 0.008560 -0.005199 0.000000 -0.000152 0.000000
# 3 0.000502 -0.005199 0.014229 0.000000 0.004394 0.000000
# 4 0.000000 0.000000 0.000000 -0.055905 0.000000 -0.025904
# 5 -0.001206 -0.000152 0.004394 0.000000 0.044953 0.000000
# 6 0.000000 0.000000 0.000000 -0.025904 0.000000 0.011150
#
#
# Mechanical properties :
#
#
# Convention : Reuss Voigt Hill
#
# Bulk Modulus (GPa) = 52.13469 64.00239 58.06854
# Shear Modulus (GPa) = 89.23993 28.09122 58.66557
#
# Velocity S-wave (km/s) = 6.87447 3.85696 5.57380
# Velocity P-wave (km/s) = 9.51944 7.32996 8.49553
#
# Compressibility (1/GPa) = 0.01918109
#
# Stress axis : x y z
#
# Youngs Moduli (GPa) = 86.80287 116.81837 70.28077
#
# Poissons Ratio (x) = 0.33488 -0.03527
# Poissons Ratio (y) = 0.24884 0.36540
# Poissons Ratio (z) = -0.04356 0.60736
#
# Static dielectric constant tensor:
#      x y z
#    x 1.750720 0.000000 -0.036990 
#    y 0.000000 1.673680 0.000000 
#    z -0.036990 0.000000 1.687030 
# 
# From -- ./inp_files/266224.got.cif
#   From: 2010.05.17/outbox.cif.g08.bks.cpg/sg12_134_cif.got.tgz:266224.got - 2010.06.03 13:09:07.
