data_PCOD9190331
_publ_section_title
;
Structure prediction by ZEFSAII (Michael W. Deem and Ramdas Pophale) SiO2 
 PCOD9190331
Probable space group: C 2/M
;
_chemical_formula_sum "Si O2"
_cell_formula_units_Z 56
_cell_length_a 24.598463
_cell_length_b 24.254488
_cell_length_c 9.525285
_cell_angle_alpha 90.000000
_cell_angle_beta 144.458336
_cell_angle_gamma 90.000000
_cell_volume 3303.501467
_symmetry_space_group_name_H-M "C 2/M"
_symmetry_group_IT_number 12
_symmetry_cell_setting 'monoclinic'
loop_
_space_group_symop_operation_xyz
x,y,z
-x,y,-z
-x,-y,-z
x,-y,z
1/2+x,1/2+y,z
1/2-x,1/2+y,-z
1/2-x,1/2-y,-z
1/2+x,1/2-y,z
loop_
_atom_site_type_symbol
_atom_site_label
_atom_site_fract_x
_atom_site_fract_y
_atom_site_fract_z
Si Si1 0.428101 0.437699 0.972871
Si Si2 0.697679 0.665792 0.326530
Si Si3 0.540284 0.731620 0.855512
Si Si4 0.039385 0.883782 0.427467
Si Si5 0.398609 0.180544 0.243096
Si Si6 0.228676 0.842931 0.722286
Si Si7 0.344522 0.779958 0.430733
O O1 0.395624 0.500000 0.879031
O O2 0.347644 0.392154 0.815413
O O3 0.500000 0.420978 0.000000
O O4 0.491458 0.433158 0.243462
O O5 0.722740 0.656371 0.541329
O O6 0.783966 0.685385 0.413234
O O7 0.619056 0.713871 0.133812
O O8 0.498298 0.673272 0.719117
O O9 0.581966 0.763715 0.807786
O O10 0.450086 0.767908 0.707609
O O11 0.149808 0.880253 0.630531
O O12 0.000000 0.884477 0.500000
O O13 0.500000 0.157601 0.500000
O O14 0.350184 0.192404 0.289892
O O15 0.330128 0.145880 0.000247
O O16 0.202991 0.779137 0.698214
#
# Coordination Sequence:
#
# PCOD9190331 Si02
#       7
#     8   8   8   8   8   8   8
#     4  10  21  39  56  73 108 139 169 218 274 317
#     4  11  21  34  51  80 102 145 178 212 259 313
#     4   9  19  32  49  73 114 146 176 205 255 305
#     4  10  20  32  53  78 104 141 177 211 254 315
#     4  10  20  34  45  70 107 152 178 209 251 299
#     4  11  20  32  48  74 106 145 176 208 252 310
#     4  10  20  30  51  71 106 145 180 208 247 309
#
# _framework density 16.951709999999999
#
# number of rings (size 3 to 8) (size 9 to 14) (size 15 to 20)
#    0.000    1.857    2.857    3.000    4.000    0.286 
#    2.571    0.000    0.000    0.000    0.000    0.000 
#    0.000   21.143    0.000    0.000    0.000    0.000 
#
# Total GULP energy -156046.069969 kJ/mol
# GULP energy per Si atom -5573.073927 kJ/mol
# Density = 1.691313 g / cm^3
# Si number density = 16.951710 Si / 1000 Ang^3
#
#
#
# Elastic Constant Matrix: (Units=GPa)
#
#
# Indices 1 2 3 4 5 6 
#
# 1 96.8713 37.4351 46.1433 0.0000 6.4299 0.0000
# 2 37.4351 33.2041 22.8391 0.0000 0.6093 0.0000
# 3 46.1433 22.8391 121.4347 0.0000 6.5636 0.0000
# 4 0.0000 0.0000 0.0000 20.9149 0.0000 17.3602
# 5 6.4299 0.6093 6.5636 0.0000 16.0929 0.0000
# 6 0.0000 0.0000 0.0000 17.3602 0.0000 24.8510
#
#
#
# Elastic Compliance Matrix: (Units=1/GPa)
#
#
# Indices 1 2 3 4 5 6 
#
# 1 0.020238 -0.020259 -0.003563 0.000000 -0.005866 0.000000
# 2 -0.020259 0.054901 -0.003019 0.000000 0.007247 0.000000
# 3 -0.003563 -0.003019 0.010301 0.000000 -0.002663 0.000000
# 4 0.000000 0.000000 0.000000 0.113797 0.000000 -0.079495
# 5 -0.005866 0.007247 -0.002663 0.000000 0.065295 0.000000
# 6 0.000000 0.000000 0.000000 -0.079495 0.000000 0.095773
#
#
# Mechanical properties :
#
#
# Convention : Reuss Voigt Hill
#
# Bulk Modulus (GPa) = 31.48854 51.59389 41.54122
# Shear Modulus (GPa) = 11.77657 22.04461 16.91059
#
# Velocity S-wave (km/s) = 2.63860 3.61007 3.16187
# Velocity P-wave (km/s) = 5.28192 6.91944 6.15538
#
# Compressibility (1/GPa) = 0.03175759
#
# Stress axis : x y z
#
# Youngs Moduli (GPa) = 49.41106 18.21467 97.08208
#
# Poissons Ratio (x) = 0.36901 0.34590
# Poissons Ratio (y) = 1.00101 0.29311
# Poissons Ratio (z) = 0.17605 0.05499
#
# Static dielectric constant tensor:
#      x y z
#    x 1.660930 0.000000 0.007310 
#    y 0.000000 1.543110 0.000000 
#    z 0.007310 0.000000 1.644420 
# 
# From -- ./inp_files/99713.got.cif
#   From: 2010.05.17/outbox.cif.g08.bks.cpg/sg12_50_cif.got.tgz:99713.got - 2010.06.03 13:09:07.
