data_PCOD9190431
_publ_section_title
;
Structure prediction by ZEFSAII (Michael W. Deem and Ramdas Pophale) SiO2 
 PCOD9190431
Probable space group: C 2/M
;
_chemical_formula_sum "Si O2"
_cell_formula_units_Z 44
_cell_length_a 18.448990
_cell_length_b 10.258275
_cell_length_c 15.167855
_cell_angle_alpha 90.000000
_cell_angle_beta 50.847979
_cell_angle_gamma 90.000000
_cell_volume 2226.066055
_symmetry_space_group_name_H-M "C 2/M"
_symmetry_group_IT_number 12
_symmetry_cell_setting 'monoclinic'
loop_
_space_group_symop_operation_xyz
x,y,z
-x,y,-z
-x,-y,-z
x,-y,z
1/2+x,1/2+y,z
1/2-x,1/2+y,-z
1/2-x,1/2-y,-z
1/2+x,1/2-y,z
loop_
_atom_site_type_symbol
_atom_site_label
_atom_site_fract_x
_atom_site_fract_y
_atom_site_fract_z
Si Si1 0.367576 0.143696 0.955999
Si Si2 0.849786 0.149908 0.823132
Si Si3 0.335300 0.349183 0.448180
Si Si4 0.500000 0.754670 0.000000
Si Si5 0.820791 0.154709 0.650841
Si Si6 0.148643 0.852038 0.756069
O O1 0.386448 0.251892 0.868066
O O2 0.373532 0.000000 0.911412
O O3 0.263126 0.157403 0.076251
O O4 0.439316 0.160044 0.980083
O O5 0.869715 0.185284 0.706144
O O6 0.878697 0.000000 0.816447
O O7 0.302240 0.500000 0.474975
O O8 0.250000 0.250000 0.500000
O O9 0.375069 0.327297 0.515956
O O10 0.390284 0.335391 0.314176
O O11 0.569240 0.668747 0.888457
O O12 0.729435 0.245704 0.711665
O O13 0.796031 0.000000 0.676576
O O14 0.186096 0.000000 0.733639
#
# Coordination Sequence:
#
# PCOD9190431 Si02
#       6
#     8   8   8   4   8   8
#     4  10  21  35  52  74 101 136 173 211 251 302
#     4   9  18  34  53  76 102 130 167 211 258 304
#     4   8  15  28  47  71  99 128 166 211 252 295
#     4  12  22  34  50  74 108 144 170 204 250 308
#     4   9  16  31  54  76  99 131 168 211 258 302
#     4  10  20  31  46  74 106 137 171 209 252 297
#
# _framework density 19.765810999999999
#
# number of rings (size 3 to 8) (size 9 to 14) (size 15 to 20)
#    0.000    2.545    1.818    0.545    0.000    2.909 
#    0.000    0.000    0.000    1.091    0.000    6.364 
#    0.000    0.000    0.000    0.000    0.000    0.000 
#
# Total GULP energy -122552.297797 kJ/mol
# GULP energy per Si atom -5570.558991 kJ/mol
# Density = 1.972082 g / cm^3
# Si number density = 19.765811 Si / 1000 Ang^3
#
#
#
# Elastic Constant Matrix: (Units=GPa)
#
#
# Indices 1 2 3 4 5 6 
#
# 1 65.7007 35.8869 31.0021 0.0000 24.2963 0.0000
# 2 35.8869 64.1874 34.0025 0.0000 19.5321 0.0000
# 3 31.0021 34.0025 106.1703 0.0000 42.4108 0.0000
# 4 0.0000 0.0000 0.0000 18.7151 0.0000 10.6968
# 5 24.2963 19.5321 42.4108 0.0000 36.9972 0.0000
# 6 0.0000 0.0000 0.0000 10.6968 0.0000 10.8174
#
#
#
# Elastic Compliance Matrix: (Units=1/GPa)
#
#
# Indices 1 2 3 4 5 6 
#
# 1 0.025116 -0.010929 0.000830 0.000000 -0.011676 0.000000
# 2 -0.010929 0.024161 -0.004277 0.000000 -0.000676 0.000000
# 3 0.000830 -0.004277 0.018192 0.000000 -0.019142 0.000000
# 4 0.000000 0.000000 0.000000 0.122887 0.000000 -0.121517
# 5 -0.011676 -0.000676 -0.019142 0.000000 0.056996 0.000000
# 6 0.000000 0.000000 0.000000 -0.121517 0.000000 0.212605
#
#
# Mechanical properties :
#
#
# Convention : Reuss Voigt Hill
#
# Bulk Modulus (GPa) = 25.82748 48.64904 37.23826
# Shear Modulus (GPa) = 9.96779 22.31706 16.14243
#
# Velocity S-wave (km/s) = 2.24809 3.36381 2.86087
# Velocity P-wave (km/s) = 4.45350 6.30501 5.45833
#
# Compressibility (1/GPa) = 0.03871846
#
# Stress axis : x y z
#
# Youngs Moduli (GPa) = 39.81483 41.38900 54.96776
#
# Poissons Ratio (x) = 0.45235 -0.04563
# Poissons Ratio (y) = 0.43515 0.23507
# Poissons Ratio (z) = -0.03305 0.17700
#
# Static dielectric constant tensor:
#      x y z
#    x 1.701870 0.000000 0.015610 
#    y 0.000000 1.675480 0.000000 
#    z 0.015610 0.000000 1.738810 
# 
# From -- ./inp_files/222353.got.cif
#   From: 2010.05.17/outbox.cif.g08.bks.cpg/sg12_112_cif.got.tgz:222353.got - 2010.06.03 13:09:07.
