data_PCOD9190445
_publ_section_title
;
Structure prediction by ZEFSAII (Michael W. Deem and Ramdas Pophale) SiO2 
 PCOD9190445
Probable space group: C 2/M
;
_chemical_formula_sum "Si O2"
_cell_formula_units_Z 48
_cell_length_a 15.290821
_cell_length_b 7.510382
_cell_length_c 27.504461
_cell_angle_alpha 90.000000
_cell_angle_beta 34.742241
_cell_angle_gamma 90.000000
_cell_volume 1800.045858
_symmetry_space_group_name_H-M "C 2/M"
_symmetry_group_IT_number 12
_symmetry_cell_setting 'monoclinic'
loop_
_space_group_symop_operation_xyz
x,y,z
-x,y,-z
-x,-y,-z
x,-y,z
1/2+x,1/2+y,z
1/2-x,1/2+y,-z
1/2-x,1/2-y,-z
1/2+x,1/2-y,z
loop_
_atom_site_type_symbol
_atom_site_label
_atom_site_fract_x
_atom_site_fract_y
_atom_site_fract_z
Si Si1 0.589000 0.207092 0.712616
Si Si2 0.232182 0.212901 0.451880
Si Si3 0.823625 0.717816 0.073354
Si Si4 0.580479 0.300811 0.114858
Si Si5 0.908524 0.789674 0.621149
Si Si6 0.733550 0.209169 0.793911
O O1 0.620160 0.282852 0.645039
O O2 0.494019 0.305837 0.796770
O O3 0.764082 0.216084 0.651852
O O4 0.541237 0.000000 0.736062
O O5 0.250000 0.250000 0.500000
O O6 0.058716 0.282895 0.526061
O O7 0.236085 0.000000 0.440250
O O8 0.821912 0.500000 0.072381
O O9 0.744240 0.777408 0.058735
O O10 0.749151 0.777793 0.158988
O O11 0.000000 0.771645 0.000000
O O12 0.603571 0.500000 0.087264
O O13 0.444404 0.220380 0.144071
O O14 0.843356 0.712381 0.701821
O O15 0.940675 0.000000 0.614982
O O16 0.764812 0.000000 0.782353
#
# Coordination Sequence:
#
# PCOD9190445 Si02
#       6
#     8   8   8   8   8   8
#     4   9  18  34  53  72  98 138 178 213 257 310
#     4  10  20  31  47  73 103 134 172 216 256 300
#     4   9  19  35  56  82 109 140 178 216 261 323
#     4  10  20  34  56  83 108 137 176 226 269 308
#     4   8  15  30  52  71  91 129 179 211 240 301
#     4   9  18  35  58  79 104 143 180 214 261 321
#
# _framework density 26.665989
#
# number of rings (size 3 to 8) (size 9 to 14) (size 15 to 20)
#    0.000    2.833    0.000    2.000    2.333    3.333 
#    0.000    5.000    0.000    8.500    0.000    0.000 
#    0.000    0.000    0.000    0.000    0.000    0.000 
#
# Total GULP energy -133930.408224 kJ/mol
# GULP energy per Si atom -5580.433676 kJ/mol
# Density = 2.660530 g / cm^3
# Si number density = 26.665989 Si / 1000 Ang^3
#
#
#
# Elastic Constant Matrix: (Units=GPa)
#
#
# Indices 1 2 3 4 5 6 
#
# 1 125.9492 8.3983 -19.0419 0.0007 -7.3425 -0.0005
# 2 8.3983 82.9770 27.8353 -0.0001 5.3826 -0.0002
# 3 -19.0419 27.8353 61.7177 0.0002 3.5017 -0.0001
# 4 0.0007 -0.0001 0.0002 3.5400 0.0001 4.9653
# 5 -7.3425 5.3826 3.5017 0.0001 51.9237 -0.0001
# 6 -0.0005 -0.0002 -0.0001 4.9653 -0.0001 21.2166
#
#
#
# Elastic Compliance Matrix: (Units=1/GPa)
#
#
# Indices 1 2 3 4 5 6 
#
# 1 0.008697 -0.002163 0.003590 -0.000004 0.001212 0.000001
# 2 -0.002163 0.014795 -0.007263 0.000002 -0.001350 0.000000
# 3 0.003590 -0.007263 0.020594 -0.000004 -0.000128 0.000001
# 4 -0.000004 0.000002 -0.000004 0.420517 -0.000001 -0.098413
# 5 0.001212 -0.001350 -0.000128 -0.000001 0.019579 0.000000
# 6 0.000001 0.000000 0.000001 -0.098413 0.000000 0.070164
#
#
# Mechanical properties :
#
#
# Convention : Reuss Voigt Hill
#
# Bulk Modulus (GPa) = 30.85184 33.89193 32.37188
# Shear Modulus (GPa) = 8.66818 32.23289 20.45053
#
# Velocity S-wave (km/s) = 1.80491 3.48050 2.77233
# Velocity P-wave (km/s) = 3.99230 5.37487 4.73433
#
# Compressibility (1/GPa) = 0.03241298
#
# Stress axis : x y z
#
# Youngs Moduli (GPa) = 114.97649 67.59226 48.55865
#
# Poissons Ratio (x) = 0.14622 -0.17434
# Poissons Ratio (y) = 0.24873 0.35270
# Poissons Ratio (z) = -0.41280 0.49095
#
# Static dielectric constant tensor:
#      x y z
#    x 2.264100 0.000000 -0.034270 
#    y 0.000000 1.992580 0.000000 
#    z -0.034270 0.000000 2.394420 
# 
# From -- ./inp_files/374907.got.cif
#   From: 2010.05.17/outbox.cif.g08.bks.cpg/sg12_188_cif.got.tgz:374907.got - 2010.06.03 13:09:07.
