data_PCOD9190914
_publ_section_title
;
Structure prediction by ZEFSAII (Michael W. Deem and Ramdas Pophale) SiO2 
 PCOD9190914
Probable space group: C 2/M
;
_chemical_formula_sum "Si O2"
_cell_formula_units_Z 42
_cell_length_a 5.420101
_cell_length_b 27.154976
_cell_length_c 12.509273
_cell_angle_alpha 90.000000
_cell_angle_beta 70.021400
_cell_angle_gamma 90.000000
_cell_volume 1730.348954
_symmetry_space_group_name_H-M "C 2/M"
_symmetry_group_IT_number 12
_symmetry_cell_setting 'monoclinic'
loop_
_space_group_symop_operation_xyz
x,y,z
-x,y,-z
-x,-y,-z
x,-y,z
1/2+x,1/2+y,z
1/2-x,1/2+y,-z
1/2-x,1/2-y,-z
1/2+x,1/2-y,z
loop_
_atom_site_type_symbol
_atom_site_label
_atom_site_fract_x
_atom_site_fract_y
_atom_site_fract_z
Si Si1 0.705227 0.940179 0.561308
Si Si2 0.563789 0.648703 0.820220
Si Si3 0.852230 0.553690 0.807344
Si Si4 0.000000 0.500000 0.000000
Si Si5 0.281181 0.731963 0.341022
Si Si6 0.018589 0.699324 0.882891
O O1 0.500000 0.924193 0.500000
O O2 0.588295 0.928452 0.695736
O O3 0.000000 0.921195 0.500000
O O4 0.718290 0.000000 0.553590
O O5 0.618887 0.591522 0.825326
O O6 0.674244 0.675092 0.695865
O O7 0.258387 0.661484 0.865853
O O8 0.755919 0.672749 0.881564
O O9 0.764358 0.500000 0.777015
O O10 0.934172 0.542161 0.916474
O O11 0.483163 0.752860 0.395410
O O12 0.384833 0.762885 0.220998
O O13 0.000000 0.725075 0.000000
#
# Coordination Sequence:
#
# PCOD9190914 Si02
#       6
#     8   8   8   2   8   8
#     4   9  18  35  63  89 106 138 189 256 304 321
#     4  10  20  33  52  73 105 148 189 229 284 336
#     4   9  20  38  61  85 121 159 201 234 277 353
#     4   8  20  40  60  82 122 176 194 226 262 352
#     4   8  16  29  46  71  99 130 184 235 286 324
#     4  10  20  32  50  74 102 140 196 243 280 326
#
# _framework density 24.272559999999999
#
# number of rings (size 3 to 8) (size 9 to 14) (size 15 to 20)
#    0.571    2.286    0.000    0.571    1.333    8.381 
#    0.000    2.857    0.000    7.429    0.000    0.000 
#    0.000   41.143    0.000    0.000    0.000    0.000 
#
# Total GULP energy -117022.381058 kJ/mol
# GULP energy per Si atom -5572.494336 kJ/mol
# Density = 2.421732 g / cm^3
# Si number density = 24.272560 Si / 1000 Ang^3
#
#
#
# Elastic Constant Matrix: (Units=GPa)
#
#
# Indices 1 2 3 4 5 6 
#
# 1 178.5633 29.7977 58.4799 0.0000 -1.0085 0.0000
# 2 29.7977 83.6337 22.5197 0.0000 -2.0245 0.0000
# 3 58.4799 22.5197 100.5630 0.0000 20.4314 0.0000
# 4 0.0000 0.0000 0.0000 34.4591 0.0000 20.4942
# 5 -1.0085 -2.0245 20.4314 0.0000 29.1691 0.0000
# 6 0.0000 0.0000 0.0000 20.4942 0.0000 43.1458
#
#
#
# Elastic Compliance Matrix: (Units=1/GPa)
#
#
# Indices 1 2 3 4 5 6 
#
# 1 0.007374 -0.001276 -0.004706 0.000000 0.003463 0.000000
# 2 -0.001276 0.013233 -0.002797 0.000000 0.002833 0.000000
# 3 -0.004706 -0.002797 0.015599 0.000000 -0.011283 0.000000
# 4 0.000000 0.000000 0.000000 0.040446 0.000000 -0.019212
# 5 0.003463 0.002833 -0.011283 0.000000 0.042503 0.000000
# 6 0.000000 0.000000 0.000000 -0.019212 0.000000 0.032303
#
#
# Mechanical properties :
#
#
# Convention : Reuss Voigt Hill
#
# Bulk Modulus (GPa) = 53.62335 64.92831 59.27583
# Shear Modulus (GPa) = 28.53359 38.15233 33.34296
#
# Velocity S-wave (km/s) = 3.43235 3.96893 3.71035
# Velocity P-wave (km/s) = 6.15209 6.91455 6.54443
#
# Compressibility (1/GPa) = 0.01864859
#
# Stress axis : x y z
#
# Youngs Moduli (GPa) = 135.61235 75.56674 64.10532
#
# Poissons Ratio (x) = 0.09645 0.30167
# Poissons Ratio (y) = 0.17309 0.17929
# Poissons Ratio (z) = 0.63817 0.21135
#
# Static dielectric constant tensor:
#      x y z
#    x 2.001110 0.000000 -0.027480 
#    y 0.000000 1.946420 0.000000 
#    z -0.027480 0.000000 2.028270 
# 
# From -- ./inp_files/192296.got.cif
#   From: 2010.05.17/outbox.cif.g08.bks.cpg/sg12_97_cif.got.tgz:192296.got - 2010.06.03 13:09:07.
