data_PCOD9190560
_publ_section_title
;
Structure prediction by ZEFSAII (Michael W. Deem and Ramdas Pophale) SiO2 
 PCOD9190560
Probable space group: C 2/M
;
_chemical_formula_sum "Si O2"
_cell_formula_units_Z 52
_cell_length_a 20.574614
_cell_length_b 17.870644
_cell_length_c 14.245646
_cell_angle_alpha 90.000000
_cell_angle_beta 149.293720
_cell_angle_gamma 90.000000
_cell_volume 2674.646951
_symmetry_space_group_name_H-M "C 2/M"
_symmetry_group_IT_number 12
_symmetry_cell_setting 'monoclinic'
loop_
_space_group_symop_operation_xyz
x,y,z
-x,y,-z
-x,-y,-z
x,-y,z
1/2+x,1/2+y,z
1/2-x,1/2+y,-z
1/2-x,1/2-y,-z
1/2+x,1/2-y,z
loop_
_atom_site_type_symbol
_atom_site_label
_atom_site_fract_x
_atom_site_fract_y
_atom_site_fract_z
Si Si1 0.046637 0.418947 0.811250
Si Si2 0.775717 0.373195 0.799658
Si Si3 0.000000 0.830180 0.500000
Si Si4 0.820908 0.364069 0.647236
Si Si5 0.141432 0.711603 0.799749
Si Si6 0.679074 0.694060 0.139495
Si Si7 0.390094 0.311046 0.739996
O O1 0.060926 0.500000 0.783504
O O2 0.069581 0.350149 0.770551
O O3 0.909962 0.410799 0.690012
O O4 0.148631 0.411311 0.022564
O O5 0.623910 0.376704 0.624427
O O6 0.817894 0.396060 0.748156
O O7 0.810040 0.284574 0.846928
O O8 0.952249 0.775230 0.357120
O O9 0.680448 0.351933 0.431814
O O10 0.877271 0.279108 0.716502
O O11 0.211623 0.673027 0.797874
O O12 0.250000 0.750000 0.000000
O O13 0.681598 0.669575 0.251106
O O14 0.538987 0.672050 0.930477
#
# Coordination Sequence:
#
# PCOD9190560 Si02
#       7
#     8   8   4   8   8   8   8
#     4  12  25  40  56  86 129 167 195 237 308 377
#     4  10  20  35  56  87 119 155 196 244 305 349
#     4  10  22  36  64  94 120 144 214 266 296 342
#     4  10  20  31  55  82 114 155 192 241 293 353
#     4  11  21  37  63  88 123 157 201 256 303 348
#     4   9  17  32  54  87 115 142 188 256 303 339
#     4   9  17  30  56  88 113 134 196 256 299 338
#
# _framework density 19.441818000000001
#
# number of rings (size 3 to 8) (size 9 to 14) (size 15 to 20)
#    0.000    1.846    4.615    0.462   10.769    1.231 
#    0.000    0.769    0.000    2.769    0.000    2.154 
#    0.000    0.000    0.000    0.000    0.000    0.000 
#
# Total GULP energy -145125.380117 kJ/mol
# GULP energy per Si atom -5581.745389 kJ/mol
# Density = 1.939757 g / cm^3
# Si number density = 19.441818 Si / 1000 Ang^3
#
#
#
# Elastic Constant Matrix: (Units=GPa)
#
#
# Indices 1 2 3 4 5 6 
#
# 1 66.1594 3.6739 -25.1175 0.0000 10.2924 0.0000
# 2 3.6739 28.8687 -11.5955 0.0000 1.4337 0.0000
# 3 -25.1175 -11.5955 40.7401 0.0000 2.6342 0.0000
# 4 0.0000 0.0000 0.0000 2.3940 0.0000 -3.0243
# 5 10.2924 1.4337 2.6342 0.0000 28.0893 0.0000
# 6 0.0000 0.0000 0.0000 -3.0243 0.0000 7.2060
#
#
#
# Elastic Compliance Matrix: (Units=1/GPa)
#
#
# Indices 1 2 3 4 5 6 
#
# 1 0.022310 0.003871 0.015492 0.000000 -0.009825 0.000000
# 2 0.003871 0.040045 0.014094 0.000000 -0.004784 0.000000
# 3 0.015492 0.014094 0.038757 0.000000 -0.010031 0.000000
# 4 0.000000 0.000000 0.000000 0.889125 0.000000 0.373160
# 5 -0.009825 -0.004784 -0.010031 0.000000 0.040386 0.000000
# 6 0.000000 0.000000 0.000000 0.373160 0.000000 0.295387
#
#
# Mechanical properties :
#
#
# Convention : Reuss Voigt Hill
#
# Bulk Modulus (GPa) = 5.95142 7.74333 6.84737
# Shear Modulus (GPa) = 3.80198 18.79167 11.29682
#
# Velocity S-wave (km/s) = 1.39993 3.11233 2.41313
# Velocity P-wave (km/s) = 2.38346 4.11180 3.36064
#
# Compressibility (1/GPa) = 0.16802723
#
# Stress axis : x y z
#
# Youngs Moduli (GPa) = 44.82267 24.97161 25.80169
#
# Poissons Ratio (x) = -0.09667 -0.39972
# Poissons Ratio (y) = -0.17352 -0.36365
# Poissons Ratio (z) = -0.69439 -0.35195
#
# Static dielectric constant tensor:
#      x y z
#    x 1.713150 0.000000 -0.010370 
#    y 0.000000 1.662740 0.000000 
#    z -0.010370 0.000000 1.689740 
# 
# From -- ./inp_files/234475.got.cif
#   From: 2010.05.17/outbox.cif.g08.bks.cpg/sg12_118_cif.got.tgz:234475.got - 2010.06.03 13:09:07.
