data_PCOD9190421
_publ_section_title
;
Structure prediction by ZEFSAII (Michael W. Deem and Ramdas Pophale) SiO2 
 PCOD9190421
Probable space group: C 2/M
;
_chemical_formula_sum "Si O2"
_cell_formula_units_Z 48
_cell_length_a 23.230868
_cell_length_b 7.782706
_cell_length_c 20.415928
_cell_angle_alpha 90.000000
_cell_angle_beta 44.385241
_cell_angle_gamma 90.000000
_cell_volume 2581.903689
_symmetry_space_group_name_H-M "C 2/M"
_symmetry_group_IT_number 12
_symmetry_cell_setting 'monoclinic'
loop_
_space_group_symop_operation_xyz
x,y,z
-x,y,-z
-x,-y,-z
x,-y,z
1/2+x,1/2+y,z
1/2-x,1/2+y,-z
1/2-x,1/2-y,-z
1/2+x,1/2-y,z
loop_
_atom_site_type_symbol
_atom_site_label
_atom_site_fract_x
_atom_site_fract_y
_atom_site_fract_z
Si Si1 0.650707 0.203166 0.723548
Si Si2 0.406662 0.791902 0.088900
Si Si3 0.450232 0.788460 0.322068
Si Si4 0.698244 0.204316 0.476892
Si Si5 0.810451 0.204214 0.036861
Si Si6 0.369527 0.201465 0.850777
O O1 0.625574 0.272850 0.814683
O O2 0.595533 0.269686 0.707697
O O3 0.746480 0.226781 0.627101
O O4 0.634755 0.000000 0.738260
O O5 0.349516 0.739012 0.075112
O O6 0.407092 0.000000 0.089982
O O7 0.500000 0.734076 0.000000
O O8 0.393492 0.735360 0.429749
O O9 0.544060 0.727238 0.245015
O O10 0.450007 0.000000 0.321362
O O11 0.750000 0.250000 0.500000
O O12 0.695843 0.000000 0.471798
O O13 0.716922 0.273074 0.105795
O O14 0.808270 0.000000 0.027015
O O15 0.863784 0.281569 0.934140
O O16 0.370080 0.000000 0.833508
#
# Coordination Sequence:
#
# PCOD9190421 Si02
#       6
#     8   8   8   8   8   8
#     4   9  17  29  46  68  91 117 151 188 226 268
#     4  10  20  34  51  67  89 126 161 184 218 277
#     4   8  14  27  48  69  87 114 154 188 215 264
#     4   9  16  27  44  66  92 119 148 185 227 267
#     4  10  20  31  46  71  97 119 149 193 236 267
#     4   9  17  32  51  67  90 124 157 187 223 273
#
# _framework density 18.590934000000001
#
# number of rings (size 3 to 8) (size 9 to 14) (size 15 to 20)
#    0.000    2.833    0.000    3.000    0.000    4.333 
#    0.000    7.500    0.000    1.000    0.000    7.000 
#    0.000    0.000    0.000    0.000    0.000    0.000 
#
# Total GULP energy -133721.336853 kJ/mol
# GULP energy per Si atom -5571.722369 kJ/mol
# Density = 1.854862 g / cm^3
# Si number density = 18.590934 Si / 1000 Ang^3
#
#
#
# Elastic Constant Matrix: (Units=GPa)
#
#
# Indices 1 2 3 4 5 6 
#
# 1 62.6748 -2.8558 52.1211 -0.0010 -0.1880 0.0017
# 2 -2.8558 20.0200 -8.8573 -0.0024 -2.1604 0.0025
# 3 52.1211 -8.8573 160.7759 -0.0007 -15.7644 0.0010
# 4 -0.0010 -0.0024 -0.0007 17.9850 0.0005 1.9495
# 5 -0.1880 -2.1604 -15.7644 0.0005 27.8959 -0.0010
# 6 0.0017 0.0025 0.0010 1.9495 -0.0010 13.7514
#
#
#
# Elastic Compliance Matrix: (Units=1/GPa)
#
#
# Indices 1 2 3 4 5 6 
#
# 1 0.022301 -0.000676 -0.007683 0.000001 -0.004244 -0.000003
# 2 -0.000676 0.052148 0.003692 0.000008 0.006120 -0.000010
# 3 -0.007683 0.003692 0.009461 0.000000 0.005581 0.000000
# 4 0.000001 0.000008 0.000000 0.056470 -0.000001 -0.008005
# 5 -0.004244 0.006120 0.005581 -0.000001 0.039447 0.000002
# 6 -0.000003 -0.000010 0.000000 -0.008005 0.000002 0.073855
#
#
# Mechanical properties :
#
#
# Convention : Reuss Voigt Hill
#
# Bulk Modulus (GPa) = 13.40908 36.03186 24.72047
# Shear Modulus (GPa) = 17.36873 25.46398 21.41635
#
# Velocity S-wave (km/s) = 3.05988 3.70496 3.39776
# Velocity P-wave (km/s) = 4.43984 6.14213 5.35901
#
# Compressibility (1/GPa) = 0.07457633
#
# Stress axis : x y z
#
# Youngs Moduli (GPa) = 44.84073 19.17629 105.69503
#
# Poissons Ratio (x) = 0.01296 0.81206
# Poissons Ratio (y) = 0.03031 -0.39024
# Poissons Ratio (z) = 0.34451 -0.07080
#
# Static dielectric constant tensor:
#      x y z
#    x 1.619150 0.000000 -0.026840 
#    y 0.000000 1.690780 0.000000 
#    z -0.026840 0.000000 1.679510 
# 
# From -- ./inp_files/281816.got.cif
#   From: 2010.05.17/outbox.cif.g08.bks.cpg/sg12_141_cif.got.tgz:281816.got - 2010.06.03 13:09:07.
