data_PCOD9190815
_publ_section_title
;
Structure prediction by ZEFSAII (Michael W. Deem and Ramdas Pophale) SiO2 
 PCOD9190815
Probable space group: C 2/M
;
_chemical_formula_sum "Si O2"
_cell_formula_units_Z 60
_cell_length_a 24.942405
_cell_length_b 20.564541
_cell_length_c 13.596506
_cell_angle_alpha 90.000000
_cell_angle_beta 152.444001
_cell_angle_gamma 90.000000
_cell_volume 3226.299523
_symmetry_space_group_name_H-M "C 2/M"
_symmetry_group_IT_number 12
_symmetry_cell_setting 'monoclinic'
loop_
_space_group_symop_operation_xyz
x,y,z
-x,y,-z
-x,-y,-z
x,-y,z
1/2+x,1/2+y,z
1/2-x,1/2+y,-z
1/2-x,1/2-y,-z
1/2+x,1/2-y,z
loop_
_atom_site_type_symbol
_atom_site_label
_atom_site_fract_x
_atom_site_fract_y
_atom_site_fract_z
Si Si1 0.048191 0.379136 0.684397
Si Si2 0.125591 0.263368 0.580297
Si Si3 0.726655 0.318914 0.014886
Si Si4 0.500000 0.832948 0.000000
Si Si5 0.713269 0.572575 0.605975
Si Si6 0.523553 0.372562 0.435150
Si Si7 0.464101 0.073603 0.114259
Si Si8 0.745210 0.789461 0.393889
O O1 0.185127 0.369431 0.892704
O O2 0.022823 0.412625 0.747999
O O3 0.000000 0.405441 0.500000
O O4 0.987992 0.308059 0.597856
O O5 0.223542 0.303816 0.796039
O O6 0.098335 0.192701 0.581634
O O7 0.171451 0.245291 0.548041
O O8 0.750000 0.250000 0.000000
O O9 0.596942 0.345488 0.803956
O O10 0.473380 0.878194 0.861411
O O11 0.390096 0.791441 0.854721
O O12 0.714701 0.500000 0.565680
O O13 0.599196 0.584601 0.485313
O O14 0.719944 0.634457 0.544984
O O15 0.827845 0.578562 0.861723
O O16 0.500000 0.406792 0.500000
O O17 0.501738 0.000000 0.154976
O O18 0.750000 0.750000 0.500000
#
# Coordination Sequence:
#
# PCOD9190815 Si02
#       8
#     8   8   8   4   8   8   8   8
#     4  10  20  34  51  78 112 143 181 223 272 326
#     4  10  20  32  48  77 109 138 173 224 277 330
#     4  11  19  29  50  77 109 140 172 215 273 327
#     4  10  21  34  56  82 109 132 176 234 282 326
#     4   9  21  36  52  78 111 143 180 228 279 333
#     4  11  18  29  51  76 105 144 175 212 270 330
#     4  10  20  36  56  76 105 144 184 226 275 330
#     4  10  21  35  55  80 105 139 180 229 280 329
#
# _framework density 18.597158
#
# number of rings (size 3 to 8) (size 9 to 14) (size 15 to 20)
#    0.000    1.867    2.667    2.200    3.733    3.200 
#    0.000    0.667    0.000    0.800    0.000    3.267 
#    0.000    0.000    0.000    0.000    0.000    0.000 
#
# Total GULP energy -167160.352209 kJ/mol
# GULP energy per Si atom -5572.011740 kJ/mol
# Density = 1.855483 g / cm^3
# Si number density = 18.597158 Si / 1000 Ang^3
#
#
#
# Elastic Constant Matrix: (Units=GPa)
#
#
# Indices 1 2 3 4 5 6 
#
# 1 95.2034 18.5130 14.0661 0.0000 -6.0480 0.0000
# 2 18.5130 58.6158 13.1256 0.0000 -10.0777 0.0000
# 3 14.0661 13.1256 41.5033 0.0000 5.4505 0.0000
# 4 0.0000 0.0000 0.0000 8.3164 0.0000 2.8656
# 5 -6.0480 -10.0777 5.4505 0.0000 34.5369 0.0000
# 6 0.0000 0.0000 0.0000 2.8656 0.0000 16.5830
#
#
#
# Elastic Compliance Matrix: (Units=1/GPa)
#
#
# Indices 1 2 3 4 5 6 
#
# 1 0.011621 -0.002610 -0.003350 0.000000 0.001802 0.000000
# 2 -0.002610 0.020449 -0.006439 0.000000 0.006526 0.000000
# 3 -0.003350 -0.006439 0.028174 0.000000 -0.006912 0.000000
# 4 0.000000 0.000000 0.000000 0.127858 0.000000 -0.022095
# 5 0.001802 0.006526 -0.006912 0.000000 0.032265 0.000000
# 6 0.000000 0.000000 0.000000 -0.022095 0.000000 0.064121
#
#
# Mechanical properties :
#
#
# Convention : Reuss Voigt Hill
#
# Bulk Modulus (GPa) = 28.21292 31.85912 30.03602
# Shear Modulus (GPa) = 15.57146 21.86178 18.71662
#
# Velocity S-wave (km/s) = 2.89676 3.43234 3.17586
# Velocity P-wave (km/s) = 5.13729 5.73379 5.44372
#
# Compressibility (1/GPa) = 0.03544476
#
# Stress axis : x y z
#
# Youngs Moduli (GPa) = 86.05258 48.90307 35.49390
#
# Poissons Ratio (x) = 0.12766 0.11889
# Poissons Ratio (y) = 0.22463 0.22856
# Poissons Ratio (z) = 0.28824 0.31490
#
# Static dielectric constant tensor:
#      x y z
#    x 1.679230 0.000000 0.010660 
#    y 0.000000 1.648680 0.000000 
#    z 0.010660 0.000000 1.688410 
# 
# From -- ./inp_files/178039.got.cif
#   From: 2010.05.17/outbox.cif.g08.bks.cpg/sg12_90_cif.got.tgz:178039.got - 2010.06.03 13:09:07.
