data_PCOD9190935
_publ_section_title
;
Structure prediction by ZEFSAII (Michael W. Deem and Ramdas Pophale) SiO2 
 PCOD9190935
Probable space group: C 2/M
;
_chemical_formula_sum "Si O2"
_cell_formula_units_Z 48
_cell_length_a 23.311395
_cell_length_b 8.776311
_cell_length_c 18.180029
_cell_angle_alpha 90.000000
_cell_angle_beta 130.952749
_cell_angle_gamma 90.000000
_cell_volume 2809.090843
_symmetry_space_group_name_H-M "C 2/M"
_symmetry_group_IT_number 12
_symmetry_cell_setting 'monoclinic'
loop_
_space_group_symop_operation_xyz
x,y,z
-x,y,-z
-x,-y,-z
x,-y,z
1/2+x,1/2+y,z
1/2-x,1/2+y,-z
1/2-x,1/2-y,-z
1/2+x,1/2-y,z
loop_
_atom_site_type_symbol
_atom_site_label
_atom_site_fract_x
_atom_site_fract_y
_atom_site_fract_z
Si Si1 0.698471 0.683972 0.392200
Si Si2 0.043210 0.167929 0.111276
Si Si3 0.777220 0.173059 0.751499
Si Si4 0.031355 0.324422 0.245063
Si Si5 0.371020 0.681977 0.109177
Si Si6 0.268390 0.181692 0.900752
O O1 0.697600 0.500000 0.391267
O O2 0.750000 0.750000 0.500000
O O3 0.732670 0.732222 0.340728
O O4 0.611634 0.742056 0.329507
O O5 0.131679 0.165049 0.168593
O O6 0.026269 0.301762 0.152871
O O7 0.023911 0.000000 0.128226
O O8 0.000000 0.184210 0.000000
O O9 0.755653 0.265304 0.806176
O O10 0.746673 0.000000 0.730555
O O11 0.035291 0.500000 0.270125
O O12 0.952058 0.248781 0.202483
O O13 0.375365 0.500000 0.108799
O O14 0.305682 0.723459 0.113158
O O15 0.339803 0.743129 0.004050
O O16 0.278482 0.000000 0.911332
#
# Coordination Sequence:
#
# PCOD9190935 Si02
#       6
#     8   8   8   8   8   8
#     4  10  21  38  58  79 102 130 164 206 260 312
#     4   9  17  29  45  67  98 134 165 198 247 301
#     4   9  18  31  49  73 102 134 164 200 251 305
#     4  11  21  32  50  75 100 130 169 210 251 298
#     4  10  20  34  50  71 105 144 176 209 250 295
#     4  10  20  32  50  76 104 138 178 213 246 291
#
# _framework density 17.087378000000001
#
# number of rings (size 3 to 8) (size 9 to 14) (size 15 to 20)
#    0.000    2.167    0.000    5.000    0.000    7.000 
#    0.000    0.000    0.000    1.000    0.000    7.000 
#    0.000    0.000    0.000    0.000    0.000    0.000 
#
# Total GULP energy -133698.393618 kJ/mol
# GULP energy per Si atom -5570.766401 kJ/mol
# Density = 1.704849 g / cm^3
# Si number density = 17.087378 Si / 1000 Ang^3
#
#
#
# Elastic Constant Matrix: (Units=GPa)
#
#
# Indices 1 2 3 4 5 6 
#
# 1 75.0911 24.5228 44.4298 0.0000 -2.1585 0.0000
# 2 24.5228 58.7631 33.5138 0.0000 0.2884 0.0000
# 3 44.4298 33.5138 117.2821 0.0000 -9.7925 0.0000
# 4 0.0000 0.0000 0.0000 17.1350 0.0000 6.9257
# 5 -2.1585 0.2884 -9.7925 0.0000 25.9119 0.0000
# 6 0.0000 0.0000 0.0000 6.9257 0.0000 20.0975
#
#
#
# Elastic Compliance Matrix: (Units=1/GPa)
#
#
# Indices 1 2 3 4 5 6 
#
# 1 0.018054 -0.004304 -0.005658 0.000000 -0.000587 0.000000
# 2 -0.004304 0.021515 -0.004716 0.000000 -0.002380 0.000000
# 3 -0.005658 -0.004716 0.012373 0.000000 0.004257 0.000000
# 4 0.000000 0.000000 0.000000 0.067804 0.000000 -0.023366
# 5 -0.000587 -0.002380 0.004257 0.000000 0.040179 0.000000
# 6 0.000000 0.000000 0.000000 -0.023366 0.000000 0.057809
#
#
# Mechanical properties :
#
#
# Convention : Reuss Voigt Hill
#
# Bulk Modulus (GPa) = 44.27807 50.67435 47.47621
# Shear Modulus (GPa) = 19.63710 22.54022 21.08866
#
# Velocity S-wave (km/s) = 3.39369 3.63590 3.51688
# Velocity P-wave (km/s) = 6.42846 6.88090 6.65853
#
# Compressibility (1/GPa) = 0.02258454
#
# Stress axis : x y z
#
# Youngs Moduli (GPa) = 55.38984 46.47894 80.82046
#
# Poissons Ratio (x) = 0.20006 0.45731
# Poissons Ratio (y) = 0.23841 0.38117
# Poissons Ratio (z) = 0.31341 0.21920
#
# Static dielectric constant tensor:
#      x y z
#    x 1.729560 0.000000 -0.133110 
#    y 0.000000 1.614360 0.000000 
#    z -0.133110 0.000000 1.706020 
# 
# From -- ./inp_files/281831.got.cif
#   From: 2010.05.17/outbox.cif.g08.bks.cpg/sg12_141_cif.got.tgz:281831.got - 2010.06.03 13:09:07.
