data_PCOD9190571
_publ_section_title
;
Structure prediction by ZEFSAII (Michael W. Deem and Ramdas Pophale) SiO2 
 PCOD9190571
Probable space group: C 2/M
;
_chemical_formula_sum "Si O2"
_cell_formula_units_Z 60
_cell_length_a 28.431143
_cell_length_b 8.293560
_cell_length_c 14.536237
_cell_angle_alpha 90.000000
_cell_angle_beta 40.501089
_cell_angle_gamma 90.000000
_cell_volume 2226.083171
_symmetry_space_group_name_H-M "C 2/M"
_symmetry_group_IT_number 12
_symmetry_cell_setting 'monoclinic'
loop_
_space_group_symop_operation_xyz
x,y,z
-x,y,-z
-x,-y,-z
x,-y,z
1/2+x,1/2+y,z
1/2-x,1/2+y,-z
1/2-x,1/2-y,-z
1/2+x,1/2-y,z
loop_
_atom_site_type_symbol
_atom_site_label
_atom_site_fract_x
_atom_site_fract_y
_atom_site_fract_z
Si Si1 0.179862 0.813397 0.280665
Si Si2 0.586107 0.825811 0.847696
Si Si3 0.032614 0.317282 0.575617
Si Si4 0.364496 0.192674 0.844082
Si Si5 0.136064 0.183692 0.953669
Si Si6 0.035531 0.173163 0.752489
Si Si7 0.306149 0.500000 0.432178
Si Si8 0.718372 0.180605 0.411478
O O1 0.095707 0.784588 0.435167
O O2 0.181953 0.750854 0.173116
O O3 0.225532 0.719561 0.290972
O O4 0.199154 0.000000 0.253665
O O5 0.580207 0.687656 0.779655
O O6 0.608911 0.000000 0.774077
O O7 0.500000 0.839650 0.000000
O O8 0.633961 0.795636 0.866417
O O9 0.037198 0.500000 0.534362
O O10 0.048981 0.310196 0.659810
O O11 0.949063 0.259405 0.696774
O O12 0.341244 0.257322 0.978835
O O13 0.364478 0.000000 0.849126
O O14 0.048211 0.176294 0.097890
O O15 0.157728 0.000000 0.901085
O O16 0.049426 0.000000 0.688572
O O17 0.310206 0.351682 0.505319
O O18 0.282210 0.636718 0.387598
O O19 0.681704 0.000000 0.464582
#
# Coordination Sequence:
#
# PCOD9190571 Si02
#       8
#     8   8   8   8   8   8   4   8
#     4  12  22  30  43  63  83 111 151 180 209 251
#     4   9  15  23  37  55  71  91 125 168 211 256
#     4  10  20  32  42  54  78 113 149 185 219 247
#     4  10  20  32  42  54  78 113 149 185 219 247
#     4   9  16  26  39  54  72  96 130 174 217 252
#     4   9  16  26  39  54  72  96 130 174 217 252
#     4   8  16  30  50  68  84 106 130 166 216 262
#     4   9  16  30  48  67  87 105 134 172 210 257
#
# _framework density 26.953168999999999
#
# number of rings (size 3 to 8) (size 9 to 14) (size 15 to 20)
#    0.400    2.000    0.667    3.600    0.000    8.000 
#    0.000    0.000    0.000    0.000    0.000    0.000 
#    0.000    0.000    0.000    0.000    0.000    8.000 
#
# Total GULP energy -167166.755349 kJ/mol
# GULP energy per Si atom -5572.225178 kJ/mol
# Density = 2.689182 g / cm^3
# Si number density = 26.953169 Si / 1000 Ang^3
#
#
#
# Elastic Constant Matrix: (Units=GPa)
#
#
# Indices 1 2 3 4 5 6 
#
# 1 176.0499 38.8938 24.6817 0.0000 38.2016 0.0000
# 2 38.8938 120.0711 20.6793 0.0003 17.4127 0.0001
# 3 24.6817 20.6793 69.1928 0.0001 35.2815 0.0000
# 4 0.0000 0.0003 0.0001 12.1865 -0.0001 14.4869
# 5 38.2016 17.4127 35.2815 -0.0001 52.6278 0.0000
# 6 0.0000 0.0001 0.0000 14.4869 0.0000 25.7889
#
#
#
# Elastic Compliance Matrix: (Units=1/GPa)
#
#
# Indices 1 2 3 4 5 6 
#
# 1 0.007038 -0.001653 0.000470 0.000000 -0.004877 0.000000
# 2 -0.001653 0.009275 -0.001868 -0.000001 -0.000616 0.000000
# 3 0.000470 -0.001868 0.022338 0.000000 -0.014699 0.000000
# 4 0.000000 -0.000001 0.000000 0.247006 0.000001 -0.138756
# 5 -0.004877 -0.000616 -0.014699 0.000001 0.032599 0.000000
# 6 0.000000 0.000000 0.000000 -0.138756 0.000000 0.116723
#
#
# Mechanical properties :
#
#
# Convention : Reuss Voigt Hill
#
# Bulk Modulus (GPa) = 30.72324 59.31374 45.01849
# Shear Modulus (GPa) = 11.06366 36.85789 23.96078
#
# Velocity S-wave (km/s) = 2.02822 3.70196 2.98481
# Velocity P-wave (km/s) = 4.11198 6.35032 5.34953
#
# Compressibility (1/GPa) = 0.03254865
#
# Stress axis : x y z
#
# Youngs Moduli (GPa) = 142.08967 107.81573 44.76755
#
# Poissons Ratio (x) = 0.17827 -0.02106
# Poissons Ratio (y) = 0.23494 0.08362
# Poissons Ratio (z) = -0.06685 0.20139
#
# Static dielectric constant tensor:
#      x y z
#    x 2.271420 0.000000 -0.201820 
#    y 0.000000 3.404610 0.000000 
#    z -0.201820 0.000000 2.218460 
# 
# From -- ./inp_files/248195.got.cif
#   From: 2010.05.17/outbox.cif.g08.bks.cpg/sg12_125_cif.got.tgz:248195.got - 2010.06.03 13:09:07.
