data_PCOD9190753
_publ_section_title
;
Structure prediction by ZEFSAII (Michael W. Deem and Ramdas Pophale) SiO2 
 PCOD9190753
Probable space group: C 2/M
;
_chemical_formula_sum "Si O2"
_cell_formula_units_Z 56
_cell_length_a 19.642534
_cell_length_b 8.104205
_cell_length_c 17.273883
_cell_angle_alpha 90.000000
_cell_angle_beta 87.897888
_cell_angle_gamma 90.000000
_cell_volume 2747.929240
_symmetry_space_group_name_H-M "C 2/M"
_symmetry_group_IT_number 12
_symmetry_cell_setting 'monoclinic'
loop_
_space_group_symop_operation_xyz
x,y,z
-x,y,-z
-x,-y,-z
x,-y,z
1/2+x,1/2+y,z
1/2-x,1/2+y,-z
1/2-x,1/2-y,-z
1/2+x,1/2-y,z
loop_
_atom_site_type_symbol
_atom_site_label
_atom_site_fract_x
_atom_site_fract_y
_atom_site_fract_z
Si Si1 0.827103 0.698314 0.008631
Si Si2 0.959237 0.699543 0.924445
Si Si3 0.225914 0.694700 0.584804
Si Si4 0.691399 0.700978 0.268874
Si Si5 0.174224 0.699791 0.819227
Si Si6 0.038180 0.801410 0.247333
Si Si7 0.405432 0.307253 0.328175
O O1 0.829692 0.500000 0.008031
O O2 0.847759 0.750840 0.094461
O O3 0.750000 0.750000 0.000000
O O4 0.881592 0.756767 0.943615
O O5 0.962384 0.500000 0.921617
O O6 0.982353 0.760986 0.840018
O O7 0.000000 0.750213 0.000000
O O8 0.233020 0.500000 0.588225
O O9 0.250000 0.750000 0.500000
O O10 0.273850 0.761134 0.652533
O O11 0.147414 0.734460 0.608002
O O12 0.688374 0.500000 0.271198
O O13 0.746381 0.741712 0.199984
O O14 0.614840 0.761648 0.258885
O O15 0.167314 0.500000 0.812411
O O16 0.131528 0.780761 0.752856
O O17 0.981246 0.738418 0.310073
O O18 0.039287 0.000000 0.254264
O O19 0.411040 0.500000 0.345412
#
# Coordination Sequence:
#
# PCOD9190753 Si02
#       7
#     8   8   8   8   8   8   8
#     4  10  20  32  48  71  98 132 174 221 270 314
#     4  10  21  35  50  71 102 140 180 221 266 312
#     4  10  20  37  61  84 108 137 168 204 248 302
#     4   8  16  32  54  77 100 133 173 210 252 301
#     4   9  17  32  52  70  95 135 178 216 258 311
#     4  10  20  35  54  76 103 136 177 219 258 306
#     4  10  20  33  53  80 105 131 167 210 254 304
#
# _framework density 20.378981
#
# number of rings (size 3 to 8) (size 9 to 14) (size 15 to 20)
#    0.000    2.429    0.000    3.429    0.000    4.857 
#    0.000    5.714    0.000    4.286    0.000    0.000 
#    0.000    0.000    0.000    0.000    0.000    0.000 
#
# Total GULP energy -156223.803341 kJ/mol
# GULP energy per Si atom -5579.421548 kJ/mol
# Density = 2.033260 g / cm^3
# Si number density = 20.378981 Si / 1000 Ang^3
#
#
#
# Elastic Constant Matrix: (Units=GPa)
#
#
# Indices 1 2 3 4 5 6 
#
# 1 102.8235 4.1739 23.8426 0.0000 -24.2706 0.0000
# 2 4.1739 10.2002 7.6815 0.0000 -4.9505 0.0000
# 3 23.8426 7.6815 96.7803 0.0000 -30.4283 0.0000
# 4 0.0000 0.0000 0.0000 25.5017 0.0000 -0.4598
# 5 -24.2706 -4.9505 -30.4283 0.0000 30.1416 0.0000
# 6 0.0000 0.0000 0.0000 -0.4598 0.0000 18.7194
#
#
#
# Elastic Compliance Matrix: (Units=1/GPa)
#
#
# Indices 1 2 3 4 5 6 
#
# 1 0.012009 -0.000277 0.000131 0.000000 0.009757 0.000000
# 2 -0.000277 0.107788 -0.004382 0.000000 0.013056 0.000000
# 3 0.000131 -0.004382 0.015316 0.000000 0.014848 0.000000
# 4 0.000000 0.000000 0.000000 0.039230 0.000000 0.000964
# 5 0.009757 0.013056 0.014848 0.000000 0.058167 0.000000
# 6 0.000000 0.000000 0.000000 0.000964 0.000000 0.053444
#
#
# Mechanical properties :
#
#
# Convention : Reuss Voigt Hill
#
# Bulk Modulus (GPa) = 7.93293 31.24444 19.58868
# Shear Modulus (GPa) = 14.83546 26.47961 20.65753
#
# Velocity S-wave (km/s) = 2.70103 3.60857 3.18727
# Velocity P-wave (km/s) = 3.69169 5.72078 4.81435
#
# Compressibility (1/GPa) = 0.12605690
#
# Stress axis : x y z
#
# Youngs Moduli (GPa) = 83.26889 9.27750 65.28910
#
# Poissons Ratio (x) = 0.00257 -0.00856
# Poissons Ratio (y) = 0.02311 0.28609
# Poissons Ratio (z) = -0.01091 0.04065
#
# Static dielectric constant tensor:
#      x y z
#    x 1.779730 0.000000 -0.010380 
#    y 0.000000 1.726710 0.000000 
#    z -0.010380 0.000000 1.755140 
# 
# From -- ./inp_files/313277.got.cif
#   From: 2010.05.17/outbox.cif.g08.bks.cpg/sg12_157_cif.got.tgz:313277.got - 2010.06.03 13:09:07.
