data_PCOD9190905
_publ_section_title
;
Structure prediction by ZEFSAII (Michael W. Deem and Ramdas Pophale) SiO2 
 PCOD9190905
Probable space group: C 2/M
;
_chemical_formula_sum "Si O2"
_cell_formula_units_Z 52
_cell_length_a 7.578065
_cell_length_b 27.190728
_cell_length_c 20.445237
_cell_angle_alpha 90.000000
_cell_angle_beta 42.230982
_cell_angle_gamma 90.000000
_cell_volume 2831.514711
_symmetry_space_group_name_H-M "C 2/M"
_symmetry_group_IT_number 12
_symmetry_cell_setting 'monoclinic'
loop_
_space_group_symop_operation_xyz
x,y,z
-x,y,-z
-x,-y,-z
x,-y,z
1/2+x,1/2+y,z
1/2-x,1/2+y,-z
1/2-x,1/2-y,-z
1/2+x,1/2-y,z
loop_
_atom_site_type_symbol
_atom_site_label
_atom_site_fract_x
_atom_site_fract_y
_atom_site_fract_z
Si Si1 0.662289 0.196751 0.183868
Si Si2 0.286342 0.554520 0.956600
Si Si3 0.500000 0.229951 0.000000
Si Si4 0.529348 0.373552 0.801770
Si Si5 0.838047 0.332290 0.602968
Si Si6 0.563937 0.852419 0.079259
Si Si7 0.695541 0.768541 0.603922
O O1 0.811777 0.238559 0.099939
O O2 0.845382 0.167001 0.184242
O O3 0.565537 0.160532 0.154113
O O4 0.420249 0.215891 0.293779
O O5 0.345517 0.500000 0.965569
O O6 0.242334 0.599992 0.017683
O O7 0.503031 0.574556 0.846160
O O8 0.000000 0.551634 0.000000
O O9 0.351970 0.193981 0.988844
O O10 0.691481 0.369476 0.690554
O O11 0.230362 0.361452 0.864817
O O12 0.660234 0.290617 0.616526
O O13 0.000000 0.356374 0.500000
O O14 0.023263 0.298342 0.598641
O O15 0.000000 0.777474 0.500000
#
# Coordination Sequence:
#
# PCOD9190905 Si02
#       7
#     8   8   4   8   8   8   8
#     4  11  25  33  53  77 116 141 180 218 253 319
#     4   9  18  37  59  79 106 138 176 224 269 321
#     4  12  22  34  49  78 107 150 174 208 262 316
#     4  10  21  37  52  79 104 138 181 213 270 317
#     4  10  20  32  50  72 104 138 181 221 258 305
#     4  11  22  35  52  77 107 142 177 214 264 317
#     4  10  21  33  48  73 101 150 185 215 252 304
#
# _framework density 18.364730000000002
#
# number of rings (size 3 to 8) (size 9 to 14) (size 15 to 20)
#    0.000    1.692    2.308    4.154   10.769    0.000 
#    0.000    1.538    0.000    0.462    0.000    0.000 
#    0.000    3.692    0.000    0.000    0.000    0.000 
#
# Total GULP energy -144970.834657 kJ/mol
# GULP energy per Si atom -5575.801333 kJ/mol
# Density = 1.832293 g / cm^3
# Si number density = 18.364730 Si / 1000 Ang^3
#
#
#
# Elastic Constant Matrix: (Units=GPa)
#
#
# Indices 1 2 3 4 5 6 
#
# 1 55.2831 17.3476 37.8701 0.0000 5.9463 0.0000
# 2 17.3476 95.6814 60.0117 0.0000 5.6960 0.0000
# 3 37.8701 60.0117 164.0425 0.0001 24.4273 -0.0001
# 4 0.0000 0.0000 0.0001 16.1945 0.0000 1.0065
# 5 5.9463 5.6960 24.4273 0.0000 31.2105 0.0000
# 6 0.0000 0.0000 -0.0001 1.0065 0.0000 4.4884
#
#
#
# Elastic Compliance Matrix: (Units=1/GPa)
#
#
# Indices 1 2 3 4 5 6 
#
# 1 0.021567 -0.001038 -0.004545 0.000000 -0.000362 0.000000
# 2 -0.001038 0.013684 -0.005008 0.000000 0.001620 0.000000
# 3 -0.004545 -0.005008 0.009861 0.000000 -0.005938 0.000000
# 4 0.000000 0.000000 0.000000 0.062622 0.000000 -0.014043
# 5 -0.000362 0.001620 -0.005938 0.000000 0.036462 0.000000
# 6 0.000000 0.000000 0.000000 -0.014043 0.000000 0.225946
#
#
# Mechanical properties :
#
#
# Convention : Reuss Voigt Hill
#
# Bulk Modulus (GPa) = 41.78687 60.60733 51.19710
# Shear Modulus (GPa) = 12.52193 23.69719 18.10956
#
# Velocity S-wave (km/s) = 2.61405 3.59606 3.14364
# Velocity P-wave (km/s) = 5.64927 7.09337 6.41210
#
# Compressibility (1/GPa) = 0.02393096
#
# Stress axis : x y z
#
# Youngs Moduli (GPa) = 46.36728 73.07883 101.40494
#
# Poissons Ratio (x) = 0.07585 0.46091
# Poissons Ratio (y) = 0.04812 0.50779
# Poissons Ratio (z) = 0.21075 0.36595
#
# Static dielectric constant tensor:
#      x y z
#    x 1.718200 0.000000 -0.008580 
#    y 0.000000 1.645030 0.000000 
#    z -0.008580 0.000000 1.673210 
# 
# From -- ./inp_files/302268.got.cif
#   From: 2010.05.17/outbox.cif.g08.bks.cpg/sg12_152_cif.got.tgz:302268.got - 2010.06.03 13:09:07.
