data_PCOD9190743
_publ_section_title
;
Structure prediction by ZEFSAII (Michael W. Deem and Ramdas Pophale) SiO2 
 PCOD9190743
Probable space group: C 2/M
;
_chemical_formula_sum "Si O2"
_cell_formula_units_Z 64
_cell_length_a 17.070311
_cell_length_b 14.230407
_cell_length_c 29.459493
_cell_angle_alpha 90.000000
_cell_angle_beta 150.636929
_cell_angle_gamma 90.000000
_cell_volume 3508.998874
_symmetry_space_group_name_H-M "C 2/M"
_symmetry_group_IT_number 12
_symmetry_cell_setting 'monoclinic'
loop_
_space_group_symop_operation_xyz
x,y,z
-x,y,-z
-x,-y,-z
x,-y,z
1/2+x,1/2+y,z
1/2-x,1/2+y,-z
1/2-x,1/2-y,-z
1/2+x,1/2-y,z
loop_
_atom_site_type_symbol
_atom_site_label
_atom_site_fract_x
_atom_site_fract_y
_atom_site_fract_z
Si Si1 0.460265 0.392752 0.032408
Si Si2 0.612206 0.390168 0.512603
Si Si3 0.424079 0.893495 0.160202
Si Si4 0.944730 0.721124 0.691584
Si Si5 0.059763 0.244334 0.410784
Si Si6 0.935555 0.106790 0.753427
Si Si7 0.938880 0.607265 0.420277
Si Si8 0.435450 0.272210 0.102895
O O1 0.520499 0.500000 0.071915
O O2 0.268008 0.396243 0.940827
O O3 0.500000 0.370188 0.000000
O O4 0.512453 0.315134 0.095965
O O5 0.500000 0.381359 0.500000
O O6 0.653253 0.500000 0.527575
O O7 0.770331 0.327460 0.600218
O O8 0.528960 0.348621 0.425210
O O9 0.458965 0.848262 0.226805
O O10 0.496124 0.823041 0.158417
O O11 0.485155 0.000000 0.187668
O O12 0.010833 0.740492 0.674775
O O13 0.940206 0.821234 0.714249
O O14 0.250000 0.250000 0.500000
O O15 0.007085 0.329570 0.415540
O O16 0.752089 0.108419 0.677256
O O17 0.044087 0.147724 0.848524
O O18 0.977449 0.000000 0.762870
O O19 0.995749 0.500000 0.444686
O O20 0.000000 0.642330 0.500000
O O21 0.250000 0.250000 0.000000
#
# Coordination Sequence:
#
# PCOD9190743 Si02
#       8
#     8   8   8   8   8   8   8   8
#     4   9  17  30  50  76 104 130 159 203 257 307
#     4  10  20  34  51  68  92 133 179 215 248 295
#     4   9  18  32  50  72  98 131 167 201 246 305
#     4  10  20  33  50  73 101 129 163 211 259 304
#     4  10  20  32  48  71 100 135 174 215 262 309
#     4  10  20  34  55  80 105 137 176 217 263 316
#     4  10  20  34  52  75 106 141 175 217 266 314
#     4   9  18  33  52  76 104 135 172 212 259 313
#
# _framework density 18.238818999999999
#
# number of rings (size 3 to 8) (size 9 to 14) (size 15 to 20)
#    0.000    2.375    0.000    3.375    0.000    4.500 
#    0.000    2.500    0.000    0.375    0.000    8.750 
#    0.000    0.000    0.000    0.000    0.000    0.000 
#
# Total GULP energy -178313.973922 kJ/mol
# GULP energy per Si atom -5572.311685 kJ/mol
# Density = 1.819731 g / cm^3
# Si number density = 18.238819 Si / 1000 Ang^3
#
#
#
# Elastic Constant Matrix: (Units=GPa)
#
#
# Indices 1 2 3 4 5 6 
#
# 1 108.8592 67.5833 19.2990 0.0001 -39.8756 0.0001
# 2 67.5833 154.0390 33.8507 0.0001 -34.9302 0.0001
# 3 19.2990 33.8507 57.3113 -0.0001 -23.2156 0.0010
# 4 0.0001 0.0001 -0.0001 17.9173 0.0000 -2.4407
# 5 -39.8756 -34.9302 -23.2156 0.0000 30.5064 0.0003
# 6 0.0001 0.0001 0.0010 -2.4407 0.0003 99.0441
#
#
#
# Elastic Compliance Matrix: (Units=1/GPa)
#
#
# Indices 1 2 3 4 5 6 
#
# 1 0.020589 -0.004375 0.006539 0.000000 0.026879 0.000000
# 2 -0.004375 0.009802 -0.003016 0.000000 0.003209 0.000000
# 3 0.006539 -0.003016 0.027600 0.000000 0.026097 0.000000
# 4 0.000000 0.000000 0.000000 0.056000 0.000000 0.001380
# 5 0.026879 0.003209 0.026097 0.000000 0.091450 -0.000001
# 6 0.000000 0.000000 0.000000 0.001380 -0.000001 0.010131
#
#
# Mechanical properties :
#
#
# Convention : Reuss Voigt Hill
#
# Bulk Modulus (GPa) = 17.76626 62.40839 40.08732
# Shear Modulus (GPa) = 21.18308 42.79197 31.98753
#
# Velocity S-wave (km/s) = 3.41167 4.84902 4.19240
# Velocity P-wave (km/s) = 5.02806 8.10199 6.74254
#
# Compressibility (1/GPa) = 0.05628647
#
# Stress axis : x y z
#
# Youngs Moduli (GPa) = 48.56935 102.02050 36.23242
#
# Poissons Ratio (x) = 0.44635 -0.23693
# Poissons Ratio (y) = 0.21250 0.10928
# Poissons Ratio (z) = -0.31761 0.30772
#
# Static dielectric constant tensor:
#      x y z
#    x 1.609040 0.000000 -0.020940 
#    y 0.000000 1.648530 0.000000 
#    z -0.020940 0.000000 1.668030 
# 
# From -- ./inp_files/361266.got.cif
#   From: 2010.05.17/outbox.cif.g08.bks.cpg/sg12_181_cif.got.tgz:361266.got - 2010.06.03 13:09:07.
