data_PCOD9190267
_publ_section_title
;
Structure prediction by ZEFSAII (Michael W. Deem and Ramdas Pophale) SiO2 
 PCOD9190267
Probable space group: C 2/M
;
_chemical_formula_sum "Si O2"
_cell_formula_units_Z 56
_cell_length_a 9.933076
_cell_length_b 22.063847
_cell_length_c 14.580279
_cell_angle_alpha 90.000000
_cell_angle_beta 96.361840
_cell_angle_gamma 90.000000
_cell_volume 3175.763476
_symmetry_space_group_name_H-M "C 2/M"
_symmetry_group_IT_number 12
_symmetry_cell_setting 'monoclinic'
loop_
_space_group_symop_operation_xyz
x,y,z
-x,y,-z
-x,-y,-z
x,-y,z
1/2+x,1/2+y,z
1/2-x,1/2+y,-z
1/2-x,1/2-y,-z
1/2+x,1/2-y,z
loop_
_atom_site_type_symbol
_atom_site_label
_atom_site_fract_x
_atom_site_fract_y
_atom_site_fract_z
Si Si1 0.123415 0.069640 0.231298
Si Si2 0.311832 0.141616 0.667677
Si Si3 0.499262 0.319142 0.891453
Si Si4 0.256994 0.257756 0.190759
Si Si5 0.148524 0.697288 0.519793
Si Si6 0.616946 0.139671 0.717297
Si Si7 0.952187 0.070916 0.397531
O O1 0.046873 0.119617 0.164165
O O2 0.281131 0.087196 0.245310
O O3 0.069623 0.076801 0.331255
O O4 0.100197 0.000000 0.201542
O O5 0.275074 0.203064 0.720243
O O6 0.336746 0.150512 0.561650
O O7 0.459716 0.122115 0.714560
O O8 0.179954 0.100040 0.658925
O O9 0.647243 0.298132 0.867215
O O10 0.384380 0.268415 0.858825
O O11 0.500000 0.328236 0.000000
O O12 0.347112 0.199073 0.221166
O O13 0.250000 0.750000 0.500000
O O14 0.153776 0.663321 0.617119
O O15 0.000000 0.725834 0.500000
O O16 0.000000 0.096763 0.500000
O O17 0.922826 0.000000 0.410098
#
# Coordination Sequence:
#
# PCOD9190267 Si02
#       7
#     8   8   8   8   8   8   8
#     4  10  22  39  60  83 112 151 195 235 278 338
#     4  11  20  34  54  80 115 149 188 230 277 337
#     4  11  23  39  61  86 116 149 184 236 293 343
#     4  11  20  36  57  86 114 145 183 231 286 346
#     4  10  20  29  46  77 112 149 184 220 274 330
#     4  10  21  35  53  83 119 150 187 230 284 333
#     4  10  21  37  57  81 110 150 196 236 276 326
#
# _framework density 17.633555000000001
#
# number of rings (size 3 to 8) (size 9 to 14) (size 15 to 20)
#    0.000    1.571    4.286    1.286    0.000    2.571 
#    0.000    0.000    0.000    5.143    0.000    1.000 
#    0.000    0.000    0.000    0.000    0.000    0.000 
#
# Total GULP energy -156039.460338 kJ/mol
# GULP energy per Si atom -5572.837869 kJ/mol
# Density = 1.759342 g / cm^3
# Si number density = 17.633555 Si / 1000 Ang^3
#
#
#
# Elastic Constant Matrix: (Units=GPa)
#
#
# Indices 1 2 3 4 5 6 
#
# 1 95.4736 37.6158 -3.1909 0.0000 0.0267 0.0000
# 2 37.6158 73.8394 24.7898 0.0000 5.1114 0.0000
# 3 -3.1909 24.7898 68.0294 0.0000 0.3107 0.0000
# 4 0.0000 0.0000 0.0000 15.4186 0.0000 -0.9243
# 5 0.0267 5.1114 0.3107 0.0000 20.2884 0.0000
# 6 0.0000 0.0000 0.0000 -0.9243 0.0000 12.9961
#
#
#
# Elastic Compliance Matrix: (Units=1/GPa)
#
#
# Indices 1 2 3 4 5 6 
#
# 1 0.013950 -0.008507 0.003745 0.000000 0.002068 0.000000
# 2 -0.008507 0.020917 -0.007998 0.000000 -0.005136 0.000000
# 3 0.003745 -0.007998 0.017782 0.000000 0.001738 0.000000
# 4 0.000000 0.000000 0.000000 0.065134 0.000000 0.004632
# 5 0.002068 -0.005136 0.001738 0.000000 0.050554 0.000000
# 6 0.000000 0.000000 0.000000 0.004632 0.000000 0.077275
#
#
# Mechanical properties :
#
#
# Convention : Reuss Voigt Hill
#
# Bulk Modulus (GPa) = 36.86053 39.53018 38.19535
# Shear Modulus (GPa) = 17.84592 21.61580 19.73086
#
# Velocity S-wave (km/s) = 3.18471 3.50499 3.34868
# Velocity P-wave (km/s) = 5.87130 6.23267 6.05468
#
# Compressibility (1/GPa) = 0.02712929
#
# Stress axis : x y z
#
# Youngs Moduli (GPa) = 71.68247 47.80742 56.23784
#
# Poissons Ratio (x) = 0.40670 -0.21060
# Poissons Ratio (y) = 0.60981 0.44978
# Poissons Ratio (z) = -0.26844 0.38235
#
# Static dielectric constant tensor:
#      x y z
#    x 1.637080 0.000000 0.019330 
#    y 0.000000 1.600660 0.000000 
#    z 0.019330 0.000000 1.587530 
# 
# From -- ./inp_files/197540.got.cif
#   From: 2010.05.17/outbox.cif.g08.bks.cpg/sg12_99_cif.got.tgz:197540.got - 2010.06.03 13:09:07.
