data_PCOD9190415
_publ_section_title
;
Structure prediction by ZEFSAII (Michael W. Deem and Ramdas Pophale) SiO2 
 PCOD9190415
Probable space group: C 2/M
;
_chemical_formula_sum "Si O2"
_cell_formula_units_Z 48
_cell_length_a 12.952665
_cell_length_b 14.198912
_cell_length_c 13.835225
_cell_angle_alpha 90.000000
_cell_angle_beta 126.453434
_cell_angle_gamma 90.000000
_cell_volume 2046.633638
_symmetry_space_group_name_H-M "C 2/M"
_symmetry_group_IT_number 12
_symmetry_cell_setting 'monoclinic'
loop_
_space_group_symop_operation_xyz
x,y,z
-x,y,-z
-x,-y,-z
x,-y,z
1/2+x,1/2+y,z
1/2-x,1/2+y,-z
1/2-x,1/2-y,-z
1/2+x,1/2-y,z
loop_
_atom_site_type_symbol
_atom_site_label
_atom_site_fract_x
_atom_site_fract_y
_atom_site_fract_z
Si Si1 0.824037 0.604257 0.874617
Si Si2 0.839763 0.391669 0.112939
Si Si3 0.478340 0.110347 0.627100
Si Si4 0.204465 0.312476 0.616866
Si Si5 0.650052 0.397028 0.608198
Si Si6 0.123154 0.809848 0.122527
O O1 0.878477 0.500000 0.880696
O O2 0.687053 0.605923 0.743046
O O3 0.893737 0.697445 0.875868
O O4 0.823810 0.613639 0.989709
O O5 0.807690 0.500000 0.121983
O O6 0.979589 0.373693 0.238658
O O7 0.739341 0.325930 0.112183
O O8 0.342285 0.139192 0.506950
O O9 0.587209 0.165285 0.626162
O O10 0.493919 0.000000 0.616014
O O11 0.207384 0.200690 0.603106
O O12 0.329692 0.345456 0.746243
O O13 0.500000 0.394551 0.500000
O O14 0.699720 0.500000 0.601186
O O15 0.000000 0.850966 0.000000
#
# Coordination Sequence:
#
# PCOD9190415 Si02
#       6
#     8   8   8   8   8   8
#     4   9  18  32  50  72  94 123 161 200 237 273
#     4   9  18  32  50  73  96 121 159 200 239 278
#     4   9  15  25  44  67  88 113 151 199 234 263
#     4   9  15  26  41  62  92 118 151 189 228 271
#     4   9  15  24  41  67  93 114 144 190 238 275
#     4  10  20  31  46  70 102 130 157 188 234 288
#
# _framework density 23.453147000000001
#
# number of rings (size 3 to 8) (size 9 to 14) (size 15 to 20)
#    0.000    2.833    1.667    1.500    0.000    1.333 
#    0.000    0.000    0.000    1.000    0.000    0.000 
#    0.000    0.000    0.000    0.000    0.000    0.000 
#
# Total GULP energy -133756.735124 kJ/mol
# GULP energy per Si atom -5573.197297 kJ/mol
# Density = 2.339977 g / cm^3
# Si number density = 23.453147 Si / 1000 Ang^3
#
#
#
# Elastic Constant Matrix: (Units=GPa)
#
#
# Indices 1 2 3 4 5 6 
#
# 1 35.5367 19.5954 39.4260 0.0000 -9.1938 0.0000
# 2 19.5954 89.0656 23.8576 0.0000 -9.7149 0.0000
# 3 39.4260 23.8576 247.2684 0.0000 27.6037 0.0000
# 4 0.0000 0.0000 0.0000 22.0164 0.0000 12.5389
# 5 -9.1938 -9.7149 27.6037 0.0000 31.8374 0.0000
# 6 0.0000 0.0000 0.0000 12.5389 0.0000 -21.3095
#
#
#
# Elastic Compliance Matrix: (Units=1/GPa)
#
#
# Indices 1 2 3 4 5 6 
#
# 1 0.046275 -0.005648 -0.009004 0.000000 0.019447 0.000000
# 2 -0.005648 0.012969 -0.000676 0.000000 0.002912 0.000000
# 3 -0.009004 -0.000676 0.006486 0.000000 -0.008430 0.000000
# 4 0.000000 0.000000 0.000000 0.034020 0.000000 0.020018
# 5 0.019447 0.002912 -0.008430 0.000000 0.045223 0.000000
# 6 0.000000 0.000000 0.000000 0.020018 0.000000 -0.035149
#
#
# Mechanical properties :
#
#
# Convention : Reuss Voigt Hill
#
# Bulk Modulus (GPa) = 28.51111 59.73651 44.12381
# Shear Modulus (GPa) = 32.85742 25.77497 29.31620
#
# Velocity S-wave (km/s) = 3.74703 3.31871 3.53936
# Velocity P-wave (km/s) = 5.55908 6.34121 5.96298
#
# Compressibility (1/GPa) = 0.03507404
#
# Stress axis : x y z
#
# Youngs Moduli (GPa) = 21.60984 77.10693 154.17326
#
# Poissons Ratio (x) = 0.43549 1.38823
# Poissons Ratio (y) = 0.12205 0.10421
# Poissons Ratio (z) = 0.19458 0.05212
#
# Static dielectric constant tensor:
#      x y z
#    x 1.910790 0.000000 0.012390 
#    y 0.000000 1.880730 0.000000 
#    z 0.012390 0.000000 1.953230 
# 
# From -- ./inp_files/225462.got.cif
#   From: 2010.05.17/outbox.cif.g08.bks.cpg/sg12_113_cif.got.tgz:225462.got - 2010.06.03 13:09:07.
