data_PCOD9190842
_publ_section_title
;
Structure prediction by ZEFSAII (Michael W. Deem and Ramdas Pophale) SiO2 
 PCOD9190842
Probable space group: C 2/M
;
_chemical_formula_sum "Si O2"
_cell_formula_units_Z 56
_cell_length_a 23.857591
_cell_length_b 8.410999
_cell_length_c 19.528566
_cell_angle_alpha 90.000000
_cell_angle_beta 50.764017
_cell_angle_gamma 90.000000
_cell_volume 3035.236450
_symmetry_space_group_name_H-M "C 2/M"
_symmetry_group_IT_number 12
_symmetry_cell_setting 'monoclinic'
loop_
_space_group_symop_operation_xyz
x,y,z
-x,y,-z
-x,-y,-z
x,-y,z
1/2+x,1/2+y,z
1/2-x,1/2+y,-z
1/2-x,1/2-y,-z
1/2+x,1/2-y,z
loop_
_atom_site_type_symbol
_atom_site_label
_atom_site_fract_x
_atom_site_fract_y
_atom_site_fract_z
Si Si1 0.183368 0.815388 0.252159
Si Si2 0.663741 0.185813 0.123601
Si Si3 0.620508 0.809870 0.011158
Si Si4 0.039008 0.190332 0.829531
Si Si5 0.973600 0.688072 0.594453
Si Si6 0.168009 0.811352 0.827557
Si Si7 0.507669 0.313426 0.278550
O O1 0.199365 0.776734 0.159539
O O2 0.111940 0.721301 0.330056
O O3 0.254134 0.769375 0.239603
O O4 0.166967 0.000000 0.270712
O O5 0.666460 0.244287 0.042859
O O6 0.578274 0.208355 0.207021
O O7 0.682950 0.000000 0.111623
O O8 0.536159 0.771082 0.090386
O O9 0.629889 0.000000 0.998014
O O10 0.641289 0.726548 0.924834
O O11 0.106818 0.244965 0.821812
O O12 0.047020 0.214754 0.741658
O O13 0.030501 0.000000 0.847532
O O14 0.986478 0.500000 0.589030
O O15 0.012813 0.771420 0.628406
O O16 0.000000 0.745086 0.500000
O O17 0.176748 0.000000 0.812922
O O18 0.528880 0.500000 0.259061
#
# Coordination Sequence:
#
# PCOD9190842 Si02
#       7
#     8   8   8   8   8   8   8
#     4  11  22  35  52  75 102 130 165 207 251 299
#     4   9  17  31  49  69  98 133 166 204 252 301
#     4  10  20  32  49  74 100 130 174 221 255 287
#     4   9  19  34  51  72  99 136 176 210 248 292
#     4  10  20  35  57  83 107 129 155 191 241 303
#     4  11  22  35  50  68  99 140 175 209 251 298
#     4   9  16  29  51  77 102 127 162 205 244 287
#
# _framework density 18.449961999999999
#
# number of rings (size 3 to 8) (size 9 to 14) (size 15 to 20)
#    0.000    2.143    0.000    5.571    0.000    6.857 
#    0.000    0.000    0.000    0.857    0.000    0.000 
#    0.000    0.000    0.000    0.000    0.000    0.000 
#
# Total GULP energy -156232.075896 kJ/mol
# GULP energy per Si atom -5579.716996 kJ/mol
# Density = 1.840797 g / cm^3
# Si number density = 18.449962 Si / 1000 Ang^3
#
#
#
# Elastic Constant Matrix: (Units=GPa)
#
#
# Indices 1 2 3 4 5 6 
#
# 1 108.5623 -1.4934 22.6585 0.0014 13.6770 -0.0020
# 2 -1.4934 25.6580 -9.0646 0.0019 3.3235 -0.0028
# 3 22.6585 -9.0646 81.4422 0.0006 17.1879 -0.0012
# 4 0.0014 0.0019 0.0006 21.4754 0.0002 4.5419
# 5 13.6770 3.3235 17.1879 0.0002 18.2232 -0.0005
# 6 -0.0020 -0.0028 -0.0012 4.5419 -0.0005 22.9780
#
#
#
# Elastic Compliance Matrix: (Units=1/GPa)
#
#
# Indices 1 2 3 4 5 6 
#
# 1 0.010349 0.000983 -0.001364 -0.000001 -0.006659 0.000001
# 2 0.000983 0.044010 0.008084 -0.000005 -0.016389 0.000007
# 3 -0.001364 0.008084 0.017046 -0.000001 -0.016528 0.000002
# 4 -0.000001 -0.000005 -0.000001 0.048597 0.000002 -0.009606
# 5 -0.006659 -0.016389 -0.016528 0.000002 0.078451 -0.000002
# 6 0.000001 0.000007 0.000002 -0.009606 -0.000002 0.045419
#
#
# Mechanical properties :
#
#
# Convention : Reuss Voigt Hill
#
# Bulk Modulus (GPa) = 11.51953 26.65148 19.08550
# Shear Modulus (GPa) = 19.42481 26.10612 22.76546
#
# Velocity S-wave (km/s) = 3.24827 3.76569 3.51651
# Velocity P-wave (km/s) = 4.50838 5.77787 5.18215
#
# Compressibility (1/GPa) = 0.08680913
#
# Stress axis : x y z
#
# Youngs Moduli (GPa) = 96.63204 22.72210 58.66458
#
# Poissons Ratio (x) = -0.02233 0.08004
# Poissons Ratio (y) = -0.09498 -0.47422
# Poissons Ratio (z) = 0.13184 -0.18368
#
# Static dielectric constant tensor:
#      x y z
#    x 1.660320 0.000000 0.020810 
#    y 0.000000 1.627090 0.000000 
#    z 0.020810 0.000000 1.649460 
# 
# From -- ./inp_files/287335.got.cif
#   From: 2010.05.17/outbox.cif.g08.bks.cpg/sg12_144_cif.got.tgz:287335.got - 2010.06.03 13:09:07.
