data_PCOD9190792
_publ_section_title
;
Structure prediction by ZEFSAII (Michael W. Deem and Ramdas Pophale) SiO2 
 PCOD9190792
Probable space group: C 2/M
;
_chemical_formula_sum "Si O2"
_cell_formula_units_Z 56
_cell_length_a 16.408280
_cell_length_b 7.506603
_cell_length_c 18.487086
_cell_angle_alpha 90.000000
_cell_angle_beta 67.190918
_cell_angle_gamma 90.000000
_cell_volume 2099.000198
_symmetry_space_group_name_H-M "C 2/M"
_symmetry_group_IT_number 12
_symmetry_cell_setting 'monoclinic'
loop_
_space_group_symop_operation_xyz
x,y,z
-x,y,-z
-x,-y,-z
x,-y,z
1/2+x,1/2+y,z
1/2-x,1/2+y,-z
1/2-x,1/2-y,-z
1/2+x,1/2-y,z
loop_
_atom_site_type_symbol
_atom_site_label
_atom_site_fract_x
_atom_site_fract_y
_atom_site_fract_z
Si Si1 0.109595 0.795336 0.407749
Si Si2 0.647684 0.285936 0.548034
Si Si3 0.337446 0.793110 0.840944
Si Si4 0.583401 0.213820 0.879909
Si Si5 0.501659 0.715788 0.304359
Si Si6 0.263087 0.290978 0.264279
Si Si7 0.619375 0.217485 0.023827
O O1 0.101108 0.717036 0.490399
O O2 0.213039 0.791614 0.349152
O O3 0.058025 0.723766 0.356074
O O4 0.081244 0.000000 0.421895
O O5 0.638728 0.500000 0.551581
O O6 0.750000 0.250000 0.500000
O O7 0.596707 0.226667 0.637924
O O8 0.441153 0.786180 0.782064
O O9 0.285099 0.712581 0.791190
O O10 0.326878 0.715557 0.924895
O O11 0.312617 0.000000 0.852543
O O12 0.634442 0.273374 0.790858
O O13 0.482379 0.269275 0.924156
O O14 0.583883 0.000000 0.880029
O O15 0.633694 0.275646 0.936307
O O16 0.504169 0.500000 0.296929
O O17 0.244347 0.500000 0.277558
O O18 0.623047 0.000000 0.023274
#
# Coordination Sequence:
#
# PCOD9190792 Si02
#       7
#     8   8   8   8   8   8   8
#     4   9  18  35  56  72  92 130 172 201 233 285
#     4  10  21  35  52  76 103 129 160 201 245 287
#     4   9  18  33  51  72  99 129 161 199 245 293
#     4   9  17  32  53  72  93 128 170 204 237 285
#     4   9  18  34  54  74  96 125 165 207 241 280
#     4  10  20  32  48  74 104 128 155 200 252 293
#     4   8  16  32  52  71  93 127 170 206 235 281
#
# _framework density 26.679369999999999
#
# number of rings (size 3 to 8) (size 9 to 14) (size 15 to 20)
#    0.000    2.857    0.000    1.714    0.000    5.143 
#    0.000    7.143    0.000    4.286    0.000    0.000 
#    0.000    0.000    0.000    0.000    0.000    0.000 
#
# Total GULP energy -156482.526374 kJ/mol
# GULP energy per Si atom -5588.661656 kJ/mol
# Density = 2.661865 g / cm^3
# Si number density = 26.679370 Si / 1000 Ang^3
#
#
#
# Elastic Constant Matrix: (Units=GPa)
#
#
# Indices 1 2 3 4 5 6 
#
# 1 54.0529 -2.8494 15.3097 0.0000 -8.3143 0.0000
# 2 -2.8494 86.8755 -2.8506 0.0000 -1.9608 -0.0002
# 3 15.3097 -2.8506 180.8479 0.0000 -11.5202 0.0000
# 4 0.0000 0.0000 0.0000 11.1807 0.0000 -9.6541
# 5 -8.3143 -1.9608 -11.5202 0.0000 57.6572 0.0000
# 6 0.0000 -0.0002 0.0000 -9.6541 0.0000 11.1371
#
#
#
# Elastic Compliance Matrix: (Units=1/GPa)
#
#
# Indices 1 2 3 4 5 6 
#
# 1 0.019337 0.000643 -0.001466 0.000000 0.002517 0.000000
# 2 0.000643 0.011549 0.000161 0.000000 0.000518 0.000001
# 3 -0.001466 0.000161 0.005716 0.000000 0.000936 0.000000
# 4 0.000000 0.000000 0.000000 0.355607 0.000000 0.308255
# 5 0.002517 0.000518 0.000936 0.000000 0.017912 0.000000
# 6 0.000000 0.000001 0.000000 0.308255 0.000000 0.356998
#
#
# Mechanical properties :
#
#
# Convention : Reuss Voigt Hill
#
# Bulk Modulus (GPa) = 28.34831 37.88841 33.11836
# Shear Modulus (GPa) = 6.40859 36.80609 21.60734
#
# Velocity S-wave (km/s) = 1.55154 3.71829 2.84894
# Velocity P-wave (km/s) = 3.72268 5.71546 4.82311
#
# Compressibility (1/GPa) = 0.03527547
#
# Stress axis : x y z
#
# Youngs Moduli (GPa) = 51.71470 86.58936 174.95335
#
# Poissons Ratio (x) = -0.05567 0.25656
# Poissons Ratio (y) = -0.03325 -0.02809
# Poissons Ratio (z) = 0.07584 -0.01390
#
# Static dielectric constant tensor:
#      x y z
#    x 2.227360 0.000000 -0.018220 
#    y 0.000000 2.007620 0.000000 
#    z -0.018220 0.000000 2.068960 
# 
# From -- ./inp_files/313681.got.cif
#   From: 2010.05.17/outbox.cif.g08.bks.cpg/sg12_157_cif.got.tgz:313681.got - 2010.06.03 13:09:07.
