data_PCOD9190145
_publ_section_title
;
Structure prediction by ZEFSAII (Michael W. Deem and Ramdas Pophale) SiO2 
 PCOD9190145
Probable space group: C 2/M
;
_chemical_formula_sum "Si O2"
_cell_formula_units_Z 44
_cell_length_a 11.012240
_cell_length_b 14.364264
_cell_length_c 15.278317
_cell_angle_alpha 90.000000
_cell_angle_beta 119.431464
_cell_angle_gamma 90.000000
_cell_volume 2104.867896
_symmetry_space_group_name_H-M "C 2/M"
_symmetry_group_IT_number 12
_symmetry_cell_setting 'monoclinic'
loop_
_space_group_symop_operation_xyz
x,y,z
-x,y,-z
-x,-y,-z
x,-y,z
1/2+x,1/2+y,z
1/2-x,1/2+y,-z
1/2-x,1/2-y,-z
1/2+x,1/2-y,z
loop_
_atom_site_type_symbol
_atom_site_label
_atom_site_fract_x
_atom_site_fract_y
_atom_site_fract_z
Si Si1 0.688972 0.500000 0.919552
Si Si2 0.170975 0.666666 0.792053
Si Si3 0.369479 0.893235 0.737670
Si Si4 0.373141 0.500000 0.809018
Si Si5 0.341020 0.823572 0.926819
Si Si6 0.978535 0.000000 0.313976
Si Si7 0.599440 0.310316 0.613990
O O1 0.532542 0.500000 0.903774
O O2 0.781426 0.407957 0.964635
O O3 0.644828 0.500000 0.801630
O O4 0.287476 0.591113 0.807296
O O5 0.235618 0.737630 0.885820
O O6 0.120536 0.729909 0.692734
O O7 0.030538 0.619938 0.774975
O O8 0.346411 0.860832 0.828903
O O9 0.257651 0.835639 0.641598
O O10 0.333444 0.000000 0.712784
O O11 0.392906 0.500000 0.709754
O O12 0.500000 0.796296 0.000000
O O13 0.963805 0.905178 0.364185
O O14 0.500000 0.282859 0.500000
#
# Coordination Sequence:
#
# PCOD9190145 Si02
#       7
#     4   8   8   4   8   4   8
#     4  10  19  40  63  88 118 160 194 253 299 352
#     4  11  24  41  59  90 126 162 197 247 306 356
#     4  11  21  41  63  87 123 160 202 248 299 357
#     4  10  22  42  62  82 130 162 194 246 310 350
#     4  11  23  40  65  92 118 158 206 250 296 357
#     4  10  19  40  63  88 118 160 194 253 299 352
#     4  11  23  40  65  92 118 158 206 250 296 357
#
# _framework density 20.903924
#
# number of rings (size 3 to 8) (size 9 to 14) (size 15 to 20)
#    0.545    0.727    6.364    0.545   10.182    1.455 
#    0.000    0.909    0.000    0.000    0.000    0.000 
#    0.000    0.000    0.000    0.000    0.000    0.000 
#
# Total GULP energy -122786.285857 kJ/mol
# GULP energy per Si atom -5581.194812 kJ/mol
# Density = 2.085635 g / cm^3
# Si number density = 20.903924 Si / 1000 Ang^3
#
#
#
# Elastic Constant Matrix: (Units=GPa)
#
#
# Indices 1 2 3 4 5 6 
#
# 1 105.8505 19.3259 3.7448 0.0000 25.4066 0.0000
# 2 19.3259 88.7292 11.9713 0.0000 -0.0551 0.0000
# 3 3.7448 11.9713 84.0214 0.0000 22.5874 0.0000
# 4 0.0000 0.0000 0.0000 18.4428 0.0000 17.5244
# 5 25.4066 -0.0551 22.5874 0.0000 26.3337 0.0000
# 6 0.0000 0.0000 0.0000 17.5244 0.0000 39.9036
#
#
#
# Elastic Compliance Matrix: (Units=1/GPa)
#
#
# Indices 1 2 3 4 5 6 
#
# 1 0.014220 -0.003738 0.004665 0.000000 -0.017728 0.000000
# 2 -0.003738 0.012544 -0.003375 0.000000 0.006527 0.000000
# 3 0.004665 -0.003375 0.017398 0.000000 -0.019431 0.000000
# 4 0.000000 0.000000 0.000000 0.093053 0.000000 -0.040866
# 5 -0.017728 0.006527 -0.019431 0.000000 0.071758 0.000000
# 6 0.000000 0.000000 0.000000 -0.040866 0.000000 0.043007
#
#
# Mechanical properties :
#
#
# Convention : Reuss Voigt Hill
#
# Bulk Modulus (GPa) = 25.46793 38.74278 32.10535
# Shear Modulus (GPa) = 18.52092 33.17328 25.84710
#
# Velocity S-wave (km/s) = 2.97981 3.98796 3.52016
# Velocity P-wave (km/s) = 4.90396 6.30707 5.64924
#
# Compressibility (1/GPa) = 0.03926508
#
# Stress axis : x y z
#
# Youngs Moduli (GPa) = 70.32460 79.72087 57.47699
#
# Poissons Ratio (x) = 0.29796 -0.26810
# Poissons Ratio (y) = 0.26284 0.19401
# Poissons Ratio (z) = -0.32803 0.26909
#
# Static dielectric constant tensor:
#      x y z
#    x 1.763290 0.000000 -0.000800 
#    y 0.000000 1.753150 0.000000 
#    z -0.000800 0.000000 1.744860 
# 
# From -- ./inp_files/263093.got.cif
#   From: 2010.05.17/outbox.cif.g08.bks.cpg/sg12_132_cif.got.tgz:263093.got - 2010.06.03 13:09:07.
