data_PCOD9190876
_publ_section_title
;
Structure prediction by ZEFSAII (Michael W. Deem and Ramdas Pophale) SiO2 
 PCOD9190876
Probable space group: C 2/M
;
_chemical_formula_sum "Si O2"
_cell_formula_units_Z 56
_cell_length_a 33.780884
_cell_length_b 9.055906
_cell_length_c 12.696993
_cell_angle_alpha 90.000000
_cell_angle_beta 124.685852
_cell_angle_gamma 90.000000
_cell_volume 3193.934066
_symmetry_space_group_name_H-M "C 2/M"
_symmetry_group_IT_number 12
_symmetry_cell_setting 'monoclinic'
loop_
_space_group_symop_operation_xyz
x,y,z
-x,y,-z
-x,-y,-z
x,-y,z
1/2+x,1/2+y,z
1/2-x,1/2+y,-z
1/2-x,1/2-y,-z
1/2+x,1/2-y,z
loop_
_atom_site_type_symbol
_atom_site_label
_atom_site_fract_x
_atom_site_fract_y
_atom_site_fract_z
Si Si1 0.868567 0.823563 0.965950
Si Si2 0.504108 0.827619 0.334661
Si Si3 0.203365 0.675725 0.295324
Si Si4 0.185797 0.822857 0.487963
Si Si5 0.964324 0.673318 0.038816
Si Si6 0.394388 0.677569 0.464927
Si Si7 0.093173 0.177061 0.748824
O O1 0.822737 0.749073 0.843069
O O2 0.865097 0.000000 0.954476
O O3 0.915814 0.767015 0.975248
O O4 0.877743 0.780277 0.101918
O O5 0.491436 0.815116 0.191530
O O6 0.554241 0.748818 0.432814
O O7 0.459116 0.752568 0.325209
O O8 0.506839 0.000000 0.366344
O O9 0.196747 0.500000 0.283172
O O10 0.181232 0.742238 0.369279
O O11 0.260458 0.707466 0.387527
O O12 0.145782 0.776214 0.511780
O O13 0.182140 0.000000 0.466167
O O14 0.951982 0.500000 0.003553
O O15 0.000000 0.720451 0.000000
O O16 0.398664 0.500000 0.478426
O O17 0.382225 0.713661 0.324967
O O18 0.086283 0.000000 0.743113
#
# Coordination Sequence:
#
# PCOD9190876 Si02
#       7
#     8   8   8   8   8   8   8
#     4  10  20  34  54  77 102 136 177 212 254 308
#     4  10  20  32  49  76 108 140 174 212 256 304
#     4  10  20  36  57  78 106 137 168 212 269 317
#     4   9  20  37  56  80 104 133 174 217 258 312
#     4   9  19  34  49  71 105 139 172 211 256 306
#     4  10  20  35  55  76 103 137 177 217 257 304
#     4   9  19  36  54  74 103 142 178 212 253 304
#
# _framework density 17.533235000000001
#
# number of rings (size 3 to 8) (size 9 to 14) (size 15 to 20)
#    0.000    2.429    0.000    1.714    2.000    4.857 
#    0.000    0.714    0.000    0.000    0.000    0.000 
#    0.000    0.000    0.000    0.000    0.000    0.000 
#
# Total GULP energy -156246.762596 kJ/mol
# GULP energy per Si atom -5580.241521 kJ/mol
# Density = 1.749333 g / cm^3
# Si number density = 17.533235 Si / 1000 Ang^3
#
#
#
# Elastic Constant Matrix: (Units=GPa)
#
#
# Indices 1 2 3 4 5 6 
#
# 1 84.2486 29.1303 54.6341 0.0000 -13.3436 0.0000
# 2 29.1303 32.1096 39.3915 0.0000 2.5794 0.0000
# 3 54.6341 39.3915 85.4093 0.0000 9.0805 0.0000
# 4 0.0000 0.0000 0.0000 30.5476 0.0000 4.9040
# 5 -13.3436 2.5794 9.0805 0.0000 21.2138 0.0000
# 6 0.0000 0.0000 0.0000 4.9040 0.0000 22.5968
#
#
#
# Elastic Compliance Matrix: (Units=1/GPa)
#
#
# Indices 1 2 3 4 5 6 
#
# 1 0.032505 -0.005673 -0.021397 0.000000 0.030294 0.000000
# 2 -0.005673 0.073380 -0.030263 0.000000 0.000463 0.000000
# 3 -0.021397 -0.030263 0.042319 0.000000 -0.027893 0.000000
# 4 0.000000 0.000000 0.000000 0.033918 0.000000 -0.007361
# 5 0.030294 0.000463 -0.027893 0.000000 0.078078 0.000000
# 6 0.000000 0.000000 0.000000 -0.007361 0.000000 0.045851
#
#
# Mechanical properties :
#
#
# Convention : Reuss Voigt Hill
#
# Bulk Modulus (GPa) = 29.81873 49.78661 39.80267
# Shear Modulus (GPa) = 11.57686 20.11241 15.84463
#
# Velocity S-wave (km/s) = 2.57238 3.39056 3.00941
# Velocity P-wave (km/s) = 5.08594 6.61703 5.90135
#
# Compressibility (1/GPa) = 0.03353597
#
# Stress axis : x y z
#
# Youngs Moduli (GPa) = 30.76450 13.62774 23.63027
#
# Poissons Ratio (x) = 0.07732 0.50561
# Poissons Ratio (y) = 0.17454 0.71513
# Poissons Ratio (z) = 0.65826 0.41242
#
# Static dielectric constant tensor:
#      x y z
#    x 1.569600 0.000000 -0.015480 
#    y 0.000000 1.584020 0.000000 
#    z -0.015480 0.000000 1.605220 
# 
# From -- ./inp_files/186798.got.cif
#   From: 2010.05.17/outbox.cif.g08.bks.cpg/sg12_94_cif.got.tgz:186798.got - 2010.06.03 13:09:07.
