data_PCOD9190837
_publ_section_title
;
Structure prediction by ZEFSAII (Michael W. Deem and Ramdas Pophale) SiO2 
 PCOD9190837
Probable space group: C 2/M
;
_chemical_formula_sum "Si O2"
_cell_formula_units_Z 40
_cell_length_a 15.290844
_cell_length_b 7.527589
_cell_length_c 30.864137
_cell_angle_alpha 90.000000
_cell_angle_beta 30.722242
_cell_angle_gamma 90.000000
_cell_volume 1814.920331
_symmetry_space_group_name_H-M "C 2/M"
_symmetry_group_IT_number 12
_symmetry_cell_setting 'monoclinic'
loop_
_space_group_symop_operation_xyz
x,y,z
-x,y,-z
-x,-y,-z
x,-y,z
1/2+x,1/2+y,z
1/2-x,1/2+y,-z
1/2-x,1/2-y,-z
1/2+x,1/2-y,z
loop_
_atom_site_type_symbol
_atom_site_label
_atom_site_fract_x
_atom_site_fract_y
_atom_site_fract_z
Si Si1 0.731425 0.785023 0.277077
Si Si2 0.837709 0.717634 0.596896
Si Si3 0.567611 0.693090 0.096518
Si Si4 0.878210 0.715896 0.091429
Si Si5 0.966682 0.789408 0.727490
O O1 0.657235 0.729344 0.354832
O O2 0.612364 0.738679 0.286770
O O3 0.927638 0.715659 0.187366
O O4 0.744660 0.000000 0.271409
O O5 0.839501 0.500000 0.595283
O O6 0.656520 0.780631 0.654361
O O7 0.000000 0.777388 0.500000
O O8 0.602917 0.500000 0.101083
O O9 0.455820 0.693760 0.100547
O O10 0.750000 0.750000 0.000000
O O11 0.887411 0.500000 0.092680
O O12 0.679373 0.769613 0.176047
O O13 0.000000 0.763485 0.000000
O O14 0.979914 0.000000 0.728019
#
# Coordination Sequence:
#
# PCOD9190837 Si02
#       5
#     8   8   8   8   8
#     4   9  19  35  54  75 105 138 171 213 260 309
#     4   9  18  33  55  80 102 133 176 215 256 309
#     4  10  20  32  49  73 103 136 172 211 255 306
#     4   9  18  31  50  73 100 135 173 210 253 305
#     4   9  18  33  53  76 104 136 173 214 256 306
#
# _framework density 22.039534
#
# number of rings (size 3 to 8) (size 9 to 14) (size 15 to 20)
#    0.000    2.800    0.000    0.600    2.800    2.000 
#    0.000    1.000    0.000    1.200    0.000    0.000 
#    0.000    0.000    0.000    0.000    0.000    0.000 
#
# Total GULP energy -111429.143348 kJ/mol
# GULP energy per Si atom -5571.457167 kJ/mol
# Density = 2.198937 g / cm^3
# Si number density = 22.039534 Si / 1000 Ang^3
#
#
#
# Elastic Constant Matrix: (Units=GPa)
#
#
# Indices 1 2 3 4 5 6 
#
# 1 75.6720 -11.1286 81.3822 0.0007 -8.0148 -0.0036
# 2 -11.1286 46.1472 9.1300 0.0032 -3.5698 -0.0093
# 3 81.3822 9.1300 247.5894 0.0003 -0.8502 -0.0008
# 4 0.0007 0.0032 0.0003 6.1555 0.0003 -0.2473
# 5 -8.0148 -3.5698 -0.8502 0.0003 41.4884 0.0001
# 6 -0.0036 -0.0093 -0.0008 -0.2473 0.0001 17.3493
#
#
#
# Elastic Compliance Matrix: (Units=1/GPa)
#
#
# Indices 1 2 3 4 5 6 
#
# 1 0.023434 0.007616 -0.007966 -0.000006 0.005019 0.000008
# 2 0.007616 0.024449 -0.003393 -0.000013 0.003505 0.000014
# 3 -0.007966 -0.003393 0.006777 0.000002 -0.001692 -0.000003
# 4 -0.000006 -0.000013 0.000002 0.162548 -0.000003 0.002317
# 5 0.005019 0.003505 -0.001692 -0.000003 0.025340 0.000003
# 6 0.000008 0.000014 -0.000003 0.002317 0.000003 0.057672
#
#
# Mechanical properties :
#
#
# Convention : Reuss Voigt Hill
#
# Bulk Modulus (GPa) = 21.19885 58.68622 39.94253
# Shear Modulus (GPa) = 15.45926 32.33364 23.89645
#
# Velocity S-wave (km/s) = 2.65133 3.83440 3.29637
# Velocity P-wave (km/s) = 4.36030 6.80360 5.71407
#
# Compressibility (1/GPa) = 0.04717237
#
# Stress axis : x y z
#
# Youngs Moduli (GPa) = 42.67326 40.90197 147.56352
#
# Poissons Ratio (x) = -0.31149 1.17553
# Poissons Ratio (y) = -0.32498 0.50064
# Poissons Ratio (z) = 0.33995 0.13877
#
# Static dielectric constant tensor:
#      x y z
#    x 1.761870 0.000000 -0.018460 
#    y 0.000000 1.831490 0.000000 
#    z -0.018460 0.000000 1.857870 
# 
# From -- ./inp_files/211440.got.cif
#   From: 2010.05.17/outbox.cif.g08.bks.cpg/sg12_106_cif.got.tgz:211440.got - 2010.06.03 13:09:07.
