data_PCOD9190481
_publ_section_title
;
Structure prediction by ZEFSAII (Michael W. Deem and Ramdas Pophale) SiO2 
 PCOD9190481
Probable space group: C 2/M
;
_chemical_formula_sum "Si O2"
_cell_formula_units_Z 40
_cell_length_a 17.175466
_cell_length_b 21.038288
_cell_length_c 8.779214
_cell_angle_alpha 90.000000
_cell_angle_beta 136.605542
_cell_angle_gamma 90.000000
_cell_volume 2179.426307
_symmetry_space_group_name_H-M "C 2/M"
_symmetry_group_IT_number 12
_symmetry_cell_setting 'monoclinic'
loop_
_space_group_symop_operation_xyz
x,y,z
-x,y,-z
-x,-y,-z
x,-y,z
1/2+x,1/2+y,z
1/2-x,1/2+y,-z
1/2-x,1/2-y,-z
1/2+x,1/2-y,z
loop_
_atom_site_type_symbol
_atom_site_label
_atom_site_fract_x
_atom_site_fract_y
_atom_site_fract_z
Si Si1 0.923255 0.572682 0.046019
Si Si2 0.912145 0.336604 0.569290
Si Si3 0.988728 0.807819 0.663280
Si Si4 0.235726 0.668109 0.336175
Si Si5 0.721967 0.709415 0.110769
O O1 0.895770 0.500000 0.042953
O O2 0.998784 0.607302 0.281147
O O3 0.815130 0.615880 0.851072
O O4 0.000000 0.572927 0.000000
O O5 0.975960 0.268783 0.660060
O O6 0.831896 0.337725 0.603715
O O7 0.827029 0.334941 0.305847
O O8 0.870330 0.836760 0.550118
O O9 0.000000 0.821850 0.500000
O O10 0.103077 0.825039 0.913875
O O11 0.213047 0.737452 0.230682
O O12 0.750000 0.750000 0.000000
#
# Coordination Sequence:
#
# PCOD9190481 Si02
#       5
#     8   8   8   8   8
#     4   9  18  34  54  74 100 134 172 215 255 293
#     4  10  20  31  49  77 103 129 172 210 247 301
#     4  11  19  30  49  76 103 139 160 199 263 311
#     4  10  20  31  49  76 101 132 171 210 246 301
#     4  11  19  30  49  74 107 138 159 202 258 310
#
# _framework density 18.353453999999999
#
# number of rings (size 3 to 8) (size 9 to 14) (size 15 to 20)
#    0.000    1.800    6.000    2.400    0.000    2.400 
#    0.000    0.000    0.000    7.200    0.000    5.600 
#    0.000    0.000    0.000    0.000    0.000    0.000 
#
# Total GULP energy -111631.225625 kJ/mol
# GULP energy per Si atom -5581.561281 kJ/mol
# Density = 1.831168 g / cm^3
# Si number density = 18.353454 Si / 1000 Ang^3
#
#
#
# Elastic Constant Matrix: (Units=GPa)
#
#
# Indices 1 2 3 4 5 6 
#
# 1 59.2588 -0.8844 11.4505 0.0000 2.0214 0.0000
# 2 -0.8844 77.9851 47.4763 0.0000 10.8863 0.0000
# 3 11.4505 47.4763 151.3737 0.0000 17.5870 0.0000
# 4 0.0000 0.0000 0.0000 21.6550 0.0000 0.7153
# 5 2.0214 10.8863 17.5870 0.0000 25.5995 0.0000
# 6 0.0000 0.0000 0.0000 0.7153 0.0000 7.6750
#
#
#
# Elastic Compliance Matrix: (Units=1/GPa)
#
#
# Indices 1 2 3 4 5 6 
#
# 1 0.017234 0.001291 -0.001615 0.000000 -0.000800 0.000000
# 2 0.001291 0.016259 -0.004762 0.000000 -0.003745 0.000000
# 3 -0.001615 -0.004762 0.008663 0.000000 -0.003799 0.000000
# 4 0.000000 0.000000 0.000000 0.046321 0.000000 -0.004317
# 5 -0.000800 -0.003745 -0.003799 0.000000 0.043329 0.000000
# 6 0.000000 0.000000 0.000000 -0.004317 0.000000 0.130695
#
#
# Mechanical properties :
#
#
# Convention : Reuss Voigt Hill
#
# Bulk Modulus (GPa) = 31.26704 44.96694 38.11699
# Shear Modulus (GPa) = 17.64686 26.35758 22.00222
#
# Velocity S-wave (km/s) = 3.10417 3.79372 3.46613
# Velocity P-wave (km/s) = 5.47000 6.61388 6.06895
#
# Compressibility (1/GPa) = 0.03198257
#
# Stress axis : x y z
#
# Youngs Moduli (GPa) = 58.02541 61.50271 115.42913
#
# Poissons Ratio (x) = -0.07937 0.18647
# Poissons Ratio (y) = -0.07489 0.54969
# Poissons Ratio (z) = 0.09374 0.29288
#
# Static dielectric constant tensor:
#      x y z
#    x 1.677560 0.000000 -0.002810 
#    y 0.000000 1.595130 0.000000 
#    z -0.002810 0.000000 1.684190 
# 
# From -- ./inp_files/77768.got.cif
#   From: 2010.05.17/outbox.cif.g08.bks.cpg/sg12_39_cif.got.tgz:77768.got - 2010.06.03 13:09:07.
