data_PCOD9190699
_publ_section_title
;
Structure prediction by ZEFSAII (Michael W. Deem and Ramdas Pophale) SiO2 
 PCOD9190699
Probable space group: C 2/M
;
_chemical_formula_sum "Si O2"
_cell_formula_units_Z 64
_cell_length_a 24.116258
_cell_length_b 7.477396
_cell_length_c 23.655127
_cell_angle_alpha 90.000000
_cell_angle_beta 143.949361
_cell_angle_gamma 90.000000
_cell_volume 2510.337350
_symmetry_space_group_name_H-M "C 2/M"
_symmetry_group_IT_number 12
_symmetry_cell_setting 'monoclinic'
loop_
_space_group_symop_operation_xyz
x,y,z
-x,y,-z
-x,-y,-z
x,-y,z
1/2+x,1/2+y,z
1/2-x,1/2+y,-z
1/2-x,1/2-y,-z
1/2+x,1/2-y,z
loop_
_atom_site_type_symbol
_atom_site_label
_atom_site_fract_x
_atom_site_fract_y
_atom_site_fract_z
Si Si1 0.211888 0.298063 0.278037
Si Si2 0.288380 0.300179 0.225783
Si Si3 0.429804 0.712415 0.614070
Si Si4 0.494632 0.718532 0.930233
Si Si5 0.011966 0.709013 0.573643
Si Si6 0.861131 0.220308 0.173990
Si Si7 0.123837 0.288340 0.312444
Si Si8 0.412638 0.704266 0.099654
O O1 0.252279 0.500000 0.314603
O O2 0.253951 0.210520 0.255748
O O3 0.101887 0.298990 0.171709
O O4 0.204016 0.220903 0.335017
O O5 0.245972 0.500000 0.188984
O O6 0.399960 0.312334 0.328325
O O7 0.287844 0.220053 0.162075
O O8 0.430048 0.500000 0.613563
O O9 0.425041 0.771487 0.545047
O O10 0.533608 0.778497 0.720211
O O11 0.361341 0.765664 0.608526
O O12 0.490524 0.500000 0.923559
O O13 0.575888 0.780382 0.953864
O O14 0.500000 0.766462 0.000000
O O15 0.036701 0.500000 0.592032
O O16 0.000000 0.771211 0.500000
O O17 0.853780 0.284057 0.103168
O O18 0.858997 0.000000 0.172243
O O19 0.116002 0.500000 0.295639
O O20 0.022016 0.204003 0.212602
O O21 0.381649 0.500000 0.068277
#
# Coordination Sequence:
#
# PCOD9190699 Si02
#       8
#     8   8   8   8   8   8   8   8
#     4   9  18  30  45  67  93 121 151 187 231 275
#     4   9  17  30  47  67  91 119 153 187 224 275
#     4   9  16  27  44  65  88 116 150 184 220 264
#     4   9  17  28  43  64  89 118 153 193 235 278
#     4  10  20  32  47  70  97 121 147 184 229 269
#     4   7  11  21  39  60  79 103 138 180 217 252
#     4   9  15  24  40  63  89 113 142 185 231 266
#     4   8  13  23  39  59  82 109 146 188 227 268
#
# _framework density 25.494584
#
# number of rings (size 3 to 8) (size 9 to 14) (size 15 to 20)
#    0.000    3.250    0.000    2.625    0.000    2.250 
#    0.000    0.000    0.000    1.500    0.000    0.000 
#    0.000    0.000    0.000    0.000    0.000    0.000 
#
# Total GULP energy -178284.004942 kJ/mol
# GULP energy per Si atom -5571.375154 kJ/mol
# Density = 2.543656 g / cm^3
# Si number density = 25.494584 Si / 1000 Ang^3
#
#
#
# Elastic Constant Matrix: (Units=GPa)
#
#
# Indices 1 2 3 4 5 6 
#
# 1 277.9162 6.3588 51.1999 0.0000 -86.7800 0.0000
# 2 6.3588 91.3424 1.5761 0.0000 -6.1112 -0.0001
# 3 51.1999 1.5761 51.8160 0.0000 -12.0680 0.0000
# 4 0.0000 0.0000 0.0000 10.5043 0.0000 -15.2506
# 5 -86.7800 -6.1112 -12.0680 0.0000 60.1521 0.0000
# 6 0.0000 -0.0001 0.0000 -15.2506 0.0000 31.1066
#
#
#
# Elastic Compliance Matrix: (Units=1/GPa)
#
#
# Indices 1 2 3 4 5 6 
#
# 1 0.007720 0.000230 -0.005283 0.000000 0.010102 0.000000
# 2 0.000230 0.011030 -0.000235 0.000000 0.001405 0.000000
# 3 -0.005283 -0.000235 0.023861 0.000000 -0.002858 0.000000
# 4 0.000000 0.000000 0.000000 0.330319 0.000000 0.161945
# 5 0.010102 0.001405 -0.002858 0.000000 0.030767 0.000000
# 6 0.000000 0.000000 0.000000 0.161945 0.000000 0.111544
#
#
# Mechanical properties :
#
#
# Convention : Reuss Voigt Hill
#
# Bulk Modulus (GPa) = 31.21716 59.92715 45.57216
# Shear Modulus (GPa) = 9.31972 44.48189 26.90081
#
# Velocity S-wave (km/s) = 1.91403 4.18156 3.25184
# Velocity P-wave (km/s) = 4.14197 6.84623 5.65803
#
# Compressibility (1/GPa) = 0.03203366
#
# Stress axis : x y z
#
# Youngs Moduli (GPa) = 129.52603 90.66296 41.91009
#
# Poissons Ratio (x) = -0.02081 0.22141
# Poissons Ratio (y) = -0.02973 0.00986
# Poissons Ratio (z) = 0.68428 0.02132
#
# Static dielectric constant tensor:
#      x y z
#    x 2.173860 0.000000 -0.091030 
#    y 0.000000 1.957630 0.000000 
#    z -0.091030 0.000000 2.081920 
# 
# From -- ./inp_files/348612.got.cif
#   From: 2010.05.17/outbox.cif.g08.bks.cpg/sg12_175_cif.got.tgz:348612.got - 2010.06.03 13:09:07.
