data_PCOD9190505
_publ_section_title
;
Structure prediction by ZEFSAII (Michael W. Deem and Ramdas Pophale) SiO2 
 PCOD9190505
Probable space group: C 2/M
;
_chemical_formula_sum "Si O2"
_cell_formula_units_Z 40
_cell_length_a 21.342038
_cell_length_b 10.511800
_cell_length_c 19.696287
_cell_angle_alpha 90.000000
_cell_angle_beta 158.611344
_cell_angle_gamma 90.000000
_cell_volume 1611.476955
_symmetry_space_group_name_H-M "C 2/M"
_symmetry_group_IT_number 12
_symmetry_cell_setting 'monoclinic'
loop_
_space_group_symop_operation_xyz
x,y,z
-x,y,-z
-x,-y,-z
x,-y,z
1/2+x,1/2+y,z
1/2-x,1/2+y,-z
1/2-x,1/2-y,-z
1/2+x,1/2-y,z
loop_
_atom_site_type_symbol
_atom_site_label
_atom_site_fract_x
_atom_site_fract_y
_atom_site_fract_z
Si Si1 0.535584 0.354749 0.735222
Si Si2 0.884265 0.640783 0.491027
Si Si3 0.220255 0.285273 0.755874
Si Si4 0.582214 0.000000 0.196321
Si Si5 0.579854 0.761301 0.918431
Si Si6 0.764057 0.000000 0.244798
O O1 0.498873 0.500000 0.679189
O O2 0.415889 0.250004 0.578245
O O3 0.734748 0.321385 0.916765
O O4 0.526820 0.336487 0.807342
O O5 0.845286 0.500000 0.478678
O O6 0.069424 0.637814 0.639757
O O7 0.761374 0.677144 0.303908
O O8 0.383096 0.293884 0.969452
O O9 0.160632 0.136656 0.697227
O O10 0.732494 0.000000 0.293430
O O11 0.557010 0.125630 0.214533
O O12 0.413728 0.000000 0.976887
#
# Coordination Sequence:
#
# PCOD9190505 Si02
#       6
#     8   8   8   4   8   4
#     4  10  20  31  50  80 108 137 170 209 261 318
#     4  10  21  32  50  77 111 141 165 211 270 317
#     4   9  18  31  50  74 106 131 176 210 258 301
#     4   9  16  32  50  76 112 131 177 206 267 304
#     4   9  18  30  51  75 108 133 169 213 260 305
#     4   9  18  29  52  82  98 141 173 222 247 302
#
# _framework density 24.821950000000001
#
# number of rings (size 3 to 8) (size 9 to 14) (size 15 to 20)
#    0.000    2.600    1.000    1.200    7.000    6.400 
#    0.000    0.000    0.000    3.600    0.000   21.000 
#    0.000    0.000    0.000    0.000    0.000    0.000 
#
# Total GULP energy -111787.801736 kJ/mol
# GULP energy per Si atom -5589.390087 kJ/mol
# Density = 2.476545 g / cm^3
# Si number density = 24.821950 Si / 1000 Ang^3
#
#
#
# Elastic Constant Matrix: (Units=GPa)
#
#
# Indices 1 2 3 4 5 6 
#
# 1 53.9655 48.1966 53.9651 -0.0023 -14.7062 0.0012
# 2 48.1966 179.9983 56.2021 -0.0036 -31.5807 0.0045
# 3 53.9651 56.2021 91.7795 -0.0042 -33.5094 0.0016
# 4 -0.0023 -0.0036 -0.0042 28.3648 -0.0031 0.6460
# 5 -14.7062 -31.5807 -33.5094 -0.0031 41.9614 0.0006
# 6 0.0012 0.0045 0.0016 0.6460 0.0006 61.4520
#
#
#
# Elastic Compliance Matrix: (Units=1/GPa)
#
#
# Indices 1 2 3 4 5 6 
#
# 1 0.051681 -0.006214 -0.030598 -0.000002 -0.010999 0.000000
# 2 -0.006214 0.007816 0.000311 0.000001 0.003953 -0.000001
# 3 -0.030598 0.000311 0.035101 0.000005 0.017541 -0.000001
# 4 -0.000002 0.000001 0.000005 0.035263 0.000006 -0.000371
# 5 -0.010999 0.003953 0.017541 0.000006 0.036959 -0.000001
# 6 0.000000 -0.000001 -0.000001 -0.000371 -0.000001 0.016277
#
#
# Mechanical properties :
#
#
# Convention : Reuss Voigt Hill
#
# Bulk Modulus (GPa) = 46.30761 71.38565 58.84663
# Shear Modulus (GPa) = 18.98986 37.51429 28.25207
#
# Velocity S-wave (km/s) = 2.76894 3.89181 3.37737
# Velocity P-wave (km/s) = 5.37765 7.00117 6.24242
#
# Compressibility (1/GPa) = 0.02159473
#
# Stress axis : x y z
#
# Youngs Moduli (GPa) = 19.34958 127.94325 28.48916
#
# Poissons Ratio (x) = 0.79504 0.87172
# Poissons Ratio (y) = 0.12024 -0.00885
# Poissons Ratio (z) = 0.59206 -0.03976
#
# Static dielectric constant tensor:
#      x y z
#    x 1.990470 0.000000 -0.005370 
#    y 0.000000 1.960790 0.000000 
#    z -0.005370 0.000000 1.999760 
# 
# From -- ./inp_files/324440.got.cif
#   From: 2010.05.17/outbox.cif.g08.bks.cpg/sg12_163_cif.got.tgz:324440.got - 2010.06.03 13:09:07.
