data_PCOD9190768
_publ_section_title
;
Structure prediction by ZEFSAII (Michael W. Deem and Ramdas Pophale) SiO2 
 PCOD9190768
Probable space group: C 2/M
;
_chemical_formula_sum "Si O2"
_cell_formula_units_Z 60
_cell_length_a 5.282989
_cell_length_b 22.303336
_cell_length_c 28.876739
_cell_angle_alpha 90.000000
_cell_angle_beta 119.802876
_cell_angle_gamma 90.000000
_cell_volume 2952.483994
_symmetry_space_group_name_H-M "C 2/M"
_symmetry_group_IT_number 12
_symmetry_cell_setting 'monoclinic'
loop_
_space_group_symop_operation_xyz
x,y,z
-x,y,-z
-x,-y,-z
x,-y,z
1/2+x,1/2+y,z
1/2-x,1/2+y,-z
1/2-x,1/2-y,-z
1/2+x,1/2-y,z
loop_
_atom_site_type_symbol
_atom_site_label
_atom_site_fract_x
_atom_site_fract_y
_atom_site_fract_z
Si Si1 0.523596 0.327460 0.902803
Si Si2 0.500000 0.348397 0.000000
Si Si3 0.047991 0.568175 0.076879
Si Si4 0.619377 0.927784 0.283773
Si Si5 0.544713 0.282734 0.808589
Si Si6 0.289355 0.926790 0.345448
Si Si7 0.835503 0.426921 0.531709
Si Si8 0.572565 0.115034 0.177280
O O1 0.555108 0.309950 0.958852
O O2 0.674177 0.393266 0.913971
O O3 0.658650 0.288903 0.873025
O O4 0.186345 0.338683 0.858925
O O5 0.226840 0.392080 0.964344
O O6 0.040633 0.500000 0.059580
O O7 0.061389 0.568839 0.134073
O O8 0.424237 0.906774 0.308881
O O9 0.523301 0.908981 0.223808
O O10 0.954727 0.908112 0.320916
O O11 0.615194 0.000000 0.284464
O O12 0.222459 0.258429 0.788635
O O13 0.622067 0.349194 0.798053
O O14 0.491000 0.907817 0.406678
O O15 0.289460 0.000000 0.345198
O O16 0.500000 0.407448 0.500000
O O17 0.834484 0.500000 0.532194
O O18 0.000000 0.408371 0.500000
#
# Coordination Sequence:
#
# PCOD9190768 Si02
#       8
#     8   4   8   8   8   8   8   8
#     4  10  22  38  58  81 106 132 173 214 257 321
#     4  10  21  38  54  78 114 138 168 214 257 308
#     4  10  21  35  55  79 110 143 176 210 255 306
#     4  10  20  32  48  72 108 141 174 215 259 305
#     4  11  22  41  64  82 103 130 168 216 265 320
#     4   9  18  29  42  66  99 139 181 223 262 296
#     4   9  15  24  40  59  86 129 185 235 260 280
#     4  10  22  37  57  79 104 136 176 216 256 327
#
# _framework density 20.321870000000001
#
# number of rings (size 3 to 8) (size 9 to 14) (size 15 to 20)
#    0.000    2.133    1.333    1.800    3.733    6.933 
#    0.000    0.667    0.000    0.000    0.000    0.000 
#    0.000    0.000    0.000    0.000    0.000   46.667 
#
# Total GULP energy -167378.220811 kJ/mol
# GULP energy per Si atom -5579.274027 kJ/mol
# Density = 2.027562 g / cm^3
# Si number density = 20.321870 Si / 1000 Ang^3
#
#
#
# Elastic Constant Matrix: (Units=GPa)
#
#
# Indices 1 2 3 4 5 6 
#
# 1 126.1204 14.2784 40.3479 0.0000 -11.4569 0.0000
# 2 14.2784 25.1066 3.1526 0.0000 1.3332 0.0000
# 3 40.3479 3.1526 117.7105 0.0000 -11.9711 0.0000
# 4 0.0000 0.0000 0.0000 7.8201 0.0000 -1.5236
# 5 -11.4569 1.3332 -11.9711 0.0000 33.5486 0.0000
# 6 0.0000 0.0000 0.0000 -1.5236 0.0000 16.7148
#
#
#
# Elastic Compliance Matrix: (Units=1/GPa)
#
#
# Indices 1 2 3 4 5 6 
#
# 1 0.009687 -0.005273 -0.002928 0.000000 0.002473 0.000000
# 2 -0.005273 0.042970 0.000311 0.000000 -0.003397 0.000000
# 3 -0.002928 0.000311 0.009741 0.000000 0.002464 0.000000
# 4 0.000000 0.000000 0.000000 0.130187 0.000000 0.011867
# 5 0.002473 -0.003397 0.002464 0.000000 0.031666 0.000000
# 6 0.000000 0.000000 0.000000 0.011867 0.000000 0.060909
#
#
# Mechanical properties :
#
#
# Convention : Reuss Voigt Hill
#
# Bulk Modulus (GPa) = 21.45026 42.72169 32.08598
# Shear Modulus (GPa) = 15.79877 25.69393 20.74635
#
# Velocity S-wave (km/s) = 2.79126 3.55963 3.19860
# Velocity P-wave (km/s) = 4.57891 6.16139 5.42813
#
# Compressibility (1/GPa) = 0.04661948
#
# Stress axis : x y z
#
# Youngs Moduli (GPa) = 103.22919 23.27186 102.65666
#
# Poissons Ratio (x) = 0.12271 0.30056
# Poissons Ratio (y) = 0.54432 -0.03193
# Poissons Ratio (z) = 0.30223 -0.00724
#
# Static dielectric constant tensor:
#      x y z
#    x 1.787370 0.000000 0.012750 
#    y 0.000000 1.749930 0.000000 
#    z 0.012750 0.000000 1.722320 
# 
# From -- ./inp_files/331593.got.cif
#   From: 2010.05.17/outbox.cif.g08.bks.cpg/sg12_166_cif.got.tgz:331593.got - 2010.06.03 13:09:07.
