data_PCOD9190404
_publ_section_title
;
Structure prediction by ZEFSAII (Michael W. Deem and Ramdas Pophale) SiO2 
 PCOD9190404
Probable space group: C 2/M
;
_chemical_formula_sum "Si O2"
_cell_formula_units_Z 56
_cell_length_a 14.812889
_cell_length_b 21.025745
_cell_length_c 14.846786
_cell_angle_alpha 90.000000
_cell_angle_beta 26.898659
_cell_angle_gamma 90.000000
_cell_volume 2091.989446
_symmetry_space_group_name_H-M "C 2/M"
_symmetry_group_IT_number 12
_symmetry_cell_setting 'monoclinic'
loop_
_space_group_symop_operation_xyz
x,y,z
-x,y,-z
-x,-y,-z
x,-y,z
1/2+x,1/2+y,z
1/2-x,1/2+y,-z
1/2-x,1/2-y,-z
1/2+x,1/2-y,z
loop_
_atom_site_type_symbol
_atom_site_label
_atom_site_fract_x
_atom_site_fract_y
_atom_site_fract_z
Si Si1 0.759979 0.068887 0.216229
Si Si2 0.743780 0.428185 0.475975
Si Si3 0.766410 0.838152 0.365756
Si Si4 0.242480 0.069494 0.079134
Si Si5 0.744356 0.330305 0.934140
Si Si6 0.259732 0.241995 0.217580
Si Si7 0.772433 0.905759 0.711198
O O1 0.719154 0.099375 0.348479
O O2 0.674428 0.000000 0.278661
O O3 0.711482 0.117605 0.181676
O O4 0.000000 0.064655 0.000000
O O5 0.798995 0.500000 0.458949
O O6 0.803957 0.362929 0.474692
O O7 0.501089 0.427031 0.699582
O O8 0.810623 0.422165 0.312877
O O9 0.692107 0.782100 0.366336
O O10 0.004054 0.825515 0.159628
O O11 0.308394 0.133271 0.967943
O O12 0.311810 0.068758 0.120403
O O13 0.285291 0.000000 0.997953
O O14 0.810756 0.266818 0.819619
O O15 0.220858 0.169491 0.275072
O O16 0.500000 0.251380 0.000000
O O17 0.000000 0.928695 0.500000
#
# Coordination Sequence:
#
# PCOD9190404 Si02
#       7
#     8   8   8   8   8   8   8
#     4   8  11  16  30  55  85 111 135 171 222 269
#     4   9  16  27  44  66  91 117 146 185 230 266
#     4   8  14  24  40  62  87 114 144 180 221 264
#     4   9  16  27  44  66  91 117 146 185 230 266
#     4   8  14  24  40  62  87 114 144 180 221 264
#     4   9  18  32  47  66  92 120 150 182 220 265
#     4  10  20  31  45  67  93 121 153 184 214 260
#
# _framework density 26.768777
#
# number of rings (size 3 to 8) (size 9 to 14) (size 15 to 20)
#    0.000    3.286    0.000    3.000    0.000    6.286 
#    0.000    0.000    0.000    1.714    0.000    0.000 
#    0.000   19.429    0.000    0.000    0.000    0.000 
#
# Total GULP energy -156379.546469 kJ/mol
# GULP energy per Si atom -5584.983802 kJ/mol
# Density = 2.670785 g / cm^3
# Si number density = 26.768777 Si / 1000 Ang^3
#
#
#
# Elastic Constant Matrix: (Units=GPa)
#
#
# Indices 1 2 3 4 5 6 
#
# 1 86.2875 18.3975 28.7847 -0.0122 5.1204 0.0028
# 2 18.3975 176.6997 17.5860 0.0572 28.8989 -0.0298
# 3 28.7847 17.5860 143.6741 -0.0315 13.0569 0.0093
# 4 -0.0122 0.0572 -0.0315 26.1912 0.0427 12.4353
# 5 5.1204 28.8989 13.0569 0.0427 50.8758 -0.0149
# 6 0.0028 -0.0298 0.0093 12.4353 -0.0149 17.4220
#
#
#
# Elastic Compliance Matrix: (Units=1/GPa)
#
#
# Indices 1 2 3 4 5 6 
#
# 1 0.012618 -0.001068 -0.002393 0.000010 -0.000049 -0.000010
# 2 -0.001068 0.006358 -0.000252 -0.000020 -0.003439 0.000022
# 3 -0.002393 -0.000252 0.007613 0.000021 -0.001570 -0.000020
# 4 0.000010 -0.000020 0.000021 0.057753 -0.000056 -0.041222
# 5 -0.000049 -0.003439 -0.001570 -0.000056 0.022017 0.000054
# 6 -0.000010 0.000022 -0.000020 -0.041222 0.000054 0.086822
#
#
# Mechanical properties :
#
#
# Convention : Reuss Voigt Hill
#
# Bulk Modulus (GPa) = 52.17884 59.57750 55.87817
# Shear Modulus (GPa) = 24.15531 41.69069 32.92300
#
# Velocity S-wave (km/s) = 3.00720 3.95072 3.51080
# Velocity P-wave (km/s) = 5.62072 6.56624 6.11179
#
# Compressibility (1/GPa) = 0.01916486
#
# Stress axis : x y z
#
# Youngs Moduli (GPa) = 79.25230 157.28080 131.35261
#
# Poissons Ratio (x) = 0.16790 0.31430
# Poissons Ratio (y) = 0.08460 0.03307
# Poissons Ratio (z) = 0.18964 0.03960
#
# Static dielectric constant tensor:
#      x y z
#    x 2.140470 -0.000060 -0.048850 
#    y -0.000060 2.035390 0.000080 
#    z -0.048850 0.000080 2.107950 
# 
# From -- ./inp_files/79078.got.cif
#   From: 2010.05.17/outbox.cif.g08.bks.cpg/sg12_40_cif.got.tgz:79078.got - 2010.06.03 13:09:07.
