data_PCOD9190678
_publ_section_title
;
Structure prediction by ZEFSAII (Michael W. Deem and Ramdas Pophale) SiO2 
 PCOD9190678
Probable space group: C 2/M
;
_chemical_formula_sum "Si O2"
_cell_formula_units_Z 48
_cell_length_a 28.557727
_cell_length_b 9.459048
_cell_length_c 11.414262
_cell_angle_alpha 90.000000
_cell_angle_beta 102.413071
_cell_angle_gamma 90.000000
_cell_volume 3011.244153
_symmetry_space_group_name_H-M "C 2/M"
_symmetry_group_IT_number 12
_symmetry_cell_setting 'monoclinic'
loop_
_space_group_symop_operation_xyz
x,y,z
-x,y,-z
-x,-y,-z
x,-y,z
1/2+x,1/2+y,z
1/2-x,1/2+y,-z
1/2-x,1/2-y,-z
1/2+x,1/2-y,z
loop_
_atom_site_type_symbol
_atom_site_label
_atom_site_fract_x
_atom_site_fract_y
_atom_site_fract_z
Si Si1 0.103257 0.167401 0.959700
Si Si2 0.268733 0.668025 0.337494
Si Si3 0.319209 0.330844 0.606395
Si Si4 0.510476 0.162672 0.865385
Si Si5 0.793212 0.830700 0.085634
Si Si6 0.917479 0.167351 0.776128
O O1 0.060384 0.255161 0.878242
O O2 0.155464 0.208985 0.941136
O O3 0.096356 0.000000 0.933446
O O4 0.099508 0.187313 0.098067
O O5 0.258659 0.500000 0.337034
O O6 0.304306 0.700881 0.464611
O O7 0.219853 0.752735 0.334386
O O8 0.290613 0.699656 0.222777
O O9 0.315144 0.500000 0.622173
O O10 0.373085 0.290867 0.670130
O O11 0.465679 0.243853 0.784541
O O12 0.513473 0.000000 0.829844
O O13 0.500000 0.164592 0.000000
O O14 0.787507 0.000000 0.066598
O O15 0.750000 0.750000 0.000000
O O16 0.927342 0.000000 0.766639
#
# Coordination Sequence:
#
# PCOD9190678 Si02
#       6
#     8   8   8   8   8   8
#     4   9  17  29  44  63  89 119 148 179 219 267
#     4   9  18  31  46  67  94 121 151 188 226 263
#     4   9  17  30  48  68  91 120 153 187 224 268
#     4   9  17  28  43  65  90 113 141 182 228 267
#     4  10  20  32  47  68  94 123 153 185 222 267
#     4   9  16  27  45  66  87 114 148 183 220 266
#
# _framework density 15.940255000000001
#
# number of rings (size 3 to 8) (size 9 to 14) (size 15 to 20)
#    0.000    2.833    0.000    1.500    0.000    5.333 
#    0.000    3.333    0.000    1.000    0.000    7.000 
#    0.000    0.000    0.000    0.000    0.000    0.000 
#
# Total GULP energy -133750.080350 kJ/mol
# GULP energy per Si atom -5572.920015 kJ/mol
# Density = 1.590397 g / cm^3
# Si number density = 15.940255 Si / 1000 Ang^3
#
#
#
# Elastic Constant Matrix: (Units=GPa)
#
#
# Indices 1 2 3 4 5 6 
#
# 1 156.1729 68.9580 55.2558 0.0000 24.4950 0.0000
# 2 68.9580 48.7003 35.3075 0.0000 13.1283 0.0000
# 3 55.2558 35.3075 46.6654 0.0000 13.2007 0.0000
# 4 0.0000 0.0000 0.0000 17.4803 0.0000 4.7801
# 5 24.4950 13.1283 13.2007 0.0000 29.8124 0.0000
# 6 0.0000 0.0000 0.0000 4.7801 0.0000 29.7457
#
#
#
# Elastic Compliance Matrix: (Units=1/GPa)
#
#
# Indices 1 2 3 4 5 6 
#
# 1 0.017779 -0.021461 -0.003836 0.000000 -0.003459 0.000000
# 2 -0.021461 0.072185 -0.028809 0.000000 -0.001398 0.000000
# 3 -0.003836 -0.028809 0.049486 0.000000 -0.006074 0.000000
# 4 0.000000 0.000000 0.000000 0.059837 0.000000 -0.009616
# 5 -0.003459 -0.001398 -0.006074 0.000000 0.039690 0.000000
# 6 0.000000 0.000000 0.000000 -0.009616 0.000000 0.035163
#
#
# Mechanical properties :
#
#
# Convention : Reuss Voigt Hill
#
# Bulk Modulus (GPa) = 32.01099 63.39792 47.70446
# Shear Modulus (GPa) = 12.73030 21.54218 17.13624
#
# Velocity S-wave (km/s) = 2.82906 3.68017 3.28232
# Velocity P-wave (km/s) = 5.54950 7.61031 6.66009
#
# Compressibility (1/GPa) = 0.03123927
#
# Stress axis : x y z
#
# Youngs Moduli (GPa) = 56.24661 13.85329 20.20773
#
# Poissons Ratio (x) = 0.29731 0.07751
# Poissons Ratio (y) = 1.20711 0.58216
# Poissons Ratio (z) = 0.21574 0.39909
#
# Static dielectric constant tensor:
#      x y z
#    x 1.508260 0.000000 0.005050 
#    y 0.000000 1.532780 0.000000 
#    z 0.005050 0.000000 1.528470 
# 
# From -- ./inp_files/172188.got.cif
#   From: 2010.05.17/outbox.cif.g08.bks.cpg/sg12_87_cif.got.tgz:172188.got - 2010.06.03 13:09:07.
