data_PCOD9190610
_publ_section_title
;
Structure prediction by ZEFSAII (Michael W. Deem and Ramdas Pophale) SiO2 
 PCOD9190610
Probable space group: C 2/M
;
_chemical_formula_sum "Si O2"
_cell_formula_units_Z 56
_cell_length_a 16.113831
_cell_length_b 7.316119
_cell_length_c 17.526102
_cell_angle_alpha 90.000000
_cell_angle_beta 100.400773
_cell_angle_gamma 90.000000
_cell_volume 2032.215447
_symmetry_space_group_name_H-M "C 2/M"
_symmetry_group_IT_number 12
_symmetry_cell_setting 'monoclinic'
loop_
_space_group_symop_operation_xyz
x,y,z
-x,y,-z
-x,-y,-z
x,-y,z
1/2+x,1/2+y,z
1/2-x,1/2+y,-z
1/2-x,1/2-y,-z
1/2+x,1/2-y,z
loop_
_atom_site_type_symbol
_atom_site_label
_atom_site_fract_x
_atom_site_fract_y
_atom_site_fract_z
Si Si1 0.823129 0.282413 0.951347
Si Si2 0.124718 0.722865 0.757523
Si Si3 0.560490 0.222965 0.901770
Si Si4 0.381398 0.781010 0.806502
Si Si5 0.990506 0.718866 0.619172
Si Si6 0.639852 0.218205 0.517733
Si Si7 0.737275 0.715502 0.340308
O O1 0.830691 0.500000 0.945092
O O2 0.818872 0.213261 0.863951
O O3 0.750000 0.250000 0.000000
O O4 0.906015 0.216185 0.011004
O O5 0.125433 0.500000 0.755975
O O6 0.199334 0.787486 0.715212
O O7 0.125313 0.777939 0.845375
O O8 0.036458 0.781716 0.703492
O O9 0.470856 0.281565 0.854171
O O10 0.558211 0.000000 0.904623
O O11 0.352006 0.736118 0.716267
O O12 0.384446 0.000000 0.805512
O O13 0.978623 0.500000 0.625323
O O14 0.904263 0.792640 0.566594
O O15 0.065797 0.744504 0.569070
O O16 0.725281 0.288979 0.573199
O O17 0.646699 0.000000 0.508689
O O18 0.751156 0.500000 0.348751
#
# Coordination Sequence:
#
# PCOD9190610 Si02
#       7
#     8   8   8   8   8   8   8
#     4  10  20  34  52  71  90 113 143 180 219 258
#     4   8  13  22  41  67  88 109 144 188 224 252
#     4   9  17  30  46  63  87 119 150 177 210 258
#     4  10  20  32  46  65  90 120 149 175 210 259
#     4   7   9  15  30  57  88 109 133 177 224 256
#     4   7  10  17  32  57  87 112 135 173 223 261
#     4   9  16  27  45  68  91 115 145 183 224 258
#
# _framework density 27.556132999999999
#
# number of rings (size 3 to 8) (size 9 to 14) (size 15 to 20)
#    0.000    3.429    0.000    3.857    0.000    3.429 
#    0.000    0.714    0.000    3.429    0.000    8.000 
#    0.000    0.000    0.000    0.000    0.000    0.000 
#
# Total GULP energy -156426.680237 kJ/mol
# GULP energy per Si atom -5586.667151 kJ/mol
# Density = 2.749341 g / cm^3
# Si number density = 27.556133 Si / 1000 Ang^3
#
#
#
# Elastic Constant Matrix: (Units=GPa)
#
#
# Indices 1 2 3 4 5 6 
#
# 1 82.0157 -7.0863 36.3985 0.0000 9.9095 0.0000
# 2 -7.0863 111.3259 7.7435 0.0000 -2.4552 0.0000
# 3 36.3985 7.7435 235.5268 0.0000 -3.6968 0.0000
# 4 0.0000 0.0000 0.0000 5.1538 0.0000 5.1783
# 5 9.9095 -2.4552 -3.6968 0.0000 56.6045 0.0000
# 6 0.0000 0.0000 0.0000 5.1783 0.0000 3.8972
#
#
#
# Elastic Compliance Matrix: (Units=1/GPa)
#
#
# Indices 1 2 3 4 5 6 
#
# 1 0.013533 0.000957 -0.002162 0.000000 -0.002469 0.000000
# 2 0.000957 0.009079 -0.000443 0.000000 0.000197 0.000000
# 3 -0.002162 -0.000443 0.004605 0.000000 0.000660 0.000000
# 4 0.000000 0.000000 0.000000 -0.579121 0.000000 0.769491
# 5 -0.002469 0.000197 0.000660 0.000000 0.018150 0.000000
# 6 0.000000 0.000000 0.000000 0.769491 0.000000 -0.765845
#
#
# Mechanical properties :
#
#
# Convention : Reuss Voigt Hill
#
# Bulk Modulus (GPa) = 41.80355 55.88664 48.84510
# Shear Modulus (GPa) = -3.88099 39.25196 17.68548
#
# Velocity S-wave (km/s) = -1.18805 3.77827 2.53612
# Velocity P-wave (km/s) = 3.64984 6.27366 5.13226
#
# Compressibility (1/GPa) = 0.02392141
#
# Stress axis : x y z
#
# Youngs Moduli (GPa) = 73.89275 110.14719 217.16488
#
# Poissons Ratio (x) = -0.10545 0.46943
# Poissons Ratio (y) = -0.07074 0.09628
# Poissons Ratio (z) = 0.15973 0.04883
#
# Static dielectric constant tensor:
#      x y z
#    x 2.281720 0.000000 0.014800 
#    y 0.000000 2.082330 0.000000 
#    z 0.014800 0.000000 2.317650 
# 
# From -- ./inp_files/315411.got.cif
#   From: 2010.05.17/outbox.cif.g08.bks.cpg/sg12_158_cif.got.tgz:315411.got - 2010.06.03 13:09:07.
