data_PCOD9190526
_publ_section_title
;
Structure prediction by ZEFSAII (Michael W. Deem and Ramdas Pophale) SiO2 
 PCOD9190526
Probable space group: C 2/M
;
_chemical_formula_sum "Si O2"
_cell_formula_units_Z 64
_cell_length_a 5.238354
_cell_length_b 30.302523
_cell_length_c 19.991700
_cell_angle_alpha 90.000000
_cell_angle_beta 92.601440
_cell_angle_gamma 90.000000
_cell_volume 3170.118946
_symmetry_space_group_name_H-M "C 2/M"
_symmetry_group_IT_number 12
_symmetry_cell_setting 'monoclinic'
loop_
_space_group_symop_operation_xyz
x,y,z
-x,y,-z
-x,-y,-z
x,-y,z
1/2+x,1/2+y,z
1/2-x,1/2+y,-z
1/2-x,1/2-y,-z
1/2+x,1/2-y,z
loop_
_atom_site_type_symbol
_atom_site_label
_atom_site_fract_x
_atom_site_fract_y
_atom_site_fract_z
Si Si1 0.741976 0.052945 0.457116
Si Si2 0.745915 0.637302 0.264505
Si Si3 0.752276 0.591085 0.690340
Si Si4 0.197395 0.548316 0.941266
Si Si5 0.702559 0.952343 0.177529
Si Si6 0.586857 0.275698 0.895670
Si Si7 0.460512 0.374997 0.881127
Si Si8 0.527128 0.728323 0.733366
O O1 0.500000 0.064649 0.500000
O O2 0.734382 0.076141 0.385438
O O3 0.000000 0.063971 0.500000
O O4 0.738075 0.000000 0.446523
O O5 0.539029 0.602986 0.292483
O O6 0.733247 0.636053 0.182873
O O7 0.618259 0.683249 0.283973
O O8 0.032945 0.628391 0.292089
O O9 0.836954 0.553870 0.744532
O O10 0.324402 0.500000 0.948798
O O11 0.347704 0.593811 0.937065
O O12 0.051740 0.546603 0.868924
O O13 0.000000 0.551004 0.000000
O O14 0.843324 0.908847 0.151935
O O15 0.833155 0.000000 0.167587
O O16 0.845453 0.251480 0.920070
O O17 0.569681 0.328307 0.907485
O O18 0.566417 0.271345 0.814347
O O19 0.813547 0.735522 0.710572
#
# Coordination Sequence:
#
# PCOD9190526 Si02
#       8
#     8   8   8   8   8   8   8   8
#     4  10  21  37  55  77 109 150 189 222 264 321
#     4  10  20  31  52  81 113 145 184 229 282 333
#     4  11  20  35  54  82 115 147 182 234 275 327
#     4  10  21  37  56  80 111 148 196 244 286 342
#     4  10  21  35  55  83 112 149 191 235 291 342
#     4   9  19  31  53  80 108 143 184 230 287 347
#     4  10  20  34  55  78 115 146 191 237 296 339
#     4   9  16  28  45  71 108 144 174 219 278 333
#
# _framework density 20.188518999999999
#
# number of rings (size 3 to 8) (size 9 to 14) (size 15 to 20)
#    0.000    2.125    1.250    2.250    1.750    3.500 
#    0.000    3.125    0.000    0.750    0.000    0.000 
#    0.000   35.000    0.000    0.000    0.000    0.000 
#
# Total GULP energy -178434.271938 kJ/mol
# GULP energy per Si atom -5576.070998 kJ/mol
# Density = 2.014257 g / cm^3
# Si number density = 20.188519 Si / 1000 Ang^3
#
#
#
# Elastic Constant Matrix: (Units=GPa)
#
#
# Indices 1 2 3 4 5 6 
#
# 1 76.0245 23.1855 22.3522 0.0000 1.7453 0.0000
# 2 23.1855 127.1837 21.6703 0.0000 -1.1429 0.0000
# 3 22.3522 21.6703 83.0776 0.0000 0.5627 0.0000
# 4 0.0000 0.0000 0.0000 13.3610 0.0000 4.0691
# 5 1.7453 -1.1429 0.5627 0.0000 24.8935 0.0000
# 6 0.0000 0.0000 0.0000 4.0691 0.0000 30.8873
#
#
#
# Elastic Compliance Matrix: (Units=1/GPa)
#
#
# Indices 1 2 3 4 5 6 
#
# 1 0.014836 -0.002130 -0.003429 0.000000 -0.001060 0.000000
# 2 -0.002130 0.008539 -0.001658 0.000000 0.000579 0.000000
# 3 -0.003429 -0.001658 0.013393 0.000000 -0.000138 0.000000
# 4 0.000000 0.000000 0.000000 0.077973 0.000000 -0.010272
# 5 -0.001060 0.000579 -0.000138 0.000000 0.040275 0.000000
# 6 0.000000 0.000000 0.000000 -0.010272 0.000000 0.033729
#
#
# Mechanical properties :
#
#
# Convention : Reuss Voigt Hill
#
# Bulk Modulus (GPa) = 44.77554 46.74465 45.76009
# Shear Modulus (GPa) = 23.73918 28.43357 26.08637
#
# Velocity S-wave (km/s) = 3.43282 3.75694 3.59853
# Velocity P-wave (km/s) = 6.15948 6.48258 6.32309
#
# Compressibility (1/GPa) = 0.02233362
#
# Stress axis : x y z
#
# Youngs Moduli (GPa) = 67.40516 117.11472 74.66631
#
# Poissons Ratio (x) = 0.24944 0.25602
# Poissons Ratio (y) = 0.14356 0.12381
# Poissons Ratio (z) = 0.23112 0.19419
#
# Static dielectric constant tensor:
#      x y z
#    x 1.773850 0.000000 -0.012310 
#    y 0.000000 1.780390 0.000000 
#    z -0.012310 0.000000 1.682170 
# 
# From -- ./inp_files/254020.got.cif
#   From: 2010.05.17/outbox.cif.g08.bks.cpg/sg12_128_cif.got.tgz:254020.got - 2010.06.03 13:09:07.
