data_PCOD9191245
_publ_section_title
;
Structure prediction by ZEFSAII (Michael W. Deem and Ramdas Pophale) SiO2 
 PCOD9191245
Probable space group: C 2/M
;
_chemical_formula_sum "Si O2"
_cell_formula_units_Z 42
_cell_length_a 11.944024
_cell_length_b 14.063756
_cell_length_c 14.288691
_cell_angle_alpha 90.000000
_cell_angle_beta 82.464785
_cell_angle_gamma 90.000000
_cell_volume 2379.456536
_symmetry_space_group_name_H-M "C 2/M"
_symmetry_group_IT_number 12
_symmetry_cell_setting 'monoclinic'
loop_
_space_group_symop_operation_xyz
x,y,z
-x,y,-z
-x,-y,-z
x,-y,z
1/2+x,1/2+y,z
1/2-x,1/2+y,-z
1/2-x,1/2-y,-z
1/2+x,1/2-y,z
loop_
_atom_site_type_symbol
_atom_site_label
_atom_site_fract_x
_atom_site_fract_y
_atom_site_fract_z
Si Si1 0.942253 0.609913 0.904969
Si Si2 0.000000 0.000000 0.500000
Si Si3 0.180996 0.889968 0.169593
Si Si4 0.672964 0.610873 0.956718
Si Si5 0.612861 0.754720 0.804156
Si Si6 0.046267 0.101223 0.685149
O O1 0.964698 0.500000 0.877045
O O2 0.808168 0.621147 0.928682
O O3 0.001510 0.680993 0.826762
O O4 0.000000 0.625929 0.000000
O O5 0.025185 0.081459 0.578678
O O6 0.280552 0.823322 0.194498
O O7 0.073597 0.887819 0.248939
O O8 0.221292 0.000000 0.159658
O O9 0.149083 0.863082 0.066877
O O10 0.642051 0.500000 0.946624
O O11 0.615360 0.679282 0.888913
O O12 0.615971 0.692039 0.710091
O O13 0.097567 0.000000 0.714892
#
# Coordination Sequence:
#
# PCOD9191245 Si02
#       6
#     8   2   8   8   8   8
#     4  10  20  33  46  70 117 166 173 193 251 300
#     4   8  20  48  60  66 106 132 162 232 320 322
#     4  10  20  33  49  78 110 144 174 211 250 313
#     4  10  21  32  45  74 122 147 175 215 243 297
#     4  12  20  30  54  85 103 143 190 211 244 309
#     4   9  21  38  59  73 101 137 171 224 287 326
#
# _framework density 17.651091000000001
#
# number of rings (size 3 to 8) (size 9 to 14) (size 15 to 20)
#    0.571    1.333    1.905    2.857    2.667    0.000 
#    0.000    3.810    0.000    0.000    0.000    1.333 
#    0.000    0.000    0.000    0.000    0.000    0.000 
#
# Total GULP energy -116994.854738 kJ/mol
# GULP energy per Si atom -5571.183559 kJ/mol
# Density = 1.761092 g / cm^3
# Si number density = 17.651091 Si / 1000 Ang^3
#
#
#
# Elastic Constant Matrix: (Units=GPa)
#
#
# Indices 1 2 3 4 5 6 
#
# 1 42.7752 18.5003 7.5705 0.0000 5.5768 0.0000
# 2 18.5003 87.1102 29.6346 0.0000 16.3597 0.0000
# 3 7.5705 29.6346 78.1462 0.0000 29.7723 0.0000
# 4 0.0000 0.0000 0.0000 24.4009 0.0000 11.5305
# 5 5.5768 16.3597 29.7723 0.0000 14.2427 0.0000
# 6 0.0000 0.0000 0.0000 11.5305 0.0000 23.2432
#
#
#
# Elastic Compliance Matrix: (Units=1/GPa)
#
#
# Indices 1 2 3 4 5 6 
#
# 1 0.026482 -0.004316 0.005564 0.000000 -0.017042 0.000000
# 2 -0.004316 0.015627 0.003372 0.000000 -0.023309 0.000000
# 3 0.005564 0.003372 0.065243 0.000000 -0.142434 0.000000
# 4 0.000000 0.000000 0.000000 0.053531 0.000000 -0.026556
# 5 -0.017042 -0.023309 -0.142434 0.000000 0.401394 0.000000
# 6 0.000000 0.000000 0.000000 -0.026556 0.000000 0.056197
#
#
# Mechanical properties :
#
#
# Convention : Reuss Voigt Hill
#
# Bulk Modulus (GPa) = 8.57690 35.49360 22.03525
# Shear Modulus (GPa) = 7.71489 22.53245 15.12367
#
# Velocity S-wave (km/s) = 2.09291 3.57676 2.93031
# Velocity P-wave (km/s) = 3.27262 6.09997 4.89488
#
# Compressibility (1/GPa) = 0.11659227
#
# Stress axis : x y z
#
# Youngs Moduli (GPa) = 37.76149 63.99332 15.32726
#
# Poissons Ratio (x) = 0.27623 -0.08529
# Poissons Ratio (y) = 0.16300 -0.05169
# Poissons Ratio (z) = -0.21012 -0.21581
#
# Static dielectric constant tensor:
#      x y z
#    x 1.622050 0.000000 -0.005240 
#    y 0.000000 1.665430 0.000000 
#    z -0.005240 0.000000 1.564970 
# 
# From -- ./inp_files/142072.got.cif
#   From: 2010.05.17/outbox.cif.g08.bks.cpg/sg12_72_cif.got.tgz:142072.got - 2010.06.03 13:09:07.
