data_PCOD9191386
_publ_section_title
;
Structure prediction by ZEFSAII (Michael W. Deem and Ramdas Pophale) SiO2 
 PCOD9191386
Probable space group: C 2/M
;
_chemical_formula_sum "Si O2"
_cell_formula_units_Z 64
_cell_length_a 29.119119
_cell_length_b 8.776119
_cell_length_c 14.645703
_cell_angle_alpha 90.000000
_cell_angle_beta 87.067679
_cell_angle_gamma 90.000000
_cell_volume 3737.850654
_symmetry_space_group_name_H-M "C 2/M"
_symmetry_group_IT_number 12
_symmetry_cell_setting 'monoclinic'
loop_
_space_group_symop_operation_xyz
x,y,z
-x,y,-z
-x,-y,-z
x,-y,z
1/2+x,1/2+y,z
1/2-x,1/2+y,-z
1/2-x,1/2-y,-z
1/2+x,1/2-y,z
loop_
_atom_site_type_symbol
_atom_site_label
_atom_site_fract_x
_atom_site_fract_y
_atom_site_fract_z
Si Si1 0.552076 0.813950 0.518340
Si Si2 0.525497 0.181362 0.181900
Si Si3 0.671953 0.679997 0.190748
Si Si4 0.858524 0.317989 0.138458
Si Si5 0.595894 0.319705 0.040920
Si Si6 0.070057 0.314279 0.722222
Si Si7 0.101557 0.318542 0.331464
Si Si8 0.760568 0.819269 0.098438
O O1 0.500000 0.766679 0.500000
O O2 0.566121 0.763043 0.618001
O O3 0.585802 0.767034 0.433174
O O4 0.551924 0.000000 0.518189
O O5 0.549486 0.265036 0.095101
O O6 0.474908 0.234055 0.215931
O O7 0.558605 0.203755 0.266558
O O8 0.524397 0.000000 0.163147
O O9 0.680711 0.500000 0.192145
O O10 0.637075 0.710339 0.109597
O O11 0.644651 0.733783 0.282917
O O12 0.718946 0.767913 0.167589
O O13 0.853013 0.500000 0.138584
O O14 0.884141 0.270211 0.228714
O O15 0.809365 0.241728 0.128091
O O16 0.891428 0.269851 0.051473
O O17 0.594631 0.500000 0.023564
O O18 0.068394 0.500000 0.720951
O O19 0.110697 0.500000 0.332332
O O20 0.762230 0.000000 0.090013
O O21 0.750000 0.750000 0.000000
#
# Coordination Sequence:
#
# PCOD9191386 Si02
#       8
#     8   8   8   8   8   8   8   8
#     4   9  14  26  51  82 110 137 175 223 264 303
#     4   9  16  29  49  74 105 139 179 217 256 307
#     4  10  20  34  53  77 107 138 171 215 264 313
#     4  11  22  35  52  75 107 143 178 217 263 314
#     4  10  20  33  49  71 103 141 180 217 259 312
#     4   9  18  31  49  77 109 143 180 219 264 313
#     4   9  16  27  51  82 108 136 173 219 264 305
#     4  12  23  37  58  81 104 132 173 218 265 316
#
# _framework density 17.122140000000002
#
# number of rings (size 3 to 8) (size 9 to 14) (size 15 to 20)
#    0.000    2.125    2.500    2.250    0.000    1.500 
#    0.000    3.750    0.000    3.375    0.000    0.000 
#    0.000    0.000    0.000    0.000    0.000    0.000 
#
# Total GULP energy -178600.257869 kJ/mol
# GULP energy per Si atom -5581.258058 kJ/mol
# Density = 1.708317 g / cm^3
# Si number density = 17.122140 Si / 1000 Ang^3
#
#
#
# Elastic Constant Matrix: (Units=GPa)
#
#
# Indices 1 2 3 4 5 6 
#
# 1 106.8426 41.5791 69.5582 0.0000 -0.1162 0.0000
# 2 41.5791 46.4042 40.6114 0.0000 1.9521 0.0000
# 3 69.5582 40.6114 112.8185 0.0000 -2.6586 0.0000
# 4 0.0000 0.0000 0.0000 12.8539 0.0000 -4.3509
# 5 -0.1162 1.9521 -2.6586 0.0000 22.5216 0.0000
# 6 0.0000 0.0000 0.0000 -4.3509 0.0000 21.6557
#
#
#
# Elastic Compliance Matrix: (Units=1/GPa)
#
#
# Indices 1 2 3 4 5 6 
#
# 1 0.018067 -0.009401 -0.007755 0.000000 -0.000007 0.000000
# 2 -0.009401 0.036730 -0.007523 0.000000 -0.004120 0.000000
# 3 -0.007755 -0.007523 0.016413 0.000000 0.002550 0.000000
# 4 0.000000 0.000000 0.000000 0.083474 0.000000 0.016771
# 5 -0.000007 -0.004120 0.002550 0.000000 0.045060 0.000000
# 6 0.000000 0.000000 0.000000 0.016771 0.000000 0.049547
#
#
# Mechanical properties :
#
#
# Convention : Reuss Voigt Hill
#
# Bulk Modulus (GPa) = 45.76120 63.28475 54.52298
# Shear Modulus (GPa) = 16.34343 19.02736 17.68539
#
# Velocity S-wave (km/s) = 3.09288 3.33719 3.21736
# Velocity P-wave (km/s) = 6.28800 7.20348 6.76125
#
# Compressibility (1/GPa) = 0.02185257
#
# Stress axis : x y z
#
# Youngs Moduli (GPa) = 55.34937 27.22561 60.92581
#
# Poissons Ratio (x) = 0.25595 0.47250
# Poissons Ratio (y) = 0.52033 0.45833
# Poissons Ratio (z) = 0.42925 0.20481
#
# Static dielectric constant tensor:
#      x y z
#    x 1.571990 0.000000 0.002110 
#    y 0.000000 1.576530 0.000000 
#    z 0.002110 0.000000 1.578510 
# 
# From -- ./inp_files/248331.got.cif
#   From: 2010.05.17/outbox.cif.g08.bks.cpg/sg12_125_cif.got.tgz:248331.got - 2010.06.03 13:09:07.
