data_PCOD9191022
_publ_section_title
;
Structure prediction by ZEFSAII (Michael W. Deem and Ramdas Pophale) SiO2 
 PCOD9191022
Probable space group: C 2/M
;
_chemical_formula_sum "Si O2"
_cell_formula_units_Z 56
_cell_length_a 11.297739
_cell_length_b 19.532185
_cell_length_c 15.431213
_cell_angle_alpha 90.000000
_cell_angle_beta 119.301513
_cell_angle_gamma 90.000000
_cell_volume 2969.524965
_symmetry_space_group_name_H-M "C 2/M"
_symmetry_group_IT_number 12
_symmetry_cell_setting 'monoclinic'
loop_
_space_group_symop_operation_xyz
x,y,z
-x,y,-z
-x,-y,-z
x,-y,z
1/2+x,1/2+y,z
1/2-x,1/2+y,-z
1/2-x,1/2-y,-z
1/2+x,1/2-y,z
loop_
_atom_site_type_symbol
_atom_site_label
_atom_site_fract_x
_atom_site_fract_y
_atom_site_fract_z
Si Si1 0.136877 0.922117 0.297135
Si Si2 0.787205 0.813046 0.347035
Si Si3 0.407781 0.834795 0.386030
Si Si4 0.362931 0.193611 0.006409
Si Si5 0.982215 0.302364 0.225184
Si Si6 0.636368 0.350054 0.806010
Si Si7 0.646331 0.574092 0.507050
O O1 0.265714 0.874332 0.327065
O O2 0.127324 0.922185 0.398044
O O3 0.993923 0.893079 0.211362
O O4 0.159081 0.000000 0.275709
O O5 0.878391 0.746009 0.391735
O O6 0.639568 0.787441 0.266909
O O7 0.834260 0.861491 0.284927
O O8 0.780924 0.859016 0.430292
O O9 0.500000 0.859446 0.500000
O O10 0.470392 0.840229 0.312522
O O11 0.271070 0.145203 0.912547
O O12 0.500000 0.216090 0.000000
O O13 0.250000 0.250000 0.000000
O O14 0.420459 0.163427 0.117128
O O15 0.907625 0.229677 0.208591
O O16 0.500000 0.575324 0.500000
O O17 0.711612 0.500000 0.550909
#
# Coordination Sequence:
#
# PCOD9191022 Si02
#       7
#     8   8   8   8   8   8   8
#     4  11  23  40  59  82 121 166 207 250 302 372
#     4  11  19  33  58  85 121 149 194 247 301 358
#     4  11  24  37  57  89 121 163 204 251 305 364
#     4  10  20  35  60  92 125 161 199 257 317 372
#     4  10  21  35  56  88 121 153 194 248 309 360
#     4  10  20  34  57  87 117 149 201 245 305 363
#     4  10  20  32  51  82 114 153 198 239 293 357
#
# _framework density 18.858236000000002
#
# number of rings (size 3 to 8) (size 9 to 14) (size 15 to 20)
#    0.000    1.571    4.286    1.286    2.000    1.429 
#    0.000    0.714    0.000    3.000    0.000    0.000 
#    0.000    0.000    0.000    0.000    0.000    0.000 
#
# Total GULP energy -155893.634407 kJ/mol
# GULP energy per Si atom -5567.629800 kJ/mol
# Density = 1.881531 g / cm^3
# Si number density = 18.858236 Si / 1000 Ang^3
#
#
#
# Elastic Constant Matrix: (Units=GPa)
#
#
# Indices 1 2 3 4 5 6 
#
# 1 85.1634 13.3144 32.6135 0.0000 9.5552 0.0000
# 2 13.3144 34.3806 21.0567 0.0000 -3.6191 0.0000
# 3 32.6135 21.0567 109.7659 0.0000 12.7920 0.0000
# 4 0.0000 0.0000 0.0000 8.4909 0.0000 0.3209
# 5 9.5552 -3.6191 12.7920 0.0000 26.6568 0.0000
# 6 0.0000 0.0000 0.0000 0.3209 0.0000 9.8406
#
#
#
# Elastic Compliance Matrix: (Units=1/GPa)
#
#
# Indices 1 2 3 4 5 6 
#
# 1 0.013950 -0.004081 -0.002875 0.000000 -0.004174 0.000000
# 2 -0.004081 0.035825 -0.006776 0.000000 0.009578 0.000000
# 3 -0.002875 -0.006776 0.011918 0.000000 -0.005609 0.000000
# 4 0.000000 0.000000 0.000000 0.117918 0.000000 -0.003845
# 5 -0.004174 0.009578 -0.005609 0.000000 0.043002 0.000000
# 6 0.000000 0.000000 0.000000 -0.003845 0.000000 0.101745
#
#
# Mechanical properties :
#
#
# Convention : Reuss Voigt Hill
#
# Bulk Modulus (GPa) = 29.21566 40.36434 34.79000
# Shear Modulus (GPa) = 13.76531 19.81935 16.79233
#
# Velocity S-wave (km/s) = 2.70466 3.24538 2.98728
# Velocity P-wave (km/s) = 5.02787 5.95767 5.51241
#
# Compressibility (1/GPa) = 0.03422822
#
# Stress axis : x y z
#
# Youngs Moduli (GPa) = 71.68672 27.91364 83.90566
#
# Poissons Ratio (x) = 0.11390 0.24126
# Poissons Ratio (y) = 0.29252 0.56856
# Poissons Ratio (z) = 0.20613 0.18915
#
# Static dielectric constant tensor:
#      x y z
#    x 1.734340 0.000000 -0.012410 
#    y 0.000000 1.659460 0.000000 
#    z -0.012410 0.000000 1.690440 
# 
# From -- ./inp_files/177939.got.cif
#   From: 2010.05.17/outbox.cif.g08.bks.cpg/sg12_89_cif.got.tgz:177939.got - 2010.06.03 13:09:07.
