data_PCOD9191292
_publ_section_title
;
Structure prediction by ZEFSAII (Michael W. Deem and Ramdas Pophale) SiO2 
 PCOD9191292
Probable space group: C 2/M
;
_chemical_formula_sum "Si O2"
_cell_formula_units_Z 48
_cell_length_a 20.061898
_cell_length_b 7.947307
_cell_length_c 16.289187
_cell_angle_alpha 90.000000
_cell_angle_beta 102.129528
_cell_angle_gamma 90.000000
_cell_volume 2539.135991
_symmetry_space_group_name_H-M "C 2/M"
_symmetry_group_IT_number 12
_symmetry_cell_setting 'monoclinic'
loop_
_space_group_symop_operation_xyz
x,y,z
-x,y,-z
-x,-y,-z
x,-y,z
1/2+x,1/2+y,z
1/2-x,1/2+y,-z
1/2-x,1/2-y,-z
1/2+x,1/2-y,z
loop_
_atom_site_type_symbol
_atom_site_label
_atom_site_fract_x
_atom_site_fract_y
_atom_site_fract_z
Si Si1 0.681770 0.800801 0.530972
Si Si2 0.917182 0.797523 0.633863
Si Si3 0.025677 0.794156 0.095003
Si Si4 0.809844 0.297179 0.281092
Si Si5 0.450847 0.297487 0.240701
Si Si6 0.840762 0.205155 0.780131
O O1 0.750000 0.750000 0.500000
O O2 0.616185 0.755799 0.459730
O O3 0.680957 0.731306 0.623273
O O4 0.684271 0.000000 0.538953
O O5 0.868322 0.744707 0.697019
O O6 0.992961 0.738277 0.677743
O O7 0.917899 0.000000 0.634320
O O8 0.102291 0.741287 0.139623
O O9 0.977327 0.741346 0.158157
O O10 0.025305 0.000000 0.093757
O O11 0.000000 0.735838 0.000000
O O12 0.806227 0.500000 0.283587
O O13 0.875130 0.252881 0.244409
O O14 0.736575 0.237074 0.228892
O O15 0.453998 0.500000 0.241114
O O16 0.840916 0.000000 0.780898
#
# Coordination Sequence:
#
# PCOD9191292 Si02
#       6
#     8   8   8   8   8   8
#     4  11  21  32  49  72  97 130 171 209 241 282
#     4   9  17  33  51  68  95 131 170 206 241 283
#     4   8  14  28  53  78  95 120 163 206 240 287
#     4  10  20  33  48  68 100 136 162 195 247 299
#     4   9  19  33  51  74 101 129 160 205 249 286
#     4   8  14  28  48  68  94 129 164 195 239 293
#
# _framework density 18.904069
#
# number of rings (size 3 to 8) (size 9 to 14) (size 15 to 20)
#    0.000    2.833    1.667    2.500    0.000    2.667 
#    0.000    4.167    0.000    0.500    0.000    0.000 
#    0.000    0.000    0.000    0.000    0.000    0.000 
#
# Total GULP energy -133800.547047 kJ/mol
# GULP energy per Si atom -5575.022794 kJ/mol
# Density = 1.886104 g / cm^3
# Si number density = 18.904069 Si / 1000 Ang^3
#
#
#
# Elastic Constant Matrix: (Units=GPa)
#
#
# Indices 1 2 3 4 5 6 
#
# 1 189.1363 9.4889 94.6042 0.0000 12.0360 0.0000
# 2 9.4889 14.7108 9.0010 0.0000 2.3116 0.0000
# 3 94.6042 9.0010 142.6817 0.0000 25.7635 0.0000
# 4 0.0000 0.0000 0.0000 12.0973 0.0000 -2.5999
# 5 12.0360 2.3116 25.7635 0.0000 22.5213 0.0000
# 6 0.0000 0.0000 0.0000 -2.5999 0.0000 25.7497
#
#
#
# Elastic Compliance Matrix: (Units=1/GPa)
#
#
# Indices 1 2 3 4 5 6 
#
# 1 0.008064 -0.002122 -0.005639 0.000000 0.002359 0.000000
# 2 -0.002122 0.071397 -0.002494 0.000000 -0.003341 0.000000
# 3 -0.005639 -0.002494 0.013000 0.000000 -0.011601 0.000000
# 4 0.000000 0.000000 0.000000 0.084497 0.000000 0.008531
# 5 0.002359 -0.003341 -0.011601 0.000000 0.056756 0.000000
# 6 0.000000 0.000000 0.000000 0.008531 0.000000 0.039697
#
#
# Mechanical properties :
#
#
# Convention : Reuss Voigt Hill
#
# Bulk Modulus (GPa) = 13.89826 63.63525 38.76675
# Shear Modulus (GPa) = 15.72804 27.63597 21.68201
#
# Velocity S-wave (km/s) = 2.88756 3.82764 3.39034
# Velocity P-wave (km/s) = 4.29945 7.29861 5.98978
#
# Compressibility (1/GPa) = 0.07195146
#
# Stress axis : x y z
#
# Youngs Moduli (GPa) = 124.00699 14.00618 76.92556
#
# Poissons Ratio (x) = 0.02972 0.43377
# Poissons Ratio (y) = 0.26314 0.19183
# Poissons Ratio (z) = 0.69926 0.03493
#
# Static dielectric constant tensor:
#      x y z
#    x 1.640740 0.000000 0.024040 
#    y 0.000000 1.693550 0.000000 
#    z 0.024040 0.000000 1.648750 
# 
# From -- ./inp_files/221708.got.cif
#   From: 2010.05.17/outbox.cif.g08.bks.cpg/sg12_111_cif.got.tgz:221708.got - 2010.06.03 13:09:07.
