data_PCOD9191815
_publ_section_title
;
Structure prediction by ZEFSAII (Michael W. Deem and Ramdas Pophale) SiO2 
 PCOD9191815
Probable space group: C 2/M
;
_chemical_formula_sum "Si O2"
_cell_formula_units_Z 48
_cell_length_a 27.411430
_cell_length_b 17.506036
_cell_length_c 6.685517
_cell_angle_alpha 90.000000
_cell_angle_beta 120.236414
_cell_angle_gamma 90.000000
_cell_volume 2771.696014
_symmetry_space_group_name_H-M "C 2/M"
_symmetry_group_IT_number 12
_symmetry_cell_setting 'monoclinic'
loop_
_space_group_symop_operation_xyz
x,y,z
-x,y,-z
-x,-y,-z
x,-y,z
1/2+x,1/2+y,z
1/2-x,1/2+y,-z
1/2-x,1/2-y,-z
1/2+x,1/2-y,z
loop_
_atom_site_type_symbol
_atom_site_label
_atom_site_fract_x
_atom_site_fract_y
_atom_site_fract_z
Si Si1 0.369367 0.912674 0.505772
Si Si2 0.327485 0.710627 0.728507
Si Si3 0.739988 0.589129 0.151018
Si Si4 0.251515 0.690956 0.189559
Si Si5 0.559761 0.916425 0.737142
Si Si6 0.935671 0.292759 0.914784
O O1 0.302659 0.896731 0.370626
O O2 0.390493 0.912561 0.321192
O O3 0.406216 0.848847 0.691780
O O4 0.378811 0.000000 0.599000
O O5 0.303458 0.641659 0.814329
O O6 0.301803 0.702913 0.452523
O O7 0.302402 0.787011 0.785684
O O8 0.394130 0.721523 0.856752
O O9 0.727135 0.500000 0.144543
O O10 0.743560 0.612782 0.923754
O O11 0.250000 0.750000 0.000000
O O12 0.500000 0.914112 0.500000
O O13 0.562226 0.000000 0.843947
O O14 0.562916 0.845682 0.888054
O O15 0.000000 0.272579 0.000000
#
# Coordination Sequence:
#
# PCOD9191815 Si02
#       6
#     8   8   8   8   8   8
#     4  10  20  33  51  78 108 139 179 215 254 315
#     4  10  21  35  53  79 109 139 176 224 270 316
#     4  10  21  37  58  82 106 138 178 225 276 323
#     4   9  17  34  56  77 105 138 171 219 276 320
#     4  10  20  34  49  71 107 147 180 212 248 300
#     4  12  22  33  51  75 108 148 183 212 256 309
#
# _framework density 17.317914999999999
#
# number of rings (size 3 to 8) (size 9 to 14) (size 15 to 20)
#    0.000    1.833    1.667    4.500    0.000    2.667 
#    0.000    4.167    0.000    0.500    0.000    1.167 
#    0.000    0.000    0.000    0.000    0.000    0.000 
#
# Total GULP energy -133818.573340 kJ/mol
# GULP energy per Si atom -5575.773889 kJ/mol
# Density = 1.727850 g / cm^3
# Si number density = 17.317915 Si / 1000 Ang^3
#
#
#
# Elastic Constant Matrix: (Units=GPa)
#
#
# Indices 1 2 3 4 5 6 
#
# 1 128.7277 61.2551 42.7121 0.0000 19.7954 0.0000
# 2 61.2551 80.5211 32.1944 0.0000 4.6710 0.0000
# 3 42.7121 32.1944 87.0953 0.0000 -3.0949 0.0000
# 4 0.0000 0.0000 0.0000 24.2225 0.0000 4.2021
# 5 19.7954 4.6710 -3.0949 0.0000 21.7806 0.0000
# 6 0.0000 0.0000 0.0000 4.2021 0.0000 26.8220
#
#
#
# Elastic Compliance Matrix: (Units=1/GPa)
#
#
# Indices 1 2 3 4 5 6 
#
# 1 0.015808 -0.009369 -0.004752 0.000000 -0.013033 0.000000
# 2 -0.009369 0.020465 -0.002838 0.000000 0.003723 0.000000
# 3 -0.004752 -0.002838 0.015112 0.000000 0.007075 0.000000
# 4 0.000000 0.000000 0.000000 0.042437 0.000000 -0.006648
# 5 -0.013033 0.003723 0.007075 0.000000 0.057964 0.000000
# 6 0.000000 0.000000 0.000000 -0.006648 0.000000 0.038324
#
#
# Mechanical properties :
#
#
# Convention : Reuss Voigt Hill
#
# Bulk Modulus (GPa) = 57.25033 63.18525 60.21779
# Shear Modulus (GPa) = 21.75315 25.24384 23.49850
#
# Velocity S-wave (km/s) = 3.54800 3.82209 3.68759
# Velocity P-wave (km/s) = 7.06503 7.48615 7.27864
#
# Compressibility (1/GPa) = 0.01746715
#
# Stress axis : x y z
#
# Youngs Moduli (GPa) = 63.26077 48.86303 66.17078
#
# Poissons Ratio (x) = 0.45782 0.31444
# Poissons Ratio (y) = 0.59272 0.18778
# Poissons Ratio (z) = 0.30061 0.13866
#
# Static dielectric constant tensor:
#      x y z
#    x 1.602350 0.000000 -0.004490 
#    y 0.000000 1.618230 0.000000 
#    z -0.004490 0.000000 1.613580 
# 
# From -- ./inp_files/20971.got.cif
#   From: 2010.05.17/outbox.cif.g08.bks.cpg/sg12_11_cif.got.tgz:20971.got - 2010.06.03 13:09:07.
