data_PCOD9191802
_publ_section_title
;
Structure prediction by ZEFSAII (Michael W. Deem and Ramdas Pophale) SiO2 
 PCOD9191802
Probable space group: C 2/M
;
_chemical_formula_sum "Si O2"
_cell_formula_units_Z 56
_cell_length_a 20.070205
_cell_length_b 7.925125
_cell_length_c 18.820461
_cell_angle_alpha 90.000000
_cell_angle_beta 133.160679
_cell_angle_gamma 90.000000
_cell_volume 2183.618262
_symmetry_space_group_name_H-M "C 2/M"
_symmetry_group_IT_number 12
_symmetry_cell_setting 'monoclinic'
loop_
_space_group_symop_operation_xyz
x,y,z
-x,y,-z
-x,-y,-z
x,-y,z
1/2+x,1/2+y,z
1/2-x,1/2+y,-z
1/2-x,1/2-y,-z
1/2+x,1/2-y,z
loop_
_atom_site_type_symbol
_atom_site_label
_atom_site_fract_x
_atom_site_fract_y
_atom_site_fract_z
Si Si1 0.615472 0.693395 0.647849
Si Si2 0.452343 0.799427 0.620954
Si Si3 0.282087 0.197658 0.417613
Si Si4 0.891865 0.206045 0.781992
Si Si5 0.779314 0.309927 0.141392
Si Si6 0.932851 0.194480 0.160829
Si Si7 0.099334 0.302634 0.058267
O O1 0.601686 0.500000 0.616612
O O2 0.519805 0.773441 0.602875
O O3 0.666394 0.784971 0.620674
O O4 0.676434 0.697724 0.764390
O O5 0.352402 0.732097 0.526856
O O6 0.501693 0.705624 0.721501
O O7 0.449861 0.000000 0.634790
O O8 0.180675 0.266721 0.329813
O O9 0.272612 0.000000 0.426769
O O10 0.858385 0.274796 0.832590
O O11 0.995835 0.265329 0.844638
O O12 0.892221 0.000000 0.783086
O O13 0.791601 0.500000 0.175646
O O14 0.840465 0.285494 0.116295
O O15 0.672000 0.274642 0.057242
O O16 0.912184 0.000000 0.130806
O O17 0.090196 0.500000 0.036593
O O18 0.000000 0.222501 0.000000
#
# Coordination Sequence:
#
# PCOD9191802 Si02
#       7
#     8   8   8   8   8   8   8
#     4  11  20  31  51  80 113 151 198 248 296 340
#     4  10  20  33  51  77 113 159 203 244 291 342
#     4  10  20  34  52  78 114 155 200 246 293 344
#     4  10  22  40  62  87 118 158 197 240 294 352
#     4  11  21  37  62  88 117 156 197 236 289 351
#     4  10  21  38  59  85 120 159 202 245 288 339
#     4  11  24  42  66  96 123 146 183 238 293 349
#
# _framework density 25.645510000000002
#
# number of rings (size 3 to 8) (size 9 to 14) (size 15 to 20)
#    0.000    1.571    1.429    6.000    0.000    5.714 
#    0.000    0.714    0.000    0.000    0.000    0.000 
#    0.000    0.000    0.000    0.000    0.000    0.000 
#
# Total GULP energy -156696.660677 kJ/mol
# GULP energy per Si atom -5596.309310 kJ/mol
# Density = 2.558714 g / cm^3
# Si number density = 25.645510 Si / 1000 Ang^3
#
#
#
# Elastic Constant Matrix: (Units=GPa)
#
#
# Indices 1 2 3 4 5 6 
#
# 1 135.9573 3.2979 28.4931 0.0000 25.5134 0.0000
# 2 3.2979 82.2301 2.7799 0.0000 13.2060 0.0000
# 3 28.4931 2.7799 98.4879 0.0000 25.6523 0.0000
# 4 0.0000 0.0000 0.0000 23.3092 0.0000 -3.5884
# 5 25.5134 13.2060 25.6523 0.0000 51.6119 0.0000
# 6 0.0000 0.0000 0.0000 -3.5884 0.0000 16.7076
#
#
#
# Elastic Compliance Matrix: (Units=1/GPa)
#
#
# Indices 1 2 3 4 5 6 
#
# 1 0.008309 0.000267 -0.001521 0.000000 -0.003420 0.000000
# 2 0.000267 0.012718 0.000512 0.000000 -0.003641 0.000000
# 3 -0.001521 0.000512 0.011966 0.000000 -0.005327 0.000000
# 4 0.000000 0.000000 0.000000 0.044368 0.000000 0.009529
# 5 -0.003420 -0.003641 -0.005327 0.000000 0.024645 0.000000
# 6 0.000000 0.000000 0.000000 0.009529 0.000000 0.061900
#
#
# Mechanical properties :
#
#
# Convention : Reuss Voigt Hill
#
# Bulk Modulus (GPa) = 31.73513 42.86859 37.30186
# Shear Modulus (GPa) = 28.42638 37.13270 32.77954
#
# Velocity S-wave (km/s) = 3.33293 3.80929 3.57904
# Velocity P-wave (km/s) = 5.21657 6.00830 5.62638
#
# Compressibility (1/GPa) = 0.03151082
#
# Stress axis : x y z
#
# Youngs Moduli (GPa) = 120.34744 78.63085 83.56687
#
# Poissons Ratio (x) = -0.02103 0.12708
# Poissons Ratio (y) = -0.03218 -0.04278
# Poissons Ratio (z) = 0.18301 -0.04025
#
# Static dielectric constant tensor:
#      x y z
#    x 2.026500 0.000000 0.000510 
#    y 0.000000 1.866160 0.000000 
#    z 0.000510 0.000000 2.123900 
# 
# From -- ./inp_files/348623.got.cif
#   From: 2010.05.17/outbox.cif.g08.bks.cpg/sg12_175_cif.got.tgz:348623.got - 2010.06.03 13:09:07.
