data_PCOD9191336
_publ_section_title
;
Structure prediction by ZEFSAII (Michael W. Deem and Ramdas Pophale) SiO2 
 PCOD9191336
Probable space group: C 2/M
;
_chemical_formula_sum "Si O2"
_cell_formula_units_Z 56
_cell_length_a 19.879665
_cell_length_b 7.459080
_cell_length_c 24.218480
_cell_angle_alpha 90.000000
_cell_angle_beta 51.414965
_cell_angle_gamma 90.000000
_cell_volume 2807.191862
_symmetry_space_group_name_H-M "C 2/M"
_symmetry_group_IT_number 12
_symmetry_cell_setting 'monoclinic'
loop_
_space_group_symop_operation_xyz
x,y,z
-x,y,-z
-x,-y,-z
x,-y,z
1/2+x,1/2+y,z
1/2-x,1/2+y,-z
1/2-x,1/2-y,-z
1/2+x,1/2-y,z
loop_
_atom_site_type_symbol
_atom_site_label
_atom_site_fract_x
_atom_site_fract_y
_atom_site_fract_z
Si Si1 0.349567 0.786618 0.939136
Si Si2 0.303450 0.219435 0.652762
Si Si3 0.952277 0.289343 0.782716
Si Si4 0.580687 0.208923 0.501412
Si Si5 0.505155 0.292548 0.936313
Si Si6 0.457320 0.779906 0.655534
Si Si7 0.388713 0.282773 0.221550
O O1 0.384100 0.716587 0.862360
O O2 0.412354 0.712625 0.954265
O O3 0.362866 0.000000 0.932825
O O4 0.250000 0.750000 0.000000
O O5 0.340174 0.283066 0.574699
O O6 0.372637 0.270783 0.664094
O O7 0.207624 0.277798 0.716432
O O8 0.303801 0.000000 0.651084
O O9 0.932821 0.500000 0.786681
O O10 0.952896 0.216143 0.720569
O O11 0.044420 0.269566 0.764985
O O12 0.500000 0.214030 0.500000
O O13 0.541191 0.283019 0.578207
O O14 0.600644 0.000000 0.501618
O O15 0.531434 0.500000 0.930284
O O16 0.571465 0.216567 0.856970
O O17 0.500000 0.211440 0.000000
O O18 0.460358 0.000000 0.653472
O O19 0.388383 0.500000 0.219723
#
# Coordination Sequence:
#
# PCOD9191336 Si02
#       7
#     8   8   8   8   8   8   8
#     4  10  20  33  49  68  91 119 150 185 225 269
#     4   8  13  22  39  63  86 110 144 182 217 251
#     4   9  18  31  46  64  88 117 144 174 214 260
#     4   7  10  18  34  58  86 110 136 177 220 250
#     4   9  18  32  49  68  90 118 152 188 226 268
#     4   8  13  23  41  63  85 111 145 182 215 248
#     4   9  17  29  45  64  89 118 143 175 218 261
#
# _framework density 19.948761000000001
#
# number of rings (size 3 to 8) (size 9 to 14) (size 15 to 20)
#    0.000    3.429    0.000    2.143    0.000    2.000 
#    0.000    5.000    0.000    0.857    0.000    0.000 
#    0.000    3.429    0.000    0.000    0.000    0.000 
#
# Total GULP energy -155990.807400 kJ/mol
# GULP energy per Si atom -5571.100264 kJ/mol
# Density = 1.990336 g / cm^3
# Si number density = 19.948761 Si / 1000 Ang^3
#
#
#
# Elastic Constant Matrix: (Units=GPa)
#
#
# Indices 1 2 3 4 5 6 
#
# 1 79.3170 -8.8815 117.3491 -0.0001 8.8191 -0.0012
# 2 -8.8815 57.8354 -1.9570 -0.0012 5.2801 -0.0032
# 3 117.3491 -1.9570 218.7244 0.0000 4.5463 -0.0002
# 4 -0.0001 -0.0012 0.0000 -10.1964 0.0002 -2.4509
# 5 8.8191 5.2801 4.5463 0.0002 40.0465 0.0000
# 6 -0.0012 -0.0032 -0.0002 -2.4509 0.0000 13.9380
#
#
#
# Elastic Compliance Matrix: (Units=1/GPa)
#
#
# Indices 1 2 3 4 5 6 
#
# 1 0.071332 0.010843 -0.037907 -0.000004 -0.012835 0.000007
# 2 0.010843 0.019159 -0.005557 -0.000004 -0.004283 0.000005
# 3 -0.037907 -0.005557 0.024730 0.000002 0.006273 -0.000004
# 4 -0.000004 -0.000004 0.000002 -0.094096 0.000002 -0.016546
# 5 -0.012835 -0.004283 0.006273 0.000002 0.027650 -0.000002
# 6 0.000007 0.000005 -0.000004 -0.016546 -0.000002 0.068837
#
#
# Mechanical properties :
#
#
# Convention : Reuss Voigt Hill
#
# Bulk Modulus (GPa) = 20.00855 63.21087 41.60971
# Shear Modulus (GPa) = 25.06112 25.38203 25.22158
#
# Velocity S-wave (km/s) = 3.54824 3.57089 3.55958
# Velocity P-wave (km/s) = 5.18058 6.98262 6.14799
#
# Compressibility (1/GPa) = 0.04997864
#
# Stress axis : x y z
#
# Youngs Moduli (GPa) = 14.01890 52.19583 40.43739
#
# Poissons Ratio (x) = -0.56598 1.53286
# Poissons Ratio (y) = -0.15201 0.22472
# Poissons Ratio (z) = 0.53142 0.29006
#
# Static dielectric constant tensor:
#      x y z
#    x 1.643590 0.000000 0.017750 
#    y 0.000000 1.762160 0.000000 
#    z 0.017750 0.000000 1.746470 
# 
# From -- ./inp_files/276097.got.cif
#   From: 2010.05.17/outbox.cif.g08.bks.cpg/sg12_139_cif.got.tgz:276097.got - 2010.06.03 13:09:07.
