data_PCOD9191423
_publ_section_title
;
Structure prediction by ZEFSAII (Michael W. Deem and Ramdas Pophale) SiO2 
 PCOD9191423
Probable space group: C 2/M
;
_chemical_formula_sum "Si O2"
_cell_formula_units_Z 56
_cell_length_a 24.033553
_cell_length_b 8.672381
_cell_length_c 19.367480
_cell_angle_alpha 90.000000
_cell_angle_beta 127.173953
_cell_angle_gamma 90.000000
_cell_volume 3216.483491
_symmetry_space_group_name_H-M "C 2/M"
_symmetry_group_IT_number 12
_symmetry_cell_setting 'monoclinic'
loop_
_space_group_symop_operation_xyz
x,y,z
-x,y,-z
-x,-y,-z
x,-y,z
1/2+x,1/2+y,z
1/2-x,1/2+y,-z
1/2-x,1/2-y,-z
1/2+x,1/2-y,z
loop_
_atom_site_type_symbol
_atom_site_label
_atom_site_fract_x
_atom_site_fract_y
_atom_site_fract_z
Si Si1 0.784490 0.322383 0.797735
Si Si2 0.218123 0.323084 0.372471
Si Si3 0.365361 0.183384 0.474797
Si Si4 0.995239 0.814157 0.656623
Si Si5 0.063667 0.312956 0.095883
Si Si6 0.133712 0.812167 0.679286
Si Si7 0.570281 0.316652 0.253178
O O1 0.785528 0.500000 0.822259
O O2 0.781741 0.323288 0.711759
O O3 0.860040 0.253838 0.871983
O O4 0.709599 0.256119 0.763090
O O5 0.214979 0.500000 0.393523
O O6 0.291398 0.247239 0.447757
O O7 0.146898 0.236058 0.336989
O O8 0.431024 0.239630 0.567822
O O9 0.375276 0.248507 0.404674
O O10 0.361924 0.000000 0.470216
O O11 0.985234 0.775382 0.729448
O O12 0.068719 0.768175 0.678156
O O13 0.989219 0.000000 0.645541
O O14 0.066262 0.500000 0.097253
O O15 0.055317 0.261086 0.168624
O O16 0.000000 0.262720 0.000000
O O17 0.136177 0.000000 0.676750
O O18 0.571423 0.500000 0.244719
#
# Coordination Sequence:
#
# PCOD9191423 Si02
#       7
#     8   8   8   8   8   8   8
#     4   7  12  25  47  71  89 113 154 196 230 272
#     4   9  17  32  51  68  93 129 163 197 242 296
#     4  11  21  31  47  72  97 124 165 214 252 279
#     4  10  21  34  47  65  94 134 171 202 243 294
#     4   9  17  31  53  78 100 123 154 194 244 303
#     4   9  17  32  51  67  91 131 173 206 238 284
#     4  10  20  33  49  72  99 125 159 203 249 292
#
# _framework density 17.410318
#
# number of rings (size 3 to 8) (size 9 to 14) (size 15 to 20)
#    0.000    2.714    0.000    4.286    0.000    4.286 
#    0.000    0.000    0.000    0.857    0.000    0.000 
#    0.000    0.000    0.000    0.000    0.000    0.143 
#
# Total GULP energy -156066.820662 kJ/mol
# GULP energy per Si atom -5573.815024 kJ/mol
# Density = 1.737069 g / cm^3
# Si number density = 17.410318 Si / 1000 Ang^3
#
#
#
# Elastic Constant Matrix: (Units=GPa)
#
#
# Indices 1 2 3 4 5 6 
#
# 1 97.6505 18.7814 60.5798 0.0000 10.9663 0.0000
# 2 18.7814 20.4228 20.6568 0.0000 4.0405 0.0000
# 3 60.5798 20.6568 109.7128 0.0000 26.5231 0.0000
# 4 0.0000 0.0000 0.0000 13.3196 0.0000 1.6197
# 5 10.9663 4.0405 26.5231 0.0000 19.7333 0.0000
# 6 0.0000 0.0000 0.0000 1.6197 0.0000 16.7078
#
#
#
# Elastic Compliance Matrix: (Units=1/GPa)
#
#
# Indices 1 2 3 4 5 6 
#
# 1 0.016636 -0.007186 -0.008819 0.000000 0.004080 0.000000
# 2 -0.007186 0.063838 -0.008676 0.000000 0.002584 0.000000
# 3 -0.008819 -0.008676 0.020744 0.000000 -0.021204 0.000000
# 4 0.000000 0.000000 0.000000 0.075973 0.000000 -0.007365
# 5 0.004080 0.002584 -0.021204 0.000000 0.076379 0.000000
# 6 0.000000 0.000000 0.000000 -0.007365 0.000000 0.060566
#
#
# Mechanical properties :
#
#
# Convention : Reuss Voigt Hill
#
# Bulk Modulus (GPa) = 19.28452 47.53578 33.41015
# Shear Modulus (GPa) = 13.13088 18.47004 15.80046
#
# Velocity S-wave (km/s) = 2.74925 3.26063 3.01580
# Velocity P-wave (km/s) = 4.60200 6.44501 5.59984
#
# Compressibility (1/GPa) = 0.05185506
#
# Stress axis : x y z
#
# Youngs Moduli (GPa) = 60.11236 15.66475 48.20687
#
# Poissons Ratio (x) = 0.11256 0.42514
# Poissons Ratio (y) = 0.43194 0.41826
# Poissons Ratio (z) = 0.53013 0.13591
#
# Static dielectric constant tensor:
#      x y z
#    x 1.620280 0.000000 0.020420 
#    y 0.000000 1.587990 0.000000 
#    z 0.020420 0.000000 1.584600 
# 
# From -- ./inp_files/323566.got.cif
#   From: 2010.05.17/outbox.cif.g08.bks.cpg/sg12_162_cif.got.tgz:323566.got - 2010.06.03 13:09:07.
