data_PCOD9191079
_publ_section_title
;
Structure prediction by ZEFSAII (Michael W. Deem and Ramdas Pophale) SiO2 
 PCOD9191079
Probable space group: C 2/M
;
_chemical_formula_sum "Si O2"
_cell_formula_units_Z 56
_cell_length_a 29.356730
_cell_length_b 13.465735
_cell_length_c 16.453489
_cell_angle_alpha 90.000000
_cell_angle_beta 151.651392
_cell_angle_gamma 90.000000
_cell_volume 3088.435091
_symmetry_space_group_name_H-M "C 2/M"
_symmetry_group_IT_number 12
_symmetry_cell_setting 'monoclinic'
loop_
_space_group_symop_operation_xyz
x,y,z
-x,y,-z
-x,-y,-z
x,-y,z
1/2+x,1/2+y,z
1/2-x,1/2+y,-z
1/2-x,1/2-y,-z
1/2+x,1/2-y,z
loop_
_atom_site_type_symbol
_atom_site_label
_atom_site_fract_x
_atom_site_fract_y
_atom_site_fract_z
Si Si1 0.762687 0.253484 0.732544
Si Si2 0.142654 0.618435 0.665332
Si Si3 0.613481 0.614543 0.189386
Si Si4 0.213170 0.118170 0.513483
Si Si5 0.578472 0.118151 0.735980
Si Si6 0.434397 0.119628 0.820760
Si Si7 0.586575 0.879541 0.931921
O O1 0.708205 0.185392 0.711541
O O2 0.829774 0.182608 0.783837
O O3 0.696132 0.314309 0.565258
O O4 0.828990 0.333704 0.881964
O O5 0.166081 0.500000 0.697904
O O6 0.140355 0.653149 0.755992
O O7 0.033314 0.628964 0.462276
O O8 0.642829 0.500000 0.221774
O O9 0.643041 0.637980 0.328320
O O10 0.500000 0.621673 0.000000
O O11 0.322466 0.141953 0.655936
O O12 0.209629 0.000000 0.526817
O O13 0.596261 0.000000 0.767393
O O14 0.594387 0.157068 0.851598
O O15 0.438650 0.000000 0.828963
O O16 0.500000 0.153803 0.000000
O O17 0.487028 0.149851 0.820311
O O18 0.591359 0.000000 0.940380
#
# Coordination Sequence:
#
# PCOD9191079 Si02
#       7
#     8   8   8   8   8   8   8
#     4  12  22  31  55  82 107 139 178 222 265 321
#     4   9  19  36  55  79 105 136 178 222 268 319
#     4  10  24  41  51  68 108 155 190 216 250 316
#     4  10  21  37  55  77 108 145 181 225 271 312
#     4   8  17  36  58  76 104 135 170 228 283 316
#     4   9  16  29  50  77 109 134 166 216 270 317
#     4  10  20  32  52  82 109 137 170 219 279 320
#
# _framework density 18.132159999999999
#
# number of rings (size 3 to 8) (size 9 to 14) (size 15 to 20)
#    0.000    2.286    1.429    2.143    4.000    1.714 
#    0.000    0.000    0.000    0.000    0.000    8.000 
#    0.000    0.000    0.000    0.000    0.000    0.000 
#
# Total GULP energy -156243.289537 kJ/mol
# GULP energy per Si atom -5580.117483 kJ/mol
# Density = 1.809089 g / cm^3
# Si number density = 18.132160 Si / 1000 Ang^3
#
#
#
# Elastic Constant Matrix: (Units=GPa)
#
#
# Indices 1 2 3 4 5 6 
#
# 1 129.4278 40.1909 29.2183 0.0000 -23.0719 0.0000
# 2 40.1909 68.5097 5.0016 0.0000 -8.4836 0.0000
# 3 29.2183 5.0016 71.3038 0.0000 -24.4110 0.0000
# 4 0.0000 0.0000 0.0000 6.9579 0.0000 -3.6027
# 5 -23.0719 -8.4836 -24.4110 0.0000 29.0780 0.0000
# 6 0.0000 0.0000 0.0000 -3.6027 0.0000 22.6961
#
#
#
# Elastic Compliance Matrix: (Units=1/GPa)
#
#
# Indices 1 2 3 4 5 6 
#
# 1 0.010891 -0.005594 -0.002345 0.000000 0.005041 0.000000
# 2 -0.005594 0.018037 0.001837 0.000000 0.002366 0.000000
# 3 -0.002345 0.001837 0.020212 0.000000 0.015644 0.000000
# 4 0.000000 0.000000 0.000000 0.156592 0.000000 0.024857
# 5 0.005041 0.002366 0.015644 0.000000 0.052213 0.000000
# 6 0.000000 0.000000 0.000000 0.024857 0.000000 0.048006
#
#
# Mechanical properties :
#
#
# Convention : Reuss Voigt Hill
#
# Bulk Modulus (GPa) = 27.07296 46.45147 36.76221
# Shear Modulus (GPa) = 15.13009 24.73510 19.93260
#
# Velocity S-wave (km/s) = 2.89179 3.69746 3.31916
# Velocity P-wave (km/s) = 5.11011 6.62587 5.91673
#
# Compressibility (1/GPa) = 0.03693723
#
# Stress axis : x y z
#
# Youngs Moduli (GPa) = 91.81583 55.44161 49.47556
#
# Poissons Ratio (x) = 0.31014 0.11600
# Poissons Ratio (y) = 0.51361 -0.09089
# Poissons Ratio (z) = 0.21528 -0.10185
#
# Static dielectric constant tensor:
#      x y z
#    x 1.633720 0.000000 -0.021830 
#    y 0.000000 1.642180 0.000000 
#    z -0.021830 0.000000 1.617200 
# 
# From -- ./inp_files/246552.got.cif
#   From: 2010.05.17/outbox.cif.g08.bks.cpg/sg12_124_cif.got.tgz:246552.got - 2010.06.03 13:09:07.
