data_PCOD9191330
_publ_section_title
;
Structure prediction by ZEFSAII (Michael W. Deem and Ramdas Pophale) SiO2 
 PCOD9191330
Probable space group: C 2/M
;
_chemical_formula_sum "Si O2"
_cell_formula_units_Z 40
_cell_length_a 28.828879
_cell_length_b 7.416226
_cell_length_c 19.902929
_cell_angle_alpha 90.000000
_cell_angle_beta 153.515116
_cell_angle_gamma 90.000000
_cell_volume 1897.689960
_symmetry_space_group_name_H-M "C 2/M"
_symmetry_group_IT_number 12
_symmetry_cell_setting 'monoclinic'
loop_
_space_group_symop_operation_xyz
x,y,z
-x,y,-z
-x,-y,-z
x,-y,z
1/2+x,1/2+y,z
1/2-x,1/2+y,-z
1/2-x,1/2-y,-z
1/2+x,1/2-y,z
loop_
_atom_site_type_symbol
_atom_site_label
_atom_site_fract_x
_atom_site_fract_y
_atom_site_fract_z
Si Si1 0.015208 0.289024 0.945265
Si Si2 0.630134 0.784263 0.361178
Si Si3 0.913005 0.709450 0.327912
Si Si4 0.746813 0.218532 0.775366
Si Si5 0.081776 0.278911 0.448201
O O1 0.986310 0.500000 0.912951
O O2 0.941860 0.211782 0.792056
O O3 0.135132 0.275671 0.079868
O O4 0.000000 0.210238 0.000000
O O5 0.750000 0.750000 0.500000
O O6 0.600250 0.717052 0.396537
O O7 0.615113 0.000000 0.344707
O O8 0.890650 0.500000 0.283784
O O9 0.810655 0.784908 0.231267
O O10 0.000000 0.712810 0.500000
O O11 0.973819 0.783959 0.342426
O O12 0.676452 0.274471 0.620282
O O13 0.744024 0.000000 0.773167
O O14 0.080141 0.500000 0.447173
#
# Coordination Sequence:
#
# PCOD9191330 Si02
#       5
#     8   8   8   8   8
#     4  10  21  34  45  62  93 127 150 175 223 277
#     4  10  20  33  49  67  88 118 153 187 223 263
#     4   7  11  22  43  70  93 111 139 182 225 260
#     4   9  16  28  50  74  90 111 148 190 223 255
#     4   8  14  27  48  71  91 114 149 188 222 258
#
# _framework density 21.078258000000002
#
# number of rings (size 3 to 8) (size 9 to 14) (size 15 to 20)
#    0.000    3.200    0.000    3.600    0.000    1.200 
#    0.000    1.000    0.000    6.600    0.000    0.000 
#    0.000    0.000    0.000    0.000    0.000    0.000 
#
# Total GULP energy -111527.552036 kJ/mol
# GULP energy per Si atom -5576.377602 kJ/mol
# Density = 2.103028 g / cm^3
# Si number density = 21.078258 Si / 1000 Ang^3
#
#
#
# Elastic Constant Matrix: (Units=GPa)
#
#
# Indices 1 2 3 4 5 6 
#
# 1 236.9207 -1.9847 106.8524 0.0000 -5.3692 0.0000
# 2 -1.9847 66.1599 -5.1360 0.0000 -11.4730 0.0000
# 3 106.8524 -5.1360 128.2426 0.0000 -0.3260 0.0000
# 4 0.0000 0.0000 0.0000 -39.0378 0.0000 -7.9681
# 5 -5.3692 -11.4730 -0.3260 0.0000 30.9181 0.0000
# 6 0.0000 0.0000 0.0000 -7.9681 0.0000 -13.9827
#
#
#
# Elastic Compliance Matrix: (Units=1/GPa)
#
#
# Indices 1 2 3 4 5 6 
#
# 1 0.006801 -0.000044 -0.005665 0.000000 0.001105 0.000000
# 2 -0.000044 0.016211 0.000701 0.000000 0.006015 0.000000
# 3 -0.005665 0.000701 0.012545 0.000000 -0.000591 0.000000
# 4 0.000000 0.000000 0.000000 -0.028988 0.000000 0.016519
# 5 0.001105 0.006015 -0.000591 0.000000 0.034761 0.000000
# 6 0.000000 0.000000 0.000000 0.016519 0.000000 -0.080930
#
#
# Mechanical properties :
#
#
# Convention : Reuss Voigt Hill
#
# Bulk Modulus (GPa) = 39.15399 70.08741 54.62070
# Shear Modulus (GPa) = -237.29070 17.68562 -109.80254
#
# Velocity S-wave (km/s) = -10.62170 2.89977 -7.22536
# Velocity P-wave (km/s) = 11.48091 6.67344 6.60593
#
# Compressibility (1/GPa) = 0.02554018
#
# Stress axis : x y z
#
# Youngs Moduli (GPa) = 147.04758 61.68596 79.71569
#
# Poissons Ratio (x) = 0.00273 0.45160
# Poissons Ratio (y) = 0.00650 -0.05591
# Poissons Ratio (z) = 0.83305 -0.04326
#
# Static dielectric constant tensor:
#      x y z
#    x 1.776710 0.000000 -0.012530 
#    y 0.000000 1.811140 0.000000 
#    z -0.012530 0.000000 1.714440 
# 
# From -- ./inp_files/140412.got.cif
#   From: 2010.05.17/outbox.cif.g08.bks.cpg/sg12_71_cif.got.tgz:140412.got - 2010.06.03 13:09:07.
