data_PCOD9191733
_publ_section_title
;
Structure prediction by ZEFSAII (Michael W. Deem and Ramdas Pophale) SiO2 
 PCOD9191733
Probable space group: C 2/M
;
_chemical_formula_sum "Si O2"
_cell_formula_units_Z 48
_cell_length_a 24.606081
_cell_length_b 11.171763
_cell_length_c 7.297743
_cell_angle_alpha 90.000000
_cell_angle_beta 105.088629
_cell_angle_gamma 90.000000
_cell_volume 1936.938993
_symmetry_space_group_name_H-M "C 2/M"
_symmetry_group_IT_number 12
_symmetry_cell_setting 'monoclinic'
loop_
_space_group_symop_operation_xyz
x,y,z
-x,y,-z
-x,-y,-z
x,-y,z
1/2+x,1/2+y,z
1/2-x,1/2+y,-z
1/2-x,1/2-y,-z
1/2+x,1/2-y,z
loop_
_atom_site_type_symbol
_atom_site_label
_atom_site_fract_x
_atom_site_fract_y
_atom_site_fract_z
Si Si1 0.491540 0.870288 0.209032
Si Si2 0.549945 0.371892 0.690151
Si Si3 0.298353 0.126855 0.211548
Si Si4 0.120936 0.366741 0.363998
Si Si5 0.677905 0.371785 0.743980
Si Si6 0.682848 0.367949 0.332008
O O1 0.455458 0.752897 0.211525
O O2 0.554468 0.853144 0.344217
O O3 0.469074 0.000000 0.253632
O O4 0.500000 0.877581 0.000000
O O5 0.500000 0.372648 0.500000
O O6 0.545916 0.500000 0.790925
O O7 0.611060 0.372606 0.652498
O O8 0.343897 0.128594 0.417110
O O9 0.308017 0.254971 0.127684
O O10 0.237776 0.131191 0.255356
O O11 0.305743 0.000000 0.118530
O O12 0.127723 0.500000 0.282146
O O13 0.144262 0.250029 0.277718
O O14 0.692612 0.500000 0.840935
O O15 0.703894 0.364978 0.563522
O O16 0.654671 0.500000 0.284039
#
# Coordination Sequence:
#
# PCOD9191733 Si02
#       6
#     8   8   8   8   8   8
#     4  10  22  38  53  72 101 138 179 217 253 300
#     4  10  20  33  51  76 103 132 170 215 262 309
#     4   9  16  25  41  69 100 128 159 197 247 303
#     4   9  16  27  44  64  88 121 160 198 239 289
#     4   9  16  25  39  62  93 125 154 189 237 290
#     4   9  16  26  42  68 101 129 155 197 251 302
#
# _framework density 24.781368000000001
#
# number of rings (size 3 to 8) (size 9 to 14) (size 15 to 20)
#    0.000    2.667    0.000    4.000    0.000    5.333 
#    0.000    0.000    0.000    0.000    0.000    4.667 
#    0.000    5.333    0.000    0.000    0.000    0.000 
#
# Total GULP energy -134009.060948 kJ/mol
# GULP energy per Si atom -5583.710873 kJ/mol
# Density = 2.472496 g / cm^3
# Si number density = 24.781368 Si / 1000 Ang^3
#
#
#
# Elastic Constant Matrix: (Units=GPa)
#
#
# Indices 1 2 3 4 5 6 
#
# 1 57.0357 31.3945 20.5291 0.0000 12.7871 0.0000
# 2 31.3945 304.4859 5.6557 0.0000 -12.8770 0.0000
# 3 20.5291 5.6557 53.5790 0.0000 7.7323 0.0000
# 4 0.0000 0.0000 0.0000 -4.9365 0.0000 -29.2216
# 5 12.7871 -12.8770 7.7323 0.0000 19.2971 0.0000
# 6 0.0000 0.0000 0.0000 -29.2216 0.0000 -21.8612
#
#
#
# Elastic Compliance Matrix: (Units=1/GPa)
#
#
# Indices 1 2 3 4 5 6 
#
# 1 0.025451 -0.003175 -0.007087 0.000000 -0.016144 0.000000
# 2 -0.003175 0.003802 0.000154 0.000000 0.004580 0.000000
# 3 -0.007087 0.000154 0.021939 0.000000 -0.003992 0.000000
# 4 0.000000 0.000000 0.000000 0.029305 0.000000 -0.039172
# 5 -0.016144 0.004580 -0.003992 0.000000 0.067175 0.000000
# 6 0.000000 0.000000 0.000000 -0.039172 0.000000 0.006617
#
#
# Mechanical properties :
#
#
# Convention : Reuss Voigt Hill
#
# Bulk Modulus (GPa) = 32.28171 58.91770 45.59970
# Shear Modulus (GPa) = 27.05183 22.33464 24.69324
#
# Velocity S-wave (km/s) = 3.30755 3.00537 3.16007
# Velocity P-wave (km/s) = 5.25751 5.98912 5.63520
#
# Compressibility (1/GPa) = 0.03097730
#
# Stress axis : x y z
#
# Youngs Moduli (GPa) = 39.29156 262.99014 45.58069
#
# Poissons Ratio (x) = 0.83506 0.32301
# Poissons Ratio (y) = 0.12476 -0.00703
# Poissons Ratio (z) = 0.27844 -0.04059
#
# Static dielectric constant tensor:
#      x y z
#    x 1.920150 0.000000 0.005280 
#    y 0.000000 2.135550 0.000000 
#    z 0.005280 0.000000 1.932900 
# 
# From -- ./inp_files/94418.got.cif
#   From: 2010.05.17/outbox.cif.g08.bks.cpg/sg12_48_cif.got.tgz:94418.got - 2010.06.03 13:09:07.
