data_PCOD9191655
_publ_section_title
;
Structure prediction by ZEFSAII (Michael W. Deem and Ramdas Pophale) SiO2 
 PCOD9191655
Probable space group: C 2/M
;
_chemical_formula_sum "Si O2"
_cell_formula_units_Z 56
_cell_length_a 28.839037
_cell_length_b 7.807389
_cell_length_c 12.971108
_cell_angle_alpha 90.000000
_cell_angle_beta 75.879333
_cell_angle_gamma 90.000000
_cell_volume 2832.296384
_symmetry_space_group_name_H-M "C 2/M"
_symmetry_group_IT_number 12
_symmetry_cell_setting 'monoclinic'
loop_
_space_group_symop_operation_xyz
x,y,z
-x,y,-z
-x,-y,-z
x,-y,z
1/2+x,1/2+y,z
1/2-x,1/2+y,-z
1/2-x,1/2-y,-z
1/2+x,1/2-y,z
loop_
_atom_site_type_symbol
_atom_site_label
_atom_site_fract_x
_atom_site_fract_y
_atom_site_fract_z
Si Si1 0.028577 0.706793 0.385160
Si Si2 0.367034 0.295739 0.739819
Si Si3 0.497860 0.792683 0.174628
Si Si4 0.294032 0.293747 0.611971
Si Si5 0.103043 0.798366 0.053685
Si Si6 0.106365 0.297730 0.825875
Si Si7 0.313203 0.206868 0.372864
O O1 0.029506 0.500000 0.388542
O O2 0.083066 0.766854 0.346555
O O3 0.003078 0.755041 0.291977
O O4 0.000000 0.770019 0.500000
O O5 0.360460 0.500000 0.753457
O O6 0.324053 0.227325 0.692958
O O7 0.374437 0.226867 0.852083
O O8 0.545893 0.729444 0.093694
O O9 0.447313 0.727934 0.159994
O O10 0.499222 0.000000 0.165085
O O11 0.292195 0.500000 0.620855
O O12 0.319169 0.251729 0.489629
O O13 0.239454 0.230080 0.632791
O O14 0.112159 0.000000 0.045444
O O15 0.120891 0.722741 0.936735
O O16 0.102724 0.500000 0.805793
O O17 0.145092 0.227540 0.724445
O O18 0.312359 0.000000 0.366299
#
# Coordination Sequence:
#
# PCOD9191655 Si02
#       7
#     8   8   8   8   8   8   8
#     4   9  18  30  47  72 100 128 164 206 241 286
#     4   9  19  34  51  70  98 135 165 197 248 298
#     4   9  18  32  48  69  99 133 164 199 247 293
#     4   9  18  35  55  75 101 131 163 201 251 301
#     4  10  20  34  50  71  99 132 170 206 240 288
#     4  10  20  33  51  73 100 131 164 204 250 293
#     4   9  19  34  54  78 101 127 163 207 249 296
#
# _framework density 19.771944000000001
#
# number of rings (size 3 to 8) (size 9 to 14) (size 15 to 20)
#    0.000    2.714    0.000    0.857    2.000    4.286 
#    0.000    0.714    0.000    0.000    0.000    0.000 
#    0.000    0.000    0.000    0.000    0.000    0.000 
#
# Total GULP energy -156184.425455 kJ/mol
# GULP energy per Si atom -5578.015195 kJ/mol
# Density = 1.972694 g / cm^3
# Si number density = 19.771944 Si / 1000 Ang^3
#
#
#
# Elastic Constant Matrix: (Units=GPa)
#
#
# Indices 1 2 3 4 5 6 
#
# 1 93.7695 2.3559 48.6879 0.0000 25.6850 0.0000
# 2 2.3559 18.9760 -1.7779 0.0000 0.3222 0.0000
# 3 48.6879 -1.7779 92.5476 0.0000 3.5920 0.0000
# 4 0.0000 0.0000 0.0000 19.7133 0.0000 0.8570
# 5 25.6850 0.3222 3.5920 0.0000 16.7087 0.0000
# 6 0.0000 0.0000 0.0000 0.8570 0.0000 14.2875
#
#
#
# Elastic Compliance Matrix: (Units=1/GPa)
#
#
# Indices 1 2 3 4 5 6 
#
# 1 0.029771 -0.004292 -0.014089 0.000000 -0.042653 0.000000
# 2 -0.004292 0.053438 0.003094 0.000000 0.004902 0.000000
# 3 -0.014089 0.003094 0.017585 0.000000 0.017818 0.000000
# 4 0.000000 0.000000 0.000000 0.050860 0.000000 -0.003051
# 5 -0.042653 0.004902 0.017818 0.000000 0.121492 0.000000
# 6 0.000000 0.000000 0.000000 -0.003051 0.000000 0.070174
#
#
# Mechanical properties :
#
#
# Convention : Reuss Voigt Hill
#
# Bulk Modulus (GPa) = 14.24086 33.75833 23.99960
# Shear Modulus (GPa) = 12.58495 20.54372 16.56433
#
# Velocity S-wave (km/s) = 2.52564 3.22690 2.89757
# Velocity P-wave (km/s) = 3.96527 5.56730 4.83312
#
# Compressibility (1/GPa) = 0.07022046
#
# Stress axis : x y z
#
# Youngs Moduli (GPa) = 33.58950 18.71340 56.86590
#
# Poissons Ratio (x) = 0.08031 0.80119
# Poissons Ratio (y) = 0.14416 -0.17595
# Poissons Ratio (z) = 0.47325 -0.05790
#
# Static dielectric constant tensor:
#      x y z
#    x 1.701750 0.000000 0.020950 
#    y 0.000000 1.723990 0.000000 
#    z 0.020950 0.000000 1.689480 
# 
# From -- ./inp_files/186424.got.cif
#   From: 2010.05.17/outbox.cif.g08.bks.cpg/sg12_94_cif.got.tgz:186424.got - 2010.06.03 13:09:07.
