data_PCOD9191188
_publ_section_title
;
Structure prediction by ZEFSAII (Michael W. Deem and Ramdas Pophale) SiO2 
 PCOD9191188
Probable space group: C 2/M
;
_chemical_formula_sum "Si O2"
_cell_formula_units_Z 56
_cell_length_a 10.888158
_cell_length_b 21.911563
_cell_length_c 12.832320
_cell_angle_alpha 90.000000
_cell_angle_beta 70.995969
_cell_angle_gamma 90.000000
_cell_volume 2894.626254
_symmetry_space_group_name_H-M "C 2/M"
_symmetry_group_IT_number 12
_symmetry_cell_setting 'monoclinic'
loop_
_space_group_symop_operation_xyz
x,y,z
-x,y,-z
-x,-y,-z
x,-y,z
1/2+x,1/2+y,z
1/2-x,1/2+y,-z
1/2-x,1/2-y,-z
1/2+x,1/2-y,z
loop_
_atom_site_type_symbol
_atom_site_label
_atom_site_fract_x
_atom_site_fract_y
_atom_site_fract_z
Si Si1 0.236730 0.877084 0.295389
Si Si2 0.188564 0.287958 0.141904
Si Si3 0.344704 0.500000 0.568935
Si Si4 0.779717 0.366929 0.669894
Si Si5 0.154449 0.500000 0.420464
Si Si6 0.351517 0.177355 0.071342
Si Si7 0.504031 0.298109 0.711050
Si Si8 0.140082 0.700189 0.552823
O O1 0.312819 0.874209 0.164604
O O2 0.318818 0.841018 0.360033
O O3 0.104504 0.841497 0.306778
O O4 0.195531 0.941242 0.353400
O O5 0.173660 0.338392 0.234516
O O6 0.305723 0.241324 0.135411
O O7 0.065192 0.241317 0.177741
O O8 0.215443 0.319242 0.023767
O O9 0.500000 0.500000 0.500000
O O10 0.252343 0.500000 0.492561
O O11 0.805615 0.439081 0.654630
O O12 0.632449 0.338911 0.697459
O O13 0.859481 0.341060 0.549261
O O14 0.000000 0.500000 0.500000
O O15 0.500000 0.173902 0.000000
O O16 0.527496 0.245259 0.619628
O O17 0.250000 0.750000 0.500000
#
# Coordination Sequence:
#
# PCOD9191188 Si02
#       8
#     8   8   4   8   4   8   8   8
#     4  11  23  39  63  94 121 171 219 257 320 375
#     4  10  21  35  61  92 122 161 199 262 329 382
#     4  12  26  48  70  90 132 176 222 270 308 377
#     4  11  23  39  57  89 127 173 211 256 323 388
#     4  12  28  44  59  86 132 184 217 253 312 390
#     4  10  20  38  60  90 125 157 204 261 322 378
#     4  10  20  36  61  94 124 156 210 272 327 382
#     4  10  20  32  56  88 126 150 200 261 328 380
#
# _framework density 19.346191999999999
#
# number of rings (size 3 to 8) (size 9 to 14) (size 15 to 20)
#    0.000    1.429    1.429    6.000    4.000    3.429 
#    0.000    1.071    0.000    0.000    0.000   11.500 
#    0.000    0.000    0.000    0.000    0.000    0.000 
#
# Total GULP energy -156126.080821 kJ/mol
# GULP energy per Si atom -5575.931458 kJ/mol
# Density = 1.930216 g / cm^3
# Si number density = 19.346192 Si / 1000 Ang^3
#
#
#
# Elastic Constant Matrix: (Units=GPa)
#
#
# Indices 1 2 3 4 5 6 
#
# 1 95.3625 41.3321 36.3538 0.0000 -19.4250 0.0000
# 2 41.3321 147.7821 67.2517 0.0000 -5.3948 0.0000
# 3 36.3538 67.2517 121.9731 0.0000 -8.6077 0.0000
# 4 0.0000 0.0000 0.0000 37.8298 0.0000 -0.5980
# 5 -19.4250 -5.3948 -8.6077 0.0000 34.6186 0.0000
# 6 0.0000 0.0000 0.0000 -0.5980 0.0000 21.3979
#
#
#
# Elastic Compliance Matrix: (Units=1/GPa)
#
#
# Indices 1 2 3 4 5 6 
#
# 1 0.013851 -0.002624 -0.002201 0.000000 0.006816 0.000000
# 2 -0.002624 0.009531 -0.004552 0.000000 -0.001119 0.000000
# 3 -0.002201 -0.004552 0.011428 0.000000 0.000897 0.000000
# 4 0.000000 0.000000 0.000000 0.026446 0.000000 0.000739
# 5 0.006816 -0.001119 0.000897 0.000000 0.032759 0.000000
# 6 0.000000 0.000000 0.000000 0.000739 0.000000 0.046754
#
#
# Mechanical properties :
#
#
# Convention : Reuss Voigt Hill
#
# Bulk Modulus (GPa) = 62.27878 72.77697 67.52787
# Shear Modulus (GPa) = 30.32620 33.44794 31.88707
#
# Velocity S-wave (km/s) = 3.96353 4.16253 4.06425
# Velocity P-wave (km/s) = 7.29436 7.79757 7.55016
#
# Compressibility (1/GPa) = 0.01605683
#
# Stress axis : x y z
#
# Youngs Moduli (GPa) = 72.19866 104.91838 87.50704
#
# Poissons Ratio (x) = 0.27526 0.19257
# Poissons Ratio (y) = 0.18942 0.39835
# Poissons Ratio (z) = 0.15888 0.47761
#
# Static dielectric constant tensor:
#      x y z
#    x 1.779390 0.000000 -0.008890 
#    y 0.000000 1.658070 0.000000 
#    z -0.008890 0.000000 1.722030 
# 
# From -- ./inp_files/133893.got.cif
#   From: 2010.05.17/outbox.cif.g08.bks.cpg/sg12_67_cif.got.tgz:133893.got - 2010.06.03 13:09:07.
