data_PCOD9191063
_publ_section_title
;
Structure prediction by ZEFSAII (Michael W. Deem and Ramdas Pophale) SiO2 
 PCOD9191063
Probable space group: C 2/M
;
_chemical_formula_sum "Si O2"
_cell_formula_units_Z 56
_cell_length_a 27.610312
_cell_length_b 7.813824
_cell_length_c 18.828832
_cell_angle_alpha 90.000000
_cell_angle_beta 38.056142
_cell_angle_gamma 90.000000
_cell_volume 2504.058246
_symmetry_space_group_name_H-M "C 2/M"
_symmetry_group_IT_number 12
_symmetry_cell_setting 'monoclinic'
loop_
_space_group_symop_operation_xyz
x,y,z
-x,y,-z
-x,-y,-z
x,-y,z
1/2+x,1/2+y,z
1/2-x,1/2+y,-z
1/2-x,1/2-y,-z
1/2+x,1/2-y,z
loop_
_atom_site_type_symbol
_atom_site_label
_atom_site_fract_x
_atom_site_fract_y
_atom_site_fract_z
Si Si1 0.383858 0.199257 0.037871
Si Si2 0.237208 0.196945 0.286931
Si Si3 0.551337 0.799957 0.801320
Si Si4 0.999034 0.793618 0.296702
Si Si5 0.932549 0.789779 0.523860
Si Si6 0.169035 0.796866 0.055779
Si Si7 0.726615 0.693452 0.605826
O O1 0.318338 0.276930 0.165330
O O2 0.395588 0.000000 0.043851
O O3 0.472342 0.270693 0.930032
O O4 0.346250 0.210096 0.002614
O O5 0.154770 0.271657 0.356203
O O6 0.236387 0.199486 0.373083
O O7 0.239046 0.000000 0.259955
O O8 0.534313 0.785857 0.736829
O O9 0.632725 0.707823 0.721881
O O10 0.561784 0.000000 0.807895
O O11 0.092172 0.755353 0.191551
O O12 0.955961 0.736967 0.417455
O O13 0.990528 0.000000 0.300206
O O14 0.000000 0.736093 0.500000
O O15 0.930811 0.000000 0.526210
O O16 0.168164 0.000000 0.044035
O O17 0.250000 0.750000 0.000000
O O18 0.752935 0.500000 0.585556
O O19 0.750000 0.750000 0.500000
#
# Coordination Sequence:
#
# PCOD9191063 Si02
#       7
#     8   8   8   8   8   8   8
#     4   9  20  37  58  85 119 157 194 239 293 356
#     4  10  21  38  61  88 120 155 196 243 294 353
#     4  10  20  37  60  86 118 153 193 238 294 352
#     4   9  18  33  54  81 110 144 192 244 293 347
#     4   9  18  32  55  83 109 144 189 238 288 343
#     4  10  20  32  52  79 110 149 196 248 298 354
#     4  12  25  41  63  89 118 152 197 244 295 351
#
# _framework density 22.363696000000001
#
# number of rings (size 3 to 8) (size 9 to 14) (size 15 to 20)
#    0.000    2.143    0.000    3.000    2.000    3.429 
#    0.000    2.857    0.000    0.857    0.000    0.000 
#    0.000    0.000    0.000    0.000    0.000    0.000 
#
# Total GULP energy -156420.803016 kJ/mol
# GULP energy per Si atom -5586.457251 kJ/mol
# Density = 2.231280 g / cm^3
# Si number density = 22.363696 Si / 1000 Ang^3
#
#
#
# Elastic Constant Matrix: (Units=GPa)
#
#
# Indices 1 2 3 4 5 6 
#
# 1 70.5587 -10.3919 36.7793 0.0028 -24.8795 -0.0028
# 2 -10.3919 41.9353 6.7600 -0.0217 -2.8816 0.0084
# 3 36.7793 6.7600 132.5300 -0.0154 -8.9391 0.0031
# 4 0.0028 -0.0217 -0.0154 12.5897 0.0037 0.3784
# 5 -24.8795 -2.8816 -8.9391 0.0037 30.6089 0.0025
# 6 -0.0028 0.0084 0.0031 0.3784 0.0025 20.4199
#
#
#
# Elastic Compliance Matrix: (Units=1/GPa)
#
#
# Indices 1 2 3 4 5 6 
#
# 1 0.025744 0.008756 -0.006247 -0.000004 0.019925 -0.000001
# 2 0.008756 0.027136 -0.003225 0.000039 0.008730 -0.000011
# 3 -0.006247 -0.003225 0.009263 0.000008 -0.002676 -0.000001
# 4 -0.000004 0.000039 0.000008 0.079474 -0.000007 -0.001473
# 5 0.019925 0.008730 -0.002676 -0.000007 0.048906 -0.000006
# 6 -0.000001 -0.000011 -0.000001 -0.001473 -0.000006 0.048999
#
#
# Mechanical properties :
#
#
# Convention : Reuss Voigt Hill
#
# Bulk Modulus (GPa) = 16.47165 34.59097 25.53131
# Shear Modulus (GPa) = 19.14295 26.84880 22.99587
#
# Velocity S-wave (km/s) = 2.92889 3.46866 3.21014
# Velocity P-wave (km/s) = 4.33811 5.61633 5.01809
#
# Compressibility (1/GPa) = 0.06071039
#
# Stress axis : x y z
#
# Youngs Moduli (GPa) = 38.84353 36.85163 107.95469
#
# Poissons Ratio (x) = -0.32267 0.67441
# Poissons Ratio (y) = -0.34011 0.34818
# Poissons Ratio (z) = 0.24266 0.11885
#
# Static dielectric constant tensor:
#      x y z
#    x 1.793380 -0.000010 -0.019510 
#    y -0.000010 1.832270 0.000000 
#    z -0.019510 0.000000 1.863270 
# 
# From -- ./inp_files/292437.got.cif
#   From: 2010.05.17/outbox.cif.g08.bks.cpg/sg12_147_cif.got.tgz:292437.got - 2010.06.03 13:09:07.
