data_PCOD9191178
_publ_section_title
;
Structure prediction by ZEFSAII (Michael W. Deem and Ramdas Pophale) SiO2 
 PCOD9191178
Probable space group: C 2/M
;
_chemical_formula_sum "Si O2"
_cell_formula_units_Z 56
_cell_length_a 5.607677
_cell_length_b 30.156617
_cell_length_c 15.885268
_cell_angle_alpha 90.000000
_cell_angle_beta 122.605710
_cell_angle_gamma 90.000000
_cell_volume 2262.965041
_symmetry_space_group_name_H-M "C 2/M"
_symmetry_group_IT_number 12
_symmetry_cell_setting 'monoclinic'
loop_
_space_group_symop_operation_xyz
x,y,z
-x,y,-z
-x,-y,-z
x,-y,z
1/2+x,1/2+y,z
1/2-x,1/2+y,-z
1/2-x,1/2-y,-z
1/2+x,1/2-y,z
loop_
_atom_site_type_symbol
_atom_site_label
_atom_site_fract_x
_atom_site_fract_y
_atom_site_fract_z
Si Si1 0.334270 0.806340 0.553256
Si Si2 0.731170 0.072984 0.982070
Si Si3 0.842439 0.274356 0.219502
Si Si4 0.121187 0.404434 0.381635
Si Si5 0.900064 0.000000 0.277369
Si Si6 0.931239 0.500000 0.606529
Si Si7 0.386211 0.630673 0.823960
Si Si8 0.250155 0.903320 0.772524
O O1 0.500000 0.793646 0.500000
O O2 0.485749 0.783734 0.661474
O O3 0.366007 0.859733 0.565526
O O4 0.000000 0.798609 0.500000
O O5 0.566617 0.095253 0.872268
O O6 0.500000 0.052286 0.000000
O O7 0.000000 0.046001 0.000000
O O8 0.891283 0.109409 0.069260
O O9 0.556880 0.248289 0.193724
O O10 0.753278 0.323923 0.174508
O O11 0.162657 0.450578 0.437672
O O12 0.831881 0.401462 0.270213
O O13 0.327658 0.401637 0.340518
O O14 0.687444 0.000000 0.318527
O O15 0.837612 0.953776 0.219668
O O16 0.237200 0.000000 0.352599
O O17 0.599810 0.638555 0.785350
#
# Coordination Sequence:
#
# PCOD9191178 Si02
#       8
#     8   8   8   8   4   4   8   8
#     4  11  26  43  67  98 127 156 200 250 312 381
#     4  10  20  34  56  88 120 162 210 254 298 352
#     4  11  26  43  69  97 124 157 199 252 316 378
#     4  10  21  37  65  88 125 170 210 251 302 365
#     4  10  20  32  55  91 128 160 213 269 296 344
#     4  10  20  36  57  91 124 162 213 257 298 348
#     4  10  21  37  64  88 125 163 210 251 308 369
#     4  10  20  36  61  90 126 169 217 252 309 353
#
# _framework density 24.746296000000001
#
# number of rings (size 3 to 8) (size 9 to 14) (size 15 to 20)
#    0.000    1.714    2.857    0.857    8.000    1.714 
#    0.000    5.000    0.000   11.143    0.000    0.000 
#    0.000    0.000    0.000    0.000    0.000    0.000 
#
# Total GULP energy -155994.700192 kJ/mol
# GULP energy per Si atom -5571.239293 kJ/mol
# Density = 2.468997 g / cm^3
# Si number density = 24.746296 Si / 1000 Ang^3
#
#
#
# Elastic Constant Matrix: (Units=GPa)
#
#
# Indices 1 2 3 4 5 6 
#
# 1 144.8572 36.1076 31.3293 0.0000 10.2749 0.0000
# 2 36.1076 145.7121 25.6074 0.0000 0.4180 0.0000
# 3 31.3293 25.6074 65.4086 0.0000 5.0483 0.0000
# 4 0.0000 0.0000 0.0000 -68.7427 0.0000 17.8711
# 5 10.2749 0.4180 5.0483 0.0000 30.6779 0.0000
# 6 0.0000 0.0000 0.0000 17.8711 0.0000 31.3470
#
#
#
# Elastic Compliance Matrix: (Units=1/GPa)
#
#
# Indices 1 2 3 4 5 6 
#
# 1 0.008099 -0.001448 -0.003144 0.000000 -0.002175 0.000000
# 2 -0.001448 0.007633 -0.002354 0.000000 0.000768 0.000000
# 3 -0.003144 -0.002354 0.017859 0.000000 -0.001854 0.000000
# 4 0.000000 0.000000 0.000000 -0.012669 0.000000 0.007223
# 5 -0.002175 0.000768 -0.001854 0.000000 0.033620 0.000000
# 6 0.000000 0.000000 0.000000 0.007223 0.000000 0.027783
#
#
# Mechanical properties :
#
#
# Convention : Reuss Voigt Hill
#
# Bulk Modulus (GPa) = 50.76600 60.22961 55.49780
# Shear Modulus (GPa) = 48.64583 16.18536 32.41559
#
# Velocity S-wave (km/s) = 4.43852 2.56022 3.62320
# Velocity P-wave (km/s) = 6.84299 5.75598 6.32288
#
# Compressibility (1/GPa) = 0.01969822
#
# Stress axis : x y z
#
# Youngs Moduli (GPa) = 123.47777 131.00709 55.99347
#
# Poissons Ratio (x) = 0.18970 0.17606
# Poissons Ratio (y) = 0.17880 0.13181
# Poissons Ratio (z) = 0.38825 0.30840
#
# Static dielectric constant tensor:
#      x y z
#    x 2.451960 0.000000 -0.072690 
#    y 0.000000 1.946670 0.000000 
#    z -0.072690 0.000000 1.958340 
# 
# From -- ./inp_files/254060.got.cif
#   From: 2010.05.17/outbox.cif.g08.bks.cpg/sg12_128_cif.got.tgz:254060.got - 2010.06.03 13:09:07.
