data_PCOD9191195
_publ_section_title
;
Structure prediction by ZEFSAII (Michael W. Deem and Ramdas Pophale) SiO2 
 PCOD9191195
Probable space group: C 2/M
;
_chemical_formula_sum "Si O2"
_cell_formula_units_Z 58
_cell_length_a 30.348464
_cell_length_b 7.824765
_cell_length_c 12.013795
_cell_angle_alpha 90.000000
_cell_angle_beta 81.826667
_cell_angle_gamma 90.000000
_cell_volume 2823.932656
_symmetry_space_group_name_H-M "C 2/M"
_symmetry_group_IT_number 12
_symmetry_cell_setting 'monoclinic'
loop_
_space_group_symop_operation_xyz
x,y,z
-x,y,-z
-x,-y,-z
x,-y,z
1/2+x,1/2+y,z
1/2-x,1/2+y,-z
1/2-x,1/2-y,-z
1/2+x,1/2-y,z
loop_
_atom_site_type_symbol
_atom_site_label
_atom_site_fract_x
_atom_site_fract_y
_atom_site_fract_z
Si Si1 0.507083 0.202375 0.835601
Si Si2 0.276048 0.698084 0.600231
Si Si3 0.877659 0.294242 0.583978
Si Si4 0.826514 0.804238 0.977604
Si Si5 0.000000 0.000000 0.000000
Si Si6 0.464543 0.703112 0.418831
Si Si7 0.749398 0.697551 0.846168
Si Si8 0.908803 0.698292 0.813613
O O1 0.527935 0.215416 0.704636
O O2 0.455824 0.267732 0.837058
O O3 0.508954 0.000000 0.868694
O O4 0.524354 0.344283 0.915773
O O5 0.268858 0.500000 0.625640
O O6 0.250000 0.750000 0.500000
O O7 0.328595 0.731529 0.571814
O O8 0.256791 0.795551 0.713417
O O9 0.875780 0.500000 0.588207
O O10 0.915799 0.238565 0.485299
O O11 0.891368 0.228659 0.702643
O O12 0.789858 0.792743 0.892134
O O13 0.870285 0.712303 0.918624
O O14 0.839236 0.000000 0.992945
O O15 0.798240 0.737318 0.092848
O O16 0.500000 0.765197 0.500000
O O17 0.471359 0.500000 0.404061
O O18 0.752412 0.500000 0.882620
O O19 0.918105 0.500000 0.788159
#
# Coordination Sequence:
#
# PCOD9191195 Si02
#       8
#     8   8   8   8   2   8   8   8
#     4  11  24  44  70  99 134 180 224 273 336 403
#     4  12  25  42  63  88 121 169 217 262 322 398
#     4  11  22  38  63  97 134 168 208 269 332 395
#     4  10  20  32  57  89 122 156 200 258 316 368
#     4  12  26  48  66  94 128 184 226 270 316 406
#     4  11  22  38  66 105 141 173 218 282 343 399
#     4  10  20  36  55  84 120 159 202 255 313 371
#     4  10  21  36  61  96 130 163 208 264 325 389
#
# _framework density 20.538733000000001
#
# number of rings (size 3 to 8) (size 9 to 14) (size 15 to 20)
#    0.000    1.241    3.448    3.103    0.966    2.759 
#    0.000    1.379    0.000    1.655    0.000    0.000 
#    0.000    0.000    0.000    0.000    0.000    0.000 
#
# Total GULP energy -161701.040907 kJ/mol
# GULP energy per Si atom -5575.897962 kJ/mol
# Density = 2.049199 g / cm^3
# Si number density = 20.538733 Si / 1000 Ang^3
#
#
#
# Elastic Constant Matrix: (Units=GPa)
#
#
# Indices 1 2 3 4 5 6 
#
# 1 77.7029 -9.3500 40.8245 0.0000 -17.7572 0.0000
# 2 -9.3500 85.2691 3.2031 0.0000 7.7446 0.0000
# 3 40.8245 3.2031 119.2648 0.0000 -16.5134 0.0000
# 4 0.0000 0.0000 0.0000 26.0137 0.0000 -12.2275
# 5 -17.7572 7.7446 -16.5134 0.0000 29.4730 0.0000
# 6 0.0000 0.0000 0.0000 -12.2275 0.0000 -0.4285
#
#
#
# Elastic Compliance Matrix: (Units=1/GPa)
#
#
# Indices 1 2 3 4 5 6 
#
# 1 0.017307 0.001423 -0.004955 0.000000 0.007277 0.000000
# 2 0.001423 0.012206 -0.001236 0.000000 -0.003043 0.000000
# 3 -0.004955 -0.001236 0.010565 0.000000 0.003259 0.000000
# 4 0.000000 0.000000 0.000000 0.002667 0.000000 -0.076109
# 5 0.007277 -0.003043 0.003259 0.000000 0.040940 0.000000
# 6 0.000000 0.000000 0.000000 -0.076109 0.000000 -0.161919
#
#
# Mechanical properties :
#
#
# Convention : Reuss Voigt Hill
#
# Bulk Modulus (GPa) = 32.74130 39.06577 35.90353
# Shear Modulus (GPa) = -85.44533 27.51558 -28.96487
#
# Velocity S-wave (km/s) = -6.45696 3.66415 -3.75941
# Velocity P-wave (km/s) = 6.29396 6.07973 1.15126
#
# Compressibility (1/GPa) = 0.03054246
#
# Stress axis : x y z
#
# Youngs Moduli (GPa) = 57.77999 81.92412 94.65027
#
# Poissons Ratio (x) = -0.11657 0.46897
# Poissons Ratio (y) = -0.08222 0.11701
# Poissons Ratio (z) = 0.28629 0.10128
#
# Static dielectric constant tensor:
#      x y z
#    x 1.729770 0.000000 0.012880 
#    y 0.000000 1.741260 0.000000 
#    z 0.012880 0.000000 1.736530 
# 
# From -- ./inp_files/186563.got.cif
#   From: 2010.05.17/outbox.cif.g08.bks.cpg/sg12_94_cif.got.tgz:186563.got - 2010.06.03 13:09:07.
