data_PCOD9191692
_publ_section_title
;
Structure prediction by ZEFSAII (Michael W. Deem and Ramdas Pophale) SiO2 
 PCOD9191692
Probable space group: C 2/M
;
_chemical_formula_sum "Si O2"
_cell_formula_units_Z 56
_cell_length_a 21.122090
_cell_length_b 7.505956
_cell_length_c 17.393786
_cell_angle_alpha 90.000000
_cell_angle_beta 67.133129
_cell_angle_gamma 90.000000
_cell_volume 2540.914568
_symmetry_space_group_name_H-M "C 2/M"
_symmetry_group_IT_number 12
_symmetry_cell_setting 'monoclinic'
loop_
_space_group_symop_operation_xyz
x,y,z
-x,y,-z
-x,-y,-z
x,-y,z
1/2+x,1/2+y,z
1/2-x,1/2+y,-z
1/2-x,1/2-y,-z
1/2+x,1/2-y,z
loop_
_atom_site_type_symbol
_atom_site_label
_atom_site_fract_x
_atom_site_fract_y
_atom_site_fract_z
Si Si1 0.901911 0.281259 0.770456
Si Si2 0.256102 0.788092 0.792773
Si Si3 0.242625 0.283920 0.382746
Si Si4 0.863665 0.208150 0.436675
Si Si5 0.104551 0.286661 0.919515
Si Si6 0.474642 0.782329 0.890670
Si Si7 0.988587 0.297391 0.588804
O O1 0.905135 0.500000 0.769368
O O2 0.822487 0.225039 0.808478
O O3 0.945520 0.220955 0.823149
O O4 0.935498 0.219594 0.674608
O O5 0.257415 0.719325 0.704540
O O6 0.182823 0.757230 0.865759
O O7 0.264468 0.000000 0.782076
O O8 0.243279 0.500000 0.383269
O O9 0.176781 0.228027 0.463608
O O10 0.310440 0.224102 0.397397
O O11 0.936961 0.300155 0.406452
O O12 0.876323 0.000000 0.416477
O O13 0.099426 0.500000 0.923056
O O14 0.051282 0.224384 0.878742
O O15 0.074952 0.226212 0.015663
O O16 0.474643 0.000000 0.888960
O O17 0.963991 0.500000 0.585349
O O18 0.000000 0.211584 0.500000
#
# Coordination Sequence:
#
# PCOD9191692 Si02
#       7
#     8   8   8   8   8   8   8
#     4   9  18  32  52  75 101 139 180 211 248 309
#     4  10  20  34  53  77 105 136 170 212 259 308
#     4   9  19  35  51  71 104 139 172 211 259 313
#     4  10  20  33  51  75 101 134 174 219 263 302
#     4   9  18  33  55  78 103 133 169 215 262 305
#     4   8  16  33  53  76 103 134 173 213 252 306
#     4  10  20  34  53  75 101 137 178 214 255 308
#
# _framework density 22.03931
#
# number of rings (size 3 to 8) (size 9 to 14) (size 15 to 20)
#    0.000    2.714    0.000    2.143    2.000    4.286 
#    0.000    2.143    0.000    1.714    0.000    0.000 
#    0.000    0.000    0.000    0.000    0.000    0.000 
#
# Total GULP energy -156368.109857 kJ/mol
# GULP energy per Si atom -5584.575352 kJ/mol
# Density = 2.198915 g / cm^3
# Si number density = 22.039310 Si / 1000 Ang^3
#
#
#
# Elastic Constant Matrix: (Units=GPa)
#
#
# Indices 1 2 3 4 5 6 
#
# 1 134.8457 -0.0582 79.4902 -0.0001 -13.1793 0.0000
# 2 -0.0582 59.1125 -0.8797 0.0011 6.0452 0.0004
# 3 79.4902 -0.8797 96.9152 0.0000 3.4459 0.0000
# 4 -0.0001 0.0011 0.0000 103.0061 0.0000 -20.0535
# 5 -13.1793 6.0452 3.4459 0.0000 35.2133 0.0000
# 6 0.0000 0.0004 0.0000 -20.0535 0.0000 14.2097
#
#
#
# Elastic Compliance Matrix: (Units=1/GPa)
#
#
# Indices 1 2 3 4 5 6 
#
# 1 0.016092 -0.000952 -0.013474 0.000000 0.007505 0.000000
# 2 -0.000952 0.017282 0.001060 0.000000 -0.003427 -0.000001
# 3 -0.013474 0.001060 0.021640 0.000000 -0.007343 0.000000
# 4 0.000000 0.000000 0.000000 0.013386 0.000000 0.018891
# 5 0.007505 -0.003427 -0.007343 0.000000 0.032514 0.000000
# 6 0.000000 -0.000001 0.000000 0.018891 0.000000 0.097035
#
#
# Mechanical properties :
#
#
# Convention : Reuss Voigt Hill
#
# Bulk Modulus (GPa) = 35.35889 49.77532 42.56710
# Shear Modulus (GPa) = 21.35757 44.64055 32.99906
#
# Velocity S-wave (km/s) = 3.11636 4.50543 3.87367
# Velocity P-wave (km/s) = 5.38770 7.04976 6.27401
#
# Compressibility (1/GPa) = 0.02828143
#
# Stress axis : x y z
#
# Youngs Moduli (GPa) = 62.14363 57.86303 46.20979
#
# Poissons Ratio (x) = 0.05509 0.62263
# Poissons Ratio (y) = 0.05917 -0.04897
# Poissons Ratio (z) = 0.83732 -0.06132
#
# Static dielectric constant tensor:
#      x y z
#    x 1.797430 0.000000 0.013310 
#    y 0.000000 1.885990 0.000000 
#    z 0.013310 0.000000 1.778700 
# 
# From -- ./inp_files/280923.got.cif
#   From: 2010.05.17/outbox.cif.g08.bks.cpg/sg12_141_cif.got.tgz:280923.got - 2010.06.03 13:09:07.
