data_PCOD9191325
_publ_section_title
;
Structure prediction by ZEFSAII (Michael W. Deem and Ramdas Pophale) SiO2 
 PCOD9191325
Probable space group: C 2/M
;
_chemical_formula_sum "Si O2"
_cell_formula_units_Z 48
_cell_length_a 22.074386
_cell_length_b 9.380446
_cell_length_c 12.580227
_cell_angle_alpha 90.000000
_cell_angle_beta 107.724645
_cell_angle_gamma 90.000000
_cell_volume 2481.301523
_symmetry_space_group_name_H-M "C 2/M"
_symmetry_group_IT_number 12
_symmetry_cell_setting 'monoclinic'
loop_
_space_group_symop_operation_xyz
x,y,z
-x,y,-z
-x,-y,-z
x,-y,z
1/2+x,1/2+y,z
1/2-x,1/2+y,-z
1/2-x,1/2-y,-z
1/2+x,1/2-y,z
loop_
_atom_site_type_symbol
_atom_site_label
_atom_site_fract_x
_atom_site_fract_y
_atom_site_fract_z
Si Si1 0.576021 0.660799 0.561778
Si Si2 0.411577 0.833073 0.639589
Si Si3 0.230233 0.666949 0.384836
Si Si4 0.246369 0.329692 0.162275
Si Si5 0.037423 0.828147 0.771056
Si Si6 0.847933 0.830201 0.030411
O O1 0.500000 0.652476 0.500000
O O2 0.602260 0.500000 0.564424
O O3 0.600350 0.764567 0.483462
O O4 0.577921 0.705457 0.685499
O O5 0.345987 0.818424 0.667921
O O6 0.470497 0.750908 0.724272
O O7 0.426955 0.000000 0.636448
O O8 0.243951 0.500000 0.408282
O O9 0.250000 0.750000 0.500000
O O10 0.261204 0.715904 0.290654
O O11 0.236397 0.500000 0.160111
O O12 0.302284 0.301971 0.107867
O O13 0.183769 0.253587 0.082959
O O14 0.080945 0.791311 0.895097
O O15 0.027767 0.000000 0.763827
O O16 0.846207 0.000000 0.009607
#
# Coordination Sequence:
#
# PCOD9191325 Si02
#       6
#     8   8   8   8   8   8
#     4   8  15  28  47  70  99 137 174 207 251 308
#     4  10  20  33  48  75 109 138 173 218 263 311
#     4  10  23  39  56  78 107 144 182 216 261 321
#     4   9  19  37  57  78 106 139 175 220 269 313
#     4   9  18  32  52  78 104 137 178 215 260 317
#     4   9  18  34  58  83 105 132 176 226 265 311
#
# _framework density 19.344685999999999
#
# number of rings (size 3 to 8) (size 9 to 14) (size 15 to 20)
#    0.000    2.833    0.000    1.500    2.333    5.667 
#    0.000    0.833    0.000    5.000    0.000    0.000 
#    0.000    0.000    0.000    0.000    0.000    0.000 
#
# Total GULP energy -133849.888196 kJ/mol
# GULP energy per Si atom -5577.078675 kJ/mol
# Density = 1.930066 g / cm^3
# Si number density = 19.344686 Si / 1000 Ang^3
#
#
#
# Elastic Constant Matrix: (Units=GPa)
#
#
# Indices 1 2 3 4 5 6 
#
# 1 50.8274 23.9427 15.4840 0.0000 9.5363 0.0000
# 2 23.9427 38.6437 33.3526 0.0000 3.4205 0.0000
# 3 15.4840 33.3526 110.0055 0.0000 12.5768 0.0000
# 4 0.0000 0.0000 0.0000 26.7822 0.0000 0.6033
# 5 9.5363 3.4205 12.5768 0.0000 31.7677 0.0000
# 6 0.0000 0.0000 0.0000 0.6033 0.0000 16.2713
#
#
#
# Elastic Compliance Matrix: (Units=1/GPa)
#
#
# Indices 1 2 3 4 5 6 
#
# 1 0.029819 -0.020225 0.002838 0.000000 -0.007897 0.000000
# 2 -0.020225 0.048774 -0.012605 0.000000 0.005810 0.000000
# 3 0.002838 -0.012605 0.013045 0.000000 -0.004659 0.000000
# 4 0.000000 0.000000 0.000000 0.037369 0.000000 -0.001386
# 5 -0.007897 0.005810 -0.004659 0.000000 0.035068 0.000000
# 6 0.000000 0.000000 0.000000 -0.001386 0.000000 0.061509
#
#
# Mechanical properties :
#
#
# Convention : Reuss Voigt Hill
#
# Bulk Modulus (GPa) = 31.59298 38.33726 34.96512
# Shear Modulus (GPa) = 16.88497 23.41070 20.14783
#
# Velocity S-wave (km/s) = 2.95761 3.48255 3.23076
# Velocity P-wave (km/s) = 5.29436 6.00265 5.65960
#
# Compressibility (1/GPa) = 0.03165260
#
# Stress axis : x y z
#
# Youngs Moduli (GPa) = 33.53572 20.50291 76.65498
#
# Poissons Ratio (x) = 0.41468 -0.21753
# Poissons Ratio (y) = 0.67827 0.96624
# Poissons Ratio (z) = -0.09517 0.25844
#
# Static dielectric constant tensor:
#      x y z
#    x 1.705640 0.000000 0.004080 
#    y 0.000000 1.643790 0.000000 
#    z 0.004080 0.000000 1.699200 
# 
# From -- ./inp_files/173053.got.cif
#   From: 2010.05.17/outbox.cif.g08.bks.cpg/sg12_87_cif.got.tgz:173053.got - 2010.06.03 13:09:07.
