data_PCOD9191269
_publ_section_title
;
Structure prediction by ZEFSAII (Michael W. Deem and Ramdas Pophale) SiO2 
 PCOD9191269
Probable space group: C 2/M
;
_chemical_formula_sum "Si O2"
_cell_formula_units_Z 64
_cell_length_a 19.762586
_cell_length_b 9.557986
_cell_length_c 21.870963
_cell_angle_alpha 90.000000
_cell_angle_beta 119.770678
_cell_angle_gamma 90.000000
_cell_volume 3585.978137
_symmetry_space_group_name_H-M "C 2/M"
_symmetry_group_IT_number 12
_symmetry_cell_setting 'monoclinic'
loop_
_space_group_symop_operation_xyz
x,y,z
-x,y,-z
-x,-y,-z
x,-y,z
1/2+x,1/2+y,z
1/2-x,1/2+y,-z
1/2-x,1/2-y,-z
1/2+x,1/2-y,z
loop_
_atom_site_type_symbol
_atom_site_label
_atom_site_fract_x
_atom_site_fract_y
_atom_site_fract_z
Si Si1 0.381693 0.340312 0.279604
Si Si2 0.726303 0.831474 0.928300
Si Si3 0.143188 0.659101 0.480726
Si Si4 0.500802 0.343801 0.428233
Si Si5 0.054159 0.333392 0.800360
Si Si6 0.209986 0.333603 0.158509
Si Si7 0.263499 0.161302 0.605750
Si Si8 0.383134 0.170076 0.766650
O O1 0.396137 0.500000 0.265821
O O2 0.415727 0.324053 0.362035
O O3 0.428608 0.239846 0.256002
O O4 0.290215 0.318787 0.232645
O O5 0.633640 0.807058 0.874348
O O6 0.774977 0.761112 0.894305
O O7 0.738467 0.000000 0.936886
O O8 0.750000 0.750000 0.000000
O O9 0.134621 0.500000 0.496917
O O10 0.060894 0.730677 0.431910
O O11 0.190193 0.744708 0.553548
O O12 0.187668 0.660475 0.435775
O O13 0.500000 0.336751 0.500000
O O14 0.527792 0.500000 0.422034
O O15 0.048730 0.500000 0.789802
O O16 0.971408 0.285035 0.790700
O O17 0.201069 0.500000 0.138690
O O18 0.143463 0.290319 0.176760
O O19 0.319916 0.211673 0.686135
O O20 0.239974 0.000000 0.608420
O O21 0.382101 0.000000 0.765035
#
# Coordination Sequence:
#
# PCOD9191269 Si02
#       8
#     8   8   8   8   8   8   8   8
#     4   9  18  32  50  74 100 133 175 218 263 313
#     4  10  20  36  59  83 111 143 174 206 246 302
#     4  10  20  33  47  69  97 129 174 223 272 317
#     4  10  21  33  48  68  95 132 176 221 266 318
#     4   9  18  34  56  82 106 135 172 211 256 305
#     4   9  18  33  55  81 107 134 172 215 258 310
#     4   9  18  32  52  71  95 133 171 212 262 321
#     4   9  17  31  55  80 102 133 174 216 259 309
#
# _framework density 17.847293000000001
#
# number of rings (size 3 to 8) (size 9 to 14) (size 15 to 20)
#    0.000    2.625    0.000    1.500    1.750    2.750 
#    0.000    2.500    0.000    3.750    0.000    0.000 
#    0.000    0.000    0.000    0.000    0.000    0.000 
#
# Total GULP energy -178302.379784 kJ/mol
# GULP energy per Si atom -5571.949368 kJ/mol
# Density = 1.780667 g / cm^3
# Si number density = 17.847293 Si / 1000 Ang^3
#
#
#
# Elastic Constant Matrix: (Units=GPa)
#
#
# Indices 1 2 3 4 5 6 
#
# 1 65.0276 21.5940 21.0240 0.0000 -9.8836 0.0000
# 2 21.5940 50.8075 32.1956 0.0000 -3.0604 0.0000
# 3 21.0240 32.1956 96.0715 0.0000 -9.4381 0.0000
# 4 0.0000 0.0000 0.0000 18.6321 0.0000 3.1983
# 5 -9.8836 -3.0604 -9.4381 0.0000 11.1354 0.0000
# 6 0.0000 0.0000 0.0000 3.1983 0.0000 19.2000
#
#
#
# Elastic Compliance Matrix: (Units=1/GPa)
#
#
# Indices 1 2 3 4 5 6 
#
# 1 0.020370 -0.007446 -0.000423 0.000000 0.015676 0.000000
# 2 -0.007446 0.027711 -0.008245 0.000000 -0.005981 0.000000
# 3 -0.000423 -0.008245 0.014186 0.000000 0.009383 0.000000
# 4 0.000000 0.000000 0.000000 0.055251 0.000000 -0.009204
# 5 0.015676 -0.005981 0.009383 0.000000 0.110027 0.000000
# 6 0.000000 0.000000 0.000000 -0.009204 0.000000 0.053617
#
#
# Mechanical properties :
#
#
# Convention : Reuss Voigt Hill
#
# Bulk Modulus (GPa) = 33.28757 40.17043 36.72900
# Shear Modulus (GPa) = 15.46074 18.93302 17.19688
#
# Velocity S-wave (km/s) = 2.94646 3.26058 3.10749
# Velocity P-wave (km/s) = 5.50157 6.06068 5.78788
#
# Compressibility (1/GPa) = 0.03004124
#
# Stress axis : x y z
#
# Youngs Moduli (GPa) = 49.09250 36.08693 70.49130
#
# Poissons Ratio (x) = 0.26869 0.02978
# Poissons Ratio (y) = 0.36552 0.58118
# Poissons Ratio (z) = 0.02074 0.29753
#
# Static dielectric constant tensor:
#      x y z
#    x 1.620830 0.000000 0.007630 
#    y 0.000000 1.607810 0.000000 
#    z 0.007630 0.000000 1.613400 
# 
# From -- ./inp_files/320063.got.cif
#   From: 2010.05.17/outbox.cif.g08.bks.cpg/sg12_161_cif.got.tgz:320063.got - 2010.06.03 13:09:07.
