data_PCOD9191422
_publ_section_title
;
Structure prediction by ZEFSAII (Michael W. Deem and Ramdas Pophale) SiO2 
 PCOD9191422
Probable space group: C 2/M
;
_chemical_formula_sum "Si O2"
_cell_formula_units_Z 64
_cell_length_a 19.129140
_cell_length_b 7.615164
_cell_length_c 22.464485
_cell_angle_alpha 90.000000
_cell_angle_beta 121.483228
_cell_angle_gamma 90.000000
_cell_volume 2790.710840
_symmetry_space_group_name_H-M "C 2/M"
_symmetry_group_IT_number 12
_symmetry_cell_setting 'monoclinic'
loop_
_space_group_symop_operation_xyz
x,y,z
-x,y,-z
-x,-y,-z
x,-y,z
1/2+x,1/2+y,z
1/2-x,1/2+y,-z
1/2-x,1/2-y,-z
1/2+x,1/2-y,z
loop_
_atom_site_type_symbol
_atom_site_label
_atom_site_fract_x
_atom_site_fract_y
_atom_site_fract_z
Si Si1 0.178063 0.697543 0.146890
Si Si2 0.771991 0.789594 0.077251
Si Si3 0.840084 0.297508 0.280591
Si Si4 0.116819 0.711648 0.239759
Si Si5 0.364742 0.289499 0.542650
Si Si6 0.465079 0.790347 0.423755
Si Si7 0.561472 0.290072 0.787463
Si Si8 0.243652 0.297348 0.393044
O O1 0.147396 0.500000 0.121207
O O2 0.205697 0.780535 0.096308
O O3 0.265037 0.692270 0.220353
O O4 0.121604 0.778720 0.173562
O O5 0.864252 0.732528 0.135457
O O6 0.770716 0.000000 0.084389
O O7 0.750000 0.750000 0.000000
O O8 0.814913 0.500000 0.276840
O O9 0.880366 0.224979 0.358564
O O10 0.911608 0.291711 0.263078
O O11 0.125914 0.500000 0.241035
O O12 0.192225 0.779369 0.314667
O O13 0.029021 0.747210 0.230090
O O14 0.353712 0.500000 0.539569
O O15 0.459529 0.244882 0.586543
O O16 0.323946 0.220902 0.462410
O O17 0.319435 0.210446 0.579175
O O18 0.500000 0.712014 0.500000
O O19 0.455377 0.000000 0.425590
O O20 0.565701 0.500000 0.782535
O O21 0.260602 0.500000 0.386763
#
# Coordination Sequence:
#
# PCOD9191422 Si02
#       8
#     8   8   8   8   8   8   8   8
#     4   9  20  37  57  83 115 144 177 225 275 318
#     4   9  19  37  60  85 112 145 179 214 259 314
#     4  10  20  35  55  77 103 142 189 228 272 331
#     4  10  20  35  56  80 109 144 181 222 271 323
#     4  10  20  33  49  72  96 128 178 225 270 322
#     4  10  22  36  48  67 100 137 174 223 276 321
#     4  10  21  37  57  84 114 142 178 223 267 314
#     4   9  19  34  51  71  99 135 172 216 269 323
#
# _framework density 22.933223999999999
#
# number of rings (size 3 to 8) (size 9 to 14) (size 15 to 20)
#    0.000    2.375    0.000    2.625    1.750    8.250 
#    0.000    0.625    0.000    3.750    0.000    0.000 
#    0.000    0.000    0.000    0.000    0.000    0.000 
#
# Total GULP energy -178633.179895 kJ/mol
# GULP energy per Si atom -5582.286872 kJ/mol
# Density = 2.288103 g / cm^3
# Si number density = 22.933224 Si / 1000 Ang^3
#
#
#
# Elastic Constant Matrix: (Units=GPa)
#
#
# Indices 1 2 3 4 5 6 
#
# 1 79.4574 7.9899 2.3457 0.0000 -13.4430 0.0000
# 2 7.9899 70.7909 16.5188 0.0000 -3.6054 0.0000
# 3 2.3457 16.5188 91.4152 0.0000 -14.2424 0.0000
# 4 0.0000 0.0000 0.0000 14.0579 0.0000 3.8761
# 5 -13.4430 -3.6054 -14.2424 0.0000 32.6797 0.0000
# 6 0.0000 0.0000 0.0000 3.8761 0.0000 21.6459
#
#
#
# Elastic Compliance Matrix: (Units=1/GPa)
#
#
# Indices 1 2 3 4 5 6 
#
# 1 0.013692 -0.001439 0.000817 0.000000 0.005830 0.000000
# 2 -0.001439 0.014907 -0.002674 0.000000 -0.000113 0.000000
# 3 0.000817 -0.002674 0.012239 0.000000 0.005375 0.000000
# 4 0.000000 0.000000 0.000000 0.074829 0.000000 -0.013400
# 5 0.005830 -0.000113 0.005375 0.000000 0.035328 0.000000
# 6 0.000000 0.000000 0.000000 -0.013400 0.000000 0.048598
#
#
# Mechanical properties :
#
#
# Convention : Reuss Voigt Hill
#
# Bulk Modulus (GPa) = 29.20143 32.81914 31.01028
# Shear Modulus (GPa) = 22.97788 27.99731 25.48760
#
# Velocity S-wave (km/s) = 3.16879 3.49781 3.33736
# Velocity P-wave (km/s) = 5.11363 5.53667 5.32935
#
# Compressibility (1/GPa) = 0.03424490
#
# Stress axis : x y z
#
# Youngs Moduli (GPa) = 73.03404 67.08333 81.70734
#
# Poissons Ratio (x) = 0.09654 -0.06675
# Poissons Ratio (y) = 0.10510 0.21851
# Poissons Ratio (z) = -0.05967 0.17940
#
# Static dielectric constant tensor:
#      x y z
#    x 1.899210 0.000000 -0.049090 
#    y 0.000000 1.855630 0.000000 
#    z -0.049090 0.000000 1.882750 
# 
# From -- ./inp_files/320150.got.cif
#   From: 2010.05.17/outbox.cif.g08.bks.cpg/sg12_161_cif.got.tgz:320150.got - 2010.06.03 13:09:07.
