data_PCOD9191672
_publ_section_title
;
Structure prediction by ZEFSAII (Michael W. Deem and Ramdas Pophale) SiO2 
 PCOD9191672
Probable space group: C 2/M
;
_chemical_formula_sum "Si O2"
_cell_formula_units_Z 48
_cell_length_a 27.964375
_cell_length_b 8.733768
_cell_length_c 24.259804
_cell_angle_alpha 90.000000
_cell_angle_beta 29.827333
_cell_angle_gamma 90.000000
_cell_volume 2947.061837
_symmetry_space_group_name_H-M "C 2/M"
_symmetry_group_IT_number 12
_symmetry_cell_setting 'monoclinic'
loop_
_space_group_symop_operation_xyz
x,y,z
-x,y,-z
-x,-y,-z
x,-y,z
1/2+x,1/2+y,z
1/2-x,1/2+y,-z
1/2-x,1/2-y,-z
1/2+x,1/2-y,z
loop_
_atom_site_type_symbol
_atom_site_label
_atom_site_fract_x
_atom_site_fract_y
_atom_site_fract_z
Si Si1 0.893537 0.317118 0.047150
Si Si2 0.606458 0.682881 0.834229
Si Si3 0.102368 0.817135 0.626202
Si Si4 0.397634 0.182866 0.830936
Si Si5 0.796284 0.682776 0.368536
Si Si6 0.703718 0.682777 0.961104
O O1 0.899013 0.500000 0.044426
O O2 0.863819 0.250001 0.136182
O O3 0.824533 0.263022 0.067312
O O4 0.999999 0.250005 0.929229
O O5 0.600973 0.500000 0.842469
O O6 0.675464 0.736963 0.716380
O O7 0.134516 0.743164 0.652027
O O8 0.188166 0.783498 0.497454
O O9 0.000000 0.750006 0.711632
O O10 0.096452 0.000000 0.638733
O O11 0.311835 0.216509 0.873786
O O12 0.403554 0.000000 0.831625
O O13 0.365486 0.256823 0.921058
O O14 0.807164 0.500000 0.352437
O O15 0.692839 0.500000 0.966771
#
# Coordination Sequence:
#
# PCOD9191672 Si02
#       6
#     8   8   8   8   8   8
#     4  11  21  34  52  74 101 131 164 202 245 292
#     4  11  21  34  52  74 101 131 164 202 245 292
#     4  10  20  33  51  74 101 132 165 203 245 291
#     4  10  20  33  51  74 101 132 165 203 245 291
#     4  10  20  34  51  73 101 132 166 202 244 292
#     4  10  20  34  51  73 101 132 166 202 244 292
#
# _framework density 16.287409
#
# number of rings (size 3 to 8) (size 9 to 14) (size 15 to 20)
#    0.000    1.667    0.000    7.000    0.000    4.000 
#    0.000    0.000    0.000    1.000    0.000    7.000 
#    0.000    0.000    0.000    0.000    0.000    0.000 
#
# Total GULP energy -134071.695147 kJ/mol
# GULP energy per Si atom -5586.320631 kJ/mol
# Density = 1.625034 g / cm^3
# Si number density = 16.287409 Si / 1000 Ang^3
#
#
#
# Elastic Constant Matrix: (Units=GPa)
#
#
# Indices 1 2 3 4 5 6 
#
# 1 113.8996 70.2840 68.5960 0.0000 10.9311 -0.0001
# 2 70.2840 125.4741 62.4389 0.0048 6.1306 -0.0041
# 3 68.5960 62.4389 93.5621 0.0017 4.9621 -0.0014
# 4 0.0000 0.0048 0.0017 28.5219 -0.0010 0.1501
# 5 10.9311 6.1306 4.9621 -0.0010 20.3235 0.0010
# 6 -0.0001 -0.0041 -0.0014 0.1501 0.0010 28.7138
#
#
#
# Elastic Compliance Matrix: (Units=1/GPa)
#
#
# Indices 1 2 3 4 5 6 
#
# 1 0.018401 -0.005180 -0.009717 0.000001 -0.005962 -0.000001
# 2 -0.005180 0.013447 -0.005176 -0.000002 -0.000006 0.000002
# 3 -0.009717 -0.005176 0.021181 0.000000 0.001616 0.000000
# 4 0.000001 -0.000002 0.000000 0.035062 0.000002 -0.000183
# 5 -0.005962 -0.000006 0.001616 0.000002 0.052018 -0.000002
# 6 -0.000001 0.000002 0.000000 -0.000183 -0.000002 0.034827
#
#
# Mechanical properties :
#
#
# Convention : Reuss Voigt Hill
#
# Bulk Modulus (GPa) = 77.62794 81.73040 79.67917
# Shear Modulus (GPa) = 22.79180 24.28633 23.53906
#
# Velocity S-wave (km/s) = 3.74485 3.86568 3.80574
# Velocity P-wave (km/s) = 8.15250 8.37936 8.26671
#
# Compressibility (1/GPa) = 0.01288196
#
# Stress axis : x y z
#
# Youngs Moduli (GPa) = 54.34586 74.36379 47.21213
#
# Poissons Ratio (x) = 0.38522 0.45878
# Poissons Ratio (y) = 0.28152 0.24437
# Poissons Ratio (z) = 0.52810 0.38490
#
# Static dielectric constant tensor:
#      x y z
#    x 1.527940 0.000000 -0.005300 
#    y 0.000000 1.541800 0.000000 
#    z -0.005300 0.000000 1.534730 
# 
# From -- ./inp_files/351032.got.cif
#   From: 2010.05.17/outbox.cif.g08.bks.cpg/sg12_176_cif.got.tgz:351032.got - 2010.06.03 13:09:07.
