data_PCOD9191491
_publ_section_title
;
Structure prediction by ZEFSAII (Michael W. Deem and Ramdas Pophale) SiO2 
 PCOD9191491
Probable space group: C 2/M
;
_chemical_formula_sum "Si O2"
_cell_formula_units_Z 56
_cell_length_a 22.864566
_cell_length_b 9.036536
_cell_length_c 21.352919
_cell_angle_alpha 90.000000
_cell_angle_beta 129.300476
_cell_angle_gamma 90.000000
_cell_volume 3414.055189
_symmetry_space_group_name_H-M "C 2/M"
_symmetry_group_IT_number 12
_symmetry_cell_setting 'monoclinic'
loop_
_space_group_symop_operation_xyz
x,y,z
-x,y,-z
-x,-y,-z
x,-y,z
1/2+x,1/2+y,z
1/2-x,1/2+y,-z
1/2-x,1/2-y,-z
1/2+x,1/2-y,z
loop_
_atom_site_type_symbol
_atom_site_label
_atom_site_fract_x
_atom_site_fract_y
_atom_site_fract_z
Si Si1 0.649312 0.175950 0.884934
Si Si2 0.414363 0.824297 0.918478
Si Si3 0.319257 0.323897 0.963163
Si Si4 0.757794 0.669472 0.604201
Si Si5 0.884013 0.176502 0.764566
Si Si6 0.512919 0.821838 0.272006
Si Si7 0.635483 0.829820 0.447691
O O1 0.729307 0.206606 0.906227
O O2 0.575781 0.208896 0.793677
O O3 0.647945 0.000000 0.898925
O O4 0.647365 0.265436 0.948434
O O5 0.358701 0.759562 0.933108
O O6 0.400989 0.743078 0.843856
O O7 0.403178 0.000000 0.903222
O O8 0.500000 0.799943 0.000000
O O9 0.330428 0.500000 0.965236
O O10 0.753258 0.500000 0.622230
O O11 0.802454 0.768472 0.684266
O O12 0.677246 0.732244 0.527667
O O13 0.810279 0.671900 0.577137
O O14 0.944474 0.242256 0.756205
O O15 0.887576 0.000000 0.767414
O O16 0.555174 0.779370 0.365060
O O17 0.524178 0.000000 0.272935
O O18 0.630470 0.000000 0.465516
#
# Coordination Sequence:
#
# PCOD9191491 Si02
#       7
#     8   8   8   8   8   8   8
#     4   9  18  33  51  70  95 126 156 189 232 279
#     4  11  23  37  51  67  92 126 159 191 232 281
#     4  10  20  33  50  72  95 121 157 197 233 271
#     4   9  16  27  42  61  90 125 156 186 227 279
#     4  11  21  31  46  69  96 124 157 196 233 273
#     4   9  17  30  47  68  96 128 158 188 229 280
#     4   8  14  24  40  63  90 120 154 190 225 266
#
# _framework density 16.402781000000001
#
# number of rings (size 3 to 8) (size 9 to 14) (size 15 to 20)
#    0.000    2.429    0.000    4.286    0.000    9.143 
#    0.000    0.000    0.000    0.000    0.000    1.000 
#    0.000    8.000    0.000    0.000    0.000    0.000 
#
# Total GULP energy -156124.692504 kJ/mol
# GULP energy per Si atom -5575.881875 kJ/mol
# Density = 1.636545 g / cm^3
# Si number density = 16.402781 Si / 1000 Ang^3
#
#
#
# Elastic Constant Matrix: (Units=GPa)
#
#
# Indices 1 2 3 4 5 6 
#
# 1 39.4120 30.7951 34.9095 0.0000 7.4940 0.0000
# 2 30.7951 76.8751 57.4052 0.0000 4.1437 0.0000
# 3 34.9095 57.4052 117.3682 0.0000 25.2612 0.0000
# 4 0.0000 0.0000 0.0000 24.4867 0.0000 5.9733
# 5 7.4940 4.1437 25.2612 0.0000 24.3372 0.0000
# 6 0.0000 0.0000 0.0000 5.9733 0.0000 12.0725
#
#
#
# Elastic Compliance Matrix: (Units=1/GPa)
#
#
# Indices 1 2 3 4 5 6 
#
# 1 0.040207 -0.012189 -0.004866 0.000000 -0.005254 0.000000
# 2 -0.012189 0.025804 -0.011406 0.000000 0.011199 0.000000
# 3 -0.004866 -0.011406 0.019065 0.000000 -0.016348 0.000000
# 4 0.000000 0.000000 0.000000 0.046444 0.000000 -0.022980
# 5 -0.005254 0.011199 -0.016348 0.000000 0.057769 0.000000
# 6 0.000000 0.000000 0.000000 -0.022980 0.000000 0.094203
#
#
# Mechanical properties :
#
#
# Convention : Reuss Voigt Hill
#
# Bulk Modulus (GPa) = 35.51977 53.31944 44.41961
# Shear Modulus (GPa) = 14.29390 19.54898 16.92144
#
# Velocity S-wave (km/s) = 2.95520 3.45600 3.21537
# Velocity P-wave (km/s) = 5.77460 6.96435 6.39720
#
# Compressibility (1/GPa) = 0.02815334
#
# Stress axis : x y z
#
# Youngs Moduli (GPa) = 24.87159 38.75305 52.45262
#
# Poissons Ratio (x) = 0.47237 0.25524
# Poissons Ratio (y) = 0.30317 0.59827
# Poissons Ratio (z) = 0.12103 0.44201
#
# Static dielectric constant tensor:
#      x y z
#    x 1.530930 0.000000 0.029840 
#    y 0.000000 1.550000 0.000000 
#    z 0.029840 0.000000 1.561860 
# 
# From -- ./inp_files/323825.got.cif
#   From: 2010.05.17/outbox.cif.g08.bks.cpg/sg12_162_cif.got.tgz:323825.got - 2010.06.03 13:09:07.
