data_PCOD9191604
_publ_section_title
;
Structure prediction by ZEFSAII (Michael W. Deem and Ramdas Pophale) SiO2 
 PCOD9191604
Probable space group: C 2/M
;
_chemical_formula_sum "Si O2"
_cell_formula_units_Z 48
_cell_length_a 25.091959
_cell_length_b 7.436484
_cell_length_c 18.804142
_cell_angle_alpha 90.000000
_cell_angle_beta 33.237452
_cell_angle_gamma 90.000000
_cell_volume 1923.195869
_symmetry_space_group_name_H-M "C 2/M"
_symmetry_group_IT_number 12
_symmetry_cell_setting 'monoclinic'
loop_
_space_group_symop_operation_xyz
x,y,z
-x,y,-z
-x,-y,-z
x,-y,z
1/2+x,1/2+y,z
1/2-x,1/2+y,-z
1/2-x,1/2-y,-z
1/2+x,1/2-y,z
loop_
_atom_site_type_symbol
_atom_site_label
_atom_site_fract_x
_atom_site_fract_y
_atom_site_fract_z
Si Si1 0.133604 0.204281 0.715313
Si Si2 0.434443 0.793928 0.511992
Si Si3 0.152672 0.720728 0.529155
Si Si4 0.069549 0.783576 0.081139
Si Si5 0.140459 0.214110 0.149505
Si Si6 0.714939 0.286342 0.213829
O O1 0.135082 0.205909 0.627171
O O2 0.238995 0.282140 0.615393
O O3 0.027623 0.285088 0.849246
O O4 0.134355 0.000000 0.741765
O O5 0.500000 0.706106 0.500000
O O6 0.424055 0.718122 0.444698
O O7 0.327713 0.793339 0.666778
O O8 0.465318 0.000000 0.469296
O O9 0.152852 0.500000 0.532294
O O10 0.077312 0.713190 0.154148
O O11 0.059855 0.000000 0.096316
O O12 0.172310 0.749425 0.928668
O O13 0.148314 0.281614 0.221663
O O14 0.125721 0.000000 0.169489
O O15 0.250000 0.250000 0.000000
O O16 0.703998 0.500000 0.229552
#
# Coordination Sequence:
#
# PCOD9191604 Si02
#       6
#     8   8   8   8   8   8
#     4   9  18  33  57  82 104 133 171 216 264 308
#     4  10  22  38  54  73 103 144 180 210 253 311
#     4   9  19  36  54  77 106 136 175 218 257 305
#     4   9  17  31  52  76 103 135 169 207 260 316
#     4   8  15  27  43  67  98 128 159 199 244 294
#     4  10  20  33  50  76 106 135 172 216 260 304
#
# _framework density 24.958456999999999
#
# number of rings (size 3 to 8) (size 9 to 14) (size 15 to 20)
#    0.000    2.833    0.000    0.500    2.333    2.333 
#    0.000    0.833    0.000    5.000    0.000    0.000 
#    0.000    0.000    0.000    0.000    0.000    0.000 
#
# Total GULP energy -133974.125944 kJ/mol
# GULP energy per Si atom -5582.255248 kJ/mol
# Density = 2.490165 g / cm^3
# Si number density = 24.958457 Si / 1000 Ang^3
#
#
#
# Elastic Constant Matrix: (Units=GPa)
#
#
# Indices 1 2 3 4 5 6 
#
# 1 85.6934 -3.5663 5.0632 0.0061 -12.2506 -0.0041
# 2 -3.5663 107.0556 6.5672 0.0292 -5.8814 -0.0099
# 3 5.0632 6.5672 97.1021 0.0286 -15.1409 -0.0112
# 4 0.0061 0.0292 0.0286 16.7140 -0.0117 1.2989
# 5 -12.2506 -5.8814 -15.1409 -0.0117 46.7439 0.0012
# 6 -0.0041 -0.0099 -0.0112 1.2989 0.0012 5.1431
#
#
#
# Elastic Compliance Matrix: (Units=1/GPa)
#
#
# Indices 1 2 3 4 5 6 
#
# 1 0.012163 0.000592 -0.000174 -0.000004 0.003206 0.000011
# 2 0.000592 0.009456 -0.000485 -0.000017 0.001188 0.000022
# 3 -0.000174 -0.000485 0.010873 -0.000017 0.003415 0.000026
# 4 -0.000004 -0.000017 -0.000017 0.061028 0.000007 -0.015412
# 5 0.003206 0.001188 0.003415 0.000007 0.023489 0.000005
# 6 0.000011 0.000022 0.000026 -0.015412 0.000005 0.198327
#
#
# Mechanical properties :
#
#
# Convention : Reuss Voigt Hill
#
# Bulk Modulus (GPa) = 30.90607 33.99769 32.45188
# Shear Modulus (GPa) = 15.32543 32.50602 23.91573
#
# Velocity S-wave (km/s) = 2.48067 3.61280 3.09887
# Velocity P-wave (km/s) = 4.54036 5.57265 5.08278
#
# Compressibility (1/GPa) = 0.03235610
#
# Stress axis : x y z
#
# Youngs Moduli (GPa) = 82.21849 105.75649 91.97214
#
# Poissons Ratio (x) = -0.06261 0.01604
# Poissons Ratio (y) = -0.04867 0.04462
# Poissons Ratio (z) = 0.01434 0.05131
#
# Static dielectric constant tensor:
#      x y z
#    x 1.993040 0.000000 -0.032820 
#    y 0.000000 1.914520 -0.000010 
#    z -0.032820 -0.000010 1.927840 
# 
# From -- ./inp_files/327155.got.cif
#   From: 2010.05.17/outbox.cif.g08.bks.cpg/sg12_164_cif.got.tgz:327155.got - 2010.06.03 13:09:07.
