data_PCOD9191051
_publ_section_title
;
Structure prediction by ZEFSAII (Michael W. Deem and Ramdas Pophale) SiO2 
 PCOD9191051
Probable space group: C 2/M
;
_chemical_formula_sum "Si O2"
_cell_formula_units_Z 40
_cell_length_a 23.846577
_cell_length_b 10.785635
_cell_length_c 19.591774
_cell_angle_alpha 90.000000
_cell_angle_beta 24.326931
_cell_angle_gamma 90.000000
_cell_volume 2075.784885
_symmetry_space_group_name_H-M "C 2/M"
_symmetry_group_IT_number 12
_symmetry_cell_setting 'monoclinic'
loop_
_space_group_symop_operation_xyz
x,y,z
-x,y,-z
-x,-y,-z
x,-y,z
1/2+x,1/2+y,z
1/2-x,1/2+y,-z
1/2-x,1/2-y,-z
1/2+x,1/2-y,z
loop_
_atom_site_type_symbol
_atom_site_label
_atom_site_fract_x
_atom_site_fract_y
_atom_site_fract_z
Si Si1 0.098734 0.641839 0.602330
Si Si2 0.657451 0.133380 0.803739
Si Si3 0.673474 0.358632 0.884684
Si Si4 0.897661 0.774815 0.262508
Si Si5 0.540695 0.853545 0.380279
O O1 0.050993 0.500000 0.664551
O O2 0.062088 0.724954 0.708079
O O3 0.262983 0.642197 0.416498
O O4 0.034780 0.694369 0.603083
O O5 0.702123 0.256386 0.794727
O O6 0.653852 0.161088 0.727610
O O7 0.723522 0.000000 0.746416
O O8 0.500000 0.123673 0.000000
O O9 0.678847 0.500000 0.851822
O O10 0.795797 0.344890 0.803235
O O11 0.526566 0.334450 0.081211
O O12 0.500000 0.802349 0.500000
O O13 0.504083 0.000000 0.422827
#
# Coordination Sequence:
#
# PCOD9191051 Si02
#       5
#     8   8   8   8   8
#     4  10  20  34  52  75 107 145 178 215 267 321
#     4   9  18  32  51  77 108 139 172 214 264 315
#     4  10  20  34  56  83 107 136 179 225 261 305
#     4  10  20  32  52  78 106 139 181 223 261 307
#     4   9  18  33  53  77 105 136 173 217 266 318
#
# _framework density 19.269819999999999
#
# number of rings (size 3 to 8) (size 9 to 14) (size 15 to 20)
#    0.000    2.400    0.000    2.400    0.000    7.600 
#    0.000    0.000    0.000   11.400    0.000    0.000 
#    0.000    0.000    0.000    0.000    0.000    0.000 
#
# Total GULP energy -111401.459701 kJ/mol
# GULP energy per Si atom -5570.072985 kJ/mol
# Density = 1.922596 g / cm^3
# Si number density = 19.269820 Si / 1000 Ang^3
#
#
#
# Elastic Constant Matrix: (Units=GPa)
#
#
# Indices 1 2 3 4 5 6 
#
# 1 150.8073 53.6713 17.3952 0.0000 8.5658 0.0000
# 2 53.6713 104.5607 15.7363 0.0001 3.0440 0.0000
# 3 17.3952 15.7363 47.8521 0.0001 -3.2207 0.0000
# 4 0.0000 0.0001 0.0001 -11.9821 0.0000 -7.9133
# 5 8.5658 3.0440 -3.2207 0.0000 25.1258 0.0000
# 6 0.0000 0.0000 0.0000 -7.9133 0.0000 22.1703
#
#
#
# Elastic Compliance Matrix: (Units=1/GPa)
#
#
# Indices 1 2 3 4 5 6 
#
# 1 0.008409 -0.003948 -0.001936 0.000000 -0.002637 0.000000
# 2 -0.003948 0.011985 -0.002535 0.000000 -0.000431 0.000000
# 3 -0.001936 -0.002535 0.022696 0.000000 0.003876 0.000000
# 4 0.000000 0.000000 0.000000 -0.067538 0.000000 -0.024106
# 5 -0.002637 -0.000431 0.003876 0.000000 0.041248 0.000000
# 6 0.000000 0.000000 0.000000 -0.024106 0.000000 0.036501
#
#
# Mechanical properties :
#
#
# Convention : Reuss Voigt Hill
#
# Bulk Modulus (GPa) = 38.09315 52.98064 45.53689
# Shear Modulus (GPa) = 63.37971 21.49064 42.43518
#
# Velocity S-wave (km/s) = 5.74126 3.34316 4.69781
# Velocity P-wave (km/s) = 7.98503 6.51583 7.28755
#
# Compressibility (1/GPa) = 0.02625144
#
# Stress axis : x y z
#
# Youngs Moduli (GPa) = 118.91677 83.44074 44.06067
#
# Poissons Ratio (x) = 0.32945 0.08530
# Poissons Ratio (y) = 0.46953 0.11169
# Poissons Ratio (z) = 0.23022 0.21151
#
# Static dielectric constant tensor:
#      x y z
#    x 1.690830 0.000000 -0.000830 
#    y 0.000000 1.712750 0.000000 
#    z -0.000830 0.000000 1.679230 
# 
# From -- ./inp_files/283156.got.cif
#   From: 2010.05.17/outbox.cif.g08.bks.cpg/sg12_142_cif.got.tgz:283156.got - 2010.06.03 13:09:07.
