data_PCOD9191477
_publ_section_title
;
Structure prediction by ZEFSAII (Michael W. Deem and Ramdas Pophale) SiO2 
 PCOD9191477
Probable space group: C 2/M
;
_chemical_formula_sum "Si O2"
_cell_formula_units_Z 56
_cell_length_a 27.820192
_cell_length_b 7.286036
_cell_length_c 13.201302
_cell_angle_alpha 90.000000
_cell_angle_beta 112.499807
_cell_angle_gamma 90.000000
_cell_volume 2472.203141
_symmetry_space_group_name_H-M "C 2/M"
_symmetry_group_IT_number 12
_symmetry_cell_setting 'monoclinic'
loop_
_space_group_symop_operation_xyz
x,y,z
-x,y,-z
-x,-y,-z
x,-y,z
1/2+x,1/2+y,z
1/2-x,1/2+y,-z
1/2-x,1/2-y,-z
1/2+x,1/2-y,z
loop_
_atom_site_type_symbol
_atom_site_label
_atom_site_fract_x
_atom_site_fract_y
_atom_site_fract_z
Si Si1 0.344109 0.276216 0.836637
Si Si2 0.810773 0.218595 0.030970
Si Si3 0.003626 0.223390 0.315557
Si Si4 0.461651 0.723277 0.880249
Si Si5 0.694376 0.718184 0.405598
Si Si6 0.613771 0.723950 0.729043
Si Si7 0.390214 0.723802 0.500486
O O1 0.342546 0.500000 0.838875
O O2 0.326966 0.211131 0.933238
O O3 0.403015 0.222392 0.857985
O O4 0.309886 0.214845 0.713185
O O5 0.819237 0.000000 0.035523
O O6 0.750000 0.250000 0.000000
O O7 0.846598 0.287207 0.152147
O O8 0.019279 0.280977 0.214871
O O9 0.050534 0.279189 0.427321
O O10 0.945521 0.281431 0.296134
O O11 0.002899 0.000000 0.316553
O O12 0.462096 0.500000 0.879273
O O13 0.500000 0.782724 0.000000
O O14 0.686234 0.500000 0.393440
O O15 0.750000 0.750000 0.500000
O O16 0.648626 0.787058 0.442491
O O17 0.614325 0.500000 0.730508
O O18 0.627222 0.780689 0.625509
O O19 0.389769 0.500000 0.501479
#
# Coordination Sequence:
#
# PCOD9191477 Si02
#       7
#     8   8   8   8   8   8   8
#     4   9  17  31  46  66  97 127 156 195 241 283
#     4  10  21  35  50  69  96 129 164 200 237 280
#     4   9  14  23  39  64  95 123 150 186 238 290
#     4   9  14  21  38  62  91 124 152 182 230 289
#     4  10  20  33  50  71  97 129 163 198 237 280
#     4   9  17  27  42  66  96 126 155 191 237 286
#     4   9  16  27  43  66  95 124 153 191 241 288
#
# _framework density 22.651861
#
# number of rings (size 3 to 8) (size 9 to 14) (size 15 to 20)
#    0.000    2.714    1.429    1.286    2.000    5.143 
#    0.000    0.000    0.000    0.000    0.000    1.000 
#    0.000    4.571    0.000    0.000    0.000    0.000 
#
# Total GULP energy -156497.265879 kJ/mol
# GULP energy per Si atom -5589.188067 kJ/mol
# Density = 2.260030 g / cm^3
# Si number density = 22.651861 Si / 1000 Ang^3
#
#
#
# Elastic Constant Matrix: (Units=GPa)
#
#
# Indices 1 2 3 4 5 6 
#
# 1 82.7440 -1.1609 69.3124 0.0000 -1.4860 0.0000
# 2 -1.1609 96.5756 7.2990 0.0000 -4.6311 0.0000
# 3 69.3124 7.2990 231.3862 0.0000 -1.9589 0.0000
# 4 0.0000 0.0000 0.0000 -10.6026 0.0000 11.1163
# 5 -1.4860 -4.6311 -1.9589 0.0000 45.2292 0.0000
# 6 0.0000 0.0000 0.0000 11.1163 0.0000 -2.8958
#
#
#
# Elastic Compliance Matrix: (Units=1/GPa)
#
#
# Indices 1 2 3 4 5 6 
#
# 1 0.016171 0.000580 -0.004859 0.000000 0.000380 0.000000
# 2 0.000580 0.010450 -0.000494 0.000000 0.001068 0.000000
# 3 -0.004859 -0.000494 0.005793 0.000000 0.000041 0.000000
# 4 0.000000 0.000000 0.000000 0.031181 0.000000 0.119698
# 5 0.000380 0.001068 0.000041 0.000000 0.022233 0.000000
# 6 0.000000 0.000000 0.000000 0.119698 0.000000 0.114167
#
#
# Mechanical properties :
#
#
# Convention : Reuss Voigt Hill
#
# Bulk Modulus (GPa) = 43.73099 62.40076 53.06588
# Shear Modulus (GPa) = 23.02405 28.69652 25.86029
#
# Velocity S-wave (km/s) = 3.19161 3.56315 3.38248
# Velocity P-wave (km/s) = 5.73842 6.67350 6.22354
#
# Compressibility (1/GPa) = 0.02286708
#
# Stress axis : x y z
#
# Youngs Moduli (GPa) = 61.84014 95.69282 172.61443
#
# Poissons Ratio (x) = -0.05549 0.83874
# Poissons Ratio (y) = -0.03586 0.08532
# Poissons Ratio (z) = 0.30048 0.04730
#
# Static dielectric constant tensor:
#      x y z
#    x 1.767140 0.000000 -0.015160 
#    y 0.000000 1.966340 0.000000 
#    z -0.015160 0.000000 1.828930 
# 
# From -- ./inp_files/174473.got.cif
#   From: 2010.05.17/outbox.cif.g08.bks.cpg/sg12_88_cif.got.tgz:174473.got - 2010.06.03 13:09:07.
