data_PCOD9191947
_publ_section_title
;
Structure prediction by ZEFSAII (Michael W. Deem and Ramdas Pophale) SiO2 
 PCOD9191947
Probable space group: C 2/M
;
_chemical_formula_sum "Si O2"
_cell_formula_units_Z 64
_cell_length_a 15.719866
_cell_length_b 8.318853
_cell_length_c 32.222243
_cell_angle_alpha 90.000000
_cell_angle_beta 138.454590
_cell_angle_gamma 90.000000
_cell_volume 2794.611031
_symmetry_space_group_name_H-M "C 2/M"
_symmetry_group_IT_number 12
_symmetry_cell_setting 'monoclinic'
loop_
_space_group_symop_operation_xyz
x,y,z
-x,y,-z
-x,-y,-z
x,-y,z
1/2+x,1/2+y,z
1/2-x,1/2+y,-z
1/2-x,1/2-y,-z
1/2+x,1/2-y,z
loop_
_atom_site_type_symbol
_atom_site_label
_atom_site_fract_x
_atom_site_fract_y
_atom_site_fract_z
Si Si1 0.427682 0.818740 0.226771
Si Si2 0.719024 0.808634 0.942590
Si Si3 0.565305 0.193078 0.147691
Si Si4 0.711231 0.194390 0.531148
Si Si5 0.446969 0.814487 0.406803
Si Si6 0.322997 0.186775 0.280890
Si Si7 0.331416 0.316228 0.654949
Si Si8 0.673473 0.184718 0.099931
O O1 0.398764 0.811813 0.265369
O O2 0.575716 0.773074 0.279367
O O3 0.322207 0.704713 0.168197
O O4 0.404222 0.000000 0.202707
O O5 0.570377 0.752410 0.882890
O O6 0.819586 0.754672 0.943953
O O7 0.719125 0.000000 0.942015
O O8 0.750000 0.750000 0.000000
O O9 0.685867 0.237464 0.220221
O O10 0.594983 0.254815 0.111077
O O11 0.561233 0.000000 0.142971
O O12 0.750000 0.250000 0.500000
O O13 0.562641 0.248972 0.477103
O O14 0.809423 0.259088 0.601463
O O15 0.717489 0.000000 0.538720
O O16 0.408664 0.737697 0.348699
O O17 0.313637 0.818691 0.382017
O O18 0.486164 0.000000 0.412276
O O19 0.297917 0.000000 0.283085
O O20 0.380459 0.500000 0.670241
O O21 0.636313 0.000000 0.082694
#
# Coordination Sequence:
#
# PCOD9191947 Si02
#       8
#     8   8   8   8   8   8   8   8
#     4  10  20  35  55  82 115 147 182 233 289 340
#     4  11  24  42  63  92 126 161 200 244 293 348
#     4   9  21  40  61  86 121 158 196 243 296 346
#     4  10  20  35  54  73 101 140 183 232 284 340
#     4   9  18  33  52  76 104 139 182 230 280 336
#     4   9  18  33  55  80 107 143 188 232 281 342
#     4  10  20  33  52  78 105 140 186 232 282 343
#     4  10  21  40  64  89 120 161 202 244 292 350
#
# _framework density 22.901219000000001
#
# number of rings (size 3 to 8) (size 9 to 14) (size 15 to 20)
#    0.000    2.250    0.000    2.250    1.750    5.500 
#    0.000    3.750    0.000    1.500    0.000    0.000 
#    0.000    0.000    0.000    0.000    0.000    0.000 
#
# Total GULP energy -178502.786764 kJ/mol
# GULP energy per Si atom -5578.212086 kJ/mol
# Density = 2.284910 g / cm^3
# Si number density = 22.901219 Si / 1000 Ang^3
#
#
#
# Elastic Constant Matrix: (Units=GPa)
#
#
# Indices 1 2 3 4 5 6 
#
# 1 64.3934 3.5443 -9.1687 0.0000 -14.9137 0.0000
# 2 3.5443 18.9157 -4.4729 0.0000 -4.9527 0.0000
# 3 -9.1687 -4.4729 44.6532 0.0000 -13.1746 0.0000
# 4 0.0000 0.0000 0.0000 21.7704 0.0000 -4.2611
# 5 -14.9137 -4.9527 -13.1746 0.0000 42.8289 0.0000
# 6 0.0000 0.0000 0.0000 -4.2611 0.0000 20.8620
#
#
#
# Elastic Compliance Matrix: (Units=1/GPa)
#
#
# Indices 1 2 3 4 5 6 
#
# 1 0.018336 0.000223 0.006246 0.000000 0.008332 0.000000
# 2 0.000223 0.057285 0.008536 0.000000 0.009328 0.000000
# 3 0.006246 0.008536 0.028007 0.000000 0.011777 0.000000
# 4 0.000000 0.000000 0.000000 0.047847 0.000000 0.009773
# 5 0.008332 0.009328 0.011777 0.000000 0.030951 0.000000
# 6 0.000000 0.000000 0.000000 0.009773 0.000000 0.049930
#
#
# Mechanical properties :
#
#
# Convention : Reuss Voigt Hill
#
# Bulk Modulus (GPa) = 7.48294 11.97418 9.72856
# Shear Modulus (GPa) = 20.25165 26.29625 23.27395
#
# Velocity S-wave (km/s) = 2.97695 3.39226 3.19137
# Velocity P-wave (km/s) = 3.88470 4.53687 4.22339
#
# Compressibility (1/GPa) = 0.13363725
#
# Stress axis : x y z
#
# Youngs Moduli (GPa) = 54.53664 17.45656 35.70531
#
# Poissons Ratio (x) = -0.00389 -0.22300
# Poissons Ratio (y) = -0.01215 -0.30478
# Poissons Ratio (z) = -0.34061 -0.14901
#
# Static dielectric constant tensor:
#      x y z
#    x 1.946690 0.000000 -0.003660 
#    y 0.000000 1.860540 0.000000 
#    z -0.003660 0.000000 1.926640 
# 
# From -- ./inp_files/375561.got.cif
#   From: 2010.05.17/outbox.cif.g08.bks.cpg/sg12_188_cif.got.tgz:375561.got - 2010.06.03 13:09:07.
