data_PCOD9191092
_publ_section_title
;
Structure prediction by ZEFSAII (Michael W. Deem and Ramdas Pophale) SiO2 
 PCOD9191092
Probable space group: C 2/M
;
_chemical_formula_sum "Si O2"
_cell_formula_units_Z 48
_cell_length_a 20.265172
_cell_length_b 7.449581
_cell_length_c 19.399575
_cell_angle_alpha 90.000000
_cell_angle_beta 43.582571
_cell_angle_gamma 90.000000
_cell_volume 2019.041038
_symmetry_space_group_name_H-M "C 2/M"
_symmetry_group_IT_number 12
_symmetry_cell_setting 'monoclinic'
loop_
_space_group_symop_operation_xyz
x,y,z
-x,y,-z
-x,-y,-z
x,-y,z
1/2+x,1/2+y,z
1/2-x,1/2+y,-z
1/2-x,1/2-y,-z
1/2+x,1/2-y,z
loop_
_atom_site_type_symbol
_atom_site_label
_atom_site_fract_x
_atom_site_fract_y
_atom_site_fract_z
Si Si1 0.085704 0.297192 0.891621
Si Si2 0.290835 0.782205 0.325337
Si Si3 0.291660 0.292215 0.078608
Si Si4 0.089479 0.281090 0.641241
Si Si5 0.577118 0.790613 0.494971
Si Si6 0.106124 0.283060 0.136029
O O1 0.052551 0.500000 0.898949
O O2 0.129066 0.218323 0.789396
O O3 0.172241 0.303531 0.880687
O O4 0.000000 0.209556 0.000000
O O5 0.321402 0.723397 0.378875
O O6 0.185112 0.721341 0.385720
O O7 0.291253 0.000000 0.322620
O O8 0.276775 0.500000 0.107807
O O9 0.194575 0.222266 0.117065
O O10 0.371474 0.279620 0.958089
O O11 0.092861 0.500000 0.636649
O O12 0.082408 0.214089 0.568479
O O13 0.993826 0.230173 0.755238
O O14 0.500000 0.713039 0.500000
O O15 0.550781 0.000000 0.523643
O O16 0.109100 0.500000 0.131637
#
# Coordination Sequence:
#
# PCOD9191092 Si02
#       6
#     8   8   8   8   8   8
#     4  10  21  37  57  79 109 154 197 229 277 344
#     4  10  21  37  59  84 112 149 193 238 279 327
#     4  10  20  32  52  83 115 145 185 239 287 327
#     4   9  18  36  60  82 107 148 196 229 273 343
#     4  10  22  38  60  86 114 148 187 233 288 346
#     4   9  18  34  56  78 109 152 191 227 275 343
#
# _framework density 23.773661000000001
#
# number of rings (size 3 to 8) (size 9 to 14) (size 15 to 20)
#    0.000    2.333    0.000    2.000    2.333    4.667 
#    0.000    3.333    0.000    0.000    0.000    0.000 
#    0.000    0.000    0.000    0.000    0.000    0.000 
#
# Total GULP energy -134154.930042 kJ/mol
# GULP energy per Si atom -5589.788752 kJ/mol
# Density = 2.371955 g / cm^3
# Si number density = 23.773661 Si / 1000 Ang^3
#
#
#
# Elastic Constant Matrix: (Units=GPa)
#
#
# Indices 1 2 3 4 5 6 
#
# 1 164.4564 3.9742 61.7337 -0.0005 10.7699 0.0006
# 2 3.9742 75.4887 -12.1968 -0.0017 2.8812 0.0027
# 3 61.7337 -12.1968 105.3109 0.0001 0.7855 0.0003
# 4 -0.0005 -0.0017 0.0001 12.9823 0.0000 -5.3096
# 5 10.7699 2.8812 0.7855 0.0000 34.0363 -0.0003
# 6 0.0006 0.0027 0.0003 -5.3096 -0.0003 15.1142
#
#
#
# Elastic Compliance Matrix: (Units=1/GPa)
#
#
# Indices 1 2 3 4 5 6 
#
# 1 0.008082 -0.001119 -0.004850 0.000000 -0.002351 0.000000
# 2 -0.001119 0.013702 0.002250 0.000001 -0.000858 -0.000002
# 3 -0.004850 0.002250 0.012591 0.000000 0.001054 0.000000
# 4 0.000000 0.000001 0.000000 0.089952 0.000000 0.031600
# 5 -0.002351 -0.000858 0.001054 0.000000 0.030173 0.000001
# 6 0.000000 -0.000002 0.000000 0.031600 0.000001 0.077264
#
#
# Mechanical properties :
#
#
# Convention : Reuss Voigt Hill
#
# Bulk Modulus (GPa) = 37.12481 50.25314 43.68897
# Shear Modulus (GPa) = 20.14651 31.87623 26.01137
#
# Velocity S-wave (km/s) = 2.91422 3.66570 3.31135
# Velocity P-wave (km/s) = 5.19360 6.25304 5.74778
#
# Compressibility (1/GPa) = 0.02693617
#
# Stress axis : x y z
#
# Youngs Moduli (GPa) = 123.72877 72.98133 79.41926
#
# Poissons Ratio (x) = 0.08169 0.38518
# Poissons Ratio (y) = 0.13850 -0.17866
# Poissons Ratio (z) = 0.60007 -0.16417
#
# Static dielectric constant tensor:
#      x y z
#    x 1.892330 0.000000 -0.001670 
#    y 0.000000 1.912940 0.000000 
#    z -0.001670 0.000000 1.880440 
# 
# From -- ./inp_files/319568.got.cif
#   From: 2010.05.17/outbox.cif.g08.bks.cpg/sg12_160_cif.got.tgz:319568.got - 2010.06.03 13:09:07.
