data_PCOD9191902
_publ_section_title
;
Structure prediction by ZEFSAII (Michael W. Deem and Ramdas Pophale) SiO2 
 PCOD9191902
Probable space group: C 2/M
;
_chemical_formula_sum "Si O2"
_cell_formula_units_Z 48
_cell_length_a 32.061459
_cell_length_b 9.293355
_cell_length_c 7.550493
_cell_angle_alpha 90.000000
_cell_angle_beta 89.812954
_cell_angle_gamma 90.000000
_cell_volume 2249.721734
_symmetry_space_group_name_H-M "C 2/M"
_symmetry_group_IT_number 12
_symmetry_cell_setting 'monoclinic'
loop_
_space_group_symop_operation_xyz
x,y,z
-x,y,-z
-x,-y,-z
x,-y,z
1/2+x,1/2+y,z
1/2-x,1/2+y,-z
1/2-x,1/2-y,-z
1/2+x,1/2-y,z
loop_
_atom_site_type_symbol
_atom_site_label
_atom_site_fract_x
_atom_site_fract_y
_atom_site_fract_z
Si Si1 0.416918 0.162603 0.212636
Si Si2 0.664249 0.666430 0.783639
Si Si3 0.999759 0.161997 0.710596
Si Si4 0.838264 0.836074 0.781766
Si Si5 0.253941 0.827304 0.190844
Si Si6 0.082948 0.339246 0.209818
O O1 0.378078 0.257405 0.278863
O O2 0.460592 0.242332 0.239271
O O3 0.417206 0.000000 0.284657
O O4 0.411389 0.151079 0.001442
O O5 0.666708 0.500000 0.729372
O O6 0.705102 0.755632 0.727226
O O7 0.663096 0.667141 0.001136
O O8 0.956698 0.238196 0.761293
O O9 0.000000 0.152150 0.500000
O O10 0.002805 0.000000 0.784282
O O11 0.791264 0.802372 0.720678
O O12 0.874437 0.730066 0.719980
O O13 0.848688 0.000000 0.732127
O O14 0.258997 0.000000 0.170203
O O15 0.250000 0.750000 0.000000
O O16 0.075276 0.500000 0.278725
#
# Coordination Sequence:
#
# PCOD9191902 Si02
#       6
#     8   8   8   8   8   8
#     4  10  20  34  53  77 103 131 166 207 250 297
#     4   9  16  26  42  66  97 132 166 201 244 291
#     4  11  24  39  54  73  98 130 167 206 251 302
#     4   8  15  26  41  64  96 132 165 199 242 289
#     4   9  15  23  37  61  95 132 166 201 244 290
#     4  10  20  33  52  77 102 130 166 207 250 296
#
# _framework density 21.335972000000002
#
# number of rings (size 3 to 8) (size 9 to 14) (size 15 to 20)
#    0.000    2.500    0.000    4.000    0.000   10.000 
#    0.000    0.000    0.000    0.000    0.000    1.167 
#    0.000    0.000    0.000    0.000    0.000    0.000 
#
# Total GULP energy -133990.728535 kJ/mol
# GULP energy per Si atom -5582.947022 kJ/mol
# Density = 2.128741 g / cm^3
# Si number density = 21.335972 Si / 1000 Ang^3
#
#
#
# Elastic Constant Matrix: (Units=GPa)
#
#
# Indices 1 2 3 4 5 6 
#
# 1 188.1060 125.3873 -5.1546 0.0000 -10.7143 0.0000
# 2 125.3873 193.5570 4.6990 0.0000 0.4191 0.0000
# 3 -5.1546 4.6990 45.5982 0.0000 0.5919 0.0000
# 4 0.0000 0.0000 0.0000 -3.0481 0.0000 -0.1747
# 5 -10.7143 0.4191 0.5919 0.0000 -44.1526 0.0000
# 6 0.0000 0.0000 0.0000 -0.1747 0.0000 47.9868
#
#
#
# Elastic Compliance Matrix: (Units=1/GPa)
#
#
# Indices 1 2 3 4 5 6 
#
# 1 0.009252 -0.006030 0.001697 0.000000 -0.002280 0.000000
# 2 -0.006030 0.009109 -0.001640 0.000000 0.001528 0.000000
# 3 0.001697 -0.001640 0.022293 0.000000 -0.000128 0.000000
# 4 0.000000 0.000000 0.000000 -0.328002 0.000000 -0.001194
# 5 -0.002280 0.001528 -0.000128 0.000000 -0.022083 0.000000
# 6 0.000000 0.000000 0.000000 -0.001194 0.000000 0.020835
#
#
# Mechanical properties :
#
#
# Convention : Reuss Voigt Hill
#
# Bulk Modulus (GPa) = 34.83330 75.23606 55.03468
# Shear Modulus (GPa) = -18.72099 20.31251 0.79576
#
# Velocity S-wave (km/s) = -2.96537 3.08885 0.61137
# Velocity P-wave (km/s) = 2.15336 6.93256 5.13310
#
# Compressibility (1/GPa) = 0.02870816
#
# Stress axis : x y z
#
# Youngs Moduli (GPa) = 108.08252 109.77990 44.85675
#
# Poissons Ratio (x) = 0.66196 -0.07612
# Poissons Ratio (y) = 0.65172 0.07357
# Poissons Ratio (z) = -0.18340 0.18006
#
# Static dielectric constant tensor:
#      x y z
#    x 1.762890 0.000000 0.008570 
#    y 0.000000 1.757000 0.000000 
#    z 0.008570 0.000000 1.802640 
# 
# From -- ./inp_files/108670.got.cif
#   From: 2010.05.17/outbox.cif.g08.bks.cpg/sg12_55_cif.got.tgz:108670.got - 2010.06.03 13:09:07.
