data_PCOD9191060
_publ_section_title
;
Structure prediction by ZEFSAII (Michael W. Deem and Ramdas Pophale) SiO2 
 PCOD9191060
Probable space group: C 2/M
;
_chemical_formula_sum "Si O2"
_cell_formula_units_Z 48
_cell_length_a 17.505378
_cell_length_b 23.187892
_cell_length_c 6.334681
_cell_angle_alpha 90.000000
_cell_angle_beta 110.896303
_cell_angle_gamma 90.000000
_cell_volume 2402.205486
_symmetry_space_group_name_H-M "C 2/M"
_symmetry_group_IT_number 12
_symmetry_cell_setting 'monoclinic'
loop_
_space_group_symop_operation_xyz
x,y,z
-x,y,-z
-x,-y,-z
x,-y,z
1/2+x,1/2+y,z
1/2-x,1/2+y,-z
1/2-x,1/2-y,-z
1/2+x,1/2-y,z
loop_
_atom_site_type_symbol
_atom_site_label
_atom_site_fract_x
_atom_site_fract_y
_atom_site_fract_z
Si Si1 0.854692 0.850954 0.580818
Si Si2 0.000000 0.668779 0.000000
Si Si3 0.500000 0.611273 0.000000
Si Si4 0.081639 0.263818 0.463080
Si Si5 0.748765 0.065029 0.740512
Si Si6 0.386132 0.563955 0.232744
Si Si7 0.584179 0.880626 0.702483
O O1 0.850806 0.784786 0.505865
O O2 0.779528 0.885668 0.609620
O O3 0.882365 0.888148 0.407200
O O4 0.926946 0.852376 0.826404
O O5 0.049794 0.707996 0.214129
O O6 0.939044 0.629549 0.077665
O O7 0.538376 0.573640 0.850883
O O8 0.108237 0.317480 0.634108
O O9 0.000000 0.238766 0.500000
O O10 0.656854 0.076754 0.722233
O O11 0.758299 0.000000 0.662112
O O12 0.807182 0.068466 0.002930
O O13 0.389561 0.500000 0.329693
O O14 0.500000 0.896436 0.500000
#
# Coordination Sequence:
#
# PCOD9191060 Si02
#       7
#     8   4   4   8   8   8   8
#     4  11  21  35  56  82 114 151 183 220 273 327
#     4   8  17  36  59  81 111 141 173 230 288 332
#     4  10  20  32  52  79 108 149 196 230 262 314
#     4   9  18  33  56  86 114 142 181 224 269 329
#     4  10  23  40  55  80 115 146 185 234 277 324
#     4  10  21  35  51  74 110 152 190 229 271 317
#     4   9  20  38  61  85 107 139 184 232 283 336
#
# _framework density 19.981636999999999
#
# number of rings (size 3 to 8) (size 9 to 14) (size 15 to 20)
#    0.000    2.667    0.000    2.750    0.000   10.333 
#    0.000    2.083    0.000    0.000    0.000    0.000 
#    0.000    0.000    0.000    0.000    0.000    0.000 
#
# Total GULP energy -133918.752669 kJ/mol
# GULP energy per Si atom -5579.948028 kJ/mol
# Density = 1.993616 g / cm^3
# Si number density = 19.981637 Si / 1000 Ang^3
#
#
#
# Elastic Constant Matrix: (Units=GPa)
#
#
# Indices 1 2 3 4 5 6 
#
# 1 97.0254 23.6585 22.1706 0.0000 -10.7813 0.0000
# 2 23.6585 30.8353 1.2774 0.0000 -0.8012 0.0000
# 3 22.1706 1.2774 53.5969 0.0000 -27.2611 0.0000
# 4 0.0000 0.0000 0.0000 6.3273 0.0000 -4.9042
# 5 -10.7813 -0.8012 -27.2611 0.0000 23.1624 0.0000
# 6 0.0000 0.0000 0.0000 -4.9042 0.0000 22.4926
#
#
#
# Elastic Compliance Matrix: (Units=1/GPa)
#
#
# Indices 1 2 3 4 5 6 
#
# 1 0.014195 -0.010663 -0.006091 0.000000 -0.000930 0.000000
# 2 -0.010663 0.040475 0.004071 0.000000 0.001228 0.000000
# 3 -0.006091 0.004071 0.049107 0.000000 0.055102 0.000000
# 4 0.000000 0.000000 0.000000 0.190187 0.000000 0.041468
# 5 -0.000930 0.001228 0.055102 0.000000 0.107636 0.000000
# 6 0.000000 0.000000 0.000000 0.041468 0.000000 0.053501
#
#
# Mechanical properties :
#
#
# Convention : Reuss Voigt Hill
#
# Bulk Modulus (GPa) = 12.75340 30.63006 21.69173
# Shear Modulus (GPa) = 9.86964 19.35320 14.61142
#
# Velocity S-wave (km/s) = 2.22488 3.11553 2.70708
# Velocity P-wave (km/s) = 3.60507 5.32019 4.54428
#
# Compressibility (1/GPa) = 0.07841045
#
# Stress axis : x y z
#
# Youngs Moduli (GPa) = 70.44704 24.70669 20.36364
#
# Poissons Ratio (x) = 0.26345 0.12403
# Poissons Ratio (y) = 0.75118 -0.08289
# Poissons Ratio (z) = 0.42908 -0.10057
#
# Static dielectric constant tensor:
#      x y z
#    x 1.712820 0.000000 -0.005760 
#    y 0.000000 1.703630 0.000000 
#    z -0.005760 0.000000 1.694470 
# 
# From -- ./inp_files/16700.got.cif
#   From: 2010.05.17/outbox.cif.g08.bks.cpg/sg12_9_cif.got.tgz:16700.got - 2010.06.03 13:09:07.
