data_PCOD9191929
_publ_section_title
;
Structure prediction by ZEFSAII (Michael W. Deem and Ramdas Pophale) SiO2 
 PCOD9191929
Probable space group: C 2/M
;
_chemical_formula_sum "Si O2"
_cell_formula_units_Z 40
_cell_length_a 23.480274
_cell_length_b 8.861370
_cell_length_c 18.926995
_cell_angle_alpha 90.000000
_cell_angle_beta 143.714995
_cell_angle_gamma 90.000000
_cell_volume 2330.570802
_symmetry_space_group_name_H-M "C 2/M"
_symmetry_group_IT_number 12
_symmetry_cell_setting 'monoclinic'
loop_
_space_group_symop_operation_xyz
x,y,z
-x,y,-z
-x,-y,-z
x,-y,z
1/2+x,1/2+y,z
1/2-x,1/2+y,-z
1/2-x,1/2-y,-z
1/2+x,1/2-y,z
loop_
_atom_site_type_symbol
_atom_site_label
_atom_site_fract_x
_atom_site_fract_y
_atom_site_fract_z
Si Si1 0.802076 0.680429 0.160249
Si Si2 0.887226 0.180786 0.387227
Si Si3 0.108537 0.818885 0.889823
Si Si4 0.108538 0.181115 0.327250
Si Si5 0.197924 0.680429 0.556098
O O1 0.809741 0.500000 0.173285
O O2 0.837181 0.755080 0.267233
O O3 0.865230 0.738994 0.157523
O O4 0.691962 0.720000 0.029080
O O5 0.837182 0.244919 0.407130
O O6 0.000000 0.224272 0.500000
O O7 0.881793 0.000000 0.381793
O O8 0.000000 0.780910 0.803337
O O9 0.113625 0.000000 0.883748
O O10 0.134773 0.261007 0.427064
O O11 0.191961 0.219998 0.354841
O O12 0.113625 0.000000 0.343501
O O13 0.190258 0.500000 0.553802
#
# Coordination Sequence:
#
# PCOD9191929 Si02
#       5
#     8   8   8   8   8
#     4  10  20  33  52  78 103 129 167 210 246 288
#     4  11  23  37  52  71 100 136 167 201 252 305
#     4   9  18  34  54  75 102 135 166 199 246 300
#     4   9  18  34  54  75 102 135 166 199 246 300
#     4  10  20  33  52  78 103 129 167 210 246 288
#
# _framework density 17.163177000000001
#
# number of rings (size 3 to 8) (size 9 to 14) (size 15 to 20)
#    0.000    2.200    0.000    3.000    0.000    8.800 
#    0.000    1.000    0.000    6.000    0.000    0.000 
#    0.000    0.000    0.000    0.000    0.000    0.000 
#
# Total GULP energy -111625.614181 kJ/mol
# GULP energy per Si atom -5581.280709 kJ/mol
# Density = 1.712411 g / cm^3
# Si number density = 17.163177 Si / 1000 Ang^3
#
#
#
# Elastic Constant Matrix: (Units=GPa)
#
#
# Indices 1 2 3 4 5 6 
#
# 1 135.5764 53.9137 109.1702 0.0000 -4.0829 0.0000
# 2 53.9137 39.0330 53.0087 0.0000 -1.3712 0.0000
# 3 109.1702 53.0087 138.5400 0.0000 8.6175 0.0000
# 4 0.0000 0.0000 0.0000 26.0726 0.0000 -1.2001
# 5 -4.0829 -1.3712 8.6175 0.0000 31.1810 0.0000
# 6 0.0000 0.0000 0.0000 -1.2001 0.0000 26.8607
#
#
#
# Elastic Compliance Matrix: (Units=1/GPa)
#
#
# Indices 1 2 3 4 5 6 
#
# 1 0.025255 -0.014680 -0.014702 0.000000 0.006725 0.000000
# 2 -0.014680 0.063968 -0.013189 0.000000 0.004536 0.000000
# 3 -0.014702 -0.013189 0.024426 0.000000 -0.009256 0.000000
# 4 0.000000 0.000000 0.000000 0.038433 0.000000 0.001717
# 5 0.006725 0.004536 -0.009256 0.000000 0.035709 0.000000
# 6 0.000000 0.000000 0.000000 0.001717 0.000000 0.037306
#
#
# Mechanical properties :
#
#
# Convention : Reuss Voigt Hill
#
# Bulk Modulus (GPa) = 35.08235 82.81495 58.94865
# Shear Modulus (GPa) = 15.63757 23.29332 19.46544
#
# Velocity S-wave (km/s) = 3.02174 3.68797 3.37135
# Velocity P-wave (km/s) = 5.71484 8.15421 7.04097
#
# Compressibility (1/GPa) = 0.02850436
#
# Stress axis : x y z
#
# Youngs Moduli (GPa) = 39.59610 15.63286 40.94006
#
# Poissons Ratio (x) = 0.22950 0.60191
# Poissons Ratio (y) = 0.58129 0.53998
# Poissons Ratio (z) = 0.58215 0.20619
#
# Static dielectric constant tensor:
#      x y z
#    x 1.554290 0.000000 0.032490 
#    y 0.000000 1.573310 0.000000 
#    z 0.032490 0.000000 1.575640 
# 
# From -- ./inp_files/61431.got.cif
#   From: 2010.05.17/outbox.cif.g08.bks.cpg/sg12_31_cif.got.tgz:61431.got - 2010.06.03 13:09:07.
