data_PCOD9191800
_publ_section_title
;
Structure prediction by ZEFSAII (Michael W. Deem and Ramdas Pophale) SiO2 
 PCOD9191800
Probable space group: C 2/M
;
_chemical_formula_sum "Si O2"
_cell_formula_units_Z 64
_cell_length_a 26.913624
_cell_length_b 14.120408
_cell_length_c 16.066745
_cell_angle_alpha 90.000000
_cell_angle_beta 33.613857
_cell_angle_gamma 90.000000
_cell_volume 3380.164979
_symmetry_space_group_name_H-M "C 2/M"
_symmetry_group_IT_number 12
_symmetry_cell_setting 'monoclinic'
loop_
_space_group_symop_operation_xyz
x,y,z
-x,y,-z
-x,-y,-z
x,-y,z
1/2+x,1/2+y,z
1/2-x,1/2+y,-z
1/2-x,1/2-y,-z
1/2+x,1/2-y,z
loop_
_atom_site_type_symbol
_atom_site_label
_atom_site_fract_x
_atom_site_fract_y
_atom_site_fract_z
Si Si1 0.247981 0.111455 0.527829
Si Si2 0.794965 0.847934 0.910697
Si Si3 0.102855 0.247889 0.677061
Si Si4 0.901841 0.400012 0.826828
Si Si5 0.867656 0.885337 0.625721
Si Si6 0.959385 0.390369 0.938118
Si Si7 0.207890 0.611168 0.729204
Si Si8 0.520279 0.697615 0.304182
O O1 0.154104 0.168065 0.659095
O O2 0.322415 0.179502 0.465855
O O3 0.273958 0.116948 0.393479
O O4 0.246825 0.000000 0.553116
O O5 0.833037 0.852513 0.763834
O O6 0.886358 0.860328 0.836046
O O7 0.750000 0.750000 0.000000
O O8 0.703926 0.906853 0.043436
O O9 0.041927 0.200245 0.690913
O O10 0.040073 0.317814 0.816934
O O11 0.945386 0.500000 0.740960
O O12 0.913214 0.391405 0.911106
O O13 0.947801 0.306332 0.725689
O O14 0.791814 0.853261 0.665278
O O15 0.960718 0.843672 0.461850
O O16 0.874432 0.000000 0.617358
O O17 0.988295 0.500000 0.914969
O O18 0.886867 0.353520 0.105028
O O19 0.202729 0.500000 0.757757
#
# Coordination Sequence:
#
# PCOD9191800 Si02
#       8
#     8   8   8   8   8   8   8   8
#     4  10  20  35  53  78 112 143 180 227 276 330
#     4  10  20  33  52  78 111 144 179 215 261 329
#     4  10  20  33  51  77 111 147 180 220 280 322
#     4   9  17  32  52  75 107 147 183 217 260 317
#     4  11  20  34  55  83 116 146 175 218 279 330
#     4   9  16  29  51  79 109 140 178 219 264 324
#     4   9  17  30  52  80 112 141 171 223 277 320
#     4  10  21  33  50  81 113 142 186 229 266 323
#
# _framework density 18.933986999999998
#
# number of rings (size 3 to 8) (size 9 to 14) (size 15 to 20)
#    0.000    2.250    2.500    1.125    0.000    2.500 
#    0.000    1.875    0.000    6.750    0.000    8.750 
#    0.000    0.000    0.000    0.000    0.000    0.000 
#
# Total GULP energy -178203.852904 kJ/mol
# GULP energy per Si atom -5568.870403 kJ/mol
# Density = 1.889089 g / cm^3
# Si number density = 18.933987 Si / 1000 Ang^3
#
#
#
# Elastic Constant Matrix: (Units=GPa)
#
#
# Indices 1 2 3 4 5 6 
#
# 1 76.5963 16.3043 18.3861 0.0000 -20.7289 0.0000
# 2 16.3043 78.9013 32.3260 0.0000 2.6382 0.0000
# 3 18.3861 32.3260 96.8642 0.0000 -13.5736 0.0000
# 4 0.0000 0.0000 0.0000 20.0178 0.0000 -3.6554
# 5 -20.7289 2.6382 -13.5736 0.0000 29.3708 0.0000
# 6 0.0000 0.0000 0.0000 -3.6554 0.0000 13.4768
#
#
#
# Elastic Compliance Matrix: (Units=1/GPa)
#
#
# Indices 1 2 3 4 5 6 
#
# 1 0.017314 -0.003896 -0.000240 0.000000 0.012458 0.000000
# 2 -0.003896 0.015973 -0.005536 0.000000 -0.006743 0.000000
# 3 -0.000240 -0.005536 0.013112 0.000000 0.006387 0.000000
# 4 0.000000 0.000000 0.000000 0.052559 0.000000 0.014256
# 5 0.012458 -0.006743 0.006387 0.000000 0.046398 0.000000
# 6 0.000000 0.000000 0.000000 0.014256 0.000000 0.078068
#
#
# Mechanical properties :
#
#
# Convention : Reuss Voigt Hill
#
# Bulk Modulus (GPa) = 36.96284 42.93273 39.94779
# Shear Modulus (GPa) = 19.85816 24.92942 22.39379
#
# Velocity S-wave (km/s) = 3.24205 3.63250 3.44281
# Velocity P-wave (km/s) = 5.79472 6.34962 6.07851
#
# Compressibility (1/GPa) = 0.02705420
#
# Stress axis : x y z
#
# Youngs Moduli (GPa) = 57.75660 62.60730 76.26694
#
# Poissons Ratio (x) = 0.24391 0.01834
# Poissons Ratio (y) = 0.22501 0.42220
# Poissons Ratio (z) = 0.01389 0.34658
#
# Static dielectric constant tensor:
#      x y z
#    x 1.722530 0.000000 -0.052470 
#    y 0.000000 1.696080 0.000000 
#    z -0.052470 0.000000 1.673760 
# 
# From -- ./inp_files/296688.got.cif
#   From: 2010.05.17/outbox.cif.g08.bks.cpg/sg12_149_cif.got.tgz:296688.got - 2010.06.03 13:09:07.
