data_PCOD9191084
_publ_section_title
;
Structure prediction by ZEFSAII (Michael W. Deem and Ramdas Pophale) SiO2 
 PCOD9191084
Probable space group: C 2/M
;
_chemical_formula_sum "Si O2"
_cell_formula_units_Z 56
_cell_length_a 29.266234
_cell_length_b 8.864518
_cell_length_c 14.602229
_cell_angle_alpha 90.000000
_cell_angle_beta 120.439784
_cell_angle_gamma 90.000000
_cell_volume 3266.104267
_symmetry_space_group_name_H-M "C 2/M"
_symmetry_group_IT_number 12
_symmetry_cell_setting 'monoclinic'
loop_
_space_group_symop_operation_xyz
x,y,z
-x,y,-z
-x,-y,-z
x,-y,z
1/2+x,1/2+y,z
1/2-x,1/2+y,-z
1/2-x,1/2-y,-z
1/2+x,1/2-y,z
loop_
_atom_site_type_symbol
_atom_site_label
_atom_site_fract_x
_atom_site_fract_y
_atom_site_fract_z
Si Si1 0.051399 0.180975 0.490840
Si Si2 0.244634 0.179550 0.892126
Si Si3 0.410124 0.831227 0.148356
Si Si4 0.849779 0.823334 0.934618
Si Si5 0.944550 0.817922 0.894996
Si Si6 0.861088 0.324647 0.296203
Si Si7 0.464422 0.175601 0.723784
O O1 0.104589 0.244479 0.591210
O O2 0.046956 0.242637 0.383418
O O3 0.000000 0.228212 0.500000
O O4 0.052315 0.000000 0.491046
O O5 0.296008 0.229620 0.886432
O O6 0.192929 0.243870 0.788832
O O7 0.241736 0.000000 0.898306
O O8 0.250000 0.250000 0.000000
O O9 0.397253 0.820627 0.241821
O O10 0.472286 0.816254 0.196984
O O11 0.392929 0.000000 0.100090
O O12 0.378755 0.706412 0.060692
O O13 0.893642 0.775941 0.904497
O O14 0.837936 0.000000 0.910844
O O15 0.940079 0.751016 0.789154
O O16 0.946336 0.000000 0.891863
O O17 0.000000 0.769266 0.000000
O O18 0.851011 0.500000 0.308608
O O19 0.449469 0.000000 0.701795
#
# Coordination Sequence:
#
# PCOD9191084 Si02
#       7
#     8   8   8   8   8   8   8
#     4  11  23  37  57  84 116 154 192 233 284 340
#     4  12  24  38  57  83 116 151 192 235 285 340
#     4  10  20  32  52  82 117 152 187 232 279 333
#     4  11  22  36  57  82 115 154 192 233 283 340
#     4  10  21  37  56  83 116 152 190 234 286 340
#     4  11  22  38  58  83 117 152 191 234 284 339
#     4  11  22  36  56  83 116 154 193 235 283 336
#
# _framework density 17.145810999999998
#
# number of rings (size 3 to 8) (size 9 to 14) (size 15 to 20)
#    0.000    1.143    4.286    3.000    0.000    3.143 
#    0.000    0.000    0.000    0.857    0.000    0.000 
#    0.000    0.000    0.000    0.000    0.000    0.000 
#
# Total GULP energy -156379.087865 kJ/mol
# GULP energy per Si atom -5584.967424 kJ/mol
# Density = 1.710679 g / cm^3
# Si number density = 17.145811 Si / 1000 Ang^3
#
#
#
# Elastic Constant Matrix: (Units=GPa)
#
#
# Indices 1 2 3 4 5 6 
#
# 1 84.0869 36.5587 33.1563 0.0000 -1.9085 0.0000
# 2 36.5587 76.4788 39.6333 0.0000 1.5728 0.0000
# 3 33.1563 39.6333 100.6090 0.0000 -1.5132 0.0000
# 4 0.0000 0.0000 0.0000 30.8325 0.0000 0.1103
# 5 -1.9085 1.5728 -1.5132 0.0000 27.2284 0.0000
# 6 0.0000 0.0000 0.0000 0.1103 0.0000 25.1286
#
#
#
# Elastic Compliance Matrix: (Units=1/GPa)
#
#
# Indices 1 2 3 4 5 6 
#
# 1 0.015649 -0.006087 -0.002740 0.000000 0.001296 0.000000
# 2 -0.006087 0.018844 -0.005445 0.000000 -0.001818 0.000000
# 3 -0.002740 -0.005445 0.013000 0.000000 0.000845 0.000000
# 4 0.000000 0.000000 0.000000 0.032434 0.000000 -0.000142
# 5 0.001296 -0.001818 0.000845 0.000000 0.036969 0.000000
# 6 0.000000 0.000000 0.000000 -0.000142 0.000000 0.039796
#
#
# Mechanical properties :
#
#
# Convention : Reuss Voigt Hill
#
# Bulk Modulus (GPa) = 52.77130 53.31903 53.04517
# Shear Modulus (GPa) = 26.10260 26.75966 26.43113
#
# Velocity S-wave (km/s) = 3.90601 3.95487 3.93052
# Velocity P-wave (km/s) = 7.15453 7.21246 7.18356
#
# Compressibility (1/GPa) = 0.01894969
#
# Stress axis : x y z
#
# Youngs Moduli (GPa) = 63.90282 53.06624 76.92390
#
# Poissons Ratio (x) = 0.32304 0.21074
# Poissons Ratio (y) = 0.38900 0.41882
# Poissons Ratio (z) = 0.17507 0.28893
#
# Static dielectric constant tensor:
#      x y z
#    x 1.582810 0.000000 0.006530 
#    y 0.000000 1.589990 0.000000 
#    z 0.006530 0.000000 1.549630 
# 
# From -- ./inp_files/181139.got.cif
#   From: 2010.05.17/outbox.cif.g08.bks.cpg/sg12_91_cif.got.tgz:181139.got - 2010.06.03 13:09:07.
