data_PCOD9191859
_publ_section_title
;
Structure prediction by ZEFSAII (Michael W. Deem and Ramdas Pophale) SiO2 
 PCOD9191859
Probable space group: C 2/M
;
_chemical_formula_sum "Si O2"
_cell_formula_units_Z 42
_cell_length_a 35.432766
_cell_length_b 8.019384
_cell_length_c 7.280009
_cell_angle_alpha 90.000000
_cell_angle_beta 102.816551
_cell_angle_gamma 90.000000
_cell_volume 2017.068272
_symmetry_space_group_name_H-M "C 2/M"
_symmetry_group_IT_number 12
_symmetry_cell_setting 'monoclinic'
loop_
_space_group_symop_operation_xyz
x,y,z
-x,y,-z
-x,-y,-z
x,-y,z
1/2+x,1/2+y,z
1/2-x,1/2+y,-z
1/2-x,1/2-y,-z
1/2+x,1/2-y,z
loop_
_atom_site_type_symbol
_atom_site_label
_atom_site_fract_x
_atom_site_fract_y
_atom_site_fract_z
Si Si1 0.572827 0.000000 0.301477
Si Si2 0.500000 0.000000 0.500000
Si Si3 0.125326 0.181875 0.909416
Si Si4 0.373809 0.686463 0.642522
Si Si5 0.206464 0.314595 0.977593
Si Si6 0.427058 0.000000 0.144662
Si Si7 0.790908 0.802525 0.624152
O O1 0.533888 0.000000 0.375329
O O2 0.597881 0.164544 0.376770
O O3 0.566885 0.000000 0.071839
O O4 0.465987 0.000000 0.302591
O O5 0.098269 0.336750 0.833663
O O6 0.110648 0.000000 0.836785
O O7 0.126909 0.181247 0.134402
O O8 0.168979 0.207978 0.882691
O O9 0.385324 0.500000 0.594259
O O10 0.329013 0.717820 0.541344
O O11 0.203298 0.500000 0.897018
O O12 0.202862 0.312652 0.193571
O O13 0.250000 0.250000 0.000000
O O14 0.750000 0.750000 0.500000
O O15 0.789795 0.000000 0.674765
#
# Coordination Sequence:
#
# PCOD9191859 Si02
#       7
#     4   2   8   8   8   4   8
#     4  10  21  41  69  88 123 167 196 261 325 372
#     4  12  26  44  66 106 124 146 222 268 314 410
#     4   9  17  35  61  86 114 159 211 247 305 382
#     4   8  17  34  59  85 113 158 208 244 303 379
#     4  11  20  33  52  81 119 161 210 259 303 358
#     4  10  21  43  67  90 125 167 196 261 331 374
#     4  10  20  33  51  80 117 160 209 256 299 361
#
# _framework density 20.822299999999998
#
# number of rings (size 3 to 8) (size 9 to 14) (size 15 to 20)
#    0.000    2.286    0.952    3.714    5.333    0.000 
#    3.429    2.857    0.000    4.571    0.000    0.000 
#    0.000    0.000    0.000    0.000    0.000    0.000 
#
# Total GULP energy -116902.066175 kJ/mol
# GULP energy per Si atom -5566.765056 kJ/mol
# Density = 2.077491 g / cm^3
# Si number density = 20.822300 Si / 1000 Ang^3
#
#
#
# Elastic Constant Matrix: (Units=GPa)
#
#
# Indices 1 2 3 4 5 6 
#
# 1 178.9215 101.3643 42.0983 0.0000 25.1109 0.0000
# 2 101.3643 170.5975 19.1042 0.0000 17.3827 0.0000
# 3 42.0983 19.1042 80.2386 0.0000 0.4915 0.0000
# 4 0.0000 0.0000 0.0000 -0.2819 0.0000 -0.6016
# 5 25.1109 17.3827 0.4915 0.0000 36.6572 0.0000
# 6 0.0000 0.0000 0.0000 -0.6016 0.0000 -1.5100
#
#
#
# Elastic Compliance Matrix: (Units=1/GPa)
#
#
# Indices 1 2 3 4 5 6 
#
# 1 0.010018 -0.005052 -0.004026 0.000000 -0.004413 0.000000
# 2 -0.005052 0.008880 0.000541 0.000000 -0.000758 0.000000
# 3 -0.004026 0.000541 0.014432 0.000000 0.002308 0.000000
# 4 0.000000 0.000000 0.000000-23.689602 0.000000 9.437609
# 5 -0.004413 -0.000758 0.002308 0.000000 0.030631 0.000000
# 6 0.000000 0.000000 0.000000 9.437609 0.000000 -4.422053
#
#
# Mechanical properties :
#
#
# Convention : Reuss Voigt Hill
#
# Bulk Modulus (GPa) = 61.51597 83.87681 72.69639
# Shear Modulus (GPa) = -0.17841 24.78577 12.30368
#
# Velocity S-wave (km/s) = -0.29303 3.45388 2.43346
# Velocity P-wave (km/s) = 5.43074 7.50169 6.54860
#
# Compressibility (1/GPa) = 0.01625594
#
# Stress axis : x y z
#
# Youngs Moduli (GPa) = 99.82450 112.61327 69.28923
#
# Poissons Ratio (x) = 0.56889 0.27896
# Poissons Ratio (y) = 0.50428 -0.03747
# Poissons Ratio (z) = 0.40190 -0.06090
#
# Static dielectric constant tensor:
#      x y z
#    x 1.717640 0.000000 0.017830 
#    y 0.000000 1.748470 0.000000 
#    z 0.017830 0.000000 1.698320 
# 
# From -- ./inp_files/108332.got.cif
#   From: 2010.05.17/outbox.cif.g08.bks.cpg/sg12_55_cif.got.tgz:108332.got - 2010.06.03 13:09:07.
