data_PCOD9191452
_publ_section_title
;
Structure prediction by ZEFSAII (Michael W. Deem and Ramdas Pophale) SiO2 
 PCOD9191452
Probable space group: C 2/M
;
_chemical_formula_sum "Si O2"
_cell_formula_units_Z 64
_cell_length_a 21.645055
_cell_length_b 14.602790
_cell_length_c 11.645256
_cell_angle_alpha 90.000000
_cell_angle_beta 118.225387
_cell_angle_gamma 90.000000
_cell_volume 3243.140845
_symmetry_space_group_name_H-M "C 2/M"
_symmetry_group_IT_number 12
_symmetry_cell_setting 'monoclinic'
loop_
_space_group_symop_operation_xyz
x,y,z
-x,y,-z
-x,-y,-z
x,-y,z
1/2+x,1/2+y,z
1/2-x,1/2+y,-z
1/2-x,1/2-y,-z
1/2+x,1/2-y,z
loop_
_atom_site_type_symbol
_atom_site_label
_atom_site_fract_x
_atom_site_fract_y
_atom_site_fract_z
Si Si1 0.287356 0.106184 0.286304
Si Si2 0.822493 0.196687 0.371109
Si Si3 0.321654 0.110355 0.841280
Si Si4 0.639512 0.107127 0.869962
Si Si5 0.552560 0.399767 0.652088
Si Si6 0.006858 0.710105 0.645831
Si Si7 0.883047 0.605890 0.659938
Si Si8 0.218256 0.103958 0.444386
O O1 0.331530 0.195295 0.361889
O O2 0.292117 0.114115 0.153018
O O3 0.218877 0.117266 0.307337
O O4 0.311336 0.000000 0.331228
O O5 0.746975 0.165623 0.257133
O O6 0.877378 0.139723 0.344880
O O7 0.822484 0.170045 0.505706
O O8 0.379223 0.124553 0.792830
O O9 0.305953 0.000000 0.827617
O O10 0.345180 0.139414 0.988298
O O11 0.574417 0.155595 0.751402
O O12 0.622000 0.000000 0.862941
O O13 0.500000 0.410650 0.500000
O O14 0.562754 0.500000 0.714955
O O15 0.519594 0.315802 0.692915
O O16 0.000000 0.705813 0.500000
O O17 0.938228 0.668132 0.643411
O O18 0.903723 0.500000 0.659905
O O19 0.801288 0.612143 0.548785
O O20 0.196629 0.000000 0.452302
#
# Coordination Sequence:
#
# PCOD9191452 Si02
#       8
#     8   8   8   8   8   8   8   8
#     4  10  20  33  49  81 120 145 175 229 278 330
#     4  11  19  36  61  79 107 154 189 221 281 331
#     4   9  20  37  58  84 111 143 190 237 269 316
#     4  10  20  35  54  83 118 147 181 227 272 326
#     4  10  22  38  55  80 110 140 188 236 267 318
#     4  11  21  34  54  80 115 150 181 215 280 338
#     4   9  18  32  53  82 113 145 183 223 268 330
#     4   9  18  32  54  84 114 142 183 228 273 330
#
# _framework density 19.733955999999999
#
# number of rings (size 3 to 8) (size 9 to 14) (size 15 to 20)
#    0.000    2.125    1.250    3.375    1.750    3.000 
#    0.000    1.875    0.000    0.375    0.000    0.875 
#    0.000    0.000    0.000    0.625    0.000    0.125 
#
# Total GULP energy -178283.110022 kJ/mol
# GULP energy per Si atom -5571.347188 kJ/mol
# Density = 1.968904 g / cm^3
# Si number density = 19.733956 Si / 1000 Ang^3
#
#
#
# Elastic Constant Matrix: (Units=GPa)
#
#
# Indices 1 2 3 4 5 6 
#
# 1 79.3163 54.1885 23.2660 0.0000 -16.0835 0.0000
# 2 54.1885 118.1358 18.0083 0.0000 -10.8431 0.0000
# 3 23.2660 18.0083 81.4097 0.0000 -21.9518 0.0000
# 4 0.0000 0.0000 0.0000 17.4478 0.0000 -6.8242
# 5 -16.0835 -10.8431 -21.9518 0.0000 27.7588 0.0000
# 6 0.0000 0.0000 0.0000 -6.8242 0.0000 32.5433
#
#
#
# Elastic Compliance Matrix: (Units=1/GPa)
#
#
# Indices 1 2 3 4 5 6 
#
# 1 0.020340 -0.008380 -0.002115 0.000000 0.006839 0.000000
# 2 -0.008380 0.012340 -0.000438 0.000000 -0.000381 0.000000
# 3 -0.002115 -0.000438 0.016026 0.000000 0.011277 0.000000
# 4 0.000000 0.000000 0.000000 0.062435 0.000000 0.013092
# 5 0.006839 -0.000381 0.011277 0.000000 0.048756 0.000000
# 6 0.000000 0.000000 0.000000 0.013092 0.000000 0.033474
#
#
# Mechanical properties :
#
#
# Convention : Reuss Voigt Hill
#
# Bulk Modulus (GPa) = 37.25678 52.19860 44.72769
# Shear Modulus (GPa) = 22.30331 27.77657 25.03994
#
# Velocity S-wave (km/s) = 3.36549 3.75581 3.56599
# Velocity P-wave (km/s) = 5.83289 6.73177 6.29838
#
# Compressibility (1/GPa) = 0.02684076
#
# Stress axis : x y z
#
# Youngs Moduli (GPa) = 49.16437 81.03521 62.40039
#
# Poissons Ratio (x) = 0.67905 0.13199
# Poissons Ratio (y) = 0.41198 0.02731
# Poissons Ratio (z) = 0.10399 0.03546
#
# Static dielectric constant tensor:
#      x y z
#    x 1.709240 0.000000 -0.033690 
#    y 0.000000 1.754290 0.000000 
#    z -0.033690 0.000000 1.730280 
# 
# From -- ./inp_files/167272.got.cif
#   From: 2010.05.17/outbox.cif.g08.bks.cpg/sg12_84_cif.got.tgz:167272.got - 2010.06.03 13:09:07.
