data_PCOD9191471
_publ_section_title
;
Structure prediction by ZEFSAII (Michael W. Deem and Ramdas Pophale) SiO2 
 PCOD9191471
Probable space group: C 2/M
;
_chemical_formula_sum "Si O2"
_cell_formula_units_Z 56
_cell_length_a 18.824640
_cell_length_b 7.466258
_cell_length_c 19.462961
_cell_angle_alpha 90.000000
_cell_angle_beta 105.543829
_cell_angle_gamma 90.000000
_cell_volume 2635.462447
_symmetry_space_group_name_H-M "C 2/M"
_symmetry_group_IT_number 12
_symmetry_cell_setting 'monoclinic'
loop_
_space_group_symop_operation_xyz
x,y,z
-x,y,-z
-x,-y,-z
x,-y,z
1/2+x,1/2+y,z
1/2-x,1/2+y,-z
1/2-x,1/2-y,-z
1/2+x,1/2-y,z
loop_
_atom_site_type_symbol
_atom_site_label
_atom_site_fract_x
_atom_site_fract_y
_atom_site_fract_z
Si Si1 0.747761 0.788574 0.298191
Si Si2 0.377316 0.716549 0.844101
Si Si3 0.586695 0.708050 0.000970
Si Si4 0.594400 0.284353 0.709965
Si Si5 0.812059 0.714684 0.572641
Si Si6 0.458266 0.280350 0.154884
Si Si7 0.029654 0.286652 0.435095
O O1 0.689311 0.768296 0.221963
O O2 0.827285 0.714846 0.297123
O O3 0.714258 0.714192 0.360249
O O4 0.759062 0.000000 0.313040
O O5 0.379679 0.500000 0.847990
O O6 0.372393 0.784007 0.921626
O O7 0.456265 0.773667 0.833127
O O8 0.609052 0.500000 0.001144
O O9 0.500000 0.710862 0.000000
O O10 0.587118 0.782526 0.924034
O O11 0.599309 0.500000 0.716157
O O12 0.573558 0.220208 0.780784
O O13 0.530274 0.242072 0.639560
O O14 0.820158 0.500000 0.581839
O O15 0.750000 0.750000 0.500000
O O16 0.891020 0.785581 0.567894
O O17 0.457718 0.500000 0.153252
O O18 0.038999 0.500000 0.446798
O O19 0.000000 0.214159 0.500000
#
# Coordination Sequence:
#
# PCOD9191471 Si02
#       7
#     8   8   8   8   8   8   8
#     4  10  21  34  46  67 101 131 152 185 237 286
#     4   9  16  28  50  74  91 118 162 201 232 271
#     4   7  11  22  43  70  94 115 149 199 240 267
#     4  10  20  33  50  71  95 127 162 191 227 279
#     4  10  21  36  53  73  97 125 155 189 233 281
#     4   8  14  27  48  72  94 118 156 202 237 268
#     4  10  21  36  53  73  96 122 154 195 239 275
#
# _framework density 21.248643000000001
#
# number of rings (size 3 to 8) (size 9 to 14) (size 15 to 20)
#    0.000    2.857    0.000    3.429    0.000    2.000 
#    0.000    0.714    0.000    4.714    0.000    0.000 
#    0.000    0.000    0.000    0.000    0.000    0.000 
#
# Total GULP energy -156255.321650 kJ/mol
# GULP energy per Si atom -5580.547202 kJ/mol
# Density = 2.120028 g / cm^3
# Si number density = 21.248643 Si / 1000 Ang^3
#
#
#
# Elastic Constant Matrix: (Units=GPa)
#
#
# Indices 1 2 3 4 5 6 
#
# 1 179.9828 5.6142 125.8604 0.0000 -10.8677 0.0000
# 2 5.6142 59.2435 -10.5429 0.0000 -9.2079 0.0000
# 3 125.8604 -10.5429 219.2314 0.0000 -16.1644 0.0000
# 4 0.0000 0.0000 0.0000 41.9903 0.0000 47.2138
# 5 -10.8677 -9.2079 -16.1644 0.0000 34.1371 0.0000
# 6 0.0000 0.0000 0.0000 47.2138 0.0000 26.7106
#
#
#
# Elastic Compliance Matrix: (Units=1/GPa)
#
#
# Indices 1 2 3 4 5 6 
#
# 1 0.009487 -0.001905 -0.005547 0.000000 -0.000120 0.000000
# 2 -0.001905 0.018333 0.002378 0.000000 0.005465 0.000000
# 3 -0.005547 0.002378 0.008059 0.000000 0.002691 0.000000
# 4 0.000000 0.000000 0.000000 -0.024117 0.000000 0.042629
# 5 -0.000120 0.005465 0.002691 0.000000 0.032004 0.000000
# 6 0.000000 0.000000 0.000000 0.042629 0.000000 -0.037913
#
#
# Mechanical properties :
#
#
# Convention : Reuss Voigt Hill
#
# Bulk Modulus (GPa) = 38.86382 77.81346 58.33864
# Shear Modulus (GPa) = 203.43506 43.06934 123.25220
#
# Velocity S-wave (km/s) = 9.79531 4.50702 7.62435
# Velocity P-wave (km/s) = 12.09382 7.98650 10.24804
#
# Compressibility (1/GPa) = 0.02573087
#
# Stress axis : x y z
#
# Youngs Moduli (GPa) = 105.40422 54.54784 124.08823
#
# Poissons Ratio (x) = 0.10391 0.68833
# Poissons Ratio (y) = 0.20078 -0.29510
# Poissons Ratio (z) = 0.58469 -0.12972
#
# Static dielectric constant tensor:
#      x y z
#    x 1.740860 0.000000 -0.032680 
#    y 0.000000 1.818490 0.000000 
#    z -0.032680 0.000000 1.750550 
# 
# From -- ./inp_files/275526.got.cif
#   From: 2010.05.17/outbox.cif.g08.bks.cpg/sg12_138_cif.got.tgz:275526.got - 2010.06.03 13:09:07.
