data_PCOD9191532
_publ_section_title
;
Structure prediction by ZEFSAII (Michael W. Deem and Ramdas Pophale) SiO2 
 PCOD9191532
Probable space group: C 2/M
;
_chemical_formula_sum "Si O2"
_cell_formula_units_Z 56
_cell_length_a 32.083984
_cell_length_b 7.641310
_cell_length_c 12.450322
_cell_angle_alpha 90.000000
_cell_angle_beta 61.650781
_cell_angle_gamma 90.000000
_cell_volume 2686.295580
_symmetry_space_group_name_H-M "C 2/M"
_symmetry_group_IT_number 12
_symmetry_cell_setting 'monoclinic'
loop_
_space_group_symop_operation_xyz
x,y,z
-x,y,-z
-x,-y,-z
x,-y,z
1/2+x,1/2+y,z
1/2-x,1/2+y,-z
1/2-x,1/2-y,-z
1/2+x,1/2-y,z
loop_
_atom_site_type_symbol
_atom_site_label
_atom_site_fract_x
_atom_site_fract_y
_atom_site_fract_z
Si Si1 0.853402 0.207609 0.931114
Si Si2 0.771614 0.288145 0.186412
Si Si3 0.379584 0.794878 0.447099
Si Si4 0.300013 0.210043 0.382995
Si Si5 0.959307 0.210648 0.194264
Si Si6 0.434400 0.713920 0.990715
Si Si7 0.665320 0.706222 0.279640
O O1 0.853351 0.279887 0.810328
O O2 0.862981 0.000000 0.913284
O O3 0.802170 0.234077 0.046823
O O4 0.892435 0.279304 0.966322
O O5 0.771066 0.500000 0.191794
O O6 0.796824 0.223624 0.264821
O O7 0.717468 0.224065 0.246727
O O8 0.341876 0.719189 0.406962
O O9 0.430955 0.768491 0.333240
O O10 0.369509 0.723276 0.577291
O O11 0.370157 0.000000 0.467205
O O12 0.250000 0.250000 0.500000
O O13 0.305495 0.000000 0.370471
O O14 0.933103 0.271482 0.116772
O O15 0.959177 0.000000 0.193143
O O16 0.013998 0.265231 0.117789
O O17 0.433155 0.500000 0.994427
O O18 0.672638 0.500000 0.252017
#
# Coordination Sequence:
#
# PCOD9191532 Si02
#       7
#     8   8   8   8   8   8   8
#     4  10  20  34  54  78 101 131 176 219 253 299
#     4  10  20  34  51  74 104 136 170 208 257 311
#     4  11  22  34  51  78 107 136 172 213 256 302
#     4  10  20  33  50  73 103 134 166 207 250 296
#     4   9  17  33  58  80 103 135 165 206 263 313
#     4   8  16  33  56  82 104 127 169 215 255 306
#     4  10  21  36  52  71 102 143 178 210 250 301
#
# _framework density 20.846551999999999
#
# number of rings (size 3 to 8) (size 9 to 14) (size 15 to 20)
#    0.000    2.286    1.429    2.571    0.000    2.286 
#    0.000    2.857    0.000    4.286    0.000    0.000 
#    0.000    0.000    0.000    0.000    0.000    0.000 
#
# Total GULP energy -156350.539358 kJ/mol
# GULP energy per Si atom -5583.947834 kJ/mol
# Density = 2.079910 g / cm^3
# Si number density = 20.846552 Si / 1000 Ang^3
#
#
#
# Elastic Constant Matrix: (Units=GPa)
#
#
# Indices 1 2 3 4 5 6 
#
# 1 52.4980 2.8649 50.4995 0.0000 8.7276 0.0000
# 2 2.8649 35.6435 -16.1147 0.0000 9.7376 0.0000
# 3 50.4995 -16.1147 149.1042 0.0000 14.0343 0.0000
# 4 0.0000 0.0000 0.0000 18.2008 0.0000 -8.0896
# 5 8.7276 9.7376 14.0343 0.0000 26.9969 0.0000
# 6 0.0000 0.0000 0.0000 -8.0896 0.0000 2.3902
#
#
#
# Elastic Compliance Matrix: (Units=1/GPa)
#
#
# Indices 1 2 3 4 5 6 
#
# 1 0.030044 -0.006825 -0.010757 0.000000 -0.001659 0.000000
# 2 -0.006825 0.036070 0.007599 0.000000 -0.014754 0.000000
# 3 -0.010757 0.007599 0.011673 0.000000 -0.005331 0.000000
# 4 0.000000 0.000000 0.000000 -0.108953 0.000000 -0.368748
# 5 -0.001659 -0.014754 -0.005331 0.000000 0.045671 0.000000
# 6 0.000000 0.000000 0.000000 -0.368748 0.000000 -0.829648
#
#
# Mechanical properties :
#
#
# Convention : Reuss Voigt Hill
#
# Bulk Modulus (GPa) = 17.29481 34.63834 25.96658
# Shear Modulus (GPa) = -6.44411 22.85065 8.20327
#
# Velocity S-wave (km/s) = -1.76009 3.31439 1.98585
# Velocity P-wave (km/s) = 2.04541 5.59453 4.21204
#
# Compressibility (1/GPa) = 0.05782081
#
# Stress axis : x y z
#
# Youngs Moduli (GPa) = 33.28441 27.72359 85.66774
#
# Poissons Ratio (x) = 0.18921 0.92153
# Poissons Ratio (y) = 0.22716 -0.65096
# Poissons Ratio (z) = 0.35804 -0.21066
#
# Static dielectric constant tensor:
#      x y z
#    x 1.763440 0.000000 0.024900 
#    y 0.000000 1.718650 0.000000 
#    z 0.024900 0.000000 1.721580 
# 
# From -- ./inp_files/180699.got.cif
#   From: 2010.05.17/outbox.cif.g08.bks.cpg/sg12_91_cif.got.tgz:180699.got - 2010.06.03 13:09:07.
