data_PCOD9191858
_publ_section_title
;
Structure prediction by ZEFSAII (Michael W. Deem and Ramdas Pophale) SiO2 
 PCOD9191858
Probable space group: C 2/M
;
_chemical_formula_sum "Si O2"
_cell_formula_units_Z 52
_cell_length_a 21.570915
_cell_length_b 14.629613
_cell_length_c 17.449186
_cell_angle_alpha 90.000000
_cell_angle_beta 23.915055
_cell_angle_gamma 90.000000
_cell_volume 2232.239690
_symmetry_space_group_name_H-M "C 2/M"
_symmetry_group_IT_number 12
_symmetry_cell_setting 'monoclinic'
loop_
_space_group_symop_operation_xyz
x,y,z
-x,y,-z
-x,-y,-z
x,-y,z
1/2+x,1/2+y,z
1/2-x,1/2+y,-z
1/2-x,1/2-y,-z
1/2+x,1/2-y,z
loop_
_atom_site_type_symbol
_atom_site_label
_atom_site_fract_x
_atom_site_fract_y
_atom_site_fract_z
Si Si1 0.964016 0.812725 0.690725
Si Si2 0.658484 0.145546 0.081241
Si Si3 0.758353 0.891645 0.536562
Si Si4 0.554592 0.000000 0.634526
Si Si5 0.198089 0.103271 0.915289
Si Si6 0.397390 0.714839 0.234583
Si Si7 0.648092 0.841993 0.406453
O O1 0.915697 0.742751 0.814021
O O2 0.089493 0.881733 0.581553
O O3 0.043037 0.747268 0.539597
O O4 0.795675 0.852659 0.864829
O O5 0.520442 0.078696 0.224486
O O6 0.735131 0.109171 0.074460
O O7 0.637626 0.821741 0.711764
O O8 0.807110 0.842884 0.402173
O O9 0.733607 0.000000 0.548773
O O10 0.597005 0.079313 0.522561
O O11 0.329417 0.121469 0.704488
O O12 0.136975 0.000000 0.973374
O O13 0.068091 0.178021 0.048416
O O14 0.315863 0.687361 0.247920
#
# Coordination Sequence:
#
# PCOD9191858 Si02
#       7
#     8   8   8   4   8   8   8
#     4   9  20  37  53  77 114 154 200 246 280 339
#     4  10  20  35  55  82 117 153 203 243 287 350
#     4  10  20  37  62  83 115 159 203 248 296 353
#     4  10  20  33  51  80 115 151 193 238 284 354
#     4  12  22  34  60  91 126 165 189 239 309 378
#     4  10  22  36  55  90 122 155 197 249 296 357
#     4  10  22  36  52  84 128 156 190 238 303 362
#
# _framework density 23.294988
#
# number of rings (size 3 to 8) (size 9 to 14) (size 15 to 20)
#    0.000    1.846    3.077    0.923    3.231    3.692 
#    0.000    0.000    0.000    8.308    0.000    4.308 
#    0.000    0.000    0.000    0.000    0.000    0.000 
#
# Total GULP energy -144814.741329 kJ/mol
# GULP energy per Si atom -5569.797743 kJ/mol
# Density = 2.324197 g / cm^3
# Si number density = 23.294988 Si / 1000 Ang^3
#
#
#
# Elastic Constant Matrix: (Units=GPa)
#
#
# Indices 1 2 3 4 5 6 
#
# 1 30.0115 -22.8897 -6.4437 0.0003 -0.4650 0.0001
# 2 -22.8897 70.9996 19.4975 0.0003 0.6238 0.0001
# 3 -6.4437 19.4975 95.7952 0.0002 -9.1487 0.0001
# 4 0.0003 0.0003 0.0002 29.6725 -0.0001 38.6348
# 5 -0.4650 0.6238 -9.1487 -0.0001 22.8032 -0.0001
# 6 0.0001 0.0001 0.0001 38.6348 -0.0001 87.6450
#
#
#
# Elastic Compliance Matrix: (Units=1/GPa)
#
#
# Indices 1 2 3 4 5 6 
#
# 1 0.044193 0.014205 0.000136 -0.000001 0.000567 0.000000
# 2 0.014205 0.019548 -0.003168 -0.000001 -0.001516 0.000000
# 3 0.000136 -0.003168 0.011544 0.000000 0.004721 0.000000
# 4 -0.000001 -0.000001 0.000000 0.079102 0.000000 -0.034869
# 5 0.000567 -0.001516 0.004721 0.000000 0.045800 0.000000
# 6 0.000000 0.000000 0.000000 -0.034869 0.000000 0.026780
#
#
# Mechanical properties :
#
#
# Convention : Reuss Voigt Hill
#
# Bulk Modulus (GPa) = 10.24276 19.68160 14.96218
# Shear Modulus (GPa) = 21.08246 41.80030 31.44138
#
# Velocity S-wave (km/s) = 3.01162 4.24062 3.67782
# Velocity P-wave (km/s) = 4.06198 5.69599 4.94692
#
# Compressibility (1/GPa) = 0.09762992
#
# Stress axis : x y z
#
# Youngs Moduli (GPa) = 22.62810 51.15738 86.62759
#
# Poissons Ratio (x) = -0.72670 -0.01174
# Poissons Ratio (y) = -0.32144 0.27442
# Poissons Ratio (z) = -0.00307 0.16206
#
# Static dielectric constant tensor:
#      x y z
#    x 2.190600 0.000000 -0.166080 
#    y 0.000000 1.935040 0.000000 
#    z -0.166080 0.000000 1.952240 
# 
# From -- ./inp_files/328292.got.cif
#   From: 2010.05.17/outbox.cif.g08.bks.cpg/sg12_165_cif.got.tgz:328292.got - 2010.06.03 13:09:07.
