data_PCOD9191514
_publ_section_title
;
Structure prediction by ZEFSAII (Michael W. Deem and Ramdas Pophale) SiO2 
 PCOD9191514
Probable space group: C 2/M
;
_chemical_formula_sum "Si O2"
_cell_formula_units_Z 56
_cell_length_a 23.251783
_cell_length_b 9.166191
_cell_length_c 14.893540
_cell_angle_alpha 90.000000
_cell_angle_beta 93.030585
_cell_angle_gamma 90.000000
_cell_volume 3169.825060
_symmetry_space_group_name_H-M "C 2/M"
_symmetry_group_IT_number 12
_symmetry_cell_setting 'monoclinic'
loop_
_space_group_symop_operation_xyz
x,y,z
-x,y,-z
-x,-y,-z
x,-y,z
1/2+x,1/2+y,z
1/2-x,1/2+y,-z
1/2-x,1/2-y,-z
1/2+x,1/2-y,z
loop_
_atom_site_type_symbol
_atom_site_label
_atom_site_fract_x
_atom_site_fract_y
_atom_site_fract_z
Si Si1 0.736648 0.675905 0.593319
Si Si2 0.122107 0.329811 0.979514
Si Si3 0.870225 0.834023 0.299924
Si Si4 0.198837 0.828488 0.238409
Si Si5 0.961420 0.331230 0.201084
Si Si6 0.075238 0.829494 0.151034
Si Si7 0.216092 0.832140 0.879400
O O1 0.742774 0.500000 0.591338
O O2 0.750000 0.750000 0.500000
O O3 0.671387 0.707750 0.621545
O O4 0.777988 0.744207 0.672720
O O5 0.132924 0.500000 0.998585
O O6 0.078159 0.320544 0.891696
O O7 0.180618 0.249542 0.953700
O O8 0.092365 0.253764 0.061430
O O9 0.922484 0.729927 0.278697
O O10 0.827569 0.834880 0.209895
O O11 0.890757 0.000000 0.314056
O O12 0.130628 0.816432 0.220032
O O13 0.229709 0.755593 0.154745
O O14 0.214541 0.000000 0.244287
O O15 0.975943 0.500000 0.215753
O O16 0.018436 0.238541 0.189160
O O17 0.066271 0.000000 0.130202
O O18 0.229299 0.000000 0.903597
#
# Coordination Sequence:
#
# PCOD9191514 Si02
#       7
#     8   8   8   8   8   8   8
#     4  10  20  35  59  87 110 133 161 200 251 305
#     4  10  20  33  50  73 100 133 177 224 262 299
#     4   8  16  31  51  76 103 131 164 201 246 299
#     4  10  21  36  52  74 104 136 171 209 255 309
#     4  10  20  33  51  74 100 134 176 218 256 295
#     4  11  23  35  49  70 100 140 178 215 259 303
#     4   9  17  31  51  73  99 133 171 212 259 307
#
# _framework density 17.666589999999999
#
# number of rings (size 3 to 8) (size 9 to 14) (size 15 to 20)
#    0.000    2.286    0.000    3.857    0.000   10.286 
#    0.000    0.000    0.000    0.857    0.000    6.000 
#    0.000    0.000    0.000    0.000    0.000    0.000 
#
# Total GULP energy -156328.550602 kJ/mol
# GULP energy per Si atom -5583.162522 kJ/mol
# Density = 1.762638 g / cm^3
# Si number density = 17.666590 Si / 1000 Ang^3
#
#
#
# Elastic Constant Matrix: (Units=GPa)
#
#
# Indices 1 2 3 4 5 6 
#
# 1 98.9276 79.7661 47.6302 0.0000 -24.2763 0.0000
# 2 79.7661 150.9933 66.6276 0.0000 -21.7890 0.0000
# 3 47.6302 66.6276 87.1726 0.0000 -32.4169 0.0000
# 4 0.0000 0.0000 0.0000 26.5530 0.0000 -7.9059
# 5 -24.2763 -21.7890 -32.4169 0.0000 22.9448 0.0000
# 6 0.0000 0.0000 0.0000 -7.9059 0.0000 31.6244
#
#
#
# Elastic Compliance Matrix: (Units=1/GPa)
#
#
# Indices 1 2 3 4 5 6 
#
# 1 0.020663 -0.009403 0.001487 0.000000 0.015035 0.000000
# 2 -0.009403 0.014354 -0.009406 0.000000 -0.009606 0.000000
# 3 0.001487 -0.009406 0.031840 0.000000 0.037625 0.000000
# 4 0.000000 0.000000 0.000000 0.040689 0.000000 0.010172
# 5 0.015035 -0.009606 0.037625 0.000000 0.103526 0.000000
# 6 0.000000 0.000000 0.000000 0.010172 0.000000 0.034164
#
#
# Mechanical properties :
#
#
# Convention : Reuss Voigt Hill
#
# Bulk Modulus (GPa) = 31.04158 80.57126 55.80642
# Shear Modulus (GPa) = 17.20481 25.76241 21.48361
#
# Velocity S-wave (km/s) = 3.12406 3.82285 3.49099
# Velocity P-wave (km/s) = 5.53371 8.07411 6.92146
#
# Compressibility (1/GPa) = 0.03221486
#
# Stress axis : x y z
#
# Youngs Moduli (GPa) = 48.39555 69.66574 31.40741
#
# Poissons Ratio (x) = 0.65504 -0.04672
# Poissons Ratio (y) = 0.45504 0.29541
# Poissons Ratio (z) = -0.07198 0.65527
#
# Static dielectric constant tensor:
#      x y z
#    x 1.599010 0.000000 0.011040 
#    y 0.000000 1.595490 0.000000 
#    z 0.011040 0.000000 1.589420 
# 
# From -- ./inp_files/230950.got.cif
#   From: 2010.05.17/outbox.cif.g08.bks.cpg/sg12_116_cif.got.tgz:230950.got - 2010.06.03 13:09:07.
