data_PCOD9191708
_publ_section_title
;
Structure prediction by ZEFSAII (Michael W. Deem and Ramdas Pophale) SiO2 
 PCOD9191708
Probable space group: C 2/M
;
_chemical_formula_sum "Si O2"
_cell_formula_units_Z 64
_cell_length_a 22.054399
_cell_length_b 13.745598
_cell_length_c 12.995280
_cell_angle_alpha 90.000000
_cell_angle_beta 66.435394
_cell_angle_gamma 90.000000
_cell_volume 3611.012861
_symmetry_space_group_name_H-M "C 2/M"
_symmetry_group_IT_number 12
_symmetry_cell_setting 'monoclinic'
loop_
_space_group_symop_operation_xyz
x,y,z
-x,y,-z
-x,-y,-z
x,-y,z
1/2+x,1/2+y,z
1/2-x,1/2+y,-z
1/2-x,1/2-y,-z
1/2+x,1/2-y,z
loop_
_atom_site_type_symbol
_atom_site_label
_atom_site_fract_x
_atom_site_fract_y
_atom_site_fract_z
Si Si1 0.061106 0.610236 0.163545
Si Si2 0.456494 0.752777 0.129863
Si Si3 0.075950 0.765195 0.476187
Si Si4 0.651370 0.886362 0.903196
Si Si5 0.553795 0.612544 0.691701
Si Si6 0.777189 0.230874 0.868700
Si Si7 0.599752 0.389459 0.261409
Si Si8 0.350520 0.113643 0.696463
O O1 0.035077 0.500000 0.168790
O O2 0.091165 0.620013 0.256641
O O3 0.004945 0.686574 0.172568
O O4 0.120218 0.620077 0.039909
O O5 0.398400 0.823860 0.132417
O O6 0.430636 0.659744 0.208973
O O7 0.500000 0.726815 0.000000
O O8 0.079549 0.815861 0.584492
O O9 0.094979 0.847160 0.379501
O O10 0.122686 0.673431 0.419836
O O11 0.000000 0.738516 0.500000
O O12 0.723753 0.839641 0.852271
O O13 0.651988 0.000000 0.874950
O O14 0.574878 0.500000 0.665287
O O15 0.473799 0.613418 0.734439
O O16 0.847583 0.177314 0.831385
O O17 0.791028 0.326597 0.790688
O O18 0.750000 0.250000 0.000000
O O19 0.622763 0.500000 0.245672
O O20 0.336735 0.000000 0.687871
#
# Coordination Sequence:
#
# PCOD9191708 Si02
#       8
#     8   8   8   8   8   8   8   8
#     4   9  16  30  51  75 105 141 175 215 263 309
#     4  10  20  33  53  75 108 140 178 221 262 310
#     4   9  17  31  53  78 107 135 173 217 270 322
#     4  10  20  33  51  75 104 142 183 215 251 306
#     4  10  20  35  55  78 107 139 173 217 270 326
#     4  11  20  31  52  75 110 145 179 217 257 311
#     4   9  18  31  52  80 106 136 174 219 267 316
#     4  10  20  33  51  80 114 142 172 217 272 321
#
# _framework density 17.723559999999999
#
# number of rings (size 3 to 8) (size 9 to 14) (size 15 to 20)
#    0.000    2.250    1.250    3.375    1.750    4.000 
#    0.000    1.875    0.000    3.000    0.000    1.750 
#    0.000    0.000    0.000    0.000    0.000    0.000 
#
# Total GULP energy -178456.139665 kJ/mol
# GULP energy per Si atom -5576.754365 kJ/mol
# Density = 1.768322 g / cm^3
# Si number density = 17.723560 Si / 1000 Ang^3
#
#
#
# Elastic Constant Matrix: (Units=GPa)
#
#
# Indices 1 2 3 4 5 6 
#
# 1 24.9850 25.0540 20.6529 0.0000 -1.0438 0.0000
# 2 25.0540 145.8567 61.5286 0.0000 -8.1142 0.0000
# 3 20.6529 61.5286 87.6984 0.0000 -9.5362 0.0000
# 4 0.0000 0.0000 0.0000 23.7602 0.0000 -3.5222
# 5 -1.0438 -8.1142 -9.5362 0.0000 20.8940 0.0000
# 6 0.0000 0.0000 0.0000 -3.5222 0.0000 23.7208
#
#
#
# Elastic Compliance Matrix: (Units=1/GPa)
#
#
# Indices 1 2 3 4 5 6 
#
# 1 0.052790 -0.005481 -0.008977 0.000000 -0.003588 0.000000
# 2 -0.005481 0.010317 -0.005831 0.000000 0.001071 0.000000
# 3 -0.008977 -0.005831 0.018217 0.000000 0.005601 0.000000
# 4 0.000000 0.000000 0.000000 0.043034 0.000000 0.006390
# 5 -0.003588 0.001071 0.005601 0.000000 0.050654 0.000000
# 6 0.000000 0.000000 0.000000 0.006390 0.000000 0.043106
#
#
# Mechanical properties :
#
#
# Convention : Reuss Voigt Hill
#
# Bulk Modulus (GPa) = 24.54194 52.55679 38.54936
# Shear Modulus (GPa) = 18.36358 23.76198 21.06278
#
# Velocity S-wave (km/s) = 3.22236 3.66553 3.45107
# Velocity P-wave (km/s) = 5.26516 6.90165 6.13819
#
# Compressibility (1/GPa) = 0.04074658
#
# Stress axis : x y z
#
# Youngs Moduli (GPa) = 18.94288 96.92889 54.89394
#
# Poissons Ratio (x) = 0.53122 0.49279
# Poissons Ratio (y) = 0.10382 0.32009
# Poissons Ratio (z) = 0.17005 0.56520
#
# Static dielectric constant tensor:
#      x y z
#    x 1.594620 0.000000 -0.006220 
#    y 0.000000 1.626210 0.000000 
#    z -0.006220 0.000000 1.611050 
# 
# From -- ./inp_files/167246.got.cif
#   From: 2010.05.17/outbox.cif.g08.bks.cpg/sg12_84_cif.got.tgz:167246.got - 2010.06.03 13:09:07.
