data_PCOD9191428
_publ_section_title
;
Structure prediction by ZEFSAII (Michael W. Deem and Ramdas Pophale) SiO2 
 PCOD9191428
Probable space group: C 2/M
;
_chemical_formula_sum "Si O2"
_cell_formula_units_Z 56
_cell_length_a 13.405801
_cell_length_b 23.469184
_cell_length_c 24.480271
_cell_angle_alpha 90.000000
_cell_angle_beta 25.238800
_cell_angle_gamma 90.000000
_cell_volume 3284.096860
_symmetry_space_group_name_H-M "C 2/M"
_symmetry_group_IT_number 12
_symmetry_cell_setting 'monoclinic'
loop_
_space_group_symop_operation_xyz
x,y,z
-x,y,-z
-x,-y,-z
x,-y,z
1/2+x,1/2+y,z
1/2-x,1/2+y,-z
1/2-x,1/2-y,-z
1/2+x,1/2-y,z
loop_
_atom_site_type_symbol
_atom_site_label
_atom_site_fract_x
_atom_site_fract_y
_atom_site_fract_z
Si Si1 0.260163 0.161306 0.859555
Si Si2 0.621763 0.329893 0.595772
Si Si3 0.470214 0.221391 0.861317
Si Si4 0.380758 0.934638 0.314751
Si Si5 0.543669 0.759225 0.415156
Si Si6 0.193979 0.713734 0.857228
Si Si7 0.037443 0.065025 0.390327
O O1 0.370431 0.186454 0.860466
O O2 0.429536 0.110591 0.759054
O O3 0.230648 0.217456 0.836285
O O4 0.000000 0.139671 0.000000
O O5 0.558674 0.289684 0.574557
O O6 0.888596 0.315015 0.478657
O O7 0.454562 0.311093 0.729023
O O8 0.547076 0.392472 0.614464
O O9 0.590567 0.189218 0.852216
O O10 0.680059 0.260927 0.734360
O O11 0.250000 0.250000 0.000000
O O12 0.171115 0.934879 0.461989
O O13 0.265314 0.917884 0.313386
O O14 0.466835 0.000000 0.267466
O O15 0.500000 0.743504 0.500000
O O16 0.000000 0.704283 0.000000
O O17 0.072347 0.000000 0.354366
#
# Coordination Sequence:
#
# PCOD9191428 Si02
#       7
#     8   8   8   8   8   8   8
#     4  11  21  32  52  70 108 144 170 210 255 306
#     4  10  21  32  53  80 101 138 177 211 265 319
#     4  11  20  33  46  72 103 143 172 200 256 318
#     4   9  19  33  51  76 103 137 173 211 263 312
#     4  10  22  32  50  79 109 133 170 221 258 308
#     4  10  20  33  49  73 106 138 172 210 260 312
#     4   9  19  34  53  75 103 133 170 220 264 308
#
# _framework density 17.051871999999999
#
# number of rings (size 3 to 8) (size 9 to 14) (size 15 to 20)
#    0.000    2.000    2.857    3.429   10.000    0.286 
#    0.000    0.000    0.000    0.857    0.000    0.000 
#    0.000    0.000    0.000    0.000    0.000    0.286 
#
# Total GULP energy -155881.339115 kJ/mol
# GULP energy per Si atom -5567.190683 kJ/mol
# Density = 1.701306 g / cm^3
# Si number density = 17.051872 Si / 1000 Ang^3
#
#
#
# Elastic Constant Matrix: (Units=GPa)
#
#
# Indices 1 2 3 4 5 6 
#
# 1 64.1074 12.1352 24.0140 0.0283 -0.5478 -0.0199
# 2 12.1352 54.2982 31.4246 -0.0149 -4.2672 0.0082
# 3 24.0140 31.4246 111.4710 0.1228 -7.3035 -0.0339
# 4 0.0283 -0.0149 0.1228 20.9364 -0.0355 -1.5403
# 5 -0.5478 -4.2672 -7.3035 -0.0355 27.8366 0.0432
# 6 -0.0199 0.0082 -0.0339 -1.5403 0.0432 23.2443
#
#
#
# Elastic Compliance Matrix: (Units=1/GPa)
#
#
# Indices 1 2 3 4 5 6 
#
# 1 0.017170 -0.002067 -0.003169 -0.000007 -0.000811 0.000012
# 2 -0.002067 0.022343 -0.005730 0.000054 0.001881 -0.000018
# 3 -0.003169 -0.005730 0.011404 -0.000063 0.002051 0.000008
# 4 -0.000007 0.000054 -0.000063 0.047998 0.000048 0.003180
# 5 -0.000811 0.001881 0.002051 0.000048 0.036735 -0.000063
# 6 0.000012 -0.000018 0.000008 0.003180 -0.000063 0.043232
#
#
# Mechanical properties :
#
#
# Convention : Reuss Voigt Hill
#
# Bulk Modulus (GPa) = 34.50196 40.55826 37.53011
# Shear Modulus (GPa) = 23.75568 25.22366 24.48967
#
# Velocity S-wave (km/s) = 3.73653 3.85025 3.79382
# Velocity P-wave (km/s) = 6.23643 6.60324 6.42245
#
# Compressibility (1/GPa) = 0.02898386
#
# Stress axis : x y z
#
# Youngs Moduli (GPa) = 58.23982 44.75699 87.69177
#
# Poissons Ratio (x) = 0.09251 0.27793
# Poissons Ratio (y) = 0.12037 0.50249
# Poissons Ratio (z) = 0.18459 0.25647
#
# Static dielectric constant tensor:
#      x y z
#    x 1.624090 -0.000010 -0.026550 
#    y -0.000010 1.589580 0.000040 
#    z -0.026550 0.000040 1.630390 
# 
# From -- ./inp_files/362188.got.cif
#   From: 2010.05.17/outbox.cif.g08.bks.cpg/sg12_182_cif.got.tgz:362188.got - 2010.06.03 13:09:07.
