data_PCOD9191082
_publ_section_title
;
Structure prediction by ZEFSAII (Michael W. Deem and Ramdas Pophale) SiO2 
 PCOD9191082
Probable space group: C 2/M
;
_chemical_formula_sum "Si O2"
_cell_formula_units_Z 64
_cell_length_a 28.245621
_cell_length_b 9.524545
_cell_length_c 20.650199
_cell_angle_alpha 90.000000
_cell_angle_beta 143.237385
_cell_angle_gamma 90.000000
_cell_volume 3324.945167
_symmetry_space_group_name_H-M "C 2/M"
_symmetry_group_IT_number 12
_symmetry_cell_setting 'monoclinic'
loop_
_space_group_symop_operation_xyz
x,y,z
-x,y,-z
-x,-y,-z
x,-y,z
1/2+x,1/2+y,z
1/2-x,1/2+y,-z
1/2-x,1/2-y,-z
1/2+x,1/2-y,z
loop_
_atom_site_type_symbol
_atom_site_label
_atom_site_fract_x
_atom_site_fract_y
_atom_site_fract_z
Si Si1 0.974103 0.660023 0.069659
Si Si2 0.347880 0.839330 0.049503
Si Si3 0.323657 0.163773 0.831463
Si Si4 0.898479 0.165654 0.718995
Si Si5 0.268494 0.832143 0.161556
Si Si6 0.740918 0.163972 0.384195
Si Si7 0.571156 0.833274 0.724437
Si Si8 0.422873 0.334030 0.596401
O O1 0.004214 0.500000 0.094388
O O2 0.914158 0.661288 0.065618
O O3 0.043614 0.763693 0.165370
O O4 0.915826 0.697398 0.946549
O O5 0.388595 0.802376 0.161734
O O6 0.317613 0.000000 0.021355
O O7 0.280232 0.734006 0.951829
O O8 0.269671 0.260942 0.817386
O O9 0.296725 0.174396 0.728447
O O10 0.314479 0.000000 0.841713
O O11 0.813670 0.240038 0.631006
O O12 0.932273 0.189166 0.683917
O O13 0.891317 0.000000 0.721615
O O14 0.361063 0.799533 0.253459
O O15 0.258930 0.000000 0.151802
O O16 0.832563 0.206282 0.481885
O O17 0.738009 0.000000 0.401749
O O18 0.489723 0.750092 0.631829
O O19 0.555902 0.000000 0.705814
O O20 0.431092 0.500000 0.592993
#
# Coordination Sequence:
#
# PCOD9191082 Si02
#       8
#     8   8   8   8   8   8   8   8
#     4   9  17  32  55  80 108 144 179 217 265 322
#     4   9  17  31  51  77 111 149 184 215 260 324
#     4   9  20  39  59  78 106 146 191 227 263 318
#     4  11  22  35  55  86 115 137 171 223 283 335
#     4  10  20  32  52  82 113 144 179 223 274 321
#     4  10  22  41  61  78 102 144 191 231 268 320
#     4  10  20  34  53  80 112 147 183 218 267 328
#     4  10  22  38  57  83 111 140 182 229 275 321
#
# _framework density 19.248438
#
# number of rings (size 3 to 8) (size 9 to 14) (size 15 to 20)
#    0.000    2.250    1.250    2.250    0.000    5.500 
#    0.000    3.125    0.000    3.750    0.000    0.000 
#    0.000    0.000    0.000    0.000    0.000    0.000 
#
# Total GULP energy -178697.387875 kJ/mol
# GULP energy per Si atom -5584.293371 kJ/mol
# Density = 1.920463 g / cm^3
# Si number density = 19.248438 Si / 1000 Ang^3
#
#
#
# Elastic Constant Matrix: (Units=GPa)
#
#
# Indices 1 2 3 4 5 6 
#
# 1 44.6507 38.3554 23.8341 0.0000 23.8801 0.0000
# 2 38.3554 72.7561 55.1736 0.0000 27.9199 0.0000
# 3 23.8341 55.1736 97.3745 0.0000 26.2523 0.0000
# 4 0.0000 0.0000 0.0000 30.5226 0.0000 11.6548
# 5 23.8801 27.9199 26.2523 0.0000 35.5313 0.0000
# 6 0.0000 0.0000 0.0000 11.6548 0.0000 23.9286
#
#
#
# Elastic Compliance Matrix: (Units=1/GPa)
#
#
# Indices 1 2 3 4 5 6 
#
# 1 0.049711 -0.023584 0.006502 0.000000 -0.019682 0.000000
# 2 -0.023584 0.039347 -0.015559 0.000000 -0.003572 0.000000
# 3 0.006502 -0.015559 0.019201 0.000000 -0.006330 0.000000
# 4 0.000000 0.000000 0.000000 0.040248 0.000000 -0.019603
# 5 -0.019682 -0.003572 -0.006330 0.000000 0.048856 0.000000
# 6 0.000000 0.000000 0.000000 -0.019603 0.000000 0.051339
#
#
# Mechanical properties :
#
#
# Convention : Reuss Voigt Hill
#
# Bulk Modulus (GPa) = 23.26880 49.94528 36.60704
# Shear Modulus (GPa) = 15.22951 24.49105 19.86028
#
# Velocity S-wave (km/s) = 2.81589 3.57089 3.21563
# Velocity P-wave (km/s) = 4.76311 6.55788 5.73119
#
# Compressibility (1/GPa) = 0.04297600
#
# Stress axis : x y z
#
# Youngs Moduli (GPa) = 20.11638 25.41467 52.08123
#
# Poissons Ratio (x) = 0.59938 -0.33862
# Poissons Ratio (y) = 0.47443 0.81033
# Poissons Ratio (z) = -0.13079 0.39543
#
# Static dielectric constant tensor:
#      x y z
#    x 1.691030 0.000000 -0.005260 
#    y 0.000000 1.643610 0.000000 
#    z -0.005260 0.000000 1.677430 
# 
# From -- ./inp_files/353454.got.cif
#   From: 2010.05.17/outbox.cif.g08.bks.cpg/sg12_177_cif.got.tgz:353454.got - 2010.06.03 13:09:07.
