data_PCOD9191047
_publ_section_title
;
Structure prediction by ZEFSAII (Michael W. Deem and Ramdas Pophale) SiO2 
 PCOD9191047
Probable space group: C 2/M
;
_chemical_formula_sum "Si O2"
_cell_formula_units_Z 40
_cell_length_a 10.727865
_cell_length_b 26.101141
_cell_length_c 9.813872
_cell_angle_alpha 90.000000
_cell_angle_beta 140.567462
_cell_angle_gamma 90.000000
_cell_volume 1745.430824
_symmetry_space_group_name_H-M "C 2/M"
_symmetry_group_IT_number 12
_symmetry_cell_setting 'monoclinic'
loop_
_space_group_symop_operation_xyz
x,y,z
-x,y,-z
-x,-y,-z
x,-y,z
1/2+x,1/2+y,z
1/2-x,1/2+y,-z
1/2-x,1/2-y,-z
1/2+x,1/2-y,z
loop_
_atom_site_type_symbol
_atom_site_label
_atom_site_fract_x
_atom_site_fract_y
_atom_site_fract_z
Si Si1 0.935264 0.364536 0.091104
Si Si2 0.122613 0.058198 0.319822
Si Si3 0.692263 0.057443 0.811139
Si Si4 0.016103 0.160193 0.356603
Si Si5 0.476835 0.750563 0.139880
O O1 0.706796 0.351060 0.878058
O O2 0.940458 0.402670 0.221095
O O3 0.041247 0.310029 0.204443
O O4 0.000000 0.386758 0.000000
O O5 0.264308 0.067698 0.310287
O O6 0.124716 0.105952 0.424799
O O7 0.151906 0.000000 0.398200
O O8 0.904989 0.057930 0.066350
O O9 0.614421 0.000000 0.758000
O O10 0.082426 0.207330 0.318163
O O11 0.000000 0.175092 0.500000
O O12 0.500000 0.737021 0.000000
O O13 0.250000 0.750000 0.000000
#
# Coordination Sequence:
#
# PCOD9191047 Si02
#       5
#     8   8   8   8   8
#     4   9  18  33  50  70 105 134 167 203 252 302
#     4   8  15  27  47  75 101 126 164 211 251 291
#     4   8  14  26  49  76  96 126 174 210 236 292
#     4  10  20  32  52  78 102 128 169 213 254 297
#     4   9  19  33  52  72  99 140 173 205 250 303
#
# _framework density 22.916978
#
# number of rings (size 3 to 8) (size 9 to 14) (size 15 to 20)
#    0.000    3.200    0.000    1.200    8.400    0.800 
#    0.000    9.000    0.000    0.000    0.000    2.800 
#    0.000    0.000    0.000    0.000    0.000    0.000 
#
# Total GULP energy -111712.597795 kJ/mol
# GULP energy per Si atom -5585.629890 kJ/mol
# Density = 2.286482 g / cm^3
# Si number density = 22.916978 Si / 1000 Ang^3
#
#
#
# Elastic Constant Matrix: (Units=GPa)
#
#
# Indices 1 2 3 4 5 6 
#
# 1 105.1517 65.4630 38.4794 0.0000 -22.4725 0.0000
# 2 65.4630 162.5098 59.1381 0.0000 -59.7781 0.0000
# 3 38.4794 59.1381 85.6769 0.0000 -21.8297 0.0000
# 4 0.0000 0.0000 0.0000 18.0010 0.0000 -19.9392
# 5 -22.4725 -59.7781 -21.8297 0.0000 54.6611 0.0000
# 6 0.0000 0.0000 0.0000 -19.9392 0.0000 38.0189
#
#
#
# Elastic Compliance Matrix: (Units=1/GPa)
#
#
# Indices 1 2 3 4 5 6 
#
# 1 0.013271 -0.004485 -0.003033 0.000000 -0.000660 0.000000
# 2 -0.004485 0.013865 -0.004634 0.000000 0.011469 0.000000
# 3 -0.003033 -0.004634 0.016280 0.000000 0.000187 0.000000
# 4 0.000000 0.000000 0.000000 0.132559 0.000000 0.069521
# 5 -0.000660 0.011469 0.000187 0.000000 0.030640 0.000000
# 6 0.000000 0.000000 0.000000 0.069521 0.000000 0.062764
#
#
# Mechanical properties :
#
#
# Convention : Reuss Voigt Hill
#
# Bulk Modulus (GPa) = 52.32093 75.49993 63.91043
# Shear Modulus (GPa) = 16.66370 34.82004 25.74187
#
# Velocity S-wave (km/s) = 2.69947 3.90218 3.35515
# Velocity P-wave (km/s) = 5.70932 7.30200 6.55422
#
# Compressibility (1/GPa) = 0.01911281
#
# Stress axis : x y z
#
# Youngs Moduli (GPa) = 75.35222 72.12362 61.42502
#
# Poissons Ratio (x) = 0.32348 0.18628
# Poissons Ratio (y) = 0.33796 0.28464
# Poissons Ratio (z) = 0.22852 0.33421
#
# Static dielectric constant tensor:
#      x y z
#    x 1.771360 0.000000 0.104660 
#    y 0.000000 1.865760 0.000000 
#    z 0.104660 0.000000 1.865570 
# 
# From -- ./inp_files/51693.got.cif
#   From: 2010.05.17/outbox.cif.g08.bks.cpg/sg12_26_cif.got.tgz:51693.got - 2010.06.03 13:09:07.
