data_PCOD9191093
_publ_section_title
;
Structure prediction by ZEFSAII (Michael W. Deem and Ramdas Pophale) SiO2 
 PCOD9191093
Probable space group: C 2/M
;
_chemical_formula_sum "Si O2"
_cell_formula_units_Z 60
_cell_length_a 30.936852
_cell_length_b 13.356437
_cell_length_c 15.705562
_cell_angle_alpha 90.000000
_cell_angle_beta 152.858443
_cell_angle_gamma 90.000000
_cell_volume 2960.509264
_symmetry_space_group_name_H-M "C 2/M"
_symmetry_group_IT_number 12
_symmetry_cell_setting 'monoclinic'
loop_
_space_group_symop_operation_xyz
x,y,z
-x,y,-z
-x,-y,-z
x,-y,z
1/2+x,1/2+y,z
1/2-x,1/2+y,-z
1/2-x,1/2-y,-z
1/2+x,1/2-y,z
loop_
_atom_site_type_symbol
_atom_site_label
_atom_site_fract_x
_atom_site_fract_y
_atom_site_fract_z
Si Si1 0.781080 0.118298 0.075556
Si Si2 0.056535 0.120339 0.769230
Si Si3 0.190674 0.817331 0.511532
Si Si4 0.397944 0.882539 0.356386
Si Si5 0.348023 0.703007 0.368268
Si Si6 0.833527 0.614856 0.621428
Si Si7 0.000000 0.269236 0.000000
Si Si8 0.973264 0.881147 0.093013
O O1 0.861858 0.154685 0.151509
O O2 0.794604 0.164710 0.191423
O O3 0.795601 0.000000 0.110999
O O4 0.680389 0.132231 0.854162
O O5 0.953712 0.157025 0.559415
O O6 0.072872 0.147212 0.897021
O O7 0.054703 0.000000 0.764798
O O8 0.202747 0.825867 0.633480
O O9 0.197775 0.699413 0.500719
O O10 0.263664 0.874911 0.579733
O O11 0.085719 0.859098 0.304358
O O12 0.500000 0.849006 0.500000
O O13 0.365620 0.820105 0.381603
O O14 0.403422 0.000000 0.385371
O O15 0.837138 0.500000 0.598864
O O16 0.933168 0.658697 0.828717
O O17 0.944816 0.192841 0.966608
O O18 0.959146 0.000000 0.050724
#
# Coordination Sequence:
#
# PCOD9191093 Si02
#       8
#     8   8   8   8   8   8   4   8
#     4  10  20  34  54  80 109 143 183 226 275 326
#     4   9  18  32  53  82 112 143 180 227 285 335
#     4   9  21  36  56  83 103 136 185 222 273 345
#     4  10  22  38  53  74 109 153 193 221 257 317
#     4  11  20  34  57  82 109 137 177 234 282 322
#     4  10  20  38  57  76 110 145 177 223 275 329
#     4  10  20  32  52  84 110 144 192 226 268 328
#     4   9  17  32  53  79 114 146 180 232 280 321
#
# _framework density 20.266783
#
# number of rings (size 3 to 8) (size 9 to 14) (size 15 to 20)
#    0.000    2.267    0.000    2.800    0.000    4.267 
#    0.000    3.333    0.000    6.400    0.000    0.000 
#    0.000    0.000    0.000    0.000    0.000    0.000 
#
# Total GULP energy -167491.440372 kJ/mol
# GULP energy per Si atom -5583.048012 kJ/mol
# Density = 2.022066 g / cm^3
# Si number density = 20.266783 Si / 1000 Ang^3
#
#
#
# Elastic Constant Matrix: (Units=GPa)
#
#
# Indices 1 2 3 4 5 6 
#
# 1 74.7109 2.5653 5.7114 0.0000 0.0463 0.0000
# 2 2.5653 81.1864 -13.2613 0.0000 -0.5292 0.0000
# 3 5.7114 -13.2613 23.3643 0.0000 5.9039 0.0000
# 4 0.0000 0.0000 0.0000 14.5043 0.0000 0.7997
# 5 0.0463 -0.5292 5.9039 0.0000 18.2772 0.0000
# 6 0.0000 0.0000 0.0000 0.7997 0.0000 16.5094
#
#
#
# Elastic Compliance Matrix: (Units=1/GPa)
#
#
# Indices 1 2 3 4 5 6 
#
# 1 0.013755 -0.001136 -0.004344 0.000000 0.001336 0.000000
# 2 -0.001136 0.013758 0.008695 0.000000 -0.002407 0.000000
# 3 -0.004344 0.008695 0.053062 0.000000 -0.016877 0.000000
# 4 0.000000 0.000000 0.000000 0.069129 0.000000 -0.003349
# 5 0.001336 -0.002407 -0.016877 0.000000 0.060092 0.000000
# 6 0.000000 0.000000 0.000000 -0.003349 0.000000 0.060734
#
#
# Mechanical properties :
#
#
# Convention : Reuss Voigt Hill
#
# Bulk Modulus (GPa) = 11.49374 18.81028 15.15201
# Shear Modulus (GPa) = 17.05891 22.14128 19.60009
#
# Velocity S-wave (km/s) = 2.90438 3.30887 3.11320
# Velocity P-wave (km/s) = 4.11471 4.88873 4.51832
#
# Compressibility (1/GPa) = 0.08700391
#
# Stress axis : x y z
#
# Youngs Moduli (GPa) = 72.69973 72.68643 18.84591
#
# Poissons Ratio (x) = 0.08254 0.08188
# Poissons Ratio (y) = 0.08256 -0.16386
# Poissons Ratio (z) = 0.31584 -0.63198
#
# Static dielectric constant tensor:
#      x y z
#    x 1.712890 0.000000 0.007110 
#    y 0.000000 1.736520 0.000000 
#    z 0.007110 0.000000 1.713290 
# 
# From -- ./inp_files/246755.got.cif
#   From: 2010.05.17/outbox.cif.g08.bks.cpg/sg12_124_cif.got.tgz:246755.got - 2010.06.03 13:09:07.
