data_PCOD9191880
_publ_section_title
;
Structure prediction by ZEFSAII (Michael W. Deem and Ramdas Pophale) SiO2 
 PCOD9191880
Probable space group: C 2/M
;
_chemical_formula_sum "Si O2"
_cell_formula_units_Z 56
_cell_length_a 14.669178
_cell_length_b 8.579013
_cell_length_c 33.305042
_cell_angle_alpha 90.000000
_cell_angle_beta 133.014711
_cell_angle_gamma 90.000000
_cell_volume 3064.619388
_symmetry_space_group_name_H-M "C 2/M"
_symmetry_group_IT_number 12
_symmetry_cell_setting 'monoclinic'
loop_
_space_group_symop_operation_xyz
x,y,z
-x,y,-z
-x,-y,-z
x,-y,z
1/2+x,1/2+y,z
1/2-x,1/2+y,-z
1/2-x,1/2-y,-z
1/2+x,1/2-y,z
loop_
_atom_site_type_symbol
_atom_site_label
_atom_site_fract_x
_atom_site_fract_y
_atom_site_fract_z
Si Si1 0.731799 0.311741 0.144097
Si Si2 0.948803 0.812824 0.051763
Si Si3 0.275280 0.188452 0.069344
Si Si4 0.110044 0.187253 0.734926
Si Si5 0.157175 0.686351 0.438422
Si Si6 0.177203 0.187479 0.355758
Si Si7 0.378767 0.312378 0.353434
O O1 0.729913 0.500000 0.144782
O O2 0.589366 0.254475 0.097409
O O3 0.796007 0.265243 0.121456
O O4 0.801793 0.252736 0.204227
O O5 0.872660 0.761854 0.068054
O O6 0.955681 0.000000 0.051908
O O7 0.862742 0.765290 0.988121
O O8 0.282697 0.000000 0.068865
O O9 0.147554 0.234664 0.700864
O O10 0.965353 0.233593 0.697941
O O11 0.114768 0.000000 0.737716
O O12 0.156022 0.500000 0.438330
O O13 0.250000 0.750000 0.500000
O O14 0.198365 0.746583 0.406820
O O15 0.017315 0.749364 0.404064
O O16 0.276669 0.249142 0.353653
O O17 0.182614 0.000000 0.358994
O O18 0.381301 0.500000 0.355942
#
# Coordination Sequence:
#
# PCOD9191880 Si02
#       7
#     8   8   8   8   8   8   8
#     4  10  20  33  52  75 100 134 174 214 262 320
#     4   9  18  33  51  72  99 131 168 212 262 317
#     4   9  18  33  51  72  99 131 168 212 262 317
#     4   9  21  38  54  76 109 141 176 224 270 317
#     4  11  22  38  60  88 120 151 184 226 270 317
#     4  10  21  39  60  83 111 147 187 227 273 322
#     4  10  21  39  60  83 111 147 187 227 273 322
#
# _framework density 18.273069
#
# number of rings (size 3 to 8) (size 9 to 14) (size 15 to 20)
#    0.000    2.286    0.000    3.429    0.000    8.000 
#    0.000    8.571    0.000    4.286    0.000    0.000 
#    0.000    0.000    0.000    0.000    0.000    0.000 
#
# Total GULP energy -156254.470964 kJ/mol
# GULP energy per Si atom -5580.516820 kJ/mol
# Density = 1.823148 g / cm^3
# Si number density = 18.273069 Si / 1000 Ang^3
#
#
#
# Elastic Constant Matrix: (Units=GPa)
#
#
# Indices 1 2 3 4 5 6 
#
# 1 119.7471 27.4628 55.8621 0.0000 -15.4266 0.0000
# 2 27.4628 44.5620 25.6299 0.0000 -4.4895 0.0000
# 3 55.8621 25.6299 123.6248 0.0000 -14.2439 0.0000
# 4 0.0000 0.0000 0.0000 33.5094 0.0000 -0.2712
# 5 -15.4266 -4.4895 -14.2439 0.0000 12.0792 0.0000
# 6 0.0000 0.0000 0.0000 -0.2712 0.0000 28.5339
#
#
#
# Elastic Compliance Matrix: (Units=1/GPa)
#
#
# Indices 1 2 3 4 5 6 
#
# 1 0.012296 -0.004587 -0.003463 0.000000 0.009915 0.000000
# 2 -0.004587 0.027338 -0.003586 0.000000 0.000073 0.000000
# 3 -0.003463 -0.003586 0.011265 0.000000 0.007528 0.000000
# 4 0.000000 0.000000 0.000000 0.029845 0.000000 0.000284
# 5 0.009915 0.000073 0.007528 0.000000 0.104354 0.000000
# 6 0.000000 0.000000 0.000000 0.000284 0.000000 0.035049
#
#
# Mechanical properties :
#
#
# Convention : Reuss Voigt Hill
#
# Bulk Modulus (GPa) = 36.19841 56.20482 46.20162
# Shear Modulus (GPa) = 19.79207 26.75643 23.27425
#
# Velocity S-wave (km/s) = 3.29466 3.83071 3.57275
# Velocity P-wave (km/s) = 5.85882 7.09865 6.50833
#
# Compressibility (1/GPa) = 0.02762552
#
# Stress axis : x y z
#
# Youngs Moduli (GPa) = 81.33021 36.57946 88.77412
#
# Poissons Ratio (x) = 0.16780 0.30739
# Poissons Ratio (y) = 0.37307 0.31838
# Poissons Ratio (z) = 0.28161 0.13119
#
# Static dielectric constant tensor:
#      x y z
#    x 1.617540 0.000000 0.002670 
#    y 0.000000 1.623010 0.000000 
#    z 0.002670 0.000000 1.613490 
# 
# From -- ./inp_files/375146.got.cif
#   From: 2010.05.17/outbox.cif.g08.bks.cpg/sg12_188_cif.got.tgz:375146.got - 2010.06.03 13:09:07.
