data_PCOD9191432
_publ_section_title
;
Structure prediction by ZEFSAII (Michael W. Deem and Ramdas Pophale) SiO2 
 PCOD9191432
Probable space group: C 2/M
;
_chemical_formula_sum "Si O2"
_cell_formula_units_Z 48
_cell_length_a 24.469778
_cell_length_b 9.153110
_cell_length_c 13.515082
_cell_angle_alpha 90.000000
_cell_angle_beta 73.475040
_cell_angle_gamma 90.000000
_cell_volume 2902.005784
_symmetry_space_group_name_H-M "C 2/M"
_symmetry_group_IT_number 12
_symmetry_cell_setting 'monoclinic'
loop_
_space_group_symop_operation_xyz
x,y,z
-x,y,-z
-x,-y,-z
x,-y,z
1/2+x,1/2+y,z
1/2-x,1/2+y,-z
1/2-x,1/2-y,-z
1/2+x,1/2-y,z
loop_
_atom_site_type_symbol
_atom_site_label
_atom_site_fract_x
_atom_site_fract_y
_atom_site_fract_z
Si Si1 0.065256 0.834187 0.558525
Si Si2 0.548227 0.672509 0.262148
Si Si3 0.873545 0.830838 0.260644
Si Si4 0.980634 0.673560 0.121837
Si Si5 0.630488 0.826977 0.357323
Si Si6 0.250840 0.676501 0.391424
O O1 0.102499 0.828519 0.639392
O O2 0.090247 0.719631 0.469452
O O3 0.001086 0.808752 0.628622
O O4 0.069704 0.000000 0.515376
O O5 0.554194 0.500000 0.242163
O O6 0.522916 0.749100 0.177995
O O7 0.605280 0.743666 0.275685
O O8 0.917433 0.735780 0.175061
O O9 0.808246 0.781804 0.303097
O O10 0.875798 0.000000 0.226154
O O11 0.981297 0.500000 0.138892
O O12 0.000000 0.702617 0.000000
O O13 0.694152 0.786138 0.359172
O O14 0.628142 0.000000 0.342400
O O15 0.252297 0.500000 0.403932
O O16 0.250000 0.750000 0.500000
#
# Coordination Sequence:
#
# PCOD9191432 Si02
#       6
#     8   8   8   8   8   8
#     4   9  17  30  47  68  99 138 175 209 248 297
#     4  10  21  35  51  72 101 136 172 210 255 309
#     4   9  18  33  52  75 105 139 176 212 250 303
#     4  10  21  37  58  82 104 125 159 216 274 314
#     4  11  21  30  46  73 105 140 175 211 251 295
#     4  10  20  33  49  73 106 145 181 212 247 293
#
# _framework density 16.540284
#
# number of rings (size 3 to 8) (size 9 to 14) (size 15 to 20)
#    0.000    2.167    1.667    3.000    0.000    8.000 
#    0.000    0.000    0.000    1.000    0.000    0.000 
#    0.000    0.000    0.000    0.000    0.000    0.000 
#
# Total GULP energy -133902.448437 kJ/mol
# GULP energy per Si atom -5579.268685 kJ/mol
# Density = 1.650264 g / cm^3
# Si number density = 16.540284 Si / 1000 Ang^3
#
#
#
# Elastic Constant Matrix: (Units=GPa)
#
#
# Indices 1 2 3 4 5 6 
#
# 1 151.3009 71.4532 61.0703 0.0000 9.1121 0.0000
# 2 71.4532 75.5163 60.0978 0.0000 -1.0144 0.0000
# 3 61.0703 60.0978 82.4351 0.0000 -4.4311 0.0000
# 4 0.0000 0.0000 0.0000 22.3713 0.0000 -0.4875
# 5 9.1121 -1.0144 -4.4311 0.0000 10.1361 0.0000
# 6 0.0000 0.0000 0.0000 -0.4875 0.0000 25.1842
#
#
#
# Elastic Compliance Matrix: (Units=1/GPa)
#
#
# Indices 1 2 3 4 5 6 
#
# 1 0.013920 -0.010775 -0.003264 0.000000 -0.015019 0.000000
# 2 -0.010775 0.040385 -0.021220 0.000000 0.004451 0.000000
# 3 -0.003264 -0.021220 0.030786 0.000000 0.014270 0.000000
# 4 0.000000 0.000000 0.000000 0.044719 0.000000 0.000866
# 5 -0.015019 0.004451 0.014270 0.000000 0.118843 0.000000
# 6 0.000000 0.000000 0.000000 0.000866 0.000000 0.039724
#
#
# Mechanical properties :
#
#
# Convention : Reuss Voigt Hill
#
# Bulk Modulus (GPa) = 68.62408 77.16611 72.89509
# Shear Modulus (GPa) = 13.74558 19.31371 16.52964
#
# Velocity S-wave (km/s) = 2.88590 3.42084 3.16469
# Velocity P-wave (km/s) = 7.25835 7.89668 7.58423
#
# Compressibility (1/GPa) = 0.01457214
#
# Stress axis : x y z
#
# Youngs Moduli (GPa) = 71.83858 24.76192 32.48207
#
# Poissons Ratio (x) = 0.26681 0.10604
# Poissons Ratio (y) = 0.77406 0.68927
# Poissons Ratio (z) = 0.23451 0.52545
#
# Static dielectric constant tensor:
#      x y z
#    x 1.585220 0.000000 0.009930 
#    y 0.000000 1.555560 0.000000 
#    z 0.009930 0.000000 1.530440 
# 
# From -- ./inp_files/172138.got.cif
#   From: 2010.05.17/outbox.cif.g08.bks.cpg/sg12_87_cif.got.tgz:172138.got - 2010.06.03 13:09:07.
