data_PCOD9191987
_publ_section_title
;
Structure prediction by ZEFSAII (Michael W. Deem and Ramdas Pophale) SiO2 
 PCOD9191987
Probable space group: C 2/M
;
_chemical_formula_sum "Si O2"
_cell_formula_units_Z 48
_cell_length_a 15.276484
_cell_length_b 11.401920
_cell_length_c 22.124744
_cell_angle_alpha 90.000000
_cell_angle_beta 144.415275
_cell_angle_gamma 90.000000
_cell_volume 2242.500874
_symmetry_space_group_name_H-M "C 2/M"
_symmetry_group_IT_number 12
_symmetry_cell_setting 'monoclinic'
loop_
_space_group_symop_operation_xyz
x,y,z
-x,y,-z
-x,-y,-z
x,-y,z
1/2+x,1/2+y,z
1/2-x,1/2+y,-z
1/2-x,1/2-y,-z
1/2+x,1/2-y,z
loop_
_atom_site_type_symbol
_atom_site_label
_atom_site_fract_x
_atom_site_fract_y
_atom_site_fract_z
Si Si1 0.942408 0.630951 0.770272
Si Si2 0.448697 0.781403 0.910263
Si Si3 0.773023 0.862279 0.968325
Si Si4 0.833852 0.702984 0.403366
Si Si5 0.327596 0.873760 0.531262
Si Si6 0.326728 0.128711 0.261460
O O1 0.893498 0.500000 0.730157
O O2 0.953347 0.649301 0.849608
O O3 0.813061 0.715944 0.674682
O O4 0.114055 0.644234 0.843645
O O5 0.281728 0.729923 0.822950
O O6 0.500000 0.846427 0.000000
O O7 0.567997 0.673353 0.971519
O O8 0.780766 0.000000 0.994136
O O9 0.750000 0.750000 0.000000
O O10 0.835420 0.622596 0.462910
O O11 0.818058 0.640184 0.329984
O O12 0.000000 0.763442 0.500000
O O13 0.250000 0.750000 0.500000
O O14 0.496375 0.863747 0.651420
O O15 0.262409 0.000000 0.515219
O O16 0.271518 0.000000 0.211851
#
# Coordination Sequence:
#
# PCOD9191987 Si02
#       6
#     8   8   8   8   8   8
#     4   9  19  35  54  77 107 145 184 222 271 327
#     4  10  20  33  52  79 108 139 180 229 274 318
#     4   9  18  33  52  74 103 138 178 222 268 320
#     4   9  18  34  56  79 104 139 184 226 262 312
#     4  10  21  37  57  83 114 144 176 220 274 326
#     4   9  18  34  55  77 103 139 183 225 264 314
#
# _framework density 21.404674
#
# number of rings (size 3 to 8) (size 9 to 14) (size 15 to 20)
#    0.000    2.667    0.000    1.000    0.000    6.000 
#    0.000   10.833    0.000    8.000    0.000    0.000 
#    0.000    0.000    0.000    0.000    0.000    0.000 
#
# Total GULP energy -133646.903854 kJ/mol
# GULP energy per Si atom -5568.620994 kJ/mol
# Density = 2.135596 g / cm^3
# Si number density = 21.404674 Si / 1000 Ang^3
#
#
#
# Elastic Constant Matrix: (Units=GPa)
#
#
# Indices 1 2 3 4 5 6 
#
# 1 48.4829 28.1904 15.3123 0.0000 4.4532 0.0000
# 2 28.1904 119.4524 32.8525 0.0000 21.1320 0.0000
# 3 15.3123 32.8525 102.7776 0.0000 -6.8822 0.0000
# 4 0.0000 0.0000 0.0000 14.0060 0.0000 10.0397
# 5 4.4532 21.1320 -6.8822 0.0000 47.3299 0.0000
# 6 0.0000 0.0000 0.0000 10.0397 0.0000 12.4135
#
#
#
# Elastic Compliance Matrix: (Units=1/GPa)
#
#
# Indices 1 2 3 4 5 6 
#
# 1 0.024263 -0.005127 -0.001995 0.000000 -0.000284 0.000000
# 2 -0.005127 0.011357 -0.003205 0.000000 -0.005054 0.000000
# 3 -0.001995 -0.003205 0.011270 0.000000 0.003257 0.000000
# 4 0.000000 0.000000 0.000000 0.169889 0.000000 -0.137401
# 5 -0.000284 -0.005054 0.003257 0.000000 0.023885 0.000000
# 6 0.000000 0.000000 0.000000 -0.137401 0.000000 0.191683
#
#
# Mechanical properties :
#
#
# Convention : Reuss Voigt Hill
#
# Bulk Modulus (GPa) = 38.11581 47.04703 42.58142
# Shear Modulus (GPa) = 10.82844 27.70705 19.26775
#
# Velocity S-wave (km/s) = 2.25164 3.60174 3.00353
# Velocity P-wave (km/s) = 4.96042 6.27090 5.65376
#
# Compressibility (1/GPa) = 0.02623584
#
# Stress axis : x y z
#
# Youngs Moduli (GPa) = 41.21473 88.05059 88.73505
#
# Poissons Ratio (x) = 0.45145 0.17702
# Poissons Ratio (y) = 0.21132 0.28438
# Poissons Ratio (z) = 0.08222 0.28219
#
# Static dielectric constant tensor:
#      x y z
#    x 1.874540 0.000000 -0.048280 
#    y 0.000000 1.754260 0.000000 
#    z -0.048280 0.000000 1.774660 
# 
# From -- ./inp_files/289322.got.cif
#   From: 2010.05.17/outbox.cif.g08.bks.cpg/sg12_145_cif.got.tgz:289322.got - 2010.06.03 13:09:07.
