data_PCOD9191040
_publ_section_title
;
Structure prediction by ZEFSAII (Michael W. Deem and Ramdas Pophale) SiO2 
 PCOD9191040
Probable space group: C 2/M
;
_chemical_formula_sum "Si O2"
_cell_formula_units_Z 40
_cell_length_a 13.447775
_cell_length_b 13.972807
_cell_length_c 12.560872
_cell_angle_alpha 90.000000
_cell_angle_beta 115.549897
_cell_angle_gamma 90.000000
_cell_volume 2129.421000
_symmetry_space_group_name_H-M "C 2/M"
_symmetry_group_IT_number 12
_symmetry_cell_setting 'monoclinic'
loop_
_space_group_symop_operation_xyz
x,y,z
-x,y,-z
-x,-y,-z
x,-y,z
1/2+x,1/2+y,z
1/2-x,1/2+y,-z
1/2-x,1/2-y,-z
1/2+x,1/2-y,z
loop_
_atom_site_type_symbol
_atom_site_label
_atom_site_fract_x
_atom_site_fract_y
_atom_site_fract_z
Si Si1 0.629460 0.200845 0.573111
Si Si2 0.725960 0.298797 0.158126
Si Si3 0.314091 0.610254 0.514100
Si Si4 0.281791 0.610778 0.073277
Si Si5 0.457545 0.389751 0.789737
O O1 0.500000 0.184686 0.500000
O O2 0.678655 0.179852 0.711910
O O3 0.658282 0.311944 0.562027
O O4 0.700372 0.140059 0.520154
O O5 0.725344 0.188415 0.122656
O O6 0.611676 0.325295 0.162142
O O7 0.743243 0.360939 0.060083
O O8 0.312401 0.500000 0.478426
O O9 0.406934 0.621960 0.648754
O O10 0.256602 0.500000 0.083089
O O11 0.412984 0.626505 0.148370
O O12 0.437174 0.500000 0.812317
#
# Coordination Sequence:
#
# PCOD9191040 Si02
#       5
#     8   8   8   8   8
#     4  10  20  34  52  74 102 135 166 200 246 295
#     4  10  20  32  52  77 102 129 166 208 246 291
#     4   9  19  34  52  77 103 127 164 207 245 295
#     4  10  20  34  53  76 100 129 167 208 249 293
#     4   9  17  33  57  78  97 127 165 205 250 296
#
# _framework density 18.784448999999999
#
# number of rings (size 3 to 8) (size 9 to 14) (size 15 to 20)
#    0.000    2.400    0.000    2.400    0.000    4.000 
#    0.000    0.000    0.000   10.800    0.000    0.000 
#    0.000    0.000    0.000    0.000    0.000    0.000 
#
# Total GULP energy -111678.655645 kJ/mol
# GULP energy per Si atom -5583.932782 kJ/mol
# Density = 1.874169 g / cm^3
# Si number density = 18.784449 Si / 1000 Ang^3
#
#
#
# Elastic Constant Matrix: (Units=GPa)
#
#
# Indices 1 2 3 4 5 6 
#
# 1 47.2183 27.6455 31.9793 0.0000 15.5332 0.0000
# 2 27.6455 81.2032 3.9609 0.0000 7.7715 0.0000
# 3 31.9793 3.9609 30.4735 0.0000 15.6540 0.0000
# 4 0.0000 0.0000 0.0000 12.1749 0.0000 1.7058
# 5 15.5332 7.7715 15.6540 0.0000 15.9216 0.0000
# 6 0.0000 0.0000 0.0000 1.7058 0.0000 25.2025
#
#
#
# Elastic Compliance Matrix: (Units=1/GPa)
#
#
# Indices 1 2 3 4 5 6 
#
# 1 0.168319 -0.053105 -0.199405 0.000000 0.057762 0.000000
# 2 -0.053105 0.029825 0.066102 0.000000 -0.027739 0.000000
# 3 -0.199405 0.066102 0.303313 0.000000 -0.135939 0.000000
# 4 0.000000 0.000000 0.000000 0.082922 0.000000 -0.005612
# 5 0.057762 -0.027739 -0.135939 0.000000 0.153648 0.000000
# 6 0.000000 0.000000 0.000000 -0.005612 0.000000 0.040058
#
#
# Mechanical properties :
#
#
# Convention : Reuss Voigt Hill
#
# Bulk Modulus (GPa) = 7.77368 31.78516 19.77942
# Shear Modulus (GPa) = 4.18837 17.01378 10.60107
#
# Velocity S-wave (km/s) = 1.49484 3.01281 2.37819
# Velocity P-wave (km/s) = 2.66959 5.39077 4.25366
#
# Compressibility (1/GPa) = 0.12863920
#
# Stress axis : x y z
#
# Youngs Moduli (GPa) = 5.94111 33.52913 3.29693
#
# Poissons Ratio (x) = 1.78057 0.65742
# Poissons Ratio (y) = 0.31550 -0.21793
# Poissons Ratio (z) = 1.18469 -2.21635
#
# Static dielectric constant tensor:
#      x y z
#    x 1.626790 0.000000 0.002070 
#    y 0.000000 1.659310 0.000000 
#    z 0.002070 0.000000 1.659510 
# 
# From -- ./inp_files/129144.got.cif
#   From: 2010.05.17/outbox.cif.g08.bks.cpg/sg12_65_cif.got.tgz:129144.got - 2010.06.03 13:09:07.
