data_PCOD9191569
_publ_section_title
;
Structure prediction by ZEFSAII (Michael W. Deem and Ramdas Pophale) SiO2 
 PCOD9191569
Probable space group: C 2/M
;
_chemical_formula_sum "Si O2"
_cell_formula_units_Z 56
_cell_length_a 9.210856
_cell_length_b 14.917159
_cell_length_c 18.777755
_cell_angle_alpha 90.000000
_cell_angle_beta 90.000029
_cell_angle_gamma 90.000000
_cell_volume 2580.059847
_symmetry_space_group_name_H-M "C 2/M"
_symmetry_group_IT_number 12
_symmetry_cell_setting 'monoclinic'
loop_
_space_group_symop_operation_xyz
x,y,z
-x,y,-z
-x,-y,-z
x,-y,z
1/2+x,1/2+y,z
1/2-x,1/2+y,-z
1/2-x,1/2-y,-z
1/2+x,1/2-y,z
loop_
_atom_site_type_symbol
_atom_site_label
_atom_site_fract_x
_atom_site_fract_y
_atom_site_fract_z
Si Si1 0.326348 0.653403 0.921743
Si Si2 0.666398 0.610004 0.642728
Si Si3 0.666286 0.890446 0.500001
Si Si4 0.837793 0.395005 0.219334
Si Si5 0.833602 0.889996 0.642730
Si Si6 0.673651 0.653404 0.921743
Si Si7 0.162208 0.395005 0.219334
O O1 0.253186 0.610168 0.853174
O O2 0.499999 0.660014 0.912930
O O3 0.249999 0.750000 0.924362
O O4 0.300016 0.610957 0.000000
O O5 0.663825 0.500000 0.643364
O O6 0.750111 0.637020 0.571317
O O7 0.500000 0.640159 0.642407
O O8 0.749802 0.641717 0.713353
O O9 0.500000 0.859752 0.500000
O O10 0.749887 0.862980 0.571319
O O11 0.664132 0.000000 0.500001
O O12 0.854871 0.500000 0.234795
O O13 0.749801 0.358283 0.286646
O O14 0.000000 0.355572 0.211192
O O15 0.836176 0.000000 0.643366
O O16 0.746813 0.610169 0.853173
O O17 0.145130 0.500000 0.234795
#
# Coordination Sequence:
#
# PCOD9191569 Si02
#       7
#     8   8   8   8   8   8   8
#     4  10  21  37  56  76  99 129 166 207 250 299
#     4   9  16  26  41  63  93 128 165 204 246 292
#     4   9  15  23  37  59  90 127 164 201 244 293
#     4  10  20  33  50  74 104 135 167 206 252 299
#     4   9  16  26  41  63  93 128 165 204 246 292
#     4  10  21  37  56  76  99 129 166 207 250 299
#     4  10  20  33  50  74 104 135 167 206 252 299
#
# _framework density 21.704922
#
# number of rings (size 3 to 8) (size 9 to 14) (size 15 to 20)
#    0.000    2.429    0.000    3.000    0.000    9.143 
#    0.000    2.857    0.000    0.000    0.000    1.000 
#    0.000    0.000    0.000    0.000    0.000    0.000 
#
# Total GULP energy -156339.024943 kJ/mol
# GULP energy per Si atom -5583.536605 kJ/mol
# Density = 2.165552 g / cm^3
# Si number density = 21.704922 Si / 1000 Ang^3
#
#
#
# Elastic Constant Matrix: (Units=GPa)
#
#
# Indices 1 2 3 4 5 6 
#
# 1 230.0260 9.2338 146.3869 0.0000 0.0016 0.0000
# 2 9.2338 34.4742 6.5282 0.0000 0.0004 0.0000
# 3 146.3869 6.5282 232.0890 0.0000 0.0017 0.0000
# 4 0.0000 0.0000 0.0000 -9.8972 0.0000 0.0004
# 5 0.0016 0.0004 0.0017 0.0000 43.4121 0.0000
# 6 0.0000 0.0000 0.0000 0.0004 0.0000 14.4016
#
#
#
# Elastic Compliance Matrix: (Units=1/GPa)
#
#
# Indices 1 2 3 4 5 6 
#
# 1 0.007303 -0.001090 -0.004576 0.000000 0.000000 0.000000
# 2 -0.001090 0.029325 -0.000138 0.000000 0.000000 0.000000
# 3 -0.004576 -0.000138 0.007199 0.000000 0.000000 0.000000
# 4 0.000000 0.000000 0.000000 -0.101039 0.000000 0.000003
# 5 0.000000 0.000000 0.000000 0.000000 0.023035 0.000000
# 6 0.000000 0.000000 0.000000 0.000003 0.000000 0.069437
#
#
# Mechanical properties :
#
#
# Convention : Reuss Voigt Hill
#
# Bulk Modulus (GPa) = 31.03568 91.20966 61.12267
# Shear Modulus (GPa) = 86.79704 31.87933 59.33818
#
# Velocity S-wave (km/s) = 6.33059 3.83660 5.23430
# Velocity P-wave (km/s) = 8.23196 7.85747 8.04689
#
# Compressibility (1/GPa) = 0.03222098
#
# Stress axis : x y z
#
# Youngs Moduli (GPa) = 136.93119 34.10052 138.91696
#
# Poissons Ratio (x) = 0.03716 0.63563
# Poissons Ratio (y) = 0.14920 0.01912
# Poissons Ratio (z) = 0.62654 0.00469
#
# Static dielectric constant tensor:
#      x y z
#    x 1.765310 0.000000 0.000000 
#    y 0.000000 1.881510 0.000000 
#    z 0.000000 0.000000 1.772040 
# 
# From -- ./inp_files/197538.got.cif
#   From: 2010.05.17/outbox.cif.g08.bks.cpg/sg12_99_cif.got.tgz:197538.got - 2010.06.03 13:09:07.
