data_PCOD9191165
_publ_section_title
;
Structure prediction by ZEFSAII (Michael W. Deem and Ramdas Pophale) SiO2 
 PCOD9191165
Probable space group: C 2/M
;
_chemical_formula_sum "Si O2"
_cell_formula_units_Z 64
_cell_length_a 31.430602
_cell_length_b 14.082749
_cell_length_c 21.746679
_cell_angle_alpha 90.000000
_cell_angle_beta 158.732413
_cell_angle_gamma 90.000000
_cell_volume 3491.479498
_symmetry_space_group_name_H-M "C 2/M"
_symmetry_group_IT_number 12
_symmetry_cell_setting 'monoclinic'
loop_
_space_group_symop_operation_xyz
x,y,z
-x,y,-z
-x,-y,-z
x,-y,z
1/2+x,1/2+y,z
1/2-x,1/2+y,-z
1/2-x,1/2-y,-z
1/2+x,1/2-y,z
loop_
_atom_site_type_symbol
_atom_site_label
_atom_site_fract_x
_atom_site_fract_y
_atom_site_fract_z
Si Si1 0.419492 0.107935 0.261674
Si Si2 0.128126 0.887256 0.184336
Si Si3 0.358046 0.113481 0.809866
Si Si4 0.240502 0.734058 0.559020
Si Si5 0.009335 0.612139 0.251976
Si Si6 0.133664 0.255367 0.703447
Si Si7 0.188475 0.608245 0.669537
Si Si8 0.313881 0.887814 0.893214
O O1 0.419909 0.120542 0.189002
O O2 0.366529 0.193702 0.230316
O O3 0.557790 0.108658 0.465784
O O4 0.376751 0.000000 0.219268
O O5 0.171520 0.851368 0.307298
O O6 0.220385 0.854066 0.257557
O O7 0.126940 0.000000 0.180556
O O8 0.000000 0.849375 0.000000
O O9 0.287597 0.178863 0.665432
O O10 0.316662 0.135244 0.824257
O O11 0.338506 0.000000 0.771963
O O12 0.500000 0.127536 0.000000
O O13 0.250000 0.750000 0.500000
O O14 0.112590 0.688478 0.400220
O O15 0.049973 0.500000 0.307500
O O16 0.939277 0.630836 0.094708
O O17 0.185896 0.333611 0.727774
O O18 0.214410 0.165551 0.798301
O O19 0.000000 0.237993 0.500000
O O20 0.220049 0.500000 0.725467
O O21 0.294622 0.000000 0.872053
#
# Coordination Sequence:
#
# PCOD9191165 Si02
#       8
#     8   8   8   8   8   8   8   8
#     4   9  17  32  56  83 111 145 184 231 290 346
#     4  10  20  34  54  81 114 148 181 226 283 341
#     4  10  22  41  62  84 115 157 204 243 276 331
#     4  12  23  34  57  87 113 147 187 235 287 336
#     4  10  21  39  61  84 114 149 191 239 290 347
#     4  10  20  32  55  85 113 145 187 243 286 341
#     4   9  16  30  52  80 111 142 179 227 282 341
#     4  10  22  39  59  82 113 156 198 235 280 339
#
# _framework density 18.330338000000001
#
# number of rings (size 3 to 8) (size 9 to 14) (size 15 to 20)
#    0.000    2.000    1.250    2.625    1.750    5.250 
#    0.000    0.000    0.000    1.500    0.000    0.000 
#    0.000    0.000    0.000    0.000    0.000    0.000 
#
# Total GULP energy -178308.859326 kJ/mol
# GULP energy per Si atom -5572.151854 kJ/mol
# Density = 1.828862 g / cm^3
# Si number density = 18.330338 Si / 1000 Ang^3
#
#
#
# Elastic Constant Matrix: (Units=GPa)
#
#
# Indices 1 2 3 4 5 6 
#
# 1 102.7331 45.2900 47.7450 0.0000 -10.3511 0.0000
# 2 45.2900 97.4739 50.3107 0.0000 -0.3729 0.0000
# 3 47.7450 50.3107 74.4637 0.0000 -4.1795 0.0000
# 4 0.0000 0.0000 0.0000 27.1575 0.0000 6.2445
# 5 -10.3511 -0.3729 -4.1795 0.0000 25.6184 0.0000
# 6 0.0000 0.0000 0.0000 6.2445 0.0000 38.8469
#
#
#
# Elastic Compliance Matrix: (Units=1/GPa)
#
#
# Indices 1 2 3 4 5 6 
#
# 1 0.014970 -0.003260 -0.007124 0.000000 0.004839 0.000000
# 2 -0.003260 0.016521 -0.009217 0.000000 -0.002580 0.000000
# 3 -0.007124 -0.009217 0.024278 0.000000 0.000948 0.000000
# 4 0.000000 0.000000 0.000000 0.038235 0.000000 -0.006146
# 5 0.004839 -0.002580 0.000948 0.000000 0.041107 0.000000
# 6 0.000000 0.000000 0.000000 -0.006146 0.000000 0.026730
#
#
# Mechanical properties :
#
#
# Convention : Reuss Voigt Hill
#
# Bulk Modulus (GPa) = 60.36269 62.37358 61.36814
# Shear Modulus (GPa) = 24.20540 27.07958 25.64249
#
# Velocity S-wave (km/s) = 3.63783 3.84775 3.74426
# Velocity P-wave (km/s) = 7.11667 7.33768 7.22802
#
# Compressibility (1/GPa) = 0.01656652
#
# Stress axis : x y z
#
# Youngs Moduli (GPa) = 66.80235 60.52798 41.18952
#
# Poissons Ratio (x) = 0.19731 0.29344
# Poissons Ratio (y) = 0.21776 0.37965
# Poissons Ratio (z) = 0.47592 0.55790
#
# Static dielectric constant tensor:
#      x y z
#    x 1.693160 0.000000 0.001450 
#    y 0.000000 1.676320 0.000000 
#    z 0.001450 0.000000 1.669890 
# 
# From -- ./inp_files/330419.got.cif
#   From: 2010.05.17/outbox.cif.g08.bks.cpg/sg12_166_cif.got.tgz:330419.got - 2010.06.03 13:09:07.
