data_PCOD9191544
_publ_section_title
;
Structure prediction by ZEFSAII (Michael W. Deem and Ramdas Pophale) SiO2 
 PCOD9191544
Probable space group: C 2/M
;
_chemical_formula_sum "Si O2"
_cell_formula_units_Z 56
_cell_length_a 13.750556
_cell_length_b 9.639970
_cell_length_c 24.019855
_cell_angle_alpha 90.000000
_cell_angle_beta 121.399882
_cell_angle_gamma 90.000000
_cell_volume 2717.667002
_symmetry_space_group_name_H-M "C 2/M"
_symmetry_group_IT_number 12
_symmetry_cell_setting 'monoclinic'
loop_
_space_group_symop_operation_xyz
x,y,z
-x,y,-z
-x,-y,-z
x,-y,z
1/2+x,1/2+y,z
1/2-x,1/2+y,-z
1/2-x,1/2-y,-z
1/2+x,1/2-y,z
loop_
_atom_site_type_symbol
_atom_site_label
_atom_site_fract_x
_atom_site_fract_y
_atom_site_fract_z
Si Si1 0.405247 0.341691 0.245222
Si Si2 0.649044 0.841015 0.120307
Si Si3 0.491266 0.157912 0.176500
Si Si4 0.245613 0.659922 0.587796
Si Si5 0.264728 0.340885 0.949214
Si Si6 0.594927 0.344479 0.463754
Si Si7 0.344553 0.660013 0.349297
O O1 0.447957 0.500000 0.263337
O O2 0.279883 0.346856 0.179907
O O3 0.485974 0.253361 0.229292
O O4 0.379905 0.285504 0.299309
O O5 0.571392 0.795134 0.149294
O O6 0.651512 0.737804 0.068747
O O7 0.614971 0.000000 0.095275
O O8 0.361484 0.154049 0.115433
O O9 0.525998 0.000000 0.200559
O O10 0.218713 0.500000 0.590894
O O11 0.360751 0.668088 0.586432
O O12 0.154251 0.727363 0.517879
O O13 0.243728 0.747877 0.643333
O O14 0.299843 0.500000 0.970917
O O15 0.250000 0.250000 0.000000
O O16 0.630613 0.500000 0.493444
O O17 0.459802 0.338539 0.420396
O O18 0.307721 0.500000 0.331831
#
# Coordination Sequence:
#
# PCOD9191544 Si02
#       7
#     8   8   8   8   8   8   8
#     4   9  19  34  52  74  99 128 166 206 241 288
#     4   9  18  35  55  74 100 134 167 202 245 289
#     4   9  19  35  54  74 100 134 167 201 246 291
#     4  10  20  33  50  73  97 124 163 206 244 289
#     4  10  20  34  52  77 106 134 166 204 243 287
#     4   9  19  35  51  68  97 132 160 194 247 303
#     4  10  20  34  51  72  99 131 162 196 247 301
#
# _framework density 20.605910999999999
#
# number of rings (size 3 to 8) (size 9 to 14) (size 15 to 20)
#    0.000    2.571    0.000    1.286    0.000    6.286 
#    0.000    2.857    0.000    0.000    0.000    0.000 
#    0.000    0.000    0.000    0.000    0.000    0.000 
#
# Total GULP energy -156285.086258 kJ/mol
# GULP energy per Si atom -5581.610224 kJ/mol
# Density = 2.055901 g / cm^3
# Si number density = 20.605911 Si / 1000 Ang^3
#
#
#
# Elastic Constant Matrix: (Units=GPa)
#
#
# Indices 1 2 3 4 5 6 
#
# 1 126.4648 68.1102 25.4393 0.0000 -53.4613 0.0000
# 2 68.1102 106.2440 35.8417 0.0000 -40.8527 0.0000
# 3 25.4393 35.8417 42.9707 0.0000 -28.6418 0.0000
# 4 0.0000 0.0000 0.0000 24.8514 0.0000 -15.3132
# 5 -53.4613 -40.8527 -28.6418 0.0000 50.2598 0.0000
# 6 0.0000 0.0000 0.0000 -15.3132 0.0000 27.7121
#
#
#
# Elastic Compliance Matrix: (Units=1/GPa)
#
#
# Indices 1 2 3 4 5 6 
#
# 1 0.017311 -0.006970 0.006551 0.000000 0.016481 0.000000
# 2 -0.006970 0.017706 -0.009660 0.000000 0.001472 0.000000
# 3 0.006551 -0.009660 0.043315 0.000000 0.023800 0.000000
# 4 0.000000 0.000000 0.000000 0.061014 0.000000 0.033716
# 5 0.016481 0.001472 0.023800 0.000000 0.052187 0.000000
# 6 0.000000 0.000000 0.000000 0.033716 0.000000 0.054716
#
#
# Mechanical properties :
#
#
# Convention : Reuss Voigt Hill
#
# Bulk Modulus (GPa) = 17.19045 59.38465 38.28755
# Shear Modulus (GPa) = 17.49482 30.31721 23.90602
#
# Velocity S-wave (km/s) = 2.91695 3.83990 3.40980
# Velocity P-wave (km/s) = 4.43908 6.96718 5.84153
#
# Compressibility (1/GPa) = 0.05817182
#
# Stress axis : x y z
#
# Youngs Moduli (GPa) = 57.76827 56.47857 23.08673
#
# Poissons Ratio (x) = 0.39366 -0.15124
# Poissons Ratio (y) = 0.40265 0.22303
# Poissons Ratio (z) = -0.37843 0.54561
#
# Static dielectric constant tensor:
#      x y z
#    x 1.740680 0.000000 0.000130 
#    y 0.000000 1.729240 0.000000 
#    z 0.000130 0.000000 1.755610 
# 
# From -- ./inp_files/337861.got.cif
#   From: 2010.05.17/outbox.cif.g08.bks.cpg/sg12_169_cif.got.tgz:337861.got - 2010.06.03 13:09:07.
