data_PCOD9191585
_publ_section_title
;
Structure prediction by ZEFSAII (Michael W. Deem and Ramdas Pophale) SiO2 
 PCOD9191585
Probable space group: C 2/M
;
_chemical_formula_sum "Si O2"
_cell_formula_units_Z 56
_cell_length_a 22.138355
_cell_length_b 19.731429
_cell_length_c 7.733016
_cell_angle_alpha 90.000000
_cell_angle_beta 119.689827
_cell_angle_gamma 90.000000
_cell_volume 2934.488086
_symmetry_space_group_name_H-M "C 2/M"
_symmetry_group_IT_number 12
_symmetry_cell_setting 'monoclinic'
loop_
_space_group_symop_operation_xyz
x,y,z
-x,y,-z
-x,-y,-z
x,-y,z
1/2+x,1/2+y,z
1/2-x,1/2+y,-z
1/2-x,1/2-y,-z
1/2+x,1/2-y,z
loop_
_atom_site_type_symbol
_atom_site_label
_atom_site_fract_x
_atom_site_fract_y
_atom_site_fract_z
Si Si1 0.399168 0.195379 0.400820
Si Si2 0.253625 0.815338 0.381710
Si Si3 0.479720 0.675774 0.663212
Si Si4 0.092067 0.332359 0.969567
Si Si5 0.038527 0.577590 0.314375
Si Si6 0.679513 0.923340 0.287835
Si Si7 0.901711 0.191109 0.887489
O O1 0.320844 0.195872 0.358480
O O2 0.447374 0.251147 0.561457
O O3 0.399858 0.206418 0.198845
O O4 0.431364 0.121420 0.485007
O O5 0.268915 0.881948 0.517354
O O6 0.178817 0.821097 0.187094
O O7 0.412553 0.773541 0.892509
O O8 0.500000 0.645696 0.500000
O O9 0.547012 0.671295 0.883572
O O10 0.422089 0.657007 0.731611
O O11 0.025596 0.380729 0.854838
O O12 0.160158 0.377841 0.096279
O O13 0.018946 0.500000 0.323476
O O14 0.104377 0.575583 0.278187
O O15 0.700584 0.000000 0.281968
O O16 0.750000 0.250000 0.500000
#
# Coordination Sequence:
#
# PCOD9191585 Si02
#       7
#     8   8   8   8   8   8   8
#     4  11  21  33  52  78 115 154 194 238 283 332
#     4  11  21  39  56  79 111 157 196 243 290 349
#     4  11  20  35  53  80 111 141 182 235 289 339
#     4  12  20  30  51  81 114 155 197 234 275 335
#     4  10  20  33  50  74 113 161 200 231 272 332
#     4  10  22  37  55  79 113 160 205 239 283 346
#     4  11  22  34  56  79 115 151 188 235 287 333
#
# _framework density 19.083397000000001
#
# number of rings (size 3 to 8) (size 9 to 14) (size 15 to 20)
#    0.000    1.143    5.714    2.143    2.000    3.429 
#    2.571    0.000    0.000    0.000    0.000    2.000 
#    0.000    1.143    0.000    0.000    0.000    0.000 
#
# Total GULP energy -156017.441389 kJ/mol
# GULP energy per Si atom -5572.051478 kJ/mol
# Density = 1.903996 g / cm^3
# Si number density = 19.083397 Si / 1000 Ang^3
#
#
#
# Elastic Constant Matrix: (Units=GPa)
#
#
# Indices 1 2 3 4 5 6 
#
# 1 108.5062 4.8921 43.5558 0.0000 10.8454 0.0000
# 2 4.8921 26.7662 9.0977 0.0000 7.2670 0.0000
# 3 43.5558 9.0977 91.5511 0.0000 3.5970 0.0000
# 4 0.0000 0.0000 0.0000 12.8434 0.0000 8.4772
# 5 10.8454 7.2670 3.5970 0.0000 47.2693 0.0000
# 6 0.0000 0.0000 0.0000 8.4772 0.0000 17.3651
#
#
#
# Elastic Compliance Matrix: (Units=1/GPa)
#
#
# Indices 1 2 3 4 5 6 
#
# 1 0.011629 0.000363 -0.005478 0.000000 -0.002307 0.000000
# 2 0.000363 0.040254 -0.003938 0.000000 -0.005972 0.000000
# 3 -0.005478 -0.003938 0.013889 0.000000 0.000805 0.000000
# 4 0.000000 0.000000 0.000000 0.114877 0.000000 -0.056080
# 5 -0.002307 -0.005972 0.000805 0.000000 0.022542 0.000000
# 6 0.000000 0.000000 0.000000 -0.056080 0.000000 0.084964
#
#
# Mechanical properties :
#
#
# Convention : Reuss Voigt Hill
#
# Bulk Modulus (GPa) = 20.97957 37.99054 29.48505
# Shear Modulus (GPa) = 15.52075 26.78074 21.15075
#
# Velocity S-wave (km/s) = 2.85496 3.75020 3.33277
# Velocity P-wave (km/s) = 4.67816 6.22116 5.50400
#
# Compressibility (1/GPa) = 0.04766542
#
# Stress axis : x y z
#
# Youngs Moduli (GPa) = 85.98982 24.84216 72.00056
#
# Poissons Ratio (x) = -0.00901 0.39443
# Poissons Ratio (y) = -0.03120 0.28355
# Poissons Ratio (z) = 0.47106 0.09783
#
# Static dielectric constant tensor:
#      x y z
#    x 1.720120 0.000000 -0.040250 
#    y 0.000000 1.670670 0.000000 
#    z -0.040250 0.000000 1.724470 
# 
# From -- ./inp_files/99410.got.cif
#   From: 2010.05.17/outbox.cif.g08.bks.cpg/sg12_50_cif.got.tgz:99410.got - 2010.06.03 13:09:07.
