data_PCOD9191592
_publ_section_title
;
Structure prediction by ZEFSAII (Michael W. Deem and Ramdas Pophale) SiO2 
 PCOD9191592
Probable space group: C 2/M
;
_chemical_formula_sum "Si O2"
_cell_formula_units_Z 56
_cell_length_a 19.981389
_cell_length_b 7.830505
_cell_length_c 22.390205
_cell_angle_alpha 90.000000
_cell_angle_beta 123.392154
_cell_angle_gamma 90.000000
_cell_volume 2924.960896
_symmetry_space_group_name_H-M "C 2/M"
_symmetry_group_IT_number 12
_symmetry_cell_setting 'monoclinic'
loop_
_space_group_symop_operation_xyz
x,y,z
-x,y,-z
-x,-y,-z
x,-y,z
1/2+x,1/2+y,z
1/2-x,1/2+y,-z
1/2-x,1/2-y,-z
1/2+x,1/2-y,z
loop_
_atom_site_type_symbol
_atom_site_label
_atom_site_fract_x
_atom_site_fract_y
_atom_site_fract_z
Si Si1 0.575602 0.201489 0.363469
Si Si2 0.787216 0.196979 0.081612
Si Si3 0.539985 0.707395 0.796401
Si Si4 0.423155 0.298657 0.498686
Si Si5 0.247899 0.705089 0.428707
Si Si6 0.871757 0.793384 0.941957
Si Si7 0.990708 0.207607 0.899495
O O1 0.500816 0.230076 0.283726
O O2 0.565185 0.281877 0.423965
O O3 0.657182 0.264241 0.369603
O O4 0.586021 0.000000 0.379284
O O5 0.870256 0.273429 0.145822
O O6 0.716451 0.223820 0.093711
O O7 0.806029 0.000000 0.082395
O O8 0.750000 0.250000 0.000000
O O9 0.539734 0.500000 0.793236
O O10 0.490866 0.761464 0.831347
O O11 0.500000 0.227179 0.500000
O O12 0.419815 0.500000 0.482299
O O13 0.332180 0.228291 0.442792
O O14 0.250298 0.500000 0.422337
O O15 0.250000 0.750000 0.500000
O O16 0.917213 0.737224 0.904600
O O17 0.868351 0.000000 0.941167
O O18 0.928239 0.740829 0.025557
O O19 0.991094 0.000000 0.900579
#
# Coordination Sequence:
#
# PCOD9191592 Si02
#       7
#     8   8   8   8   8   8   8
#     4  10  20  33  50  75 105 135 167 212 258 291
#     4  11  21  33  51  74 100 132 172 219 266 313
#     4  10  20  35  52  71  98 136 177 210 252 313
#     4   9  17  32  56  81 104 136 170 199 241 302
#     4   8  15  29  49  73  99 126 161 198 235 284
#     4   9  16  31  53  73  95 124 164 211 256 306
#     4   8  15  30  52  72  93 128 166 203 250 306
#
# _framework density 19.145555000000002
#
# number of rings (size 3 to 8) (size 9 to 14) (size 15 to 20)
#    0.000    2.714    1.429    1.714    0.000    2.000 
#    0.000    3.571    0.000    5.143    0.000    0.000 
#    0.000    0.000    0.000    0.000    0.000    0.000 
#
# Total GULP energy -155895.638358 kJ/mol
# GULP energy per Si atom -5567.701370 kJ/mol
# Density = 1.910198 g / cm^3
# Si number density = 19.145555 Si / 1000 Ang^3
#
#
#
# Elastic Constant Matrix: (Units=GPa)
#
#
# Indices 1 2 3 4 5 6 
#
# 1 134.0340 -4.5836 45.0391 0.0000 21.8353 0.0000
# 2 -4.5836 19.5194 -5.6125 0.0000 3.3717 0.0000
# 3 45.0391 -5.6125 79.6477 0.0000 18.8171 0.0000
# 4 0.0000 0.0000 0.0000 10.4046 0.0000 -1.5804
# 5 21.8353 3.3717 18.8171 0.0000 25.8692 0.0000
# 6 0.0000 0.0000 0.0000 -1.5804 0.0000 17.5877
#
#
#
# Elastic Compliance Matrix: (Units=1/GPa)
#
#
# Indices 1 2 3 4 5 6 
#
# 1 0.009814 0.002096 -0.004082 0.000000 -0.005588 0.000000
# 2 0.002096 0.055715 0.005886 0.000000 -0.013312 0.000000
# 3 -0.004082 0.005886 0.017685 0.000000 -0.010185 0.000000
# 4 0.000000 0.000000 0.000000 0.097441 0.000000 0.008756
# 5 -0.005588 -0.013312 -0.010185 0.000000 0.052517 0.000000
# 6 0.000000 0.000000 0.000000 0.008756 0.000000 0.057645
#
#
# Mechanical properties :
#
#
# Convention : Reuss Voigt Hill
#
# Bulk Modulus (GPa) = 10.98728 33.65412 22.32070
# Shear Modulus (GPa) = 15.95636 23.99617 19.97627
#
# Velocity S-wave (km/s) = 2.89004 3.54412 3.23366
# Velocity P-wave (km/s) = 4.10947 5.86207 5.06219
#
# Compressibility (1/GPa) = 0.09101435
#
# Stress axis : x y z
#
# Youngs Moduli (GPa) = 101.89038 17.94843 56.54616
#
# Poissons Ratio (x) = -0.03762 0.23082
# Poissons Ratio (y) = -0.21358 -0.33282
# Poissons Ratio (z) = 0.41591 -0.10564
#
# Static dielectric constant tensor:
#      x y z
#    x 1.719460 0.000000 0.048360 
#    y 0.000000 1.726460 0.000000 
#    z 0.048360 0.000000 1.668100 
# 
# From -- ./inp_files/345641.got.cif
#   From: 2010.05.17/outbox.cif.g08.bks.cpg/sg12_173_cif.got.tgz:345641.got - 2010.06.03 13:09:07.
