data_PCOD9191570
_publ_section_title
;
Structure prediction by ZEFSAII (Michael W. Deem and Ramdas Pophale) SiO2 
 PCOD9191570
Probable space group: C 2/M
;
_chemical_formula_sum "Si O2"
_cell_formula_units_Z 48
_cell_length_a 22.513535
_cell_length_b 8.981878
_cell_length_c 16.221018
_cell_angle_alpha 90.000000
_cell_angle_beta 59.850264
_cell_angle_gamma 90.000000
_cell_volume 2836.366332
_symmetry_space_group_name_H-M "C 2/M"
_symmetry_group_IT_number 12
_symmetry_cell_setting 'monoclinic'
loop_
_space_group_symop_operation_xyz
x,y,z
-x,y,-z
-x,-y,-z
x,-y,z
1/2+x,1/2+y,z
1/2-x,1/2+y,-z
1/2-x,1/2-y,-z
1/2+x,1/2-y,z
loop_
_atom_site_type_symbol
_atom_site_label
_atom_site_fract_x
_atom_site_fract_y
_atom_site_fract_z
Si Si1 0.265294 0.824030 0.361723
Si Si2 0.999889 0.177404 0.402332
Si Si3 0.642848 0.176643 0.542023
Si Si4 0.623999 0.177681 0.216619
Si Si5 0.822547 0.821402 0.975971
Si Si6 0.776456 0.823033 0.182762
O O1 0.320889 0.796711 0.394962
O O2 0.196272 0.738477 0.437069
O O3 0.289684 0.766380 0.256451
O O4 0.251124 0.000000 0.369211
O O5 0.929069 0.240591 0.415624
O O6 0.000000 0.208402 0.500000
O O7 0.064068 0.255379 0.313861
O O8 0.004073 0.000000 0.387790
O O9 0.633790 0.000000 0.537369
O O10 0.698363 0.208926 0.206566
O O11 0.617741 0.000000 0.213679
O O12 0.624468 0.251514 0.125467
O O13 0.826494 0.788595 0.070756
O O14 0.819846 0.000000 0.968538
O O15 0.750000 0.750000 0.000000
O O16 0.780358 0.000000 0.196038
#
# Coordination Sequence:
#
# PCOD9191570 Si02
#       6
#     8   8   8   8   8   8
#     4  10  20  33  52  76 100 129 166 207 247 290
#     4  11  23  36  52  75 101 131 167 204 244 294
#     4  10  21  36  52  72 100 133 167 203 247 295
#     4  10  20  33  50  74 104 136 166 201 249 298
#     4   9  17  30  48  72 101 132 167 205 247 293
#     4   9  18  31  50  76 103 132 165 202 247 295
#
# _framework density 16.92306
#
# number of rings (size 3 to 8) (size 9 to 14) (size 15 to 20)
#    0.000    2.167    0.000    4.500    0.000   10.000 
#    0.000    0.000    0.000    1.000    0.000    7.000 
#    0.000    0.000    0.000    0.000    0.000    0.000 
#
# Total GULP energy -133908.382765 kJ/mol
# GULP energy per Si atom -5579.515949 kJ/mol
# Density = 1.688454 g / cm^3
# Si number density = 16.923060 Si / 1000 Ang^3
#
#
#
# Elastic Constant Matrix: (Units=GPa)
#
#
# Indices 1 2 3 4 5 6 
#
# 1 36.1597 33.3397 32.3473 0.0000 -6.5951 0.0000
# 2 33.3397 68.0940 70.3834 0.0000 2.0518 0.0000
# 3 32.3473 70.3834 149.8815 0.0000 2.1765 0.0000
# 4 0.0000 0.0000 0.0000 36.3301 0.0000 -0.9607
# 5 -6.5951 2.0518 2.1765 0.0000 21.9223 0.0000
# 6 0.0000 0.0000 0.0000 -0.9607 0.0000 25.3388
#
#
#
# Elastic Compliance Matrix: (Units=1/GPa)
#
#
# Indices 1 2 3 4 5 6 
#
# 1 0.058352 -0.030818 0.001584 0.000000 0.020282 0.000000
# 2 -0.030818 0.044853 -0.014236 0.000000 -0.012056 0.000000
# 3 0.001584 -0.014236 0.013008 0.000000 0.000518 0.000000
# 4 0.000000 0.000000 0.000000 0.027553 0.000000 0.001045
# 5 0.020282 -0.012056 0.000518 0.000000 0.052794 0.000000
# 6 0.000000 0.000000 0.000000 0.001045 0.000000 0.039505
#
#
# Mechanical properties :
#
#
# Convention : Reuss Voigt Hill
#
# Bulk Modulus (GPa) = 34.16292 58.47508 46.31900
# Shear Modulus (GPa) = 15.02569 24.58924 19.80746
#
# Velocity S-wave (km/s) = 2.98297 3.81596 3.42488
# Velocity P-wave (km/s) = 5.66526 7.35146 6.56274
#
# Compressibility (1/GPa) = 0.02927150
#
# Stress axis : x y z
#
# Youngs Moduli (GPa) = 17.13735 22.29504 76.87660
#
# Poissons Ratio (x) = 0.68710 -0.12178
# Poissons Ratio (y) = 0.52815 1.09445
# Poissons Ratio (z) = -0.02715 0.31740
#
# Static dielectric constant tensor:
#      x y z
#    x 1.553090 0.000000 0.006550 
#    y 0.000000 1.560880 0.000000 
#    z 0.006550 0.000000 1.592020 
# 
# From -- ./inp_files/229852.got.cif
#   From: 2010.05.17/outbox.cif.g08.bks.cpg/sg12_115_cif.got.tgz:229852.got - 2010.06.03 13:09:07.
