data_PCOD9191429
_publ_section_title
;
Structure prediction by ZEFSAII (Michael W. Deem and Ramdas Pophale) SiO2 
 PCOD9191429
Probable space group: C 2/M
;
_chemical_formula_sum "Si O2"
_cell_formula_units_Z 56
_cell_length_a 13.485220
_cell_length_b 24.315441
_cell_length_c 13.010760
_cell_angle_alpha 90.000000
_cell_angle_beta 137.588786
_cell_angle_gamma 90.000000
_cell_volume 2877.336263
_symmetry_space_group_name_H-M "C 2/M"
_symmetry_group_IT_number 12
_symmetry_cell_setting 'monoclinic'
loop_
_space_group_symop_operation_xyz
x,y,z
-x,y,-z
-x,-y,-z
x,-y,z
1/2+x,1/2+y,z
1/2-x,1/2+y,-z
1/2-x,1/2-y,-z
1/2+x,1/2-y,z
loop_
_atom_site_type_symbol
_atom_site_label
_atom_site_fract_x
_atom_site_fract_y
_atom_site_fract_z
Si Si1 0.903257 0.778017 0.024491
Si Si2 0.407485 0.790924 0.532158
Si Si3 0.907912 0.820883 0.649266
Si Si4 0.161741 0.564772 0.653444
Si Si5 0.608311 0.827652 0.860936
Si Si6 0.928608 0.937855 0.699185
Si Si7 0.246161 0.935978 0.048026
O O1 0.913011 0.713539 0.060016
O O2 0.963149 0.808471 0.171638
O O3 0.736539 0.798147 0.891324
O O4 0.000000 0.791302 0.000000
O O5 0.500000 0.797336 0.500000
O O6 0.239704 0.810169 0.397303
O O7 0.409108 0.726522 0.565112
O O8 0.471173 0.824447 0.678909
O O9 0.923383 0.883651 0.624688
O O10 0.138020 0.500000 0.649967
O O11 0.285400 0.569294 0.661383
O O12 0.230955 0.581627 0.815358
O O13 0.000000 0.587335 0.500000
O O14 0.657359 0.888487 0.931526
O O15 0.925107 0.000000 0.652455
O O16 0.077225 0.934272 0.881698
O O17 0.293161 0.000000 0.070448
#
# Coordination Sequence:
#
# PCOD9191429 Si02
#       7
#     8   8   8   8   8   8   8
#     4  10  20  35  54  76 104 136 175 219 256 303
#     4  10  22  37  54  76 106 138 172 220 264 303
#     4  10  21  36  53  79 105 136 177 210 261 319
#     4   9  19  31  45  71 102 138 176 205 250 311
#     4  10  21  34  53  79 102 137 179 209 258 315
#     4  10  20  33  50  73 105 139 171 213 260 312
#     4  10  20  33  49  73 106 139 172 214 259 310
#
# _framework density 19.462444999999999
#
# number of rings (size 3 to 8) (size 9 to 14) (size 15 to 20)
#    0.000    2.143    1.429    1.286    6.000    1.714 
#    0.000    0.000    0.000    0.857    0.000    0.000 
#    0.000    0.000    0.000    0.000    0.000    0.000 
#
# Total GULP energy -156058.592807 kJ/mol
# GULP energy per Si atom -5573.521172 kJ/mol
# Density = 1.941815 g / cm^3
# Si number density = 19.462445 Si / 1000 Ang^3
#
#
#
# Elastic Constant Matrix: (Units=GPa)
#
#
# Indices 1 2 3 4 5 6 
#
# 1 23.4099 11.5244 -7.1467 0.0000 3.3802 0.0000
# 2 11.5244 164.7786 15.1599 0.0000 -3.2109 0.0000
# 3 -7.1467 15.1599 39.8225 0.0000 14.3689 0.0000
# 4 0.0000 0.0000 0.0000 20.5500 0.0000 3.3352
# 5 3.3802 -3.2109 14.3689 0.0000 17.6190 0.0000
# 6 0.0000 0.0000 0.0000 3.3352 0.0000 13.1844
#
#
#
# Elastic Compliance Matrix: (Units=1/GPa)
#
#
# Indices 1 2 3 4 5 6 
#
# 1 0.058627 -0.007055 0.025122 0.000000 -0.033021 0.000000
# 2 -0.007055 0.007387 -0.007159 0.000000 0.008538 0.000000
# 3 0.025122 -0.007159 0.048963 0.000000 -0.046055 0.000000
# 4 0.000000 0.000000 0.000000 0.050745 0.000000 -0.012837
# 5 -0.033021 0.008538 -0.046055 0.000000 0.102208 0.000000
# 6 0.000000 0.000000 0.000000 -0.012837 0.000000 0.079095
#
#
# Mechanical properties :
#
#
# Convention : Reuss Voigt Hill
#
# Bulk Modulus (GPa) = 7.31033 29.67626 18.49329
# Shear Modulus (GPa) = 13.48411 24.16889 18.82650
#
# Velocity S-wave (km/s) = 2.63502 3.52777 3.11356
# Velocity P-wave (km/s) = 3.60860 5.64576 4.73797
#
# Compressibility (1/GPa) = 0.13679281
#
# Stress axis : x y z
#
# Youngs Moduli (GPa) = 17.05695 135.36949 20.42358
#
# Poissons Ratio (x) = 0.95503 -0.51308
# Poissons Ratio (y) = 0.12034 0.14621
# Poissons Ratio (z) = -0.42850 0.96912
#
# Static dielectric constant tensor:
#      x y z
#    x 1.646440 0.000000 0.007150 
#    y 0.000000 1.770650 0.000000 
#    z 0.007150 0.000000 1.682840 
# 
# From -- ./inp_files/218232.got.cif
#   From: 2010.05.17/outbox.cif.g08.bks.cpg/sg12_110_cif.got.tgz:218232.got - 2010.06.03 13:09:07.
