data_PCOD9191458
_publ_section_title
;
Structure prediction by ZEFSAII (Michael W. Deem and Ramdas Pophale) SiO2 
 PCOD9191458
Probable space group: C 2/M
;
_chemical_formula_sum "Si O2"
_cell_formula_units_Z 64
_cell_length_a 26.344023
_cell_length_b 7.413658
_cell_length_c 15.092425
_cell_angle_alpha 90.000000
_cell_angle_beta 100.560634
_cell_angle_gamma 90.000000
_cell_volume 2897.706271
_symmetry_space_group_name_H-M "C 2/M"
_symmetry_group_IT_number 12
_symmetry_cell_setting 'monoclinic'
loop_
_space_group_symop_operation_xyz
x,y,z
-x,y,-z
-x,-y,-z
x,-y,z
1/2+x,1/2+y,z
1/2-x,1/2+y,-z
1/2-x,1/2-y,-z
1/2+x,1/2-y,z
loop_
_atom_site_type_symbol
_atom_site_label
_atom_site_fract_x
_atom_site_fract_y
_atom_site_fract_z
Si Si1 0.588583 0.721018 0.121952
Si Si2 0.608128 0.280354 0.928580
Si Si3 0.296259 0.717705 0.146302
Si Si4 0.300890 0.711177 0.779310
Si Si5 0.523916 0.279249 0.599872
Si Si6 0.507626 0.719566 0.790024
Si Si7 0.361821 0.293677 0.333947
Si Si8 0.232901 0.285981 0.593893
O O1 0.588187 0.500000 0.121982
O O2 0.642379 0.783409 0.182621
O O3 0.538066 0.778887 0.159483
O O4 0.590212 0.776446 0.019995
O O5 0.608864 0.500000 0.927818
O O6 0.666543 0.223794 0.921961
O O7 0.564199 0.224859 0.843904
O O8 0.294106 0.500000 0.144397
O O9 0.237868 0.774905 0.148804
O O10 0.328850 0.783571 0.242472
O O11 0.308264 0.500000 0.764082
O O12 0.271419 0.785969 0.683128
O O13 0.500000 0.216985 0.500000
O O14 0.522896 0.500000 0.596651
O O15 0.498565 0.226336 0.685304
O O16 0.583001 0.216318 0.626432
O O17 0.507913 0.500000 0.791755
O O18 0.371950 0.500000 0.309524
O O19 0.323570 0.290779 0.404430
O O20 0.229170 0.500000 0.604926
O O21 0.250000 0.250000 0.500000
#
# Coordination Sequence:
#
# PCOD9191458 Si02
#       8
#     8   8   8   8   8   8   8   8
#     4   9  17  27  42  65  97 130 154 192 247 292
#     4   9  15  25  43  67  93 124 161 196 238 290
#     4   9  16  28  48  69  93 126 161 196 232 279
#     4   9  19  33  46  68 100 126 156 197 242 286
#     4   9  16  25  41  67  95 124 159 200 245 286
#     4   9  15  25  40  63  95 126 159 197 238 288
#     4   9  16  29  47  68  96 126 157 196 238 283
#     4  10  20  33  50  70  93 124 162 200 238 287
#
# _framework density 22.086435999999999
#
# number of rings (size 3 to 8) (size 9 to 14) (size 15 to 20)
#    0.000    2.875    1.250    0.750    0.000    3.500 
#    0.000    3.750    0.000    0.375    0.000    1.750 
#    0.000    2.000    0.000    0.000    0.000    0.000 
#
# Total GULP energy -178533.817051 kJ/mol
# GULP energy per Si atom -5579.181783 kJ/mol
# Density = 2.203617 g / cm^3
# Si number density = 22.086436 Si / 1000 Ang^3
#
#
#
# Elastic Constant Matrix: (Units=GPa)
#
#
# Indices 1 2 3 4 5 6 
#
# 1 81.0984 -13.4354 25.1181 0.0000 -15.7356 0.0000
# 2 -13.4354 71.4079 -6.3473 0.0000 6.3465 0.0000
# 3 25.1181 -6.3473 104.2623 0.0000 -20.5947 0.0000
# 4 0.0000 0.0000 0.0000 -6.7452 0.0000 -2.1395
# 5 -15.7356 6.3465 -20.5947 0.0000 36.7102 0.0000
# 6 0.0000 0.0000 0.0000 -2.1395 0.0000 6.9841
#
#
#
# Elastic Compliance Matrix: (Units=1/GPa)
#
#
# Indices 1 2 3 4 5 6 
#
# 1 0.014285 0.002080 -0.002448 0.000000 0.004391 0.000000
# 2 0.002080 0.014542 0.000072 0.000000 -0.001582 0.000000
# 3 -0.002448 0.000072 0.011219 0.000000 0.005232 0.000000
# 4 0.000000 0.000000 0.000000 -0.135124 0.000000 -0.041394
# 5 0.004391 -0.001582 0.005232 0.000000 0.032331 0.000000
# 6 0.000000 0.000000 0.000000 -0.041394 0.000000 0.130502
#
#
# Mechanical properties :
#
#
# Convention : Reuss Voigt Hill
#
# Bulk Modulus (GPa) = 25.34564 29.71548 27.53056
# Shear Modulus (GPa) = 61.35048 24.15203 42.75125
#
# Velocity S-wave (km/s) = 5.27615 3.31043 4.40436
# Velocity P-wave (km/s) = 6.97263 5.30050 6.19326
#
# Compressibility (1/GPa) = 0.03945451
#
# Stress axis : x y z
#
# Youngs Moduli (GPa) = 70.00211 68.76439 89.13657
#
# Poissons Ratio (x) = -0.14303 0.21817
# Poissons Ratio (y) = -0.14560 -0.00639
# Poissons Ratio (z) = 0.17134 -0.00493
#
# Static dielectric constant tensor:
#      x y z
#    x 1.793300 0.000000 -0.000620 
#    y 0.000000 1.820850 0.000000 
#    z -0.000620 0.000000 1.800870 
# 
# From -- ./inp_files/243950.got.cif
#   From: 2010.05.17/outbox.cif.g08.bks.cpg/sg12_122_cif.got.tgz:243950.got - 2010.06.03 13:09:07.
