data_PCOD9191509
_publ_section_title
;
Structure prediction by ZEFSAII (Michael W. Deem and Ramdas Pophale) SiO2 
 PCOD9191509
Probable space group: C 2/M
;
_chemical_formula_sum "Si O2"
_cell_formula_units_Z 56
_cell_length_a 14.506280
_cell_length_b 7.748805
_cell_length_c 31.414771
_cell_angle_alpha 90.000000
_cell_angle_beta 50.383465
_cell_angle_gamma 90.000000
_cell_volume 2720.201517
_symmetry_space_group_name_H-M "C 2/M"
_symmetry_group_IT_number 12
_symmetry_cell_setting 'monoclinic'
loop_
_space_group_symop_operation_xyz
x,y,z
-x,y,-z
-x,-y,-z
x,-y,z
1/2+x,1/2+y,z
1/2-x,1/2+y,-z
1/2-x,1/2-y,-z
1/2+x,1/2-y,z
loop_
_atom_site_type_symbol
_atom_site_label
_atom_site_fract_x
_atom_site_fract_y
_atom_site_fract_z
Si Si1 0.411814 0.789342 0.062858
Si Si2 0.314247 0.710547 0.571467
Si Si3 0.825972 0.301826 0.759528
Si Si4 0.446470 0.709103 0.449176
Si Si5 0.057490 0.700903 0.646762
Si Si6 0.645643 0.299234 0.154724
Si Si7 0.557242 0.200538 0.850240
O O1 0.272628 0.742055 0.097197
O O2 0.447516 0.730054 0.099892
O O3 0.417371 0.000000 0.061404
O O4 0.500000 0.727825 0.000000
O O5 0.310484 0.500000 0.571647
O O6 0.349670 0.764920 0.513064
O O7 0.424465 0.756629 0.569126
O O8 0.184909 0.775048 0.624168
O O9 0.807282 0.500000 0.751808
O O10 0.867871 0.295779 0.796371
O O11 0.695602 0.216797 0.795499
O O12 0.933876 0.222199 0.700304
O O13 0.441171 0.500000 0.447341
O O14 0.434890 0.787723 0.406317
O O15 0.945488 0.500000 0.339021
O O16 0.660292 0.500000 0.161952
O O17 0.535667 0.281974 0.155143
O O18 0.525366 0.000000 0.861347
#
# Coordination Sequence:
#
# PCOD9191509 Si02
#       7
#     8   8   8   8   8   8   8
#     4   8  16  32  53  79 110 140 172 210 251 300
#     4   8  16  32  50  70  98 130 163 198 245 303
#     4  10  21  36  52  73 103 138 178 222 262 304
#     4   9  17  31  52  73  96 130 166 199 240 302
#     4  10  20  33  50  73 100 128 161 208 259 300
#     4  10  20  35  56  79 106 140 175 214 258 306
#     4  10  20  35  56  78 104 140 176 214 261 309
#
# _framework density 20.58671
#
# number of rings (size 3 to 8) (size 9 to 14) (size 15 to 20)
#    0.000    2.714    0.000    3.429    0.000    2.857 
#    0.000    3.571    0.000   14.571    0.000    0.000 
#    0.000    0.000    0.000    0.000    0.000    0.000 
#
# Total GULP energy -156190.418760 kJ/mol
# GULP energy per Si atom -5578.229241 kJ/mol
# Density = 2.053985 g / cm^3
# Si number density = 20.586710 Si / 1000 Ang^3
#
#
#
# Elastic Constant Matrix: (Units=GPa)
#
#
# Indices 1 2 3 4 5 6 
#
# 1 98.3025 -9.1723 32.4267 0.0000 -13.8671 -0.0005
# 2 -9.1723 34.4587 -4.9765 -0.0003 -1.6455 -0.0015
# 3 32.4267 -4.9765 75.0496 0.0000 -24.1845 -0.0005
# 4 0.0000 -0.0003 0.0000 11.4382 0.0000 10.4181
# 5 -13.8671 -1.6455 -24.1845 0.0000 14.6639 -0.0003
# 6 -0.0005 -0.0015 -0.0005 10.4181 -0.0003 -0.5151
#
#
#
# Elastic Compliance Matrix: (Units=1/GPa)
#
#
# Indices 1 2 3 4 5 6 
#
# 1 0.012453 0.003301 -0.002663 0.000001 0.007755 -0.000001
# 2 0.003301 0.031557 0.006005 0.000005 0.016566 -0.000005
# 3 -0.002663 0.006005 0.030476 0.000003 0.048418 -0.000003
# 4 0.000001 0.000005 0.000003 0.004502 0.000009 0.091045
# 5 0.007755 0.016566 0.048418 0.000009 0.157241 -0.000009
# 6 -0.000001 -0.000005 -0.000003 0.091045 -0.000009 -0.099960
#
#
# Mechanical properties :
#
#
# Convention : Reuss Voigt Hill
#
# Bulk Modulus (GPa) = 11.39328 27.15184 19.27256
# Shear Modulus (GPa) = 32.84298 17.75292 25.29795
#
# Velocity S-wave (km/s) = 3.99851 2.93976 3.50930
# Velocity P-wave (km/s) = 5.18303 4.97399 5.07959
#
# Compressibility (1/GPa) = 0.08777102
#
# Stress axis : x y z
#
# Youngs Moduli (GPa) = 80.30225 31.68863 32.81310
#
# Poissons Ratio (x) = -0.10459 0.08737
# Poissons Ratio (y) = -0.26504 -0.19703
# Poissons Ratio (z) = 0.21381 -0.19028
#
# Static dielectric constant tensor:
#      x y z
#    x 1.719210 0.000000 -0.028280 
#    y 0.000000 1.744360 0.000000 
#    z -0.028280 0.000000 1.738180 
# 
# From -- ./inp_files/374928.got.cif
#   From: 2010.05.17/outbox.cif.g08.bks.cpg/sg12_188_cif.got.tgz:374928.got - 2010.06.03 13:09:07.
