data_PCOD9191298
_publ_section_title
;
Structure prediction by ZEFSAII (Michael W. Deem and Ramdas Pophale) SiO2 
 PCOD9191298
Probable space group: C 2/M
;
_chemical_formula_sum "Si O2"
_cell_formula_units_Z 64
_cell_length_a 16.591550
_cell_length_b 7.293714
_cell_length_c 20.531246
_cell_angle_alpha 90.000000
_cell_angle_beta 105.384157
_cell_angle_gamma 90.000000
_cell_volume 2395.543542
_symmetry_space_group_name_H-M "C 2/M"
_symmetry_group_IT_number 12
_symmetry_cell_setting 'monoclinic'
loop_
_space_group_symop_operation_xyz
x,y,z
-x,y,-z
-x,-y,-z
x,-y,z
1/2+x,1/2+y,z
1/2-x,1/2+y,-z
1/2-x,1/2-y,-z
1/2+x,1/2-y,z
loop_
_atom_site_type_symbol
_atom_site_label
_atom_site_fract_x
_atom_site_fract_y
_atom_site_fract_z
Si Si1 0.460078 0.789268 0.079580
Si Si2 0.415653 0.224409 0.792219
Si Si3 0.176510 0.777927 0.839732
Si Si4 0.228776 0.221239 0.714873
Si Si5 0.030352 0.723130 0.333095
Si Si6 0.820088 0.281931 0.959239
Si Si7 0.902345 0.710513 0.412699
Si Si8 0.846263 0.718300 0.535254
O O1 0.542855 0.711241 0.131421
O O2 0.393081 0.789974 0.125111
O O3 0.478560 0.000000 0.067307
O O4 0.407245 0.709590 0.007626
O O5 0.322099 0.278691 0.753391
O O6 0.470671 0.283787 0.741643
O O7 0.415698 0.000000 0.795766
O O8 0.170851 0.721136 0.763639
O O9 0.268786 0.719588 0.885285
O O10 0.174054 0.000000 0.842182
O O11 0.189439 0.286869 0.639362
O O12 0.229618 0.000000 0.711967
O O13 0.026259 0.500000 0.328781
O O14 0.116526 0.777454 0.387874
O O15 0.960938 0.790317 0.369030
O O16 0.831779 0.500000 0.954332
O O17 0.750000 0.250000 0.000000
O O18 0.929650 0.500000 0.425739
O O19 0.897398 0.790997 0.483655
O O20 0.857340 0.500000 0.537266
O O21 0.750000 0.750000 0.500000
#
# Coordination Sequence:
#
# PCOD9191298 Si02
#       8
#     8   8   8   8   8   8   8   8
#     4   9  16  28  48  70  90 118 159 199 230 269
#     4   9  17  29  46  68  93 123 158 192 229 277
#     4   9  17  29  45  67  95 124 153 189 236 285
#     4  10  20  33  48  68  97 129 156 188 238 290
#     4   9  17  31  51  72  95 124 158 195 231 269
#     4   8  14  25  42  65  91 118 151 191 232 273
#     4  10  20  34  53  75  95 120 161 203 230 264
#     4  10  20  34  53  76 101 128 156 189 232 279
#
# _framework density 26.716275
#
# number of rings (size 3 to 8) (size 9 to 14) (size 15 to 20)
#    0.000    2.750    0.000    1.875    0.000    4.500 
#    0.000    1.875    0.000    9.750    0.000    0.000 
#    0.000   11.000    0.000    0.000    0.000    0.000 
#
# Total GULP energy -178930.205661 kJ/mol
# GULP energy per Si atom -5591.568927 kJ/mol
# Density = 2.665547 g / cm^3
# Si number density = 26.716275 Si / 1000 Ang^3
#
#
#
# Elastic Constant Matrix: (Units=GPa)
#
#
# Indices 1 2 3 4 5 6 
#
# 1 95.1602 -3.7118 16.4347 0.0000 11.2329 0.0000
# 2 -3.7118 118.9795 -0.0211 0.0000 -2.1525 0.0000
# 3 16.4347 -0.0211 165.6950 0.0000 9.9061 0.0000
# 4 0.0000 0.0000 0.0000 2.3152 0.0000 5.2149
# 5 11.2329 -2.1525 9.9061 0.0000 55.0923 0.0000
# 6 0.0000 0.0000 0.0000 5.2149 0.0000 3.0809
#
#
#
# Elastic Compliance Matrix: (Units=1/GPa)
#
#
# Indices 1 2 3 4 5 6 
#
# 1 0.010928 0.000304 -0.000962 0.000000 -0.002043 0.000000
# 2 0.000304 0.008419 -0.000046 0.000000 0.000275 0.000000
# 3 -0.000962 -0.000046 0.006185 0.000000 -0.000918 0.000000
# 4 0.000000 0.000000 0.000000 -0.153570 0.000000 0.259937
# 5 -0.002043 0.000275 -0.000918 0.000000 0.018744 0.000000
# 6 0.000000 0.000000 0.000000 0.259937 0.000000 -0.115400
#
#
# Mechanical properties :
#
#
# Convention : Reuss Voigt Hill
#
# Bulk Modulus (GPa) = 41.44977 45.02648 43.23813
# Shear Modulus (GPa) = -23.22935 36.57320 6.67193
#
# Velocity S-wave (km/s) = -2.95190 3.70394 1.58201
# Velocity P-wave (km/s) = 1.98248 5.93148 4.42225
#
# Compressibility (1/GPa) = 0.02412558
#
# Stress axis : x y z
#
# Youngs Moduli (GPa) = 91.51029 118.77537 161.66992
#
# Poissons Ratio (x) = -0.03608 0.15548
# Poissons Ratio (y) = -0.02780 0.00736
# Poissons Ratio (z) = 0.08800 0.00541
#
# Static dielectric constant tensor:
#      x y z
#    x 2.119610 0.000000 0.008830 
#    y 0.000000 1.949640 0.000000 
#    z 0.008830 0.000000 2.020720 
# 
# From -- ./inp_files/345614.got.cif
#   From: 2010.05.17/outbox.cif.g08.bks.cpg/sg12_173_cif.got.tgz:345614.got - 2010.06.03 13:09:07.
