data_PCOD9191977
_publ_section_title
;
Structure prediction by ZEFSAII (Michael W. Deem and Ramdas Pophale) SiO2 
 PCOD9191977
Probable space group: C 2/M
;
_chemical_formula_sum "Si O2"
_cell_formula_units_Z 56
_cell_length_a 20.697694
_cell_length_b 8.474740
_cell_length_c 29.929030
_cell_angle_alpha 90.000000
_cell_angle_beta 145.111569
_cell_angle_gamma 90.000000
_cell_volume 3002.769713
_symmetry_space_group_name_H-M "C 2/M"
_symmetry_group_IT_number 12
_symmetry_cell_setting 'monoclinic'
loop_
_space_group_symop_operation_xyz
x,y,z
-x,y,-z
-x,-y,-z
x,-y,z
1/2+x,1/2+y,z
1/2-x,1/2+y,-z
1/2-x,1/2-y,-z
1/2+x,1/2-y,z
loop_
_atom_site_type_symbol
_atom_site_label
_atom_site_fract_x
_atom_site_fract_y
_atom_site_fract_z
Si Si1 0.564756 0.683283 0.488816
Si Si2 0.018259 0.311222 0.799962
Si Si3 0.754200 0.309105 0.904008
Si Si4 0.447817 0.192455 0.078509
Si Si5 0.331441 0.192437 0.850716
Si Si6 0.340067 0.690669 0.321714
Si Si7 0.725213 0.685731 0.346824
O O1 0.500000 0.687765 0.500000
O O2 0.588433 0.500000 0.492205
O O3 0.469163 0.747370 0.400953
O O4 0.682034 0.770773 0.563160
O O5 0.013463 0.500000 0.797566
O O6 0.128113 0.254537 0.836027
O O7 0.033696 0.255237 0.860243
O O8 0.899977 0.247044 0.714725
O O9 0.750553 0.500000 0.902304
O O10 0.813402 0.258821 0.891406
O O11 0.831096 0.256507 0.989417
O O12 0.552327 0.243113 0.106638
O O13 0.448099 0.000000 0.079095
O O14 0.227455 0.242980 0.760249
O O15 0.333120 0.000000 0.851471
O O16 0.345337 0.500000 0.324441
O O17 0.268642 0.737371 0.325029
O O18 0.723338 0.500000 0.339516
#
# Coordination Sequence:
#
# PCOD9191977 Si02
#       7
#     8   8   8   8   8   8   8
#     4   8  15  27  46  72 102 133 164 201 247 304
#     4  11  21  35  53  71 102 141 174 208 251 310
#     4  10  20  33  52  79 105 131 170 216 256 295
#     4   9  17  31  54  78  99 132 175 213 250 298
#     4   9  16  30  54  79 104 134 170 209 248 298
#     4   9  16  30  51  75 103 136 170 200 245 307
#     4  11  20  30  48  75 103 130 167 215 258 294
#
# _framework density 18.649448
#
# number of rings (size 3 to 8) (size 9 to 14) (size 15 to 20)
#    0.000    2.429    1.429    3.429    0.000    4.286 
#    0.000    1.429    0.000    1.714    0.000    0.000 
#    0.000    0.000    0.000    0.000    0.000    0.000 
#
# Total GULP energy -156161.815580 kJ/mol
# GULP energy per Si atom -5577.207699 kJ/mol
# Density = 1.860700 g / cm^3
# Si number density = 18.649448 Si / 1000 Ang^3
#
#
#
# Elastic Constant Matrix: (Units=GPa)
#
#
# Indices 1 2 3 4 5 6 
#
# 1 37.2711 -4.8897 -7.1325 0.0000 13.7730 0.0000
# 2 -4.8897 8.0577 9.7664 0.0000 1.9860 0.0002
# 3 -7.1325 9.7664 83.1837 0.0000 22.6470 0.0000
# 4 0.0000 0.0000 0.0000 12.4597 0.0000 11.1798
# 5 13.7730 1.9860 22.6470 0.0000 19.3052 0.0000
# 6 0.0000 0.0002 0.0000 11.1798 0.0000 13.4111
#
#
#
# Elastic Compliance Matrix: (Units=1/GPa)
#
#
# Indices 1 2 3 4 5 6 
#
# 1 0.061233 0.028918 0.021390 0.000000 -0.071754 0.000000
# 2 0.028918 0.159077 -0.008999 0.000008 -0.026439 -0.000009
# 3 0.021390 -0.008999 0.027644 -0.000001 -0.046764 0.000001
# 4 0.000000 0.000008 -0.000001 0.318477 0.000001 -0.265490
# 5 -0.071754 -0.026439 -0.046764 0.000001 0.160570 0.000000
# 6 0.000000 -0.000009 0.000001 -0.265490 0.000000 0.295884
#
#
# Mechanical properties :
#
#
# Convention : Reuss Voigt Hill
#
# Bulk Modulus (GPa) = 3.02506 13.77788 8.40147
# Shear Modulus (GPa) = 4.75983 17.75309 11.25646
#
# Velocity S-wave (km/s) = 1.59931 3.08869 2.45945
# Velocity P-wave (km/s) = 2.24410 4.48597 3.54682
#
# Compressibility (1/GPa) = 0.33057177
#
# Stress axis : x y z
#
# Youngs Moduli (GPa) = 16.33100 6.28627 36.17435
#
# Poissons Ratio (x) = -0.18178 -0.77379
# Poissons Ratio (y) = -0.47225 0.32554
# Poissons Ratio (z) = -0.34933 0.05657
#
# Static dielectric constant tensor:
#      x y z
#    x 1.613940 0.000000 -0.002350 
#    y 0.000000 1.637000 0.000000 
#    z -0.002350 0.000000 1.676470 
# 
# From -- ./inp_files/319720.got.cif
#   From: 2010.05.17/outbox.cif.g08.bks.cpg/sg12_160_cif.got.tgz:319720.got - 2010.06.03 13:09:07.
