data_PCOD9191792
_publ_section_title
;
Structure prediction by ZEFSAII (Michael W. Deem and Ramdas Pophale) SiO2 
 PCOD9191792
Probable space group: C 2/M
;
_chemical_formula_sum "Si O2"
_cell_formula_units_Z 64
_cell_length_a 28.788294
_cell_length_b 9.058939
_cell_length_c 16.404960
_cell_angle_alpha 90.000000
_cell_angle_beta 61.656691
_cell_angle_gamma 90.000000
_cell_volume 3765.387804
_symmetry_space_group_name_H-M "C 2/M"
_symmetry_group_IT_number 12
_symmetry_cell_setting 'monoclinic'
loop_
_space_group_symop_operation_xyz
x,y,z
-x,y,-z
-x,-y,-z
x,-y,z
1/2+x,1/2+y,z
1/2-x,1/2+y,-z
1/2-x,1/2-y,-z
1/2+x,1/2-y,z
loop_
_atom_site_type_symbol
_atom_site_label
_atom_site_fract_x
_atom_site_fract_y
_atom_site_fract_z
Si Si1 0.612041 0.824151 0.756991
Si Si2 0.737420 0.823309 0.263487
Si Si3 0.971494 0.822968 0.607788
Si Si4 0.634788 0.176860 0.244451
Si Si5 0.396681 0.677445 0.894907
Si Si6 0.270164 0.823497 0.400555
Si Si7 0.484383 0.324255 0.254419
Si Si8 0.145336 0.823183 0.893027
O O1 0.668087 0.787753 0.667355
O O2 0.563413 0.760474 0.746922
O O3 0.614773 0.754307 0.844724
O O4 0.608394 0.000000 0.766079
O O5 0.687644 0.783098 0.249437
O O6 0.739274 0.739935 0.347988
O O7 0.792664 0.790778 0.171927
O O8 0.735740 0.000000 0.279747
O O9 0.916365 0.740613 0.666722
O O10 0.000000 0.784432 0.500000
O O11 0.007532 0.789659 0.656661
O O12 0.961867 0.000000 0.616972
O O13 0.632546 0.244930 0.155862
O O14 0.631611 0.000000 0.242202
O O15 0.391008 0.500000 0.890803
O O16 0.459025 0.710591 0.833846
O O17 0.374677 0.721586 0.001216
O O18 0.250000 0.750000 0.500000
O O19 0.264679 0.000000 0.409166
O O20 0.475614 0.500000 0.253781
O O21 0.138340 0.000000 0.891684
#
# Coordination Sequence:
#
# PCOD9191792 Si02
#       8
#     8   8   8   8   8   8   8   8
#     4  10  21  35  51  75 104 131 165 209 254 301
#     4   9  19  35  53  76 105 135 169 207 249 300
#     4   9  19  36  55  75 100 132 173 213 247 296
#     4  10  20  33  51  77 107 135 165 207 257 302
#     4   9  19  35  54  76 101 133 174 211 244 294
#     4  10  21  36  54  76 102 133 169 209 252 300
#     4   9  18  33  52  74 101 133 169 208 249 296
#     4   9  18  35  56  74  99 136 172 207 248 295
#
# _framework density 16.996922000000001
#
# number of rings (size 3 to 8) (size 9 to 14) (size 15 to 20)
#    0.000    2.625    0.000    1.875    0.000    7.250 
#    0.000    5.000    0.000    0.000    0.000    0.000 
#    0.000    0.000    0.000    0.000    0.000    0.000 
#
# Total GULP energy -178513.362316 kJ/mol
# GULP energy per Si atom -5578.542572 kJ/mol
# Density = 1.695824 g / cm^3
# Si number density = 16.996922 Si / 1000 Ang^3
#
#
#
# Elastic Constant Matrix: (Units=GPa)
#
#
# Indices 1 2 3 4 5 6 
#
# 1 157.8072 61.8134 87.7897 0.0000 24.4058 0.0000
# 2 61.8134 39.8024 60.1723 0.0000 9.2089 0.0000
# 3 87.7897 60.1723 182.2166 0.0000 18.8691 0.0000
# 4 0.0000 0.0000 0.0000 25.1636 0.0000 2.9580
# 5 24.4058 9.2089 18.8691 0.0000 9.4543 0.0000
# 6 0.0000 0.0000 0.0000 2.9580 0.0000 30.7608
#
#
#
# Elastic Compliance Matrix: (Units=1/GPa)
#
#
# Indices 1 2 3 4 5 6 
#
# 1 0.021693 -0.030941 0.003081 0.000000 -0.032011 0.000000
# 2 -0.030941 0.097465 -0.019813 0.000000 0.024481 0.000000
# 3 0.003081 -0.019813 0.011813 0.000000 -0.012230 0.000000
# 4 0.000000 0.000000 0.000000 0.040194 0.000000 -0.003865
# 5 -0.032011 0.024481 -0.012230 0.000000 0.188970 0.000000
# 6 0.000000 0.000000 0.000000 -0.003865 0.000000 0.032881
#
#
# Mechanical properties :
#
#
# Convention : Reuss Voigt Hill
#
# Bulk Modulus (GPa) = 28.07102 88.81968 58.44535
# Shear Modulus (GPa) = 9.99524 24.41245 17.20385
#
# Velocity S-wave (km/s) = 2.42763 3.79395 3.18492
# Velocity P-wave (km/s) = 4.94055 8.45942 6.92715
#
# Compressibility (1/GPa) = 0.03562393
#
# Stress axis : x y z
#
# Youngs Moduli (GPa) = 46.09711 10.26012 84.65201
#
# Poissons Ratio (x) = 0.31746 -0.26079
# Poissons Ratio (y) = 1.42629 1.67724
# Poissons Ratio (z) = -0.14201 0.20329
#
# Static dielectric constant tensor:
#      x y z
#    x 1.548330 0.000000 -0.006780 
#    y 0.000000 1.565960 0.000000 
#    z -0.006780 0.000000 1.558980 
# 
# From -- ./inp_files/243730.got.cif
#   From: 2010.05.17/outbox.cif.g08.bks.cpg/sg12_122_cif.got.tgz:243730.got - 2010.06.03 13:09:07.
