data_PCOD9191008
_publ_section_title
;
Structure prediction by ZEFSAII (Michael W. Deem and Ramdas Pophale) SiO2 
 PCOD9191008
Probable space group: C 2/M
;
_chemical_formula_sum "Si O2"
_cell_formula_units_Z 44
_cell_length_a 26.343728
_cell_length_b 11.779492
_cell_length_c 11.626772
_cell_angle_alpha 90.000000
_cell_angle_beta 53.276945
_cell_angle_gamma 90.000000
_cell_volume 2891.914831
_symmetry_space_group_name_H-M "C 2/M"
_symmetry_group_IT_number 12
_symmetry_cell_setting 'monoclinic'
loop_
_space_group_symop_operation_xyz
x,y,z
-x,y,-z
-x,-y,-z
x,-y,z
1/2+x,1/2+y,z
1/2-x,1/2+y,-z
1/2-x,1/2-y,-z
1/2+x,1/2-y,z
loop_
_atom_site_type_symbol
_atom_site_label
_atom_site_fract_x
_atom_site_fract_y
_atom_site_fract_z
Si Si1 0.833602 0.132511 0.895399
Si Si2 0.459106 0.000000 0.788752
Si Si3 0.333091 0.873404 0.603060
Si Si4 0.102901 0.500000 0.676060
Si Si5 0.064322 0.710078 0.350094
Si Si6 0.350045 0.000000 0.129014
Si Si7 0.735038 0.207488 0.832734
O O1 0.898349 0.188981 0.762948
O O2 0.781681 0.150982 0.864411
O O3 0.839642 0.000000 0.912170
O O4 0.808438 0.204787 0.037283
O O5 0.528432 0.000000 0.751353
O O6 0.451338 0.889860 0.718457
O O7 0.404369 0.000000 0.958300
O O8 0.365164 0.893995 0.435754
O O9 0.387500 0.840903 0.620319
O O10 0.278915 0.780059 0.687355
O O11 0.308529 0.000000 0.669221
O O12 0.119604 0.500000 0.786159
O O13 0.000000 0.745832 0.500000
O O14 0.306633 0.110726 0.168941
#
# Coordination Sequence:
#
# PCOD9191008 Si02
#       7
#     8   4   8   4   8   4   8
#     4  10  20  32  51  80 106 135 167 213 271 325
#     4  12  19  36  53  84 104 140 175 221 270 301
#     4   9  18  33  54  79 102 144 170 213 260 316
#     4  10  22  36  54  79 106 141 188 211 254 307
#     4  11  18  31  57  78 108 134 173 222 265 310
#     4  12  23  35  52  82 108 143 173 222 260 306
#     4  10  20  33  52  77 110 134 171 216 266 312
#
# _framework density 15.214833
#
# number of rings (size 3 to 8) (size 9 to 14) (size 15 to 20)
#    0.545    1.091    5.455    1.091    0.000    1.091 
#    0.000    0.000    0.000    0.000    0.000    1.273 
#    0.000    0.000    0.000    0.000    0.000    0.000 
#
# Total GULP energy -122640.567178 kJ/mol
# GULP energy per Si atom -5574.571235 kJ/mol
# Density = 1.518020 g / cm^3
# Si number density = 15.214833 Si / 1000 Ang^3
#
#
#
# Elastic Constant Matrix: (Units=GPa)
#
#
# Indices 1 2 3 4 5 6 
#
# 1 81.6300 44.2662 55.3239 0.0000 -8.5434 0.0000
# 2 44.2662 108.6358 43.6925 0.0000 -18.3365 0.0000
# 3 55.3239 43.6925 96.1341 0.0000 -26.0703 0.0000
# 4 0.0000 0.0000 0.0000 23.3085 0.0000 -1.9518
# 5 -8.5434 -18.3365 -26.0703 0.0000 21.6711 0.0000
# 6 0.0000 0.0000 0.0000 -1.9518 0.0000 8.5958
#
#
#
# Elastic Compliance Matrix: (Units=1/GPa)
#
#
# Indices 1 2 3 4 5 6 
#
# 1 0.024211 -0.006199 -0.014768 0.000000 -0.013466 0.000000
# 2 -0.006199 0.013229 -0.000107 0.000000 0.008621 0.000000
# 3 -0.014768 -0.000107 0.025745 0.000000 0.025059 0.000000
# 4 0.000000 0.000000 0.000000 0.043734 0.000000 0.009930
# 5 -0.013466 0.008621 0.025059 0.000000 0.078275 0.000000
# 6 0.000000 0.000000 0.000000 0.009930 0.000000 0.118590
#
#
# Mechanical properties :
#
#
# Convention : Reuss Voigt Hill
#
# Bulk Modulus (GPa) = 47.53379 63.66281 55.59830
# Shear Modulus (GPa) = 14.16648 20.25624 17.21136
#
# Velocity S-wave (km/s) = 3.05470 3.65272 3.36701
# Velocity P-wave (km/s) = 6.61446 7.72808 7.19286
#
# Compressibility (1/GPa) = 0.02103767
#
# Stress axis : x y z
#
# Youngs Moduli (GPa) = 41.30327 75.59030 38.84234
#
# Poissons Ratio (x) = 0.46857 0.57361
# Poissons Ratio (y) = 0.25603 0.00418
# Poissons Ratio (z) = 0.60995 0.00812
#
# Static dielectric constant tensor:
#      x y z
#    x 1.474580 0.000000 -0.010010 
#    y 0.000000 1.486640 0.000000 
#    z -0.010010 0.000000 1.507730 
# 
# From -- ./inp_files/173739.got.cif
#   From: 2010.05.17/outbox.cif.g08.bks.cpg/sg12_87_cif.got.tgz:173739.got - 2010.06.03 13:09:07.
