data_PCOD9191568
_publ_section_title
;
Structure prediction by ZEFSAII (Michael W. Deem and Ramdas Pophale) SiO2 
 PCOD9191568
Probable space group: C 2/M
;
_chemical_formula_sum "Si O2"
_cell_formula_units_Z 64
_cell_length_a 14.485722
_cell_length_b 7.497391
_cell_length_c 26.269576
_cell_angle_alpha 90.000000
_cell_angle_beta 77.115898
_cell_angle_gamma 90.000000
_cell_volume 2781.180547
_symmetry_space_group_name_H-M "C 2/M"
_symmetry_group_IT_number 12
_symmetry_cell_setting 'monoclinic'
loop_
_space_group_symop_operation_xyz
x,y,z
-x,y,-z
-x,-y,-z
x,-y,z
1/2+x,1/2+y,z
1/2-x,1/2+y,-z
1/2-x,1/2-y,-z
1/2+x,1/2-y,z
loop_
_atom_site_type_symbol
_atom_site_label
_atom_site_fract_x
_atom_site_fract_y
_atom_site_fract_z
Si Si1 0.890618 0.716763 0.957258
Si Si2 0.473671 0.781145 0.845231
Si Si3 0.199200 0.289896 0.637861
Si Si4 0.895012 0.282298 0.453270
Si Si5 0.886241 0.714427 0.566826
Si Si6 0.639268 0.204654 0.753235
Si Si7 0.222562 0.703946 0.181211
Si Si8 0.185648 0.291782 0.931529
O O1 0.892690 0.500000 0.959277
O O2 0.966640 0.773980 0.905468
O O3 0.789262 0.770878 0.945243
O O4 0.886448 0.777816 0.016421
O O5 0.559355 0.715630 0.799940
O O6 0.375647 0.726559 0.829874
O O7 0.475920 0.000000 0.846630
O O8 0.176870 0.500000 0.640698
O O9 0.156975 0.214878 0.590551
O O10 0.311744 0.273151 0.617940
O O11 0.158828 0.214658 0.695496
O O12 0.890140 0.500000 0.454336
O O13 0.858518 0.221872 0.513204
O O14 0.005671 0.232166 0.437027
O O15 0.885385 0.500000 0.566071
O O16 0.734376 0.203989 0.775029
O O17 0.609473 0.000000 0.748679
O O18 0.206018 0.500000 0.197394
O O19 0.298559 0.710816 0.125742
O O20 0.164632 0.500000 0.925654
#
# Coordination Sequence:
#
# PCOD9191568 Si02
#       8
#     8   8   8   8   8   8   8   8
#     4   8  14  26  46  72  99 128 165 206 247 300
#     4   8  16  33  54  72  94 129 169 204 243 297
#     4  10  20  33  50  74 104 134 165 207 255 295
#     4   8  16  32  53  77 105 137 170 203 243 295
#     4   9  17  32  55  79 103 134 171 205 241 294
#     4  10  21  36  52  71  97 132 173 210 246 295
#     4  10  20  35  54  74  98 129 167 212 256 300
#     4   9  15  25  46  74 100 127 160 202 256 310
#
# _framework density 23.011809
#
# number of rings (size 3 to 8) (size 9 to 14) (size 15 to 20)
#    0.000    3.000    0.000    2.625    0.000    2.000 
#    0.000    8.125    0.000    3.750    0.000    0.000 
#    0.000    0.000    0.000    0.000    0.000    0.000 
#
# Total GULP energy -178562.901466 kJ/mol
# GULP energy per Si atom -5580.090671 kJ/mol
# Density = 2.295943 g / cm^3
# Si number density = 23.011809 Si / 1000 Ang^3
#
#
#
# Elastic Constant Matrix: (Units=GPa)
#
#
# Indices 1 2 3 4 5 6 
#
# 1 58.3551 -8.0325 59.1781 0.0000 -9.0591 0.0000
# 2 -8.0325 60.3909 4.8002 0.0000 -0.1346 0.0000
# 3 59.1781 4.8002 146.6872 0.0000 -15.7512 0.0000
# 4 0.0000 0.0000 0.0000 8.1305 0.0000 -4.5702
# 5 -9.0591 -0.1346 -15.7512 0.0000 22.9286 0.0000
# 6 0.0000 0.0000 0.0000 -4.5702 0.0000 8.4304
#
#
#
# Elastic Compliance Matrix: (Units=1/GPa)
#
#
# Indices 1 2 3 4 5 6 
#
# 1 0.030767 0.005068 -0.012167 0.000000 0.003827 0.000000
# 2 0.005068 0.017439 -0.002579 0.000000 0.000333 0.000000
# 3 -0.012167 -0.002579 0.012192 0.000000 0.003553 0.000000
# 4 0.000000 0.000000 0.000000 0.176897 0.000000 0.095896
# 5 0.003827 0.000333 0.003553 0.000000 0.047569 0.000000
# 6 0.000000 0.000000 0.000000 0.095896 0.000000 0.170604
#
#
# Mechanical properties :
#
#
# Convention : Reuss Voigt Hill
#
# Bulk Modulus (GPa) = 24.36658 41.92499 33.14579
# Shear Modulus (GPa) = 10.23533 21.86373 16.04953
#
# Velocity S-wave (km/s) = 2.11128 3.08573 2.64379
# Velocity P-wave (km/s) = 4.06879 5.56364 4.87387
#
# Compressibility (1/GPa) = 0.04103982
#
# Stress axis : x y z
#
# Youngs Moduli (GPa) = 32.50232 57.34391 82.02239
#
# Poissons Ratio (x) = -0.29061 0.99799
# Poissons Ratio (y) = -0.16472 0.21158
# Poissons Ratio (z) = 0.39546 0.14792
#
# Static dielectric constant tensor:
#      x y z
#    x 1.874410 0.000000 -0.008360 
#    y 0.000000 1.879860 0.000000 
#    z -0.008360 0.000000 1.864720 
# 
# From -- ./inp_files/359742.got.cif
#   From: 2010.05.17/outbox.cif.g08.bks.cpg/sg12_180_cif.got.tgz:359742.got - 2010.06.03 13:09:07.
