data_PCOD9191851
_publ_section_title
;
Structure prediction by ZEFSAII (Michael W. Deem and Ramdas Pophale) SiO2 
 PCOD9191851
Probable space group: C 2/M
;
_chemical_formula_sum "Si O2"
_cell_formula_units_Z 64
_cell_length_a 26.470690
_cell_length_b 12.924699
_cell_length_c 9.309841
_cell_angle_alpha 90.000000
_cell_angle_beta 114.684014
_cell_angle_gamma 90.000000
_cell_volume 2894.093226
_symmetry_space_group_name_H-M "C 2/M"
_symmetry_group_IT_number 12
_symmetry_cell_setting 'monoclinic'
loop_
_space_group_symop_operation_xyz
x,y,z
-x,y,-z
-x,-y,-z
x,-y,z
1/2+x,1/2+y,z
1/2-x,1/2+y,-z
1/2-x,1/2-y,-z
1/2+x,1/2-y,z
loop_
_atom_site_type_symbol
_atom_site_label
_atom_site_fract_x
_atom_site_fract_y
_atom_site_fract_z
Si Si1 0.017393 0.305336 0.861267
Si Si2 0.328438 0.836164 0.608116
Si Si3 0.700611 0.386709 0.395713
Si Si4 0.749153 0.115271 0.844088
Si Si5 0.863129 0.385113 0.974331
Si Si6 0.445762 0.312204 0.357835
Si Si7 0.571730 0.112794 0.464838
Si Si8 0.325209 0.710505 0.157484
O O1 0.035634 0.209457 0.782953
O O2 0.969118 0.362066 0.716011
O O3 0.070566 0.378466 0.937251
O O4 0.000000 0.274495 0.000000
O O5 0.332978 0.712295 0.594013
O O6 0.264726 0.871275 0.518578
O O7 0.346733 0.864184 0.790634
O O8 0.367927 0.884742 0.536092
O O9 0.680719 0.500000 0.417067
O O10 0.705490 0.381527 0.228874
O O11 0.707966 0.212995 0.774302
O O12 0.724078 0.000000 0.807483
O O13 0.781078 0.134432 0.031528
O O14 0.843851 0.500000 0.992866
O O15 0.841681 0.294903 0.053899
O O16 0.500000 0.361920 0.500000
O O17 0.437753 0.201098 0.428708
O O18 0.381057 0.346718 0.277360
O O19 0.561529 0.000000 0.515498
#
# Coordination Sequence:
#
# PCOD9191851 Si02
#       8
#     8   8   8   8   8   8   8   8
#     4  10  20  33  51  79 115 148 183 222 268 325
#     4  11  21  33  53  78 106 144 184 220 271 327
#     4  10  21  37  54  76 107 141 181 229 278 327
#     4  10  20  36  57  79 107 146 188 233 282 332
#     4  11  20  31  48  78 112 144 178 224 269 318
#     4   9  21  36  54  79 113 151 189 224 276 337
#     4  11  21  34  52  78 112 150 184 219 269 332
#     4  10  20  35  55  79 109 143 190 229 277 332
#
# _framework density 22.114007000000001
#
# number of rings (size 3 to 8) (size 9 to 14) (size 15 to 20)
#    0.000    1.750    2.500    2.625    0.000    6.250 
#    0.000    0.000    0.000    0.375    0.000    8.750 
#    0.000    0.000    0.000    0.000    0.000    0.000 
#
# Total GULP energy -178723.844578 kJ/mol
# GULP energy per Si atom -5585.120143 kJ/mol
# Density = 2.206368 g / cm^3
# Si number density = 22.114007 Si / 1000 Ang^3
#
#
#
# Elastic Constant Matrix: (Units=GPa)
#
#
# Indices 1 2 3 4 5 6 
#
# 1 60.1017 2.6673 10.1056 0.0000 4.6292 0.0000
# 2 2.6673 75.0844 4.5219 0.0000 -3.9206 0.0000
# 3 10.1056 4.5219 78.0944 0.0000 8.6912 0.0000
# 4 0.0000 0.0000 0.0000 3.6799 0.0000 -2.0989
# 5 4.6292 -3.9206 8.6912 0.0000 46.4857 0.0000
# 6 0.0000 0.0000 0.0000 -2.0989 0.0000 10.3244
#
#
#
# Elastic Compliance Matrix: (Units=1/GPa)
#
#
# Indices 1 2 3 4 5 6 
#
# 1 0.017110 -0.000557 -0.002029 0.000000 -0.001371 0.000000
# 2 -0.000557 0.013460 -0.000858 0.000000 0.001351 0.000000
# 3 -0.002029 -0.000858 0.013381 0.000000 -0.002372 0.000000
# 4 0.000000 0.000000 0.000000 0.307394 0.000000 0.062492
# 5 -0.001371 0.001351 -0.002372 0.000000 0.022206 0.000000
# 6 0.000000 0.000000 0.000000 0.062492 0.000000 0.109563
#
#
# Mechanical properties :
#
#
# Convention : Reuss Voigt Hill
#
# Bulk Modulus (GPa) = 26.98072 27.54112 27.26092
# Shear Modulus (GPa) = 9.95309 25.16372 17.55840
#
# Velocity S-wave (km/s) = 2.12381 3.37695 2.82085
# Velocity P-wave (km/s) = 4.27099 5.26177 4.79205
#
# Compressibility (1/GPa) = 0.03706350
#
# Stress axis : x y z
#
# Youngs Moduli (GPa) = 58.44531 74.29237 74.73148
#
# Poissons Ratio (x) = 0.04140 0.15164
# Poissons Ratio (y) = 0.03257 0.06409
# Poissons Ratio (z) = 0.11860 0.06372
#
# Static dielectric constant tensor:
#      x y z
#    x 1.850550 0.000000 0.019780 
#    y 0.000000 1.805430 0.000000 
#    z 0.019780 0.000000 1.833590 
# 
# From -- ./inp_files/104697.got.cif
#   From: 2010.05.17/outbox.cif.g08.bks.cpg/sg12_53_cif.got.tgz:104697.got - 2010.06.03 13:09:07.
