data_PCOD9191579
_publ_section_title
;
Structure prediction by ZEFSAII (Michael W. Deem and Ramdas Pophale) SiO2 
 PCOD9191579
Probable space group: C 2/M
;
_chemical_formula_sum "Si O2"
_cell_formula_units_Z 64
_cell_length_a 30.659301
_cell_length_b 15.336604
_cell_length_c 8.232491
_cell_angle_alpha 90.000000
_cell_angle_beta 124.835162
_cell_angle_gamma 90.000000
_cell_volume 3177.308882
_symmetry_space_group_name_H-M "C 2/M"
_symmetry_group_IT_number 12
_symmetry_cell_setting 'monoclinic'
loop_
_space_group_symop_operation_xyz
x,y,z
-x,y,-z
-x,-y,-z
x,-y,z
1/2+x,1/2+y,z
1/2-x,1/2+y,-z
1/2-x,1/2-y,-z
1/2+x,1/2-y,z
loop_
_atom_site_type_symbol
_atom_site_label
_atom_site_fract_x
_atom_site_fract_y
_atom_site_fract_z
Si Si1 0.690094 0.906080 0.132063
Si Si2 0.472545 0.099045 0.205186
Si Si3 0.661221 0.227709 0.594947
Si Si4 0.253903 0.903474 0.094121
Si Si5 0.606061 0.770907 0.827727
Si Si6 0.646960 0.400019 0.026407
Si Si7 0.917211 0.401069 0.733727
Si Si8 0.780925 0.160992 0.521225
O O1 0.731970 0.899213 0.365202
O O2 0.661745 0.000000 0.077184
O O3 0.725426 0.903675 0.044558
O O4 0.650078 0.826220 0.023914
O O5 0.446679 0.171448 0.264639
O O6 0.533969 0.111169 0.287957
O O7 0.465936 0.000000 0.253793
O O8 0.441961 0.104883 0.966186
O O9 0.713817 0.172317 0.750064
O O10 0.627451 0.234963 0.688930
O O11 0.626864 0.170219 0.396688
O O12 0.680978 0.314623 0.549008
O O13 0.191268 0.891083 0.978544
O O14 0.265944 0.000000 0.189158
O O15 0.604105 0.674831 0.901185
O O16 0.628349 0.500000 0.993858
O O17 0.682243 0.376877 0.259503
O O18 0.896833 0.500000 0.668067
O O19 0.750000 0.250000 0.500000
#
# Coordination Sequence:
#
# PCOD9191579 Si02
#       8
#     8   8   8   8   8   8   8   8
#     4  10  20  33  50  74 106 142 178 218 265 319
#     4   9  19  36  57  82 115 147 179 217 265 322
#     4  11  21  33  52  77 108 145 180 220 267 321
#     4   9  18  32  48  71 105 141 176 214 260 314
#     4  11  21  35  54  79 107 143 184 222 270 325
#     4  11  22  36  53  75 103 141 183 227 271 318
#     4   9  19  35  55  83 115 147 179 217 265 323
#     4  12  21  34  50  74 104 141 183 225 268 312
#
# _framework density 20.142834000000001
#
# number of rings (size 3 to 8) (size 9 to 14) (size 15 to 20)
#    0.000    1.750    2.500    3.375    0.000    4.000 
#    0.000    1.875    0.000    0.000    0.000    9.625 
#    0.000    0.000    0.000    0.000    0.000    0.000 
#
# Total GULP energy -178782.579395 kJ/mol
# GULP energy per Si atom -5586.955606 kJ/mol
# Density = 2.009699 g / cm^3
# Si number density = 20.142834 Si / 1000 Ang^3
#
#
#
# Elastic Constant Matrix: (Units=GPa)
#
#
# Indices 1 2 3 4 5 6 
#
# 1 81.5895 25.7147 -0.1155 0.0000 -12.1814 0.0000
# 2 25.7147 104.5331 15.3450 0.0000 -2.5783 0.0000
# 3 -0.1155 15.3450 42.0831 0.0000 -2.1009 0.0000
# 4 0.0000 0.0000 0.0000 18.2621 0.0000 -1.4319
# 5 -12.1814 -2.5783 -2.1009 0.0000 20.6931 0.0000
# 6 0.0000 0.0000 0.0000 -1.4319 0.0000 16.8454
#
#
#
# Elastic Compliance Matrix: (Units=1/GPa)
#
#
# Indices 1 2 3 4 5 6 
#
# 1 0.014661 -0.003664 0.001793 0.000000 0.008356 0.000000
# 2 -0.003664 0.011039 -0.004095 0.000000 -0.001197 0.000000
# 3 0.001793 -0.004095 0.025417 0.000000 0.003126 0.000000
# 4 0.000000 0.000000 0.000000 0.055126 0.000000 0.004686
# 5 0.008356 -0.001197 0.003126 0.000000 0.053413 0.000000
# 6 0.000000 0.000000 0.000000 0.004686 0.000000 0.059762
#
#
# Mechanical properties :
#
#
# Convention : Reuss Voigt Hill
#
# Bulk Modulus (GPa) = 25.51918 34.45489 29.98704
# Shear Modulus (GPa) = 20.45740 23.64422 22.05081
#
# Velocity S-wave (km/s) = 3.19033 3.42983 3.31225
# Velocity P-wave (km/s) = 5.12519 5.72952 5.43576
#
# Compressibility (1/GPa) = 0.03918621
#
# Stress axis : x y z
#
# Youngs Moduli (GPa) = 68.20661 90.58601 39.34418
#
# Poissons Ratio (x) = 0.33189 -0.07056
# Poissons Ratio (y) = 0.24989 0.16112
# Poissons Ratio (z) = -0.12232 0.37096
#
# Static dielectric constant tensor:
#      x y z
#    x 1.743320 0.000000 -0.036520 
#    y 0.000000 1.729190 0.000000 
#    z -0.036520 0.000000 1.722700 
# 
# From -- ./inp_files/111663.got.cif
#   From: 2010.05.17/outbox.cif.g08.bks.cpg/sg12_56_cif.got.tgz:111663.got - 2010.06.03 13:09:07.
