data_PCOD9191157
_publ_section_title
;
Structure prediction by ZEFSAII (Michael W. Deem and Ramdas Pophale) SiO2 
 PCOD9191157
Probable space group: C 2/M
;
_chemical_formula_sum "Si O2"
_cell_formula_units_Z 40
_cell_length_a 9.002879
_cell_length_b 26.854632
_cell_length_c 13.023362
_cell_angle_alpha 90.000000
_cell_angle_beta 30.532872
_cell_angle_gamma 90.000000
_cell_volume 1599.614482
_symmetry_space_group_name_H-M "C 2/M"
_symmetry_group_IT_number 12
_symmetry_cell_setting 'monoclinic'
loop_
_space_group_symop_operation_xyz
x,y,z
-x,y,-z
-x,-y,-z
x,-y,z
1/2+x,1/2+y,z
1/2-x,1/2+y,-z
1/2-x,1/2-y,-z
1/2+x,1/2-y,z
loop_
_atom_site_type_symbol
_atom_site_label
_atom_site_fract_x
_atom_site_fract_y
_atom_site_fract_z
Si Si1 0.260463 0.895213 0.062631
Si Si2 0.509302 0.206301 0.276964
Si Si3 0.046839 0.803660 0.800672
Si Si4 0.896670 0.000000 0.886275
Si Si5 0.796958 0.400268 0.384423
Si Si6 0.036238 0.500000 0.316953
O O1 0.981020 0.859723 0.223663
O O2 0.174879 0.951442 0.136758
O O3 0.500000 0.875359 0.000000
O O4 0.423073 0.899451 0.857652
O O5 0.713480 0.203380 0.254856
O O6 0.400438 0.261965 0.316706
O O7 0.294943 0.158978 0.411703
O O8 0.731355 0.200647 0.046131
O O9 0.223232 0.000000 0.736786
O O10 0.701898 0.000000 0.106938
O O11 0.500000 0.411424 0.500000
O O12 0.864489 0.447147 0.418110
#
# Coordination Sequence:
#
# PCOD9191157 Si02
#       6
#     8   8   8   4   8   4
#     4  10  20  32  55  80 108 136 172 222 267 310
#     4   9  18  31  51  75 102 135 179 221 254 308
#     4   9  18  30  52  76 100 134 180 219 262 302
#     4   9  17  32  53  83 106 129 176 228 261 299
#     4  10  20  34  53  79 108 139 175 214 262 320
#     4   9  17  32  57  77 104 139 176 216 263 311
#
# _framework density 25.006025999999999
#
# number of rings (size 3 to 8) (size 9 to 14) (size 15 to 20)
#    0.000    2.600    0.000    1.800    8.400    4.800 
#    0.000    1.000    0.000    4.800    0.000    0.000 
#    0.000    0.000    0.000    0.000    0.000    0.000 
#
# Total GULP energy -111711.363222 kJ/mol
# GULP energy per Si atom -5585.568161 kJ/mol
# Density = 2.494911 g / cm^3
# Si number density = 25.006026 Si / 1000 Ang^3
#
#
#
# Elastic Constant Matrix: (Units=GPa)
#
#
# Indices 1 2 3 4 5 6 
#
# 1 54.6011 43.7457 -1.7868 0.0000 -7.0663 0.0000
# 2 43.7457 212.2061 21.4814 0.0000 -26.2057 0.0000
# 3 -1.7868 21.4814 67.7644 0.0000 19.0685 0.0000
# 4 0.0000 0.0000 0.0000 82.3399 0.0000 -66.3815
# 5 -7.0663 -26.2057 19.0685 0.0000 46.4603 0.0000
# 6 0.0000 0.0000 0.0000 -66.3815 0.0000 75.0253
#
#
#
# Elastic Compliance Matrix: (Units=1/GPa)
#
#
# Indices 1 2 3 4 5 6 
#
# 1 0.022227 -0.004833 0.002187 0.000000 -0.000243 0.000000
# 2 -0.004833 0.006604 -0.003462 0.000000 0.004411 0.000000
# 3 0.002187 -0.003462 0.018505 0.000000 -0.009215 0.000000
# 4 0.000000 0.000000 0.000000 0.042362 0.000000 0.037481
# 5 -0.000243 0.004411 -0.009215 0.000000 0.027757 0.000000
# 6 0.000000 0.000000 0.000000 0.037481 0.000000 0.046492
#
#
# Mechanical properties :
#
#
# Convention : Reuss Voigt Hill
#
# Bulk Modulus (GPa) = 28.47475 51.27247 39.87361
# Shear Modulus (GPa) = 26.61406 58.84050 42.72728
#
# Velocity S-wave (km/s) = 3.26591 4.85609 4.13810
# Velocity P-wave (km/s) = 5.06295 7.21046 6.22993
#
# Compressibility (1/GPa) = 0.03511883
#
# Stress axis : x y z
#
# Youngs Moduli (GPa) = 44.98983 151.42445 54.03876
#
# Poissons Ratio (x) = 0.73191 -0.11817
# Poissons Ratio (y) = 0.21746 0.18709
# Poissons Ratio (z) = -0.09838 0.52424
#
# Static dielectric constant tensor:
#      x y z
#    x 1.905280 0.000000 0.096800 
#    y 0.000000 2.059770 0.000000 
#    z 0.096800 0.000000 1.991530 
# 
# From -- ./inp_files/259643.got.cif
#   From: 2010.05.17/outbox.cif.g08.bks.cpg/sg12_130_cif.got.tgz:259643.got - 2010.06.03 13:09:07.
