data_PCOD9191988
_publ_section_title
;
Structure prediction by ZEFSAII (Michael W. Deem and Ramdas Pophale) SiO2 
 PCOD9191988
Probable space group: C 2/M
;
_chemical_formula_sum "Si O2"
_cell_formula_units_Z 44
_cell_length_a 18.058921
_cell_length_b 14.753360
_cell_length_c 26.092032
_cell_angle_alpha 90.000000
_cell_angle_beta 160.352192
_cell_angle_gamma 90.000000
_cell_volume 2337.420261
_symmetry_space_group_name_H-M "C 2/M"
_symmetry_group_IT_number 12
_symmetry_cell_setting 'monoclinic'
loop_
_space_group_symop_operation_xyz
x,y,z
-x,y,-z
-x,-y,-z
x,-y,z
1/2+x,1/2+y,z
1/2-x,1/2+y,-z
1/2-x,1/2-y,-z
1/2+x,1/2-y,z
loop_
_atom_site_type_symbol
_atom_site_label
_atom_site_fract_x
_atom_site_fract_y
_atom_site_fract_z
Si Si1 0.975889 0.155705 0.247319
Si Si2 0.538984 0.650020 0.877678
Si Si3 0.802800 0.500000 0.496189
Si Si4 0.915592 0.500000 0.109199
Si Si5 0.303273 0.687984 0.912432
Si Si6 0.544786 0.000000 0.753872
Si Si7 0.823495 0.500000 0.338936
Si Si8 0.387530 0.000000 0.981664
O O1 0.014460 0.187571 0.213588
O O2 0.897536 0.242654 0.227978
O O3 0.174220 0.090535 0.394383
O O4 0.769417 0.087259 0.116831
O O5 0.335452 0.586025 0.760131
O O6 0.750387 0.585610 0.005904
O O7 0.598371 0.708476 0.966296
O O8 0.847234 0.500000 0.585112
O O9 0.039916 0.500000 0.623867
O O10 0.045509 0.500000 0.246843
O O11 0.024702 0.500000 0.124344
O O12 0.200301 0.587597 0.846965
O O13 0.500000 0.694937 0.000000
O O14 0.000000 0.500000 0.500000
O O15 0.500000 0.000000 0.000000
#
# Coordination Sequence:
#
# PCOD9191988 Si02
#       8
#     8   8   4   4   8   4   4   4
#     4  10  20  33  52  79 108 140 172 224 268 323
#     4   9  17  32  52  79 106 133 171 222 273 311
#     4  11  21  35  55  79 112 145 180 211 270 328
#     4   7  15  30  51  75 105 133 173 217 266 311
#     4  11  21  35  54  79 107 136 182 226 272 315
#     4  10  21  36  53  75 107 149 175 221 273 326
#     4  11  16  30  56  82 110 136 175 221 271 326
#     4   9  16  31  54  81 103 134 181 226 268 301
#
# _framework density 18.824172000000001
#
# number of rings (size 3 to 8) (size 9 to 14) (size 15 to 20)
#    0.000    2.182    1.818    4.091    0.000    0.727 
#    0.000    0.000    0.000    2.182    0.000    0.000 
#    0.000    0.000    0.000    0.000    0.000    0.000 
#
# Total GULP energy -122553.367802 kJ/mol
# GULP energy per Si atom -5570.607627 kJ/mol
# Density = 1.878133 g / cm^3
# Si number density = 18.824172 Si / 1000 Ang^3
#
#
#
# Elastic Constant Matrix: (Units=GPa)
#
#
# Indices 1 2 3 4 5 6 
#
# 1 153.2965 18.0900 37.5662 0.0014 -5.0686 -0.0033
# 2 18.0900 81.6081 16.1698 0.0044 15.9076 -0.0030
# 3 37.5662 16.1698 57.5363 -0.0025 -7.6192 0.0004
# 4 0.0014 0.0044 -0.0025 15.2912 0.0126 5.1340
# 5 -5.0686 15.9076 -7.6192 0.0126 33.2592 -0.0017
# 6 -0.0033 -0.0030 0.0004 5.1340 -0.0017 15.5460
#
#
#
# Elastic Compliance Matrix: (Units=1/GPa)
#
#
# Indices 1 2 3 4 5 6 
#
# 1 0.007818 -0.000886 -0.004787 -0.000003 0.000518 0.000002
# 2 -0.000886 0.015034 -0.004761 0.000001 -0.008416 0.000002
# 3 -0.004787 -0.004761 0.022739 0.000001 0.006757 -0.000002
# 4 -0.000003 0.000001 0.000001 0.073553 -0.000030 -0.024290
# 5 0.000518 -0.008416 0.006757 -0.000030 0.035719 0.000012
# 6 0.000002 0.000002 -0.000002 -0.024290 0.000012 0.072347
#
#
# Mechanical properties :
#
#
# Convention : Reuss Voigt Hill
#
# Bulk Modulus (GPa) = 40.44852 48.45479 44.45165
# Shear Modulus (GPa) = 19.50697 27.52693 23.51695
#
# Velocity S-wave (km/s) = 3.22261 3.82818 3.53837
# Velocity P-wave (km/s) = 5.94821 6.73324 6.35286
#
# Compressibility (1/GPa) = 0.02472279
#
# Stress axis : x y z
#
# Youngs Moduli (GPa) = 127.90961 66.51592 43.97789
#
# Poissons Ratio (x) = 0.05891 0.21052
# Poissons Ratio (y) = 0.11327 0.20940
# Poissons Ratio (z) = 0.61230 0.31671
#
# Static dielectric constant tensor:
#      x y z
#    x 1.712180 0.000000 -0.051780 
#    y 0.000000 1.695130 -0.000010 
#    z -0.051780 -0.000010 1.645060 
# 
# From -- ./inp_files/226176.got.cif
#   From: 2010.05.17/outbox.cif.g08.bks.cpg/sg12_114_cif.got.tgz:226176.got - 2010.06.03 13:09:07.
