data_PCOD9191479
_publ_section_title
;
Structure prediction by ZEFSAII (Michael W. Deem and Ramdas Pophale) SiO2 
 PCOD9191479
Probable space group: C 2/M
;
_chemical_formula_sum "Si O2"
_cell_formula_units_Z 64
_cell_length_a 29.206973
_cell_length_b 7.373612
_cell_length_c 15.738580
_cell_angle_alpha 90.000000
_cell_angle_beta 53.175565
_cell_angle_gamma 90.000000
_cell_volume 2713.192454
_symmetry_space_group_name_H-M "C 2/M"
_symmetry_group_IT_number 12
_symmetry_cell_setting 'monoclinic'
loop_
_space_group_symop_operation_xyz
x,y,z
-x,y,-z
-x,-y,-z
x,-y,z
1/2+x,1/2+y,z
1/2-x,1/2+y,-z
1/2-x,1/2-y,-z
1/2+x,1/2-y,z
loop_
_atom_site_type_symbol
_atom_site_label
_atom_site_fract_x
_atom_site_fract_y
_atom_site_fract_z
Si Si1 0.031272 0.719928 0.675550
Si Si2 0.088934 0.278034 0.783323
Si Si3 0.219928 0.714222 0.622532
Si Si4 0.274810 0.708145 0.199217
Si Si5 0.436669 0.221066 0.539699
Si Si6 0.165733 0.278162 0.222328
Si Si7 0.594068 0.220831 0.149623
Si Si8 0.095175 0.295879 0.959582
O O1 0.034073 0.500000 0.674113
O O2 0.051897 0.781912 0.744722
O O3 0.067823 0.778208 0.553740
O O4 0.964893 0.766524 0.737624
O O5 0.087593 0.500000 0.787388
O O6 0.154275 0.221370 0.693275
O O7 0.072577 0.215716 0.896288
O O8 0.218699 0.500000 0.635687
O O9 0.250000 0.750000 0.500000
O O10 0.247328 0.789196 0.678687
O O11 0.286608 0.500000 0.163144
O O12 0.226783 0.782332 0.189767
O O13 0.336002 0.804250 0.129387
O O14 0.500000 0.276022 0.500000
O O15 0.384701 0.279159 0.657106
O O16 0.436283 0.000000 0.542749
O O17 0.166847 0.500000 0.222485
O O18 0.147000 0.220826 0.148773
O O19 0.597530 0.000000 0.140817
O O20 0.588551 0.288492 0.059593
O O21 0.070851 0.500000 0.992434
#
# Coordination Sequence:
#
# PCOD9191479 Si02
#       8
#     8   8   8   8   8   8   8   8
#     4   9  15  23  40  66  95 126 158 195 248 308
#     4   8  16  28  42  65  96 127 158 195 243 296
#     4  10  20  34  51  74 104 134 167 203 244 290
#     4  10  20  33  50  71  98 131 169 207 244 289
#     4   9  14  22  37  59  94 129 153 192 252 304
#     4   9  17  27  41  67  98 127 163 204 248 297
#     4   9  16  27  44  67  96 129 162 203 256 305
#     4   9  18  33  49  67  99 132 160 206 257 297
#
# _framework density 23.588450000000002
#
# number of rings (size 3 to 8) (size 9 to 14) (size 15 to 20)
#    0.000    2.875    1.250    1.500    1.750    1.000 
#    0.000    2.500    0.000    0.750    0.000    7.875 
#    0.000    3.500    0.000    0.000    0.000    0.000 
#
# Total GULP energy -178668.834934 kJ/mol
# GULP energy per Si atom -5583.401092 kJ/mol
# Density = 2.353476 g / cm^3
# Si number density = 23.588450 Si / 1000 Ang^3
#
#
#
# Elastic Constant Matrix: (Units=GPa)
#
#
# Indices 1 2 3 4 5 6 
#
# 1 93.5486 -1.7665 3.3792 -0.0001 31.7891 -0.0013
# 2 -1.7665 86.8328 -6.9356 -0.0002 -0.2304 -0.0028
# 3 3.3792 -6.9356 90.9310 0.0001 27.5788 -0.0002
# 4 -0.0001 -0.0002 0.0001 -5.2940 0.0001 0.3932
# 5 31.7891 -0.2304 27.5788 0.0001 37.6608 -0.0001
# 6 -0.0013 -0.0028 -0.0002 0.3932 -0.0001 -2.9042
#
#
#
# Elastic Compliance Matrix: (Units=1/GPa)
#
#
# Indices 1 2 3 4 5 6 
#
# 1 0.016400 0.000661 0.004677 -0.000001 -0.017264 -0.000008
# 2 0.000661 0.011630 0.001299 -0.000001 -0.001438 -0.000012
# 3 0.004677 0.001299 0.015577 -0.000001 -0.015347 -0.000004
# 4 -0.000001 -0.000001 -0.000001 -0.190813 0.000002 -0.025834
# 5 -0.017264 -0.001438 -0.015347 0.000002 0.052354 0.000010
# 6 -0.000008 -0.000012 -0.000004 -0.025834 0.000010 -0.347829
#
#
# Mechanical properties :
#
#
# Convention : Reuss Voigt Hill
#
# Bulk Modulus (GPa) = 17.58078 28.96297 23.27187
# Shear Modulus (GPa) = -11.44179 24.33487 6.44654
#
# Velocity S-wave (km/s) = -2.20479 3.21541 1.65495
# Velocity P-wave (km/s) = 0.99389 5.10786 3.67954
#
# Compressibility (1/GPa) = 0.05688031
#
# Stress axis : x y z
#
# Youngs Moduli (GPa) = 60.97729 85.98637 64.19637
#
# Poissons Ratio (x) = -0.05687 -0.30024
# Poissons Ratio (y) = -0.04033 -0.08337
# Poissons Ratio (z) = -0.28519 -0.11166
#
# Static dielectric constant tensor:
#      x y z
#    x 1.866960 0.000000 0.030060 
#    y 0.000000 1.948350 0.000000 
#    z 0.030060 0.000000 1.896000 
# 
# From -- ./inp_files/249121.got.cif
#   From: 2010.05.17/outbox.cif.g08.bks.cpg/sg12_125_cif.got.tgz:249121.got - 2010.06.03 13:09:07.
