data_PCOD9191905
_publ_section_title
;
Structure prediction by ZEFSAII (Michael W. Deem and Ramdas Pophale) SiO2 
 PCOD9191905
Probable space group: C 2/M
;
_chemical_formula_sum "Si O2"
_cell_formula_units_Z 48
_cell_length_a 31.194574
_cell_length_b 9.296998
_cell_length_c 7.267169
_cell_angle_alpha 90.000000
_cell_angle_beta 90.532563
_cell_angle_gamma 90.000000
_cell_volume 2107.503457
_symmetry_space_group_name_H-M "C 2/M"
_symmetry_group_IT_number 12
_symmetry_cell_setting 'monoclinic'
loop_
_space_group_symop_operation_xyz
x,y,z
-x,y,-z
-x,-y,-z
x,-y,z
1/2+x,1/2+y,z
1/2-x,1/2+y,-z
1/2-x,1/2-y,-z
1/2+x,1/2-y,z
loop_
_atom_site_type_symbol
_atom_site_label
_atom_site_fract_x
_atom_site_fract_y
_atom_site_fract_z
Si Si1 0.514569 0.335666 0.717042
Si Si2 0.824161 0.161520 0.317849
Si Si3 0.905744 0.660288 0.383519
Si Si4 0.151257 0.164820 0.113208
Si Si5 0.765946 0.326375 0.812619
Si Si6 0.566376 0.162651 0.191179
O O1 0.500000 0.337971 0.500000
O O2 0.518548 0.500000 0.777738
O O3 0.560194 0.256188 0.725920
O O4 0.477435 0.251087 0.821312
O O5 0.859118 0.269738 0.395119
O O6 0.773854 0.196965 0.327052
O O7 0.831313 0.000000 0.388979
O O8 0.834292 0.158975 0.099068
O O9 0.902750 0.500000 0.306077
O O10 0.924176 0.651689 0.589807
O O11 0.188726 0.250136 0.223324
O O12 0.107031 0.250723 0.118614
O O13 0.146407 0.000000 0.176813
O O14 0.770853 0.500000 0.835802
O O15 0.750000 0.250000 0.000000
O O16 0.562739 0.000000 0.119134
#
# Coordination Sequence:
#
# PCOD9191905 Si02
#       6
#     8   8   8   8   8   8
#     4   9  17  31  52  74  98 132 169 203 245 298
#     4   9  19  34  52  75 102 131 166 207 249 296
#     4  10  20  33  52  77 103 132 167 206 249 297
#     4  10  20  34  53  77 102 132 170 209 251 298
#     4   9  17  31  51  74 100 132 169 207 248 297
#     4  10  20  34  52  76 104 132 166 208 250 296
#
# _framework density 22.775762
#
# number of rings (size 3 to 8) (size 9 to 14) (size 15 to 20)
#    0.000    2.500    0.000    3.500    0.000    8.000 
#    0.000    1.667    0.000    5.000    0.000    0.000 
#    0.000    0.000    0.000    0.000    0.000    0.000 
#
# Total GULP energy -134166.047398 kJ/mol
# GULP energy per Si atom -5590.251975 kJ/mol
# Density = 2.272392 g / cm^3
# Si number density = 22.775762 Si / 1000 Ang^3
#
#
#
# Elastic Constant Matrix: (Units=GPa)
#
#
# Indices 1 2 3 4 5 6 
#
# 1 131.9080 111.1130 45.6137 0.0000 -7.7236 0.0000
# 2 111.1130 207.9548 28.6711 0.0000 0.1196 0.0000
# 3 45.6137 28.6711 43.5624 0.0000 -3.4256 0.0000
# 4 0.0000 0.0000 0.0000 12.7352 0.0000 -1.8184
# 5 -7.7236 0.1196 -3.4256 0.0000 37.0725 0.0000
# 6 0.0000 0.0000 0.0000 -1.8184 0.0000 42.0092
#
#
#
# Elastic Compliance Matrix: (Units=1/GPa)
#
#
# Indices 1 2 3 4 5 6 
#
# 1 0.020557 -0.008852 -0.015472 0.000000 0.002882 0.000000
# 2 -0.008852 0.009105 0.003152 0.000000 -0.001582 0.000000
# 3 -0.015472 0.003152 0.037097 0.000000 0.000194 0.000000
# 4 0.000000 0.000000 0.000000 0.079011 0.000000 0.003420
# 5 0.002882 -0.001582 0.000194 0.000000 0.027598 0.000000
# 6 0.000000 0.000000 0.000000 0.003420 0.000000 0.023952
#
#
# Mechanical properties :
#
#
# Convention : Reuss Voigt Hill
#
# Bulk Modulus (GPa) = 40.95960 83.80231 62.38096
# Shear Modulus (GPa) = 20.17754 31.56520 25.87137
#
# Velocity S-wave (km/s) = 2.97967 3.72682 3.37399
# Velocity P-wave (km/s) = 5.46451 7.44267 6.52894
#
# Compressibility (1/GPa) = 0.02441430
#
# Stress axis : x y z
#
# Youngs Moduli (GPa) = 48.64634 109.83110 26.95669
#
# Poissons Ratio (x) = 0.97224 0.41707
# Poissons Ratio (y) = 0.43063 -0.08497
# Poissons Ratio (z) = 0.75264 -0.34620
#
# Static dielectric constant tensor:
#      x y z
#    x 1.819790 0.000000 0.002970 
#    y 0.000000 1.798300 0.000000 
#    z 0.002970 0.000000 1.924980 
# 
# From -- ./inp_files/108560.got.cif
#   From: 2010.05.17/outbox.cif.g08.bks.cpg/sg12_55_cif.got.tgz:108560.got - 2010.06.03 13:09:07.
