data_PCOD9191274
_publ_section_title
;
Structure prediction by ZEFSAII (Michael W. Deem and Ramdas Pophale) SiO2 
 PCOD9191274
Probable space group: C 2/M
;
_chemical_formula_sum "Si O2"
_cell_formula_units_Z 64
_cell_length_a 23.900202
_cell_length_b 8.368830
_cell_length_c 22.931728
_cell_angle_alpha 90.000000
_cell_angle_beta 54.757904
_cell_angle_gamma 90.000000
_cell_volume 3746.078808
_symmetry_space_group_name_H-M "C 2/M"
_symmetry_group_IT_number 12
_symmetry_cell_setting 'monoclinic'
loop_
_space_group_symop_operation_xyz
x,y,z
-x,y,-z
-x,-y,-z
x,-y,z
1/2+x,1/2+y,z
1/2-x,1/2+y,-z
1/2-x,1/2-y,-z
1/2+x,1/2-y,z
loop_
_atom_site_type_symbol
_atom_site_label
_atom_site_fract_x
_atom_site_fract_y
_atom_site_fract_z
Si Si1 0.293782 0.309063 0.918071
Si Si2 0.419516 0.691202 0.259128
Si Si3 0.209494 0.308081 0.438065
Si Si4 0.935893 0.691345 0.876168
Si Si5 0.070670 0.694977 0.985880
Si Si6 0.776934 0.807055 0.283989
Si Si7 0.148687 0.307550 0.589198
Si Si8 0.784953 0.307008 0.150149
O O1 0.289634 0.500000 0.920877
O O2 0.372120 0.256602 0.878000
O O3 0.261038 0.251976 0.876755
O O4 0.250000 0.250000 0.000000
O O5 0.419688 0.500000 0.257716
O O6 0.489998 0.754790 0.190546
O O7 0.352229 0.746070 0.262626
O O8 0.409341 0.747184 0.332083
O O9 0.204970 0.500000 0.438430
O O10 0.219925 0.251090 0.365496
O O11 0.151790 0.255282 0.519298
O O12 0.281585 0.261506 0.424584
O O13 0.933145 0.500000 0.877058
O O14 0.925363 0.745420 0.949381
O O15 0.070309 0.500000 0.985640
O O16 0.137349 0.746646 0.910319
O O17 0.000000 0.750011 0.000000
O O18 0.764241 0.750197 0.226414
O O19 0.777667 0.000000 0.284043
O O20 0.150516 0.500000 0.590189
O O21 0.784240 0.500000 0.150656
#
# Coordination Sequence:
#
# PCOD9191274 Si02
#       8
#     8   8   8   8   8   8   8   8
#     4  11  22  38  56  73  96 126 165 213 256 293
#     4  10  20  33  47  71 107 137 163 203 251 296
#     4   8  15  27  42  65 100 134 165 202 243 288
#     4  11  21  35  54  74  96 128 169 207 249 298
#     4   9  17  30  48  70  97 126 157 195 238 286
#     4   9  18  31  47  71 104 136 164 201 246 292
#     4   9  15  25  44  68  95 133 172 201 236 289
#     4  10  20  34  50  71  97 129 166 204 247 292
#
# _framework density 17.084531999999999
#
# number of rings (size 3 to 8) (size 9 to 14) (size 15 to 20)
#    0.000    2.375    1.250    3.000    0.000    5.000 
#    0.000    0.000    0.000    2.625    0.000    0.875 
#    0.000    7.000    0.000    0.000    0.000    0.000 
#
# Total GULP energy -178306.507792 kJ/mol
# GULP energy per Si atom -5572.078368 kJ/mol
# Density = 1.704565 g / cm^3
# Si number density = 17.084532 Si / 1000 Ang^3
#
#
#
# Elastic Constant Matrix: (Units=GPa)
#
#
# Indices 1 2 3 4 5 6 
#
# 1 82.1325 8.3028 31.4775 0.0000 26.0496 -0.0002
# 2 8.3028 33.5753 1.4453 0.0003 4.2380 -0.0027
# 3 31.4775 1.4453 112.8753 -0.0001 43.6411 -0.0002
# 4 0.0000 0.0003 -0.0001 25.7410 0.0001 1.2458
# 5 26.0496 4.2380 43.6411 0.0001 22.3258 0.0000
# 6 -0.0002 -0.0027 -0.0002 1.2458 0.0000 19.2222
#
#
#
# Elastic Compliance Matrix: (Units=1/GPa)
#
#
# Indices 1 2 3 4 5 6 
#
# 1 0.026346 0.001242 0.018889 0.000000 -0.067898 0.000001
# 2 0.001242 0.032239 0.008874 0.000000 -0.024915 0.000005
# 3 0.018889 0.008874 0.051796 0.000001 -0.124971 0.000002
# 4 0.000000 0.000000 0.000001 0.038971 -0.000002 -0.002526
# 5 -0.067898 -0.024915 -0.124971 -0.000002 0.373030 -0.000005
# 6 0.000001 0.000005 0.000002 -0.002526 -0.000005 0.052187
#
#
# Mechanical properties :
#
#
# Convention : Reuss Voigt Hill
#
# Bulk Modulus (GPa) = 5.93858 34.55937 20.24897
# Shear Modulus (GPa) = 8.73073 25.94830 17.33952
#
# Velocity S-wave (km/s) = 2.26305 3.90143 3.18924
# Velocity P-wave (km/s) = 3.21124 6.36924 5.04377
#
# Compressibility (1/GPa) = 0.16839047
#
# Stress axis : x y z
#
# Youngs Moduli (GPa) = 37.95680 31.01786 19.30653
#
# Poissons Ratio (x) = -0.03853 -0.36467
# Poissons Ratio (y) = -0.04715 -0.17132
# Poissons Ratio (z) = -0.71695 -0.27525
#
# Static dielectric constant tensor:
#      x y z
#    x 1.561690 0.000000 0.024690 
#    y 0.000000 1.562490 0.000000 
#    z 0.024690 0.000000 1.610760 
# 
# From -- ./inp_files/326797.got.cif
#   From: 2010.05.17/outbox.cif.g08.bks.cpg/sg12_164_cif.got.tgz:326797.got - 2010.06.03 13:09:07.
