data_PCOD9191914
_publ_section_title
;
Structure prediction by ZEFSAII (Michael W. Deem and Ramdas Pophale) SiO2 
 PCOD9191914
Probable space group: C 2/M
;
_chemical_formula_sum "Si O2"
_cell_formula_units_Z 64
_cell_length_a 15.538250
_cell_length_b 7.629045
_cell_length_c 31.960487
_cell_angle_alpha 90.000000
_cell_angle_beta 51.212985
_cell_angle_gamma 90.000000
_cell_volume 2953.184768
_symmetry_space_group_name_H-M "C 2/M"
_symmetry_group_IT_number 12
_symmetry_cell_setting 'monoclinic'
loop_
_space_group_symop_operation_xyz
x,y,z
-x,y,-z
-x,-y,-z
x,-y,z
1/2+x,1/2+y,z
1/2-x,1/2+y,-z
1/2-x,1/2-y,-z
1/2+x,1/2-y,z
loop_
_atom_site_type_symbol
_atom_site_label
_atom_site_fract_x
_atom_site_fract_y
_atom_site_fract_z
Si Si1 0.742475 0.211549 0.174113
Si Si2 0.177128 0.789806 0.372486
Si Si3 0.793742 0.211122 0.250482
Si Si4 0.457696 0.290771 0.827528
Si Si5 0.728103 0.787238 0.571149
Si Si6 0.217435 0.790708 0.056939
Si Si7 0.570036 0.705587 0.547583
Si Si8 0.909012 0.802206 0.057936
O O1 0.742918 0.272510 0.221815
O O2 0.632361 0.253487 0.181264
O O3 0.853562 0.277079 0.116307
O O4 0.751698 0.000000 0.170663
O O5 0.223235 0.753219 0.312721
O O6 0.256826 0.729409 0.385728
O O7 0.052845 0.719822 0.416931
O O8 0.170878 0.000000 0.378492
O O9 0.919489 0.279427 0.216590
O O10 0.797787 0.000000 0.246765
O O11 0.468233 0.500000 0.825817
O O12 0.402247 0.238171 0.888753
O O13 0.622180 0.723937 0.577821
O O14 0.836827 0.724367 0.512444
O O15 0.724888 0.000000 0.570384
O O16 0.303431 0.692153 0.060049
O O17 0.229085 0.000000 0.059976
O O18 0.250000 0.750000 0.000000
O O19 0.561335 0.500000 0.539899
O O20 0.950373 0.000000 0.055506
O O21 0.000000 0.715686 0.000000
#
# Coordination Sequence:
#
# PCOD9191914 Si02
#       8
#     8   8   8   8   8   8   8   8
#     4   9  19  36  56  77 103 135 176 219 263 317
#     4  10  21  36  54  79 109 142 181 223 265 314
#     4  10  22  38  56  77 104 144 184 220 265 318
#     4   9  20  38  57  75 103 139 176 218 266 318
#     4   9  18  34  56  81 110 144 180 219 266 315
#     4  10  20  33  52  77 105 133 167 212 264 321
#     4   9  18  34  56  81 110 144 179 218 267 318
#     4   9  18  32  54  78 101 132 168 209 263 324
#
# _framework density 21.671517999999999
#
# number of rings (size 3 to 8) (size 9 to 14) (size 15 to 20)
#    0.000    2.625    0.000    0.750    1.750    5.250 
#    0.000    5.000    0.000    3.750    0.000    0.000 
#    0.000    0.000    0.000    0.000    0.000    0.000 
#
# Total GULP energy -178461.490500 kJ/mol
# GULP energy per Si atom -5576.921578 kJ/mol
# Density = 2.162219 g / cm^3
# Si number density = 21.671518 Si / 1000 Ang^3
#
#
#
# Elastic Constant Matrix: (Units=GPa)
#
#
# Indices 1 2 3 4 5 6 
#
# 1 50.3084 -11.9258 9.6037 0.0030 14.5041 0.0009
# 2 -11.9258 47.4002 -8.3909 -0.0016 -3.7331 -0.0024
# 3 9.6037 -8.3909 42.4409 0.0058 23.5668 0.0017
# 4 0.0030 -0.0016 0.0058 39.2884 -0.0002 10.6872
# 5 14.5041 -3.7331 23.5668 -0.0002 39.8428 -0.0005
# 6 0.0009 -0.0024 0.0017 10.6872 -0.0005 24.0792
#
#
#
# Elastic Compliance Matrix: (Units=1/GPa)
#
#
# Indices 1 2 3 4 5 6 
#
# 1 0.023446 0.005306 0.000308 -0.000002 -0.008220 0.000000
# 2 0.005306 0.023078 0.004816 -0.000001 -0.002618 0.000002
# 3 0.000308 0.004816 0.036120 -0.000005 -0.021026 0.000000
# 4 -0.000002 -0.000001 -0.000005 0.028948 0.000004 -0.012848
# 5 -0.008220 -0.002618 -0.021026 0.000004 0.040282 0.000001
# 6 0.000000 0.000002 0.000000 -0.012848 0.000001 0.047232
#
#
# Mechanical properties :
#
#
# Convention : Reuss Voigt Hill
#
# Bulk Modulus (GPa) = 9.66139 13.19149 11.42644
# Shear Modulus (GPa) = 23.50199 30.69959 27.10079
#
# Velocity S-wave (km/s) = 3.29669 3.76784 3.54011
# Velocity P-wave (km/s) = 4.35416 5.00291 4.68976
#
# Compressibility (1/GPa) = 0.10350473
#
# Stress axis : x y z
#
# Youngs Moduli (GPa) = 42.65049 43.33070 27.68564
#
# Poissons Ratio (x) = -0.22992 -0.00853
# Poissons Ratio (y) = -0.22631 -0.13332
# Poissons Ratio (z) = -0.01314 -0.20867
#
# Static dielectric constant tensor:
#      x y z
#    x 1.771500 0.000000 -0.007010 
#    y 0.000000 1.849120 0.000000 
#    z -0.007010 0.000000 1.809290 
# 
# From -- ./inp_files/375462.got.cif
#   From: 2010.05.17/outbox.cif.g08.bks.cpg/sg12_188_cif.got.tgz:375462.got - 2010.06.03 13:09:07.
