data_PCOD9191237
_publ_section_title
;
Structure prediction by ZEFSAII (Michael W. Deem and Ramdas Pophale) SiO2 
 PCOD9191237
Probable space group: C 2/M
;
_chemical_formula_sum "Si O2"
_cell_formula_units_Z 48
_cell_length_a 33.768079
_cell_length_b 7.193498
_cell_length_c 10.308131
_cell_angle_alpha 90.000000
_cell_angle_beta 137.220504
_cell_angle_gamma 90.000000
_cell_volume 1700.632444
_symmetry_space_group_name_H-M "C 2/M"
_symmetry_group_IT_number 12
_symmetry_cell_setting 'monoclinic'
loop_
_space_group_symop_operation_xyz
x,y,z
-x,y,-z
-x,-y,-z
x,-y,z
1/2+x,1/2+y,z
1/2-x,1/2+y,-z
1/2-x,1/2-y,-z
1/2+x,1/2-y,z
loop_
_atom_site_type_symbol
_atom_site_label
_atom_site_fract_x
_atom_site_fract_y
_atom_site_fract_z
Si Si1 0.822267 0.774336 0.062287
Si Si2 0.026450 0.779002 0.223523
Si Si3 0.119312 0.772931 0.255951
Si Si4 0.156041 0.780300 0.610829
Si Si5 0.291060 0.720100 0.721463
Si Si6 0.048338 0.773757 0.722579
O O1 0.813790 0.703966 0.188326
O O2 0.887478 0.722646 0.172022
O O3 0.820189 0.000000 0.066478
O O4 0.781855 0.710138 0.845441
O O5 0.055941 0.715554 0.156907
O O6 0.085366 0.758361 0.454668
O O7 0.974906 0.710355 0.191809
O O8 0.016618 0.000000 0.183709
O O9 0.161907 0.710870 0.477382
O O10 0.147197 0.712470 0.189627
O O11 0.118750 0.000000 0.253165
O O12 0.165938 0.000000 0.629372
O O13 0.295838 0.500000 0.747945
O O14 0.250000 0.750000 0.500000
O O15 0.000000 0.721330 0.500000
O O16 0.049133 0.000000 0.731172
#
# Coordination Sequence:
#
# PCOD9191237 Si02
#       6
#     8   8   8   8   8   8
#     4   9  15  22  36  60  85 110 142 175 200 239
#     4   7  10  16  31  51  77 111 134 146 187 255
#     4   7  12  24  39  54  78 111 135 161 209 258
#     4   7  10  19  35  53  77 109 137 157 193 247
#     4  10  20  33  46  60  82 111 144 180 216 246
#     4   9  11  15  30  55  85 113 134 157 198 250
#
# _framework density 28.224792999999998
#
# number of rings (size 3 to 8) (size 9 to 14) (size 15 to 20)
#    1.000    2.833    1.667    0.000    0.000    0.000 
#    0.000    1.667    0.000    5.000    0.000    0.000 
#    0.000    3.333    0.000    0.000    0.000    0.500 
#
# Total GULP energy -133925.652911 kJ/mol
# GULP energy per Si atom -5580.235538 kJ/mol
# Density = 2.816055 g / cm^3
# Si number density = 28.224793 Si / 1000 Ang^3
#
#
#
# Elastic Constant Matrix: (Units=GPa)
#
#
# Indices 1 2 3 4 5 6 
#
# 1 208.2972 0.5978 26.0792 0.0000 -28.7795 0.0000
# 2 0.5978 136.9859 -9.7510 0.0000 3.7752 0.0000
# 3 26.0792 -9.7510 108.6351 0.0000 -4.8456 0.0000
# 4 0.0000 0.0000 0.0000 -14.4015 0.0000 -10.7736
# 5 -28.7795 3.7752 -4.8456 0.0000 47.9883 0.0000
# 6 0.0000 0.0000 0.0000 -10.7736 0.0000 -27.2559
#
#
#
# Elastic Compliance Matrix: (Units=1/GPa)
#
#
# Indices 1 2 3 4 5 6 
#
# 1 0.005379 -0.000193 -0.001169 0.000000 0.003123 0.000000
# 2 -0.000193 0.007367 0.000680 0.000000 -0.000627 0.000000
# 3 -0.001169 0.000680 0.009556 0.000000 0.000210 0.000000
# 4 0.000000 0.000000 0.000000 -0.098591 0.000000 0.038971
# 5 0.003123 -0.000627 0.000210 0.000000 0.022782 0.000000
# 6 0.000000 0.000000 0.000000 0.038971 0.000000 -0.052094
#
#
# Mechanical properties :
#
#
# Convention : Reuss Voigt Hill
#
# Bulk Modulus (GPa) = 47.76274 54.19668 50.97971
# Shear Modulus (GPa) = -51.41047 30.39900 -10.50574
#
# Velocity S-wave (km/s) = -4.27249 3.28538 -1.93138
# Velocity P-wave (km/s) = 2.71660 5.79958 3.62320
#
# Compressibility (1/GPa) = 0.02093682
#
# Stress axis : x y z
#
# Youngs Moduli (GPa) = 185.89761 135.74967 104.64389
#
# Poissons Ratio (x) = 0.02617 0.12237
# Poissons Ratio (y) = 0.03584 -0.07111
# Poissons Ratio (z) = 0.21738 -0.09225
#
# Static dielectric constant tensor:
#      x y z
#    x 2.259930 0.000000 -0.098910 
#    y 0.000000 2.177670 0.000000 
#    z -0.098910 0.000000 2.430300 
# 
# From -- ./inp_files/250421.got.cif
#   From: 2010.05.17/outbox.cif.g08.bks.cpg/sg12_126_cif.got.tgz:250421.got - 2010.06.03 13:09:07.
