data_PCOD9191405
_publ_section_title
;
Structure prediction by ZEFSAII (Michael W. Deem and Ramdas Pophale) SiO2 
 PCOD9191405
Probable space group: C 2/M
;
_chemical_formula_sum "Si O2"
_cell_formula_units_Z 48
_cell_length_a 20.066193
_cell_length_b 16.513686
_cell_length_c 9.224376
_cell_angle_alpha 90.000000
_cell_angle_beta 58.209253
_cell_angle_gamma 90.000000
_cell_volume 2598.086335
_symmetry_space_group_name_H-M "C 2/M"
_symmetry_group_IT_number 12
_symmetry_cell_setting 'monoclinic'
loop_
_space_group_symop_operation_xyz
x,y,z
-x,y,-z
-x,-y,-z
x,-y,z
1/2+x,1/2+y,z
1/2-x,1/2+y,-z
1/2-x,1/2-y,-z
1/2+x,1/2-y,z
loop_
_atom_site_type_symbol
_atom_site_label
_atom_site_fract_x
_atom_site_fract_y
_atom_site_fract_z
Si Si1 0.445661 0.825152 0.254106
Si Si2 0.907568 0.239937 0.570125
Si Si3 0.164546 0.091773 0.524478
Si Si4 0.375786 0.779876 0.921131
Si Si5 0.329461 0.909011 0.190885
Si Si6 0.413587 0.659034 0.114815
O O1 0.404998 0.812373 0.455793
O O2 0.538725 0.824253 0.168919
O O3 0.406779 0.892557 0.198956
O O4 0.428825 0.742023 0.186675
O O5 0.877707 0.158828 0.526412
O O6 0.861915 0.261988 0.768937
O O7 0.000000 0.228675 0.500000
O O8 0.256123 0.099757 0.383214
O O9 0.143150 0.108773 0.716633
O O10 0.140412 0.000000 0.515550
O O11 0.322635 0.841289 0.073578
O O12 0.382134 0.694161 0.999176
O O13 0.329881 0.000000 0.131216
O O14 0.500000 0.620187 0.000000
#
# Coordination Sequence:
#
# PCOD9191405 Si02
#       6
#     8   8   8   8   8   8
#     4   8  16  31  52  74  96 127 164 199 239 288
#     4   9  18  34  53  73  98 126 162 205 246 294
#     4  10  21  34  48  71 102 133 164 200 244 290
#     4   9  17  31  53  77  97 125 165 204 243 289
#     4  10  20  33  49  72 102 132 164 202 241 286
#     4   8  15  30  50  70  91 120 164 206 236 279
#
# _framework density 18.475137
#
# number of rings (size 3 to 8) (size 9 to 14) (size 15 to 20)
#    0.000    3.000    0.000    2.500    0.000    8.667 
#    0.000    1.667    0.000    7.000    0.000    0.000 
#    0.000    0.000    0.000    0.000    0.000    0.000 
#
# Total GULP energy -133623.259901 kJ/mol
# GULP energy per Si atom -5567.635829 kJ/mol
# Density = 1.843309 g / cm^3
# Si number density = 18.475137 Si / 1000 Ang^3
#
#
#
# Elastic Constant Matrix: (Units=GPa)
#
#
# Indices 1 2 3 4 5 6 
#
# 1 21.8023 8.1233 12.3972 0.0000 9.7062 0.0000
# 2 8.1233 57.4715 38.1445 0.0000 -1.8650 0.0000
# 3 12.3972 38.1445 141.4982 0.0000 22.3959 0.0000
# 4 0.0000 0.0000 0.0000 45.4709 0.0000 2.9468
# 5 9.7062 -1.8650 22.3959 0.0000 27.9168 0.0000
# 6 0.0000 0.0000 0.0000 2.9468 0.0000 19.2799
#
#
#
# Elastic Compliance Matrix: (Units=1/GPa)
#
#
# Indices 1 2 3 4 5 6 
#
# 1 0.058603 -0.009576 0.000886 0.000000 -0.021726 0.000000
# 2 -0.009576 0.023973 -0.007335 0.000000 0.010816 0.000000
# 3 0.000886 -0.007335 0.010416 0.000000 -0.009154 0.000000
# 4 0.000000 0.000000 0.000000 0.022212 0.000000 -0.003395
# 5 -0.021726 0.010816 -0.009154 0.000000 0.051441 0.000000
# 6 0.000000 0.000000 0.000000 -0.003395 0.000000 0.052386
#
#
# Mechanical properties :
#
#
# Convention : Reuss Voigt Hill
#
# Bulk Modulus (GPa) = 16.40945 37.56690 26.98817
# Shear Modulus (GPa) = 18.42320 29.34065 23.88192
#
# Velocity S-wave (km/s) = 3.16126 3.98944 3.59925
# Velocity P-wave (km/s) = 4.71444 6.44971 5.64910
#
# Compressibility (1/GPa) = 0.06094050
#
# Stress axis : x y z
#
# Youngs Moduli (GPa) = 17.06389 41.71342 96.00637
#
# Poissons Ratio (x) = 0.39946 -0.08504
# Poissons Ratio (y) = 0.16341 0.70425
# Poissons Ratio (z) = -0.01511 0.30599
#
# Static dielectric constant tensor:
#      x y z
#    x 1.654940 0.000000 -0.010720 
#    y 0.000000 1.619550 0.000000 
#    z -0.010720 0.000000 1.704730 
# 
# From -- ./inp_files/87735.got.cif
#   From: 2010.05.17/outbox.cif.g08.bks.cpg/sg12_44_cif.got.tgz:87735.got - 2010.06.03 13:09:07.
