data_PCOD9191607
_publ_section_title
;
Structure prediction by ZEFSAII (Michael W. Deem and Ramdas Pophale) SiO2 
 PCOD9191607
Probable space group: C 2/M
;
_chemical_formula_sum "Si O2"
_cell_formula_units_Z 60
_cell_length_a 28.857521
_cell_length_b 13.221452
_cell_length_c 23.283942
_cell_angle_alpha 90.000000
_cell_angle_beta 156.407798
_cell_angle_gamma 90.000000
_cell_volume 3555.479244
_symmetry_space_group_name_H-M "C 2/M"
_symmetry_group_IT_number 12
_symmetry_cell_setting 'monoclinic'
loop_
_space_group_symop_operation_xyz
x,y,z
-x,y,-z
-x,-y,-z
x,-y,z
1/2+x,1/2+y,z
1/2-x,1/2+y,-z
1/2-x,1/2-y,-z
1/2+x,1/2-y,z
loop_
_atom_site_type_symbol
_atom_site_label
_atom_site_fract_x
_atom_site_fract_y
_atom_site_fract_z
Si Si1 0.684943 0.620525 0.887296
Si Si2 0.106934 0.877897 0.926713
Si Si3 0.062241 0.618942 0.788077
Si Si4 0.151842 0.878940 0.346728
Si Si5 0.344943 0.738103 0.534082
Si Si6 0.500000 0.254838 0.500000
Si Si7 0.536636 0.621665 0.434199
Si Si8 0.648197 0.119659 0.753547
O O1 0.691579 0.500000 0.893472
O O2 0.621922 0.645492 0.876044
O O3 0.596560 0.647827 0.736374
O O4 0.819477 0.650806 0.044376
O O5 0.983517 0.850573 0.812612
O O6 0.111330 0.000000 0.933172
O O7 0.220136 0.842936 0.088873
O O8 0.039741 0.500000 0.774673
O O9 0.093091 0.626503 0.755108
O O10 0.950493 0.687184 0.672085
O O11 0.235635 0.812363 0.402349
O O12 0.180438 0.841905 0.444040
O O13 0.166017 0.000000 0.356474
O O14 0.383893 0.675400 0.522966
O O15 0.439731 0.328447 0.477678
O O16 0.581845 0.182490 0.630434
O O17 0.548402 0.500000 0.446965
O O18 0.647806 0.000000 0.738614
#
# Coordination Sequence:
#
# PCOD9191607 Si02
#       8
#     8   8   8   8   8   4   8   8
#     4   8  15  29  51  74 103 136 162 202 260 309
#     4   8  14  29  52  76 103 133 161 203 259 310
#     4   9  17  31  50  79 109 131 162 207 262 318
#     4  10  20  33  50  76 107 136 171 208 251 311
#     4  11  20  31  51  76 105 142 170 204 259 301
#     4  12  22  34  50  78 104 142 178 206 250 300
#     4  11  22  36  50  72 105 141 178 213 247 299
#     4   9  18  32  52  78 107 132 163 210 260 310
#
# _framework density 16.875363
#
# number of rings (size 3 to 8) (size 9 to 14) (size 15 to 20)
#    0.000    2.400    2.667    2.800    0.000    1.600 
#    0.000    0.000    0.000    0.800    0.000    6.533 
#    0.000    0.000    0.000    0.000    0.000    0.000 
#
# Total GULP energy -167208.577028 kJ/mol
# GULP energy per Si atom -5573.619234 kJ/mol
# Density = 1.683695 g / cm^3
# Si number density = 16.875363 Si / 1000 Ang^3
#
#
#
# Elastic Constant Matrix: (Units=GPa)
#
#
# Indices 1 2 3 4 5 6 
#
# 1 31.8475 16.9887 -4.2004 0.0000 -8.7929 0.0000
# 2 16.9887 96.7116 11.8330 0.0000 -2.4155 0.0000
# 3 -4.2004 11.8330 41.8193 0.0000 0.2199 0.0000
# 4 0.0000 0.0000 0.0000 29.1546 0.0000 1.2024
# 5 -8.7929 -2.4155 0.2199 0.0000 23.4991 0.0000
# 6 0.0000 0.0000 0.0000 1.2024 0.0000 27.8511
#
#
#
# Elastic Compliance Matrix: (Units=1/GPa)
#
#
# Indices 1 2 3 4 5 6 
#
# 1 0.040072 -0.007426 0.006052 0.000000 0.014174 0.000000
# 2 -0.007426 0.012117 -0.004167 0.000000 -0.001494 0.000000
# 3 0.006052 -0.004167 0.025691 0.000000 0.001596 0.000000
# 4 0.000000 0.000000 0.000000 0.034361 0.000000 -0.001483
# 5 0.014174 -0.001494 0.001596 0.000000 0.047690 0.000000
# 6 0.000000 0.000000 0.000000 -0.001483 0.000000 0.035969
#
#
# Mechanical properties :
#
#
# Convention : Reuss Voigt Hill
#
# Bulk Modulus (GPa) = 14.97034 24.40233 19.68633
# Shear Modulus (GPa) = 21.81044 25.81811 23.81427
#
# Velocity S-wave (km/s) = 3.59896 3.91567 3.76065
# Velocity P-wave (km/s) = 5.11472 5.91059 5.52700
#
# Compressibility (1/GPa) = 0.06679877
#
# Stress axis : x y z
#
# Youngs Moduli (GPa) = 24.95488 82.52931 38.92450
#
# Poissons Ratio (x) = 0.61283 -0.23555
# Poissons Ratio (y) = 0.18531 0.16218
# Poissons Ratio (z) = -0.15102 0.34386
#
# Static dielectric constant tensor:
#      x y z
#    x 1.547460 0.000000 0.017520 
#    y 0.000000 1.619010 0.000000 
#    z 0.017520 0.000000 1.600250 
# 
# From -- ./inp_files/354177.got.cif
#   From: 2010.05.17/outbox.cif.g08.bks.cpg/sg12_178_cif.got.tgz:354177.got - 2010.06.03 13:09:07.
