data_PCOD9191137
_publ_section_title
;
Structure prediction by ZEFSAII (Michael W. Deem and Ramdas Pophale) SiO2 
 PCOD9191137
Probable space group: C 2/M
;
_chemical_formula_sum "Si O2"
_cell_formula_units_Z 52
_cell_length_a 20.286044
_cell_length_b 7.473850
_cell_length_c 19.933162
_cell_angle_alpha 90.000000
_cell_angle_beta 142.769187
_cell_angle_gamma 90.000000
_cell_volume 1828.491619
_symmetry_space_group_name_H-M "C 2/M"
_symmetry_group_IT_number 12
_symmetry_cell_setting 'monoclinic'
loop_
_space_group_symop_operation_xyz
x,y,z
-x,y,-z
-x,-y,-z
x,-y,z
1/2+x,1/2+y,z
1/2-x,1/2+y,-z
1/2-x,1/2-y,-z
1/2+x,1/2-y,z
loop_
_atom_site_type_symbol
_atom_site_label
_atom_site_fract_x
_atom_site_fract_y
_atom_site_fract_z
Si Si1 0.874169 0.290427 0.584799
Si Si2 0.026798 0.282759 0.831078
Si Si3 0.719656 0.295005 0.666571
Si Si4 0.377569 0.500000 0.752404
Si Si5 0.782889 0.292960 0.107207
Si Si6 0.943800 0.788904 0.360546
Si Si7 0.378992 0.720157 0.918336
O O1 0.888743 0.500000 0.599907
O O2 0.750000 0.250000 0.500000
O O3 0.947588 0.215057 0.705011
O O4 0.931446 0.234172 0.561832
O O5 0.018451 0.500000 0.831693
O O6 0.972515 0.156497 0.841959
O O7 0.145898 0.229830 0.898732
O O8 0.714832 0.500000 0.637874
O O9 0.781704 0.155629 0.670234
O O10 0.608372 0.226730 0.611840
O O11 0.799402 0.292408 0.796499
O O12 0.763979 0.500000 0.080407
O O13 0.871428 0.285516 0.240496
O O14 0.674928 0.215001 0.055080
O O15 0.925203 0.000000 0.347905
O O16 0.372572 0.500000 0.908128
O O17 0.500000 0.779602 0.000000
#
# Coordination Sequence:
#
# PCOD9191137 Si02
#       7
#     8   8   8   4   8   8   8
#     4  10  20  32  54  82 112 136 167 222 275 320
#     4   9  20  35  52  80 105 139 182 220 261 314
#     4  10  21  35  53  82 108 141 183 222 268 317
#     4  12  22  34  59  73 109 148 184 223 248 323
#     4   8  15  28  48  76 107 131 169 226 272 313
#     4   9  17  29  50  76 107 132 170 220 267 316
#     4   9  16  30  55  86 111 138 173 224 284 328
#
# _framework density 28.438741
#
# number of rings (size 3 to 8) (size 9 to 14) (size 15 to 20)
#    0.000    2.615    0.769    2.308    7.538    0.308 
#    0.000    0.000    0.000    2.769    0.000    4.308 
#    0.000    0.000    0.000    0.000    0.000    0.000 
#
# Total GULP energy -145123.846871 kJ/mol
# GULP energy per Si atom -5581.686418 kJ/mol
# Density = 2.837401 g / cm^3
# Si number density = 28.438741 Si / 1000 Ang^3
#
#
#
# Elastic Constant Matrix: (Units=GPa)
#
#
# Indices 1 2 3 4 5 6 
#
# 1 207.4957 41.1084 63.8882 0.0000 43.0376 0.0000
# 2 41.1084 150.8088 30.6363 0.0000 25.2120 0.0000
# 3 63.8882 30.6363 124.1111 0.0000 62.4856 0.0000
# 4 0.0000 0.0000 0.0000 30.3269 0.0000 31.6799
# 5 43.0376 25.2120 62.4856 0.0000 80.2034 0.0000
# 6 0.0000 0.0000 0.0000 31.6799 0.0000 -12.2662
#
#
#
# Elastic Compliance Matrix: (Units=1/GPa)
#
#
# Indices 1 2 3 4 5 6 
#
# 1 0.005939 -0.000973 -0.002248 0.000000 -0.001129 0.000000
# 2 -0.000973 0.007238 -0.000663 0.000000 -0.001236 0.000000
# 3 -0.002248 -0.000663 0.014259 0.000000 -0.009694 0.000000
# 4 0.000000 0.000000 0.000000 0.008917 0.000000 0.023030
# 5 -0.001129 -0.001236 -0.009694 0.000000 0.021015 0.000000
# 6 0.000000 0.000000 0.000000 0.023030 0.000000 -0.022046
#
#
# Mechanical properties :
#
#
# Convention : Reuss Voigt Hill
#
# Bulk Modulus (GPa) = 50.84978 83.74238 67.29608
# Shear Modulus (GPa) = 100.71278 42.77168 71.74223
#
# Velocity S-wave (km/s) = 5.95742 3.88234 5.02809
# Velocity P-wave (km/s) = 8.07715 7.04324 7.57785
#
# Compressibility (1/GPa) = 0.01966577
#
# Stress axis : x y z
#
# Youngs Moduli (GPa) = 168.38842 138.16725 70.13118
#
# Poissons Ratio (x) = 0.13448 0.15767
# Poissons Ratio (y) = 0.16389 0.04651
# Poissons Ratio (z) = 0.37858 0.09163
#
# Static dielectric constant tensor:
#      x y z
#    x 2.469860 0.000000 -0.117750 
#    y 0.000000 2.046480 0.000000 
#    z -0.117750 0.000000 2.373880 
# 
# From -- ./inp_files/365252.got.cif
#   From: 2010.05.17/outbox.cif.g08.bks.cpg/sg12_183_cif.got.tgz:365252.got - 2010.06.03 13:09:07.
