data_PCOD9191713
_publ_section_title
;
Structure prediction by ZEFSAII (Michael W. Deem and Ramdas Pophale) SiO2 
 PCOD9191713
Probable space group: C 2/M
;
_chemical_formula_sum "Si O2"
_cell_formula_units_Z 48
_cell_length_a 15.189694
_cell_length_b 7.376412
_cell_length_c 18.038021
_cell_angle_alpha 90.000000
_cell_angle_beta 87.027989
_cell_angle_gamma 90.000000
_cell_volume 2018.359633
_symmetry_space_group_name_H-M "C 2/M"
_symmetry_group_IT_number 12
_symmetry_cell_setting 'monoclinic'
loop_
_space_group_symop_operation_xyz
x,y,z
-x,y,-z
-x,-y,-z
x,-y,z
1/2+x,1/2+y,z
1/2-x,1/2+y,-z
1/2-x,1/2-y,-z
1/2+x,1/2-y,z
loop_
_atom_site_type_symbol
_atom_site_label
_atom_site_fract_x
_atom_site_fract_y
_atom_site_fract_z
Si Si1 0.722570 0.285147 0.085440
Si Si2 0.883405 0.281306 0.437748
Si Si3 0.976709 0.778231 0.916663
Si Si4 0.574761 0.221079 0.395463
Si Si5 0.369859 0.704019 0.193632
Si Si6 0.749227 0.791345 0.324122
O O1 0.725813 0.500000 0.099408
O O2 0.622164 0.223740 0.099139
O O3 0.793351 0.196080 0.135449
O O4 0.750000 0.250000 0.000000
O O5 0.879437 0.500000 0.436986
O O6 0.896852 0.225971 0.522319
O O7 0.796642 0.210667 0.401753
O O8 0.973142 0.224447 0.390866
O O9 0.046999 0.713814 0.852802
O O10 0.980346 0.000000 0.917432
O O11 0.000000 0.721726 0.000000
O O12 0.651040 0.285642 0.336760
O O13 0.575823 0.000000 0.393704
O O14 0.396905 0.500000 0.214971
O O15 0.320461 0.793207 0.265313
O O16 0.738494 0.000000 0.300218
#
# Coordination Sequence:
#
# PCOD9191713 Si02
#       6
#     8   8   8   8   8   8
#     4  11  21  35  57  79 100 129 168 211 251 302
#     4   9  17  32  54  74 100 138 177 207 247 308
#     4   9  17  33  55  73  97 132 163 196 250 310
#     4   8  16  32  52  75 102 138 173 207 255 304
#     4  10  21  37  53  74 104 139 170 204 256 308
#     4  10  20  33  51  75 106 135 168 213 258 297
#
# _framework density 23.781689
#
# number of rings (size 3 to 8) (size 9 to 14) (size 15 to 20)
#    0.000    2.500    1.667    2.000    0.000    2.000 
#    0.000    5.000    0.000    0.000    0.000    0.000 
#    0.000    0.000    0.000    0.000    0.000    0.000 
#
# Total GULP energy -134074.097573 kJ/mol
# GULP energy per Si atom -5586.420732 kJ/mol
# Density = 2.372756 g / cm^3
# Si number density = 23.781689 Si / 1000 Ang^3
#
#
#
# Elastic Constant Matrix: (Units=GPa)
#
#
# Indices 1 2 3 4 5 6 
#
# 1 123.1806 -1.6666 23.2971 0.0000 -47.7024 0.0000
# 2 -1.6666 92.0171 1.3674 0.0000 -8.5784 0.0000
# 3 23.2971 1.3674 63.6316 0.0000 -41.0074 0.0000
# 4 0.0000 0.0000 0.0000 -2.2988 0.0000 10.6121
# 5 -47.7024 -8.5784 -41.0074 0.0000 57.0333 0.0000
# 6 0.0000 0.0000 0.0000 10.6121 0.0000 6.5281
#
#
#
# Elastic Compliance Matrix: (Units=1/GPa)
#
#
# Indices 1 2 3 4 5 6 
#
# 1 0.012732 0.001469 0.004309 0.000000 0.013968 0.000000
# 2 0.001469 0.011274 0.002058 0.000000 0.004404 0.000000
# 3 0.004309 0.002058 0.030963 0.000000 0.026176 0.000000
# 4 0.000000 0.000000 0.000000 -0.051151 0.000000 0.083152
# 5 0.013968 0.004404 0.026176 0.000000 0.048699 0.000000
# 6 0.000000 0.000000 0.000000 0.083152 0.000000 0.018012
#
#
# Mechanical properties :
#
#
# Convention : Reuss Voigt Hill
#
# Bulk Modulus (GPa) = 14.15629 36.09171 25.12400
# Shear Modulus (GPa) = 63.77141 29.30796 46.53969
#
# Velocity S-wave (km/s) = 5.18397 3.51433 4.42855
# Velocity P-wave (km/s) = 6.46505 5.62819 6.06108
#
# Compressibility (1/GPa) = 0.07063996
#
# Stress axis : x y z
#
# Youngs Moduli (GPa) = 78.53989 88.69861 32.29706
#
# Poissons Ratio (x) = -0.13028 -0.13915
# Poissons Ratio (y) = -0.11536 -0.06647
# Poissons Ratio (z) = -0.33839 -0.18255
#
# Static dielectric constant tensor:
#      x y z
#    x 1.903580 0.000000 -0.041730 
#    y 0.000000 1.822530 0.000000 
#    z -0.041730 0.000000 1.916790 
# 
# From -- ./inp_files/307998.got.cif
#   From: 2010.05.17/outbox.cif.g08.bks.cpg/sg12_154_cif.got.tgz:307998.got - 2010.06.03 13:09:07.
