data_PCOD9191673
_publ_section_title
;
Structure prediction by ZEFSAII (Michael W. Deem and Ramdas Pophale) SiO2 
 PCOD9191673
Probable space group: C 2/M
;
_chemical_formula_sum "Si O2"
_cell_formula_units_Z 40
_cell_length_a 27.401304
_cell_length_b 7.316294
_cell_length_c 21.624465
_cell_angle_alpha 90.000000
_cell_angle_beta 157.791372
_cell_angle_gamma 90.000000
_cell_volume 1638.614560
_symmetry_space_group_name_H-M "C 2/M"
_symmetry_group_IT_number 12
_symmetry_cell_setting 'monoclinic'
loop_
_space_group_symop_operation_xyz
x,y,z
-x,y,-z
-x,-y,-z
x,-y,z
1/2+x,1/2+y,z
1/2-x,1/2+y,-z
1/2-x,1/2-y,-z
1/2+x,1/2-y,z
loop_
_atom_site_type_symbol
_atom_site_label
_atom_site_fract_x
_atom_site_fract_y
_atom_site_fract_z
Si Si1 0.628940 0.793124 0.447983
Si Si2 0.643897 0.777035 0.684788
Si Si3 0.858509 0.281499 0.179089
Si Si4 0.598624 0.278370 0.269790
Si Si5 0.097809 0.778258 0.062700
O O1 0.501357 0.709944 0.328759
O O2 0.599983 0.796231 0.340433
O O3 0.773953 0.715327 0.618409
O O4 0.641433 0.000000 0.487378
O O5 0.500000 0.717491 0.500000
O O6 0.677234 0.720576 0.793960
O O7 0.754783 0.716685 0.767517
O O8 0.643829 0.000000 0.683261
O O9 0.871774 0.500000 0.197416
O O10 0.750000 0.250000 0.000000
O O11 0.607581 0.500000 0.285237
O O12 0.470719 0.234218 0.082510
O O13 0.100416 0.000000 0.071284
O O14 0.000000 0.711604 0.000000
#
# Coordination Sequence:
#
# PCOD9191673 Si02
#       5
#     8   8   8   8   8
#     4   9  18  30  47  71  97 127 159 198 242 290
#     4   9  18  30  46  70 100 130 162 204 250 295
#     4  10  20  33  51  74 101 132 168 205 250 298
#     4   9  17  30  48  71  99 125 158 200 242 287
#     4   9  17  27  44  68  93 123 159 198 241 286
#
# _framework density 24.410865000000001
#
# number of rings (size 3 to 8) (size 9 to 14) (size 15 to 20)
#    0.000    2.800    0.000    1.200    2.800    2.400 
#    0.000    0.000    0.000    1.200    0.000    0.000 
#    0.000    0.000    0.000    0.000    0.000    0.000 
#
# Total GULP energy -111726.878733 kJ/mol
# GULP energy per Si atom -5586.343937 kJ/mol
# Density = 2.435531 g / cm^3
# Si number density = 24.410865 Si / 1000 Ang^3
#
#
#
# Elastic Constant Matrix: (Units=GPa)
#
#
# Indices 1 2 3 4 5 6 
#
# 1 117.2154 -2.7618 63.8797 0.0000 40.8999 0.0000
# 2 -2.7618 97.3249 -0.1326 0.0000 4.2690 0.0000
# 3 63.8797 -0.1326 144.1981 0.0000 37.9851 0.0000
# 4 0.0000 0.0000 0.0000 3.4441 0.0000 -4.5346
# 5 40.8999 4.2690 37.9851 0.0000 49.7220 0.0000
# 6 0.0000 0.0000 0.0000 -4.5346 0.0000 -1.8831
#
#
#
# Elastic Compliance Matrix: (Units=1/GPa)
#
#
# Indices 1 2 3 4 5 6 
#
# 1 0.013507 0.000741 -0.003805 0.000000 -0.008267 0.000000
# 2 0.000741 0.010365 0.000096 0.000000 -0.001572 0.000000
# 3 -0.003805 0.000096 0.009763 0.000000 -0.004337 0.000000
# 4 0.000000 0.000000 0.000000 0.069621 0.000000 -0.167648
# 5 -0.008267 -0.001572 -0.004337 0.000000 0.030360 0.000000
# 6 0.000000 0.000000 0.000000 -0.167648 0.000000 -0.127330
#
#
# Mechanical properties :
#
#
# Convention : Reuss Voigt Hill
#
# Bulk Modulus (GPa) = 36.10451 53.41211 44.75831
# Shear Modulus (GPa) = 233.02454 30.10681 131.56568
#
# Velocity S-wave (km/s) = 9.78093 3.51570 7.34938
# Velocity P-wave (km/s) = 11.93222 6.19743 9.50752
#
# Compressibility (1/GPa) = 0.02769737
#
# Stress axis : x y z
#
# Youngs Moduli (GPa) = 74.03464 96.47877 102.42673
#
# Poissons Ratio (x) = -0.07147 0.38976
# Poissons Ratio (y) = -0.05484 -0.00979
# Poissons Ratio (z) = 0.28172 -0.00922
#
# Static dielectric constant tensor:
#      x y z
#    x 1.919060 0.000000 0.033510 
#    y 0.000000 1.973240 0.000000 
#    z 0.033510 0.000000 1.915720 
# 
# From -- ./inp_files/83565.got.cif
#   From: 2010.05.17/outbox.cif.g08.bks.cpg/sg12_42_cif.got.tgz:83565.got - 2010.06.03 13:09:07.
