data_PCOD9191622
_publ_section_title
;
Structure prediction by ZEFSAII (Michael W. Deem and Ramdas Pophale) SiO2 
 PCOD9191622
Probable space group: C 2/M
;
_chemical_formula_sum "Si O2"
_cell_formula_units_Z 64
_cell_length_a 19.372720
_cell_length_b 8.159938
_cell_length_c 18.345341
_cell_angle_alpha 90.000000
_cell_angle_beta 63.044390
_cell_angle_gamma 90.000000
_cell_volume 2584.969418
_symmetry_space_group_name_H-M "C 2/M"
_symmetry_group_IT_number 12
_symmetry_cell_setting 'monoclinic'
loop_
_space_group_symop_operation_xyz
x,y,z
-x,y,-z
-x,-y,-z
x,-y,z
1/2+x,1/2+y,z
1/2-x,1/2+y,-z
1/2-x,1/2-y,-z
1/2+x,1/2-y,z
loop_
_atom_site_type_symbol
_atom_site_label
_atom_site_fract_x
_atom_site_fract_y
_atom_site_fract_z
Si Si1 0.510834 0.698869 0.360806
Si Si2 0.791763 0.321903 0.381393
Si Si3 0.361994 0.818369 0.510504
Si Si4 0.677627 0.802373 0.085892
Si Si5 0.322652 0.695170 0.746371
Si Si6 0.343867 0.805801 0.167032
Si Si7 0.063631 0.183800 0.751911
Si Si8 0.574564 0.799969 0.009179
O O1 0.508129 0.500000 0.360725
O O2 0.447070 0.753858 0.449902
O O3 0.598593 0.758381 0.328409
O O4 0.485136 0.756832 0.291662
O O5 0.811523 0.500000 0.338679
O O6 0.700404 0.292761 0.418268
O O7 0.819018 0.331670 0.452279
O O8 0.849014 0.186202 0.323118
O O9 0.366335 0.000000 0.539804
O O10 0.674604 0.726449 0.167705
O O11 0.678677 0.000000 0.091928
O O12 0.750000 0.750000 0.000000
O O13 0.600509 0.750427 0.077215
O O14 0.324167 0.500000 0.733897
O O15 0.238043 0.759550 0.764466
O O16 0.418728 0.773402 0.181131
O O17 0.357953 0.744380 0.078832
O O18 0.336322 0.000000 0.163613
O O19 0.037456 0.000000 0.778450
O O20 0.570888 0.000000 0.012660
O O21 0.500000 0.742495 0.000000
#
# Coordination Sequence:
#
# PCOD9191622 Si02
#       8
#     8   8   8   8   8   8   8   8
#     4   9  19  34  52  75 107 141 173 215 263 311
#     4   9  16  28  48  74 104 141 177 209 257 312
#     4   9  16  27  47  76 108 136 172 218 259 304
#     4  11  21  36  58  80 103 135 175 218 262 311
#     4  10  21  38  56  76 104 140 179 217 259 309
#     4  10  20  36  55  73 102 141 177 212 258 315
#     4  10  20  33  50  77 109 137 172 217 265 309
#     4   9  19  35  54  78 105 135 172 215 261 310
#
# _framework density 24.758512
#
# number of rings (size 3 to 8) (size 9 to 14) (size 15 to 20)
#    0.000    2.375    1.250    1.500    1.750    4.500 
#    0.000    0.000    0.000    2.625    0.000    5.250 
#    0.000    0.000    0.000    0.000    0.000    0.000 
#
# Total GULP energy -178617.471073 kJ/mol
# GULP energy per Si atom -5581.795971 kJ/mol
# Density = 2.470216 g / cm^3
# Si number density = 24.758512 Si / 1000 Ang^3
#
#
#
# Elastic Constant Matrix: (Units=GPa)
#
#
# Indices 1 2 3 4 5 6 
#
# 1 139.9528 3.3319 7.2218 0.0001 -9.6227 -0.0001
# 2 3.3319 35.8490 -1.1419 0.0002 -4.8102 -0.0003
# 3 7.2218 -1.1419 42.0321 0.0000 -9.2155 0.0000
# 4 0.0001 0.0002 0.0000 24.5775 0.0000 1.9895
# 5 -9.6227 -4.8102 -9.2155 0.0000 44.5767 0.0000
# 6 -0.0001 -0.0003 0.0000 1.9895 0.0000 14.9659
#
#
#
# Elastic Compliance Matrix: (Units=1/GPa)
#
#
# Indices 1 2 3 4 5 6 
#
# 1 0.007299 -0.000533 -0.000980 0.000000 0.001315 0.000000
# 2 -0.000533 0.028435 0.001583 0.000000 0.003281 0.000001
# 3 -0.000980 0.001583 0.025133 0.000000 0.005155 0.000000
# 4 0.000000 0.000000 0.000000 0.041130 0.000000 -0.005468
# 5 0.001315 0.003281 0.005155 0.000000 0.024137 0.000000
# 6 0.000000 0.000001 0.000000 -0.005468 0.000000 0.067545
#
#
# Mechanical properties :
#
#
# Convention : Reuss Voigt Hill
#
# Bulk Modulus (GPa) = 16.39149 26.29528 21.34339
# Shear Modulus (GPa) = 23.37812 30.71881 27.04846
#
# Velocity S-wave (km/s) = 3.07619 3.52623 3.30887
# Velocity P-wave (km/s) = 4.38773 5.21755 4.82053
#
# Compressibility (1/GPa) = 0.06100725
#
# Stress axis : x y z
#
# Youngs Moduli (GPa) = 137.00537 35.16795 39.78828
#
# Poissons Ratio (x) = 0.01875 0.03900
# Poissons Ratio (y) = 0.07304 -0.06300
# Poissons Ratio (z) = 0.13429 -0.05568
#
# Static dielectric constant tensor:
#      x y z
#    x 1.996020 0.000000 -0.016080 
#    y 0.000000 1.901650 0.000000 
#    z -0.016080 0.000000 2.036590 
# 
# From -- ./inp_files/319874.got.cif
#   From: 2010.05.17/outbox.cif.g08.bks.cpg/sg12_160_cif.got.tgz:319874.got - 2010.06.03 13:09:07.
