data_PCOD9191960
_publ_section_title
;
Structure prediction by ZEFSAII (Michael W. Deem and Ramdas Pophale) SiO2 
 PCOD9191960
Probable space group: C 2/M
;
_chemical_formula_sum "Si O2"
_cell_formula_units_Z 52
_cell_length_a 22.475224
_cell_length_b 9.612357
_cell_length_c 19.486504
_cell_angle_alpha 90.000000
_cell_angle_beta 43.366285
_cell_angle_gamma 90.000000
_cell_volume 2890.743147
_symmetry_space_group_name_H-M "C 2/M"
_symmetry_group_IT_number 12
_symmetry_cell_setting 'monoclinic'
loop_
_space_group_symop_operation_xyz
x,y,z
-x,y,-z
-x,-y,-z
x,-y,z
1/2+x,1/2+y,z
1/2-x,1/2+y,-z
1/2-x,1/2-y,-z
1/2+x,1/2-y,z
loop_
_atom_site_type_symbol
_atom_site_label
_atom_site_fract_x
_atom_site_fract_y
_atom_site_fract_z
Si Si1 0.500000 0.257940 0.500000
Si Si2 0.710992 0.836084 0.137503
Si Si3 0.126388 0.161927 0.086979
Si Si4 0.577866 0.155879 0.574432
Si Si5 0.061638 0.835857 0.719150
Si Si6 0.737188 0.335052 0.647441
Si Si7 0.814765 0.159299 0.704321
O O1 0.527949 0.173096 0.544252
O O2 0.586273 0.339572 0.406213
O O3 0.659600 0.767147 0.117287
O O4 0.690082 0.748746 0.222421
O O5 0.690927 0.000000 0.162409
O O6 0.811952 0.822681 0.030534
O O7 0.024382 0.185395 0.163448
O O8 0.137573 0.000000 0.100920
O O9 0.549355 0.261651 0.656663
O O10 0.679340 0.177455 0.472056
O O11 0.564986 0.000000 0.611058
O O12 0.149521 0.790764 0.682952
O O13 0.070621 0.000000 0.698850
O O14 0.731002 0.500000 0.671333
O O15 0.758084 0.240274 0.695241
O O16 0.787405 0.000000 0.737550
#
# Coordination Sequence:
#
# PCOD9191960 Si02
#       7
#     4   8   8   8   8   8   8
#     4  10  22  36  52  78 108 138 172 208 252 308
#     4  10  20  35  55  79 107 137 168 210 264 309
#     4   9  19  35  55  79 105 135 174 214 252 304
#     4  10  20  33  52  78 108 139 171 211 257 304
#     4  10  20  35  55  77 103 137 176 214 253 302
#     4   9  20  37  53  73 104 140 175 211 254 306
#     4  11  22  36  55  77 103 136 173 214 257 305
#
# _framework density 17.988454000000001
#
# number of rings (size 3 to 8) (size 9 to 14) (size 15 to 20)
#    0.000    2.154    0.000    2.769    0.000    9.231 
#    0.000    0.769    0.000    4.615    0.000    0.000 
#    0.000    0.000    0.000    0.000    0.000    0.000 
#
# Total GULP energy -145042.918668 kJ/mol
# GULP energy per Si atom -5578.573795 kJ/mol
# Density = 1.794751 g / cm^3
# Si number density = 17.988454 Si / 1000 Ang^3
#
#
#
# Elastic Constant Matrix: (Units=GPa)
#
#
# Indices 1 2 3 4 5 6 
#
# 1 75.6590 22.0399 40.0132 0.0000 -13.8071 -0.0001
# 2 22.0399 79.0118 42.2212 0.0001 6.4669 -0.0003
# 3 40.0132 42.2212 70.3526 0.0000 2.1323 0.0000
# 4 0.0000 0.0001 0.0000 20.7047 0.0000 -0.2292
# 5 -13.8071 6.4669 2.1323 0.0000 26.9055 0.0000
# 6 -0.0001 -0.0003 0.0000 -0.2292 0.0000 6.0250
#
#
#
# Elastic Compliance Matrix: (Units=1/GPa)
#
#
# Indices 1 2 3 4 5 6 
#
# 1 0.022482 -0.000397 -0.012932 0.000000 0.012657 0.000000
# 2 -0.000397 0.018993 -0.011055 0.000000 -0.003892 0.000001
# 3 -0.012932 -0.011055 0.028393 0.000000 -0.006230 0.000000
# 4 0.000000 0.000000 0.000000 0.048319 0.000000 0.001838
# 5 0.012657 -0.003892 -0.006230 0.000000 0.045092 0.000000
# 6 0.000000 0.000001 0.000000 0.001838 0.000000 0.166044
#
#
# Mechanical properties :
#
#
# Convention : Reuss Voigt Hill
#
# Bulk Modulus (GPa) = 47.39321 48.17468 47.78395
# Shear Modulus (GPa) = 12.98290 18.77700 15.87995
#
# Velocity S-wave (km/s) = 2.68943 3.23435 2.97439
# Velocity P-wave (km/s) = 6.00397 6.38647 6.19817
#
# Compressibility (1/GPa) = 0.02110007
#
# Stress axis : x y z
#
# Youngs Moduli (GPa) = 44.48005 52.65142 35.22045
#
# Poissons Ratio (x) = 0.02088 0.45548
# Poissons Ratio (y) = 0.01764 0.38935
# Poissons Ratio (z) = 0.57523 0.58205
#
# Static dielectric constant tensor:
#      x y z
#    x 1.601670 0.000000 -0.032090 
#    y 0.000000 1.608540 0.000000 
#    z -0.032090 0.000000 1.617880 
# 
# From -- ./inp_files/282090.got.cif
#   From: 2010.05.17/outbox.cif.g08.bks.cpg/sg12_142_cif.got.tgz:282090.got - 2010.06.03 13:09:07.
