data_PCOD9191344
_publ_section_title
;
Structure prediction by ZEFSAII (Michael W. Deem and Ramdas Pophale) SiO2 
 PCOD9191344
Probable space group: C 2/M
;
_chemical_formula_sum "Si O2"
_cell_formula_units_Z 56
_cell_length_a 13.709659
_cell_length_b 8.740347
_cell_length_c 20.271996
_cell_angle_alpha 90.000000
_cell_angle_beta 71.095008
_cell_angle_gamma 90.000000
_cell_volume 2298.101489
_symmetry_space_group_name_H-M "C 2/M"
_symmetry_group_IT_number 12
_symmetry_cell_setting 'monoclinic'
loop_
_space_group_symop_operation_xyz
x,y,z
-x,y,-z
-x,-y,-z
x,-y,z
1/2+x,1/2+y,z
1/2-x,1/2+y,-z
1/2-x,1/2-y,-z
1/2+x,1/2-y,z
loop_
_atom_site_type_symbol
_atom_site_label
_atom_site_fract_x
_atom_site_fract_y
_atom_site_fract_z
Si Si1 0.919992 0.678928 0.775347
Si Si2 0.650014 0.315470 0.484015
Si Si3 0.358095 0.177642 0.197567
Si Si4 0.526059 0.322532 0.631611
Si Si5 0.751803 0.177678 0.340593
Si Si6 0.310438 0.176188 0.924740
Si Si7 0.506143 0.668666 0.921535
O O1 0.896456 0.500000 0.775494
O O2 0.834008 0.744746 0.845453
O O3 0.032297 0.692592 0.786669
O O4 0.945272 0.742008 0.697440
O O5 0.650684 0.500000 0.484770
O O6 0.750000 0.250000 0.500000
O O7 0.555115 0.265658 0.551744
O O8 0.668911 0.259032 0.405735
O O9 0.274431 0.243922 0.265843
O O10 0.382741 0.280467 0.128620
O O11 0.340620 0.000000 0.186734
O O12 0.496658 0.500000 0.632984
O O13 0.637443 0.315545 0.645071
O O14 0.726303 0.000000 0.338552
O O15 0.427661 0.194460 0.924489
O O16 0.277563 0.000000 0.926594
O O17 0.250000 0.250000 0.000000
O O18 0.479295 0.500000 0.898110
O O19 0.500000 0.651345 0.000000
#
# Coordination Sequence:
#
# PCOD9191344 Si02
#       7
#     8   8   8   8   8   8   8
#     4   8  15  25  37  54  75 101 135 173 213 258
#     4   9  15  21  28  42  65  94 130 169 208 251
#     4   9  16  26  40  57  78 106 140 178 218 262
#     4   8  14  21  30  45  66  95 130 167 206 249
#     4   9  15  22  32  47  68  97 133 171 211 255
#     4  10  20  33  49  69  92 120 154 192 233 276
#     4  10  20  33  49  69  93 121 153 190 231 275
#
# _framework density 24.367939
#
# number of rings (size 3 to 8) (size 9 to 14) (size 15 to 20)
#    0.000    3.000    0.000    3.857    0.000    9.143 
#    0.000    0.000    0.000    0.000    0.000    0.000 
#    0.000    0.000    0.000    1.286    0.000   25.429 
#
# Total GULP energy -156238.089602 kJ/mol
# GULP energy per Si atom -5579.931771 kJ/mol
# Density = 2.431248 g / cm^3
# Si number density = 24.367939 Si / 1000 Ang^3
#
#
#
# Elastic Constant Matrix: (Units=GPa)
#
#
# Indices 1 2 3 4 5 6 
#
# 1 64.3512 1.6477 33.8661 0.0000 -25.4815 0.0000
# 2 1.6477 89.1146 94.2363 0.0000 -15.1279 0.0000
# 3 33.8661 94.2363 320.3138 0.0000 -28.5082 0.0000
# 4 0.0000 0.0000 0.0000 33.6881 0.0000 0.6808
# 5 -25.4815 -15.1279 -28.5082 0.0000 41.6247 0.0000
# 6 0.0000 0.0000 0.0000 0.6808 0.0000 5.9059
#
#
#
# Elastic Compliance Matrix: (Units=1/GPa)
#
#
# Indices 1 2 3 4 5 6 
#
# 1 0.022032 0.004459 -0.002446 0.000000 0.013433 0.000000
# 2 0.004459 0.017506 -0.005125 0.000000 0.005582 0.000000
# 3 -0.002446 -0.005125 0.004887 0.000000 -0.000013 0.000000
# 4 0.000000 0.000000 0.000000 0.029753 0.000000 -0.003430
# 5 0.013433 0.005582 -0.000013 0.000000 0.034267 0.000000
# 6 0.000000 0.000000 0.000000 -0.003430 0.000000 0.169719
#
#
# Mechanical properties :
#
#
# Convention : Reuss Voigt Hill
#
# Bulk Modulus (GPa) = 26.17649 81.47553 53.82601
# Shear Modulus (GPa) = 16.82812 39.17904 28.00358
#
# Velocity S-wave (km/s) = 2.63075 4.01410 3.39366
# Velocity P-wave (km/s) = 4.47139 7.41567 6.12313
#
# Compressibility (1/GPa) = 0.03820222
#
# Stress axis : x y z
#
# Youngs Moduli (GPa) = 45.38908 57.12257 204.61766
#
# Poissons Ratio (x) = -0.25473 0.50045
# Poissons Ratio (y) = -0.20240 1.04866
# Poissons Ratio (z) = 0.11101 0.29275
#
# Static dielectric constant tensor:
#      x y z
#    x 1.960600 0.000000 0.034130 
#    y 0.000000 1.874340 0.000000 
#    z 0.034130 0.000000 2.002160 
# 
# From -- ./inp_files/345452.got.cif
#   From: 2010.05.17/outbox.cif.g08.bks.cpg/sg12_173_cif.got.tgz:345452.got - 2010.06.03 13:09:07.
