data_PCOD9191976
_publ_section_title
;
Structure prediction by ZEFSAII (Michael W. Deem and Ramdas Pophale) SiO2 
 PCOD9191976
Probable space group: C 2/M
;
_chemical_formula_sum "Si O2"
_cell_formula_units_Z 64
_cell_length_a 11.269380
_cell_length_b 12.627880
_cell_length_c 20.589334
_cell_angle_alpha 90.000000
_cell_angle_beta 76.619774
_cell_angle_gamma 90.000000
_cell_volume 2850.501288
_symmetry_space_group_name_H-M "C 2/M"
_symmetry_group_IT_number 12
_symmetry_cell_setting 'monoclinic'
loop_
_space_group_symop_operation_xyz
x,y,z
-x,y,-z
-x,-y,-z
x,-y,z
1/2+x,1/2+y,z
1/2-x,1/2+y,-z
1/2-x,1/2-y,-z
1/2+x,1/2-y,z
loop_
_atom_site_type_symbol
_atom_site_label
_atom_site_fract_x
_atom_site_fract_y
_atom_site_fract_z
Si Si1 0.118932 0.118077 0.442192
Si Si2 0.383293 0.170295 0.738139
Si Si3 0.632577 0.118508 0.766763
Si Si4 0.927983 0.835754 0.945547
Si Si5 0.256087 0.274721 0.356050
Si Si6 0.490048 0.615756 0.688882
Si Si7 0.658447 0.314168 0.849823
Si Si8 0.307384 0.119910 0.959403
O O1 0.215699 0.213097 0.425581
O O2 0.000000 0.140485 0.500000
O O3 0.073697 0.112578 0.373256
O O4 0.165340 0.000000 0.454189
O O5 0.492679 0.112622 0.759989
O O6 0.356924 0.164567 0.664464
O O7 0.426004 0.293538 0.739962
O O8 0.253454 0.141096 0.785481
O O9 0.698071 0.183580 0.700615
O O10 0.644361 0.192240 0.828683
O O11 0.680602 0.000000 0.768537
O O12 0.910182 0.708497 0.953631
O O13 0.021464 0.857769 0.875457
O O14 0.790450 0.877587 0.968972
O O15 0.000000 0.874819 0.000000
O O16 0.371945 0.350086 0.344661
O O17 0.485956 0.500000 0.719414
O O18 0.728732 0.337793 0.907832
O O19 0.349430 0.000000 0.943744
#
# Coordination Sequence:
#
# PCOD9191976 Si02
#       8
#     8   8   8   8   8   8   8   8
#     4   9  17  30  50  76 104 137 178 219 259 305
#     4   9  19  33  50  74 102 130 167 208 251 305
#     4  10  20  35  54  75 102 135 169 208 255 304
#     4   9  20  37  57  79 104 130 168 210 247 300
#     4   9  18  33  53  75 103 136 173 214 259 309
#     4   9  18  33  51  72 102 138 172 211 258 307
#     4  10  20  33  52  79 104 128 166 208 248 299
#     4  10  21  39  59  77 104 139 170 207 254 303
#
# _framework density 22.452190999999999
#
# number of rings (size 3 to 8) (size 9 to 14) (size 15 to 20)
#    0.000    2.625    0.000    1.125    0.000    8.500 
#    0.000   10.000    0.000   19.875    0.000    0.000 
#    0.000    0.000    0.000    0.000    0.000    0.000 
#
# Total GULP energy -178276.683605 kJ/mol
# GULP energy per Si atom -5571.146363 kJ/mol
# Density = 2.240109 g / cm^3
# Si number density = 22.452191 Si / 1000 Ang^3
#
#
#
# Elastic Constant Matrix: (Units=GPa)
#
#
# Indices 1 2 3 4 5 6 
#
# 1 70.5439 9.6235 7.2157 0.0000 -15.3194 0.0000
# 2 9.6235 104.3714 12.1679 0.0000 -1.8951 0.0000
# 3 7.2157 12.1679 69.9076 0.0000 -25.1332 0.0000
# 4 0.0000 0.0000 0.0000 13.1344 0.0000 2.1103
# 5 -15.3194 -1.8951 -25.1332 0.0000 29.1649 0.0000
# 6 0.0000 0.0000 0.0000 2.1103 0.0000 -13.9189
#
#
#
# Elastic Compliance Matrix: (Units=1/GPa)
#
#
# Indices 1 2 3 4 5 6 
#
# 1 0.016451 -0.001603 0.002391 0.000000 0.010598 0.000000
# 2 -0.001603 0.009965 -0.002375 0.000000 -0.002241 0.000000
# 3 0.002391 -0.002375 0.021541 0.000000 0.019665 0.000000
# 4 0.000000 0.000000 0.000000 0.074326 0.000000 0.011269
# 5 0.010598 -0.002241 0.019665 0.000000 0.056655 0.000000
# 6 0.000000 0.000000 0.000000 0.011269 0.000000 -0.070136
#
#
# Mechanical properties :
#
#
# Convention : Reuss Voigt Hill
#
# Bulk Modulus (GPa) = 22.32962 33.64856 27.98909
# Shear Modulus (GPa) = 39.40007 20.06380 29.73194
#
# Velocity S-wave (km/s) = 4.19363 2.99260 3.64295
# Velocity P-wave (km/s) = 5.78063 5.19232 5.49435
#
# Compressibility (1/GPa) = 0.04478356
#
# Stress axis : x y z
#
# Youngs Moduli (GPa) = 60.78625 100.34977 46.42296
#
# Poissons Ratio (x) = 0.16088 -0.11100
# Poissons Ratio (y) = 0.09745 0.11024
# Poissons Ratio (z) = -0.14534 0.23830
#
# Static dielectric constant tensor:
#      x y z
#    x 1.889230 0.000000 -0.008820 
#    y 0.000000 1.883760 0.000000 
#    z -0.008820 0.000000 1.867480 
# 
# From -- ./inp_files/335622.got.cif
#   From: 2010.05.17/outbox.cif.g08.bks.cpg/sg12_168_cif.got.tgz:335622.got - 2010.06.03 13:09:07.
