data_PCOD9191857
_publ_section_title
;
Structure prediction by ZEFSAII (Michael W. Deem and Ramdas Pophale) SiO2 
 PCOD9191857
Probable space group: C 2/M
;
_chemical_formula_sum "Si O2"
_cell_formula_units_Z 56
_cell_length_a 30.534453
_cell_length_b 9.028490
_cell_length_c 13.498807
_cell_angle_alpha 90.000000
_cell_angle_beta 51.975024
_cell_angle_gamma 90.000000
_cell_volume 2931.465737
_symmetry_space_group_name_H-M "C 2/M"
_symmetry_group_IT_number 12
_symmetry_cell_setting 'monoclinic'
loop_
_space_group_symop_operation_xyz
x,y,z
-x,y,-z
-x,-y,-z
x,-y,z
1/2+x,1/2+y,z
1/2-x,1/2+y,-z
1/2-x,1/2-y,-z
1/2+x,1/2-y,z
loop_
_atom_site_type_symbol
_atom_site_label
_atom_site_fract_x
_atom_site_fract_y
_atom_site_fract_z
Si Si1 0.909495 0.173145 0.175937
Si Si2 0.018188 0.172045 0.724097
Si Si3 0.189805 0.677080 0.575608
Si Si4 0.815664 0.825991 0.016607
Si Si5 0.382696 0.823449 0.518877
Si Si6 0.686932 0.824167 0.191294
Si Si7 0.419869 0.175397 0.960421
O O1 0.948744 0.183484 0.217364
O O2 0.852020 0.251641 0.286502
O O3 0.900785 0.000000 0.165832
O O4 0.934365 0.253258 0.046021
O O5 0.060535 0.239012 0.585131
O O6 0.961797 0.261943 0.819233
O O7 0.006581 0.000000 0.721108
O O8 0.193026 0.500000 0.583824
O O9 0.250000 0.750000 0.500000
O O10 0.161250 0.707181 0.508471
O O11 0.821458 0.771666 0.895220
O O12 0.858172 0.731126 0.021272
O O13 0.828605 0.000000 0.007662
O O14 0.751094 0.803964 0.134861
O O15 0.354600 0.785273 0.662306
O O16 0.393198 0.000000 0.502333
O O17 0.680513 0.000000 0.176808
O O18 0.423247 0.000000 0.960052
#
# Coordination Sequence:
#
# PCOD9191857 Si02
#       7
#     8   8   8   8   8   8   8
#     4  10  21  37  56  79 112 151 190 233 282 333
#     4  10  21  38  58  83 113 149 189 233 280 334
#     4  10  20  33  51  80 115 151 190 231 275 330
#     4  10  21  37  59  86 115 147 185 233 281 335
#     4   9  19  36  58  81 110 150 187 226 282 337
#     4   9  19  38  61  84 113 148 184 228 285 340
#     4  12  24  37  57  84 114 149 190 236 280 335
#
# _framework density 19.103071
#
# number of rings (size 3 to 8) (size 9 to 14) (size 15 to 20)
#    0.000    2.000    0.000    3.429    2.000    5.143 
#    0.000    0.714    0.000    4.286    0.000    0.000 
#    0.000    0.000    0.000    0.000    0.000    0.000 
#
# Total GULP energy -156434.566738 kJ/mol
# GULP energy per Si atom -5586.948812 kJ/mol
# Density = 1.905959 g / cm^3
# Si number density = 19.103071 Si / 1000 Ang^3
#
#
#
# Elastic Constant Matrix: (Units=GPa)
#
#
# Indices 1 2 3 4 5 6 
#
# 1 11.1986 8.4221 -6.9863 0.0000 -3.2975 0.0000
# 2 8.4221 77.2973 29.2303 0.0000 -5.1144 0.0000
# 3 -6.9863 29.2303 101.8091 0.0000 -8.4512 0.0000
# 4 0.0000 0.0000 0.0000 31.8752 0.0000 -2.2759
# 5 -3.2975 -5.1144 -8.4512 0.0000 15.6764 0.0000
# 6 0.0000 0.0000 0.0000 -2.2759 0.0000 26.4760
#
#
#
# Elastic Compliance Matrix: (Units=1/GPa)
#
#
# Indices 1 2 3 4 5 6 
#
# 1 0.120034 -0.017073 0.015464 0.000000 0.028015 0.000000
# 2 -0.017073 0.017043 -0.006178 0.000000 -0.001361 0.000000
# 3 0.015464 -0.006178 0.013358 0.000000 0.008438 0.000000
# 4 0.000000 0.000000 0.000000 0.031566 0.000000 0.002713
# 5 0.028015 -0.001361 0.008438 0.000000 0.073788 0.000000
# 6 0.000000 0.000000 0.000000 0.002713 0.000000 0.038003
#
#
# Mechanical properties :
#
#
# Convention : Reuss Voigt Hill
#
# Bulk Modulus (GPa) = 7.41499 27.95971 17.68735
# Shear Modulus (GPa) = 14.11157 25.44812 19.77985
#
# Velocity S-wave (km/s) = 2.72086 3.65382 3.22130
# Velocity P-wave (km/s) = 3.70956 5.69812 4.80777
#
# Compressibility (1/GPa) = 0.13486189
#
# Stress axis : x y z
#
# Youngs Moduli (GPa) = 8.33099 58.67382 74.86333
#
# Poissons Ratio (x) = 1.00172 -1.15770
# Poissons Ratio (y) = 0.14223 0.46250
# Poissons Ratio (z) = -0.12883 0.36248
#
# Static dielectric constant tensor:
#      x y z
#    x 1.666230 0.000000 0.002520 
#    y 0.000000 1.634090 0.000000 
#    z 0.002520 0.000000 1.656900 
# 
# From -- ./inp_files/187214.got.cif
#   From: 2010.05.17/outbox.cif.g08.bks.cpg/sg12_94_cif.got.tgz:187214.got - 2010.06.03 13:09:07.
