data_PCOD9191180
_publ_section_title
;
Structure prediction by ZEFSAII (Michael W. Deem and Ramdas Pophale) SiO2 
 PCOD9191180
Probable space group: C 2/M
;
_chemical_formula_sum "Si O2"
_cell_formula_units_Z 36
_cell_length_a 30.809799
_cell_length_b 10.510662
_cell_length_c 5.486758
_cell_angle_alpha 90.000000
_cell_angle_beta 88.154786
_cell_angle_gamma 90.000000
_cell_volume 1775.863104
_symmetry_space_group_name_H-M "C 2/M"
_symmetry_group_IT_number 12
_symmetry_cell_setting 'monoclinic'
loop_
_space_group_symop_operation_xyz
x,y,z
-x,y,-z
-x,-y,-z
x,-y,z
1/2+x,1/2+y,z
1/2-x,1/2+y,-z
1/2-x,1/2-y,-z
1/2+x,1/2-y,z
loop_
_atom_site_type_symbol
_atom_site_label
_atom_site_fract_x
_atom_site_fract_y
_atom_site_fract_z
Si Si1 0.451424 0.139663 0.889896
Si Si2 0.000000 0.772938 0.500000
Si Si3 0.339264 0.650841 0.519554
Si Si4 0.075877 0.858603 0.778599
Si Si5 0.791280 0.842764 0.023720
O O1 0.463631 0.181296 0.617637
O O2 0.432220 0.000000 0.912702
O O3 0.500000 0.136579 0.000000
O O4 0.423917 0.248749 0.022177
O O5 0.973221 0.856623 0.315460
O O6 0.333936 0.500000 0.530036
O O7 0.389324 0.671398 0.437791
O O8 0.312276 0.690238 0.283131
O O9 0.322291 0.692361 0.787234
O O10 0.086245 0.000000 0.873737
O O11 0.783637 0.000000 0.020428
O O12 0.750000 0.750000 0.000000
#
# Coordination Sequence:
#
# PCOD9191180 Si02
#       5
#     8   4   8   8   8
#     4   9  19  35  52  72 103 146 191 235 286 340
#     4  10  20  32  56  80 108 150 198 238 286 328
#     4   9  20  36  59  86 118 154 188 230 290 349
#     4  10  21  35  54  82 113 148 193 242 284 334
#     4  10  20  38  62  87 114 150 188 231 288 352
#
# _framework density 20.271832
#
# number of rings (size 3 to 8) (size 9 to 14) (size 15 to 20)
#    0.000    2.444    0.000    1.333    3.111    5.778 
#    0.000    2.222    0.000    0.000    0.000    0.000 
#    0.000    0.000    0.000    0.000    0.000    0.000 
#
# Total GULP energy -100214.630029 kJ/mol
# GULP energy per Si atom -5567.479446 kJ/mol
# Density = 2.022569 g / cm^3
# Si number density = 20.271832 Si / 1000 Ang^3
#
#
#
# Elastic Constant Matrix: (Units=GPa)
#
#
# Indices 1 2 3 4 5 6 
#
# 1 59.2476 25.2099 14.2138 0.0000 0.7126 0.0000
# 2 25.2099 120.4382 40.3436 0.0000 -19.4538 0.0000
# 3 14.2138 40.3436 96.2416 0.0000 -21.9479 0.0000
# 4 0.0000 0.0000 0.0000 14.8203 0.0000 -2.3781
# 5 0.7126 -19.4538 -21.9479 0.0000 35.8545 0.0000
# 6 0.0000 0.0000 0.0000 -2.3781 0.0000 15.4289
#
#
#
# Elastic Compliance Matrix: (Units=1/GPa)
#
#
# Indices 1 2 3 4 5 6 
#
# 1 0.019078 -0.003919 -0.002030 0.000000 -0.003748 0.000000
# 2 -0.003919 0.010793 -0.003013 0.000000 0.004090 0.000000
# 3 -0.002030 -0.003013 0.013470 0.000000 0.006651 0.000000
# 4 0.000000 0.000000 0.000000 0.069186 0.000000 0.010664
# 5 -0.003748 0.004090 0.006651 0.000000 0.034255 0.000000
# 6 0.000000 0.000000 0.000000 0.010664 0.000000 0.066457
#
#
# Mechanical properties :
#
#
# Convention : Reuss Voigt Hill
#
# Bulk Modulus (GPa) = 39.34176 48.38466 43.86321
# Shear Modulus (GPa) = 20.86511 26.29810 23.58160
#
# Velocity S-wave (km/s) = 3.21170 3.60567 3.41437
# Velocity P-wave (km/s) = 5.76217 6.42295 6.10151
#
# Compressibility (1/GPa) = 0.02541829
#
# Stress axis : x y z
#
# Youngs Moduli (GPa) = 52.41705 92.65139 74.23886
#
# Poissons Ratio (x) = 0.36309 0.15067
# Poissons Ratio (y) = 0.20541 0.22368
# Poissons Ratio (z) = 0.10638 0.27916
#
# Static dielectric constant tensor:
#      x y z
#    x 1.777510 0.000000 0.050780 
#    y 0.000000 1.715730 0.000000 
#    z 0.050780 0.000000 1.818860 
# 
# From -- ./inp_files/23605.got.cif
#   From: 2010.05.17/outbox.cif.g08.bks.cpg/sg12_12_cif.got.tgz:23605.got - 2010.06.03 13:09:07.
