data_PCOD9191584
_publ_section_title
;
Structure prediction by ZEFSAII (Michael W. Deem and Ramdas Pophale) SiO2 
 PCOD9191584
Probable space group: C 2/M
;
_chemical_formula_sum "Si O2"
_cell_formula_units_Z 60
_cell_length_a 23.047256
_cell_length_b 22.400482
_cell_length_c 5.240138
_cell_angle_alpha 90.000000
_cell_angle_beta 115.711967
_cell_angle_gamma 90.000000
_cell_volume 2437.460360
_symmetry_space_group_name_H-M "C 2/M"
_symmetry_group_IT_number 12
_symmetry_cell_setting 'monoclinic'
loop_
_space_group_symop_operation_xyz
x,y,z
-x,y,-z
-x,-y,-z
x,-y,z
1/2+x,1/2+y,z
1/2-x,1/2+y,-z
1/2-x,1/2-y,-z
1/2+x,1/2-y,z
loop_
_atom_site_type_symbol
_atom_site_label
_atom_site_fract_x
_atom_site_fract_y
_atom_site_fract_z
Si Si1 0.081145 0.228625 0.993017
Si Si2 0.768201 0.364640 0.680367
Si Si3 0.352054 0.688439 0.354602
Si Si4 0.266128 0.065753 0.184532
Si Si5 0.000000 0.871382 0.000000
Si Si6 0.577886 0.140156 0.009409
Si Si7 0.427133 0.567523 0.481981
Si Si8 0.078940 0.567291 0.503052
O O1 0.133824 0.224705 0.872182
O O2 0.109047 0.214734 0.328235
O O3 0.028964 0.175968 0.853865
O O4 0.051679 0.293955 0.914535
O O5 0.721326 0.313825 0.695159
O O6 0.744464 0.387206 0.358150
O O7 0.843842 0.350544 0.822117
O O8 0.758941 0.416015 0.876869
O O9 0.378012 0.621347 0.330978
O O10 0.343409 0.063639 0.370782
O O11 0.239375 0.000000 0.184338
O O12 0.943662 0.915243 0.805777
O O13 0.558703 0.111160 0.239914
O O14 0.565880 0.095190 0.753883
O O15 0.500000 0.570377 0.500000
O O16 0.403800 0.500000 0.402153
O O17 0.054708 0.500000 0.422976
#
# Coordination Sequence:
#
# PCOD9191584 Si02
#       8
#     8   8   8   8   4   8   8   8
#     4  11  23  38  59  78 110 141 190 232 276 338
#     4  10  20  33  50  74 113 143 182 223 276 333
#     4  11  23  38  53  81 108 148 181 232 284 335
#     4   9  17  30  49  71 103 146 180 218 264 318
#     4  10  21  40  60  82 109 146 186 248 292 326
#     4  10  20  34  54  85 109 149 188 222 269 334
#     4  10  20  37  59  80 105 141 187 237 290 340
#     4   9  17  32  54  81 112 142 180 220 261 317
#
# _framework density 24.615783
#
# number of rings (size 3 to 8) (size 9 to 14) (size 15 to 20)
#    0.000    2.000    1.333    2.600    0.000    5.333 
#    0.000    0.000    0.000    0.000    0.000    2.800 
#    0.000    0.000    0.000    0.000    0.000    0.000 
#
# Total GULP energy -167663.105036 kJ/mol
# GULP energy per Si atom -5588.770168 kJ/mol
# Density = 2.455976 g / cm^3
# Si number density = 24.615783 Si / 1000 Ang^3
#
#
#
# Elastic Constant Matrix: (Units=GPa)
#
#
# Indices 1 2 3 4 5 6 
#
# 1 108.0093 5.1249 17.1574 0.0000 -19.6434 0.0000
# 2 5.1249 126.5715 30.8818 0.0000 -18.3730 0.0000
# 3 17.1574 30.8818 72.6504 0.0000 -23.9478 0.0000
# 4 0.0000 0.0000 0.0000 10.1239 0.0000 -1.3293
# 5 -19.6434 -18.3730 -23.9478 0.0000 42.3316 0.0000
# 6 0.0000 0.0000 0.0000 -1.3293 0.0000 12.9354
#
#
#
# Elastic Compliance Matrix: (Units=1/GPa)
#
#
# Indices 1 2 3 4 5 6 
#
# 1 0.010204 0.000503 -0.001218 0.000000 0.004264 0.000000
# 2 0.000503 0.008994 -0.003169 0.000000 0.002344 0.000000
# 3 -0.001218 -0.003169 0.018143 0.000000 0.008323 0.000000
# 4 0.000000 0.000000 0.000000 0.100128 0.000000 0.010290
# 5 0.004264 0.002344 0.008323 0.000000 0.031328 0.000000
# 6 0.000000 0.000000 0.000000 0.010290 0.000000 0.078365
#
#
# Mechanical properties :
#
#
# Convention : Reuss Voigt Hill
#
# Bulk Modulus (GPa) = 33.81567 45.95106 39.88336
# Shear Modulus (GPa) = 18.88316 30.01596 24.44956
#
# Velocity S-wave (km/s) = 2.77269 3.49575 3.15500
# Velocity P-wave (km/s) = 4.90078 5.91621 5.43227
#
# Compressibility (1/GPa) = 0.02957209
#
# Stress axis : x y z
#
# Youngs Moduli (GPa) = 98.00480 111.18770 55.11808
#
# Poissons Ratio (x) = -0.05593 0.06713
# Poissons Ratio (y) = -0.04930 0.17468
# Poissons Ratio (z) = 0.11936 0.35237
#
# Static dielectric constant tensor:
#      x y z
#    x 2.035200 0.000000 0.026510 
#    y 0.000000 1.902400 0.000000 
#    z 0.026510 0.000000 1.968730 
# 
# From -- ./inp_files/29202.got.cif
#   From: 2010.05.17/outbox.cif.g08.bks.cpg/sg12_15_cif.got.tgz:29202.got - 2010.06.03 13:09:07.
