data_PCOD9191030
_publ_section_title
;
Structure prediction by ZEFSAII (Michael W. Deem and Ramdas Pophale) SiO2 
 PCOD9191030
Probable space group: C 2/M
;
_chemical_formula_sum "Si O2"
_cell_formula_units_Z 56
_cell_length_a 12.382470
_cell_length_b 18.646146
_cell_length_c 11.912022
_cell_angle_alpha 90.000000
_cell_angle_beta 101.192645
_cell_angle_gamma 90.000000
_cell_volume 2698.000593
_symmetry_space_group_name_H-M "C 2/M"
_symmetry_group_IT_number 12
_symmetry_cell_setting 'monoclinic'
loop_
_space_group_symop_operation_xyz
x,y,z
-x,y,-z
-x,-y,-z
x,-y,z
1/2+x,1/2+y,z
1/2-x,1/2+y,-z
1/2-x,1/2-y,-z
1/2+x,1/2-y,z
loop_
_atom_site_type_symbol
_atom_site_label
_atom_site_fract_x
_atom_site_fract_y
_atom_site_fract_z
Si Si1 0.372212 0.421594 0.498054
Si Si2 0.908636 0.702210 0.563238
Si Si3 0.457719 0.083975 0.747465
Si Si4 0.795758 0.582912 0.162547
Si Si5 0.785719 0.176245 0.652908
Si Si6 0.101348 0.915745 0.946870
Si Si7 0.283974 0.412750 0.247753
O O1 0.500000 0.427303 0.500000
O O2 0.319947 0.500000 0.495795
O O3 0.360563 0.384765 0.613916
O O4 0.317350 0.385348 0.377994
O O5 0.956977 0.633141 0.636243
O O6 0.857808 0.752593 0.649949
O O7 0.813629 0.682737 0.456048
O O8 0.000000 0.737778 0.500000
O O9 0.574225 0.093077 0.833336
O O10 0.345991 0.101218 0.793402
O O11 0.449045 0.000000 0.714502
O O12 0.784534 0.500000 0.205176
O O13 0.758113 0.645326 0.240067
O O14 0.713392 0.586610 0.041446
O O15 0.135197 0.884424 0.832732
O O16 0.072903 0.000000 0.922424
O O17 0.000000 0.885211 0.000000
O O18 0.297077 0.500000 0.250918
#
# Coordination Sequence:
#
# PCOD9191030 Si02
#       7
#     8   8   8   8   8   8   8
#     4  10  20  32  51  83 117 150 191 239 291 346
#     4  11  22  38  54  82 118 159 192 232 295 352
#     4  10  20  36  60  88 116 148 194 247 295 346
#     4  10  21  36  60  91 117 151 196 246 293 341
#     4  11  22  35  55  82 118 155 193 235 287 355
#     4   9  19  35  55  84 121 154 191 237 293 352
#     4   9  18  33  53  81 116 152 188 238 298 345
#
# _framework density 20.756111000000001
#
# number of rings (size 3 to 8) (size 9 to 14) (size 15 to 20)
#    0.000    2.000    2.857    0.857    2.000    1.429 
#    0.000    2.857    0.000    0.857    0.000    0.000 
#    0.000    0.000    0.000    0.000    0.000    0.000 
#
# Total GULP energy -156020.577038 kJ/mol
# GULP energy per Si atom -5572.163466 kJ/mol
# Density = 2.070887 g / cm^3
# Si number density = 20.756111 Si / 1000 Ang^3
#
#
#
# Elastic Constant Matrix: (Units=GPa)
#
#
# Indices 1 2 3 4 5 6 
#
# 1 94.0315 5.6684 10.8841 0.0000 -2.1698 0.0000
# 2 5.6684 35.2443 5.4145 0.0000 -4.5540 0.0000
# 3 10.8841 5.4145 25.7231 0.0000 -6.2232 0.0000
# 4 0.0000 0.0000 0.0000 13.0507 0.0000 -4.4053
# 5 -2.1698 -4.5540 -6.2232 0.0000 30.6400 0.0000
# 6 0.0000 0.0000 0.0000 -4.4053 0.0000 15.9437
#
#
#
# Elastic Compliance Matrix: (Units=1/GPa)
#
#
# Indices 1 2 3 4 5 6 
#
# 1 0.011227 -0.001141 -0.004584 0.000000 -0.000306 0.000000
# 2 -0.001141 0.029751 -0.004974 0.000000 0.003331 0.000000
# 3 -0.004584 -0.004974 0.043755 0.000000 0.007823 0.000000
# 4 0.000000 0.000000 0.000000 0.084506 0.000000 0.023349
# 5 -0.000306 0.003331 0.007823 0.000000 0.034699 0.000000
# 6 0.000000 0.000000 0.000000 0.023349 0.000000 0.069172
#
#
# Mechanical properties :
#
#
# Convention : Reuss Voigt Hill
#
# Bulk Modulus (GPa) = 15.78899 22.10366 18.94633
# Shear Modulus (GPa) = 15.84180 20.79567 18.31873
#
# Velocity S-wave (km/s) = 2.76567 3.16872 2.97403
# Velocity P-wave (km/s) = 4.22161 4.90511 4.57614
#
# Compressibility (1/GPa) = 0.06333526
#
# Stress axis : x y z
#
# Youngs Moduli (GPa) = 89.07038 33.61186 22.85465
#
# Poissons Ratio (x) = 0.03835 0.10477
# Poissons Ratio (y) = 0.10162 0.11368
# Poissons Ratio (z) = 0.40832 0.16718
#
# Static dielectric constant tensor:
#      x y z
#    x 1.807990 0.000000 -0.003840 
#    y 0.000000 1.761820 0.000000 
#    z -0.003840 0.000000 1.723890 
# 
# From -- ./inp_files/133238.got.cif
#   From: 2010.05.17/outbox.cif.g08.bks.cpg/sg12_67_cif.got.tgz:133238.got - 2010.06.03 13:09:07.
