data_PCOD9191289
_publ_section_title
;
Structure prediction by ZEFSAII (Michael W. Deem and Ramdas Pophale) SiO2 
 PCOD9191289
Probable space group: C 2/M
;
_chemical_formula_sum "Si O2"
_cell_formula_units_Z 48
_cell_length_a 16.361305
_cell_length_b 7.306388
_cell_length_c 15.566434
_cell_angle_alpha 90.000000
_cell_angle_beta 109.576402
_cell_angle_gamma 90.000000
_cell_volume 1753.278259
_symmetry_space_group_name_H-M "C 2/M"
_symmetry_group_IT_number 12
_symmetry_cell_setting 'monoclinic'
loop_
_space_group_symop_operation_xyz
x,y,z
-x,y,-z
-x,-y,-z
x,-y,z
1/2+x,1/2+y,z
1/2-x,1/2+y,-z
1/2-x,1/2-y,-z
1/2+x,1/2-y,z
loop_
_atom_site_type_symbol
_atom_site_label
_atom_site_fract_x
_atom_site_fract_y
_atom_site_fract_z
Si Si1 0.683954 0.217914 0.556183
Si Si2 0.841474 0.221374 0.717088
Si Si3 0.529942 0.789468 0.393847
Si Si4 0.302422 0.279719 0.887449
Si Si5 0.447198 0.790088 0.059917
Si Si6 0.606949 0.225045 0.779876
O O1 0.750000 0.250000 0.500000
O O2 0.743577 0.280373 0.655860
O O3 0.590729 0.289828 0.490839
O O4 0.672855 0.000000 0.562897
O O5 0.907441 0.289984 0.668424
O O6 0.856123 0.274065 0.820620
O O7 0.843364 0.000000 0.712854
O O8 0.440661 0.712836 0.323829
O O9 0.512671 0.000000 0.409906
O O10 0.302052 0.500000 0.892219
O O11 0.348827 0.209452 0.988689
O O12 0.204864 0.219797 0.833741
O O13 0.475221 0.000000 0.077483
O O14 0.500000 0.702330 0.000000
O O15 0.446613 0.712256 0.154995
O O16 0.606470 0.000000 0.777586
#
# Coordination Sequence:
#
# PCOD9191289 Si02
#       6
#     8   8   8   8   8   8
#     4   8  14  25  43  67  91 116 149 187 224 262
#     4   9  17  29  45  68  96 121 149 188 229 266
#     4   9  16  29  50  70  89 119 157 190 222 265
#     4  10  20  33  48  67  95 126 150 180 227 277
#     4  10  20  34  52  71  90 115 152 195 229 262
#     4   9  18  32  48  68  94 121 150 187 229 269
#
# _framework density 27.377286999999999
#
# number of rings (size 3 to 8) (size 9 to 14) (size 15 to 20)
#    0.000    2.833    0.000    1.500    0.000    2.333 
#    0.000    2.500    0.000    5.000    0.000    0.000 
#    0.000   14.667    0.000    0.000    0.000    0.000 
#
# Total GULP energy -134254.238689 kJ/mol
# GULP energy per Si atom -5593.926612 kJ/mol
# Density = 2.731497 g / cm^3
# Si number density = 27.377287 Si / 1000 Ang^3
#
#
#
# Elastic Constant Matrix: (Units=GPa)
#
#
# Indices 1 2 3 4 5 6 
#
# 1 109.5672 5.8430 26.0825 0.0000 16.2079 0.0000
# 2 5.8430 128.2526 7.3291 0.0000 1.9492 0.0000
# 3 26.0825 7.3291 194.8714 0.0000 17.2125 0.0000
# 4 0.0000 0.0000 0.0000 6.3687 0.0000 9.7121
# 5 16.2079 1.9492 17.2125 0.0000 62.8532 0.0000
# 6 0.0000 0.0000 0.0000 9.7121 0.0000 4.9024
#
#
#
# Elastic Compliance Matrix: (Units=1/GPa)
#
#
# Indices 1 2 3 4 5 6 
#
# 1 0.009731 -0.000347 -0.001095 0.000000 -0.002199 0.000000
# 2 -0.000347 0.007828 -0.000240 0.000000 -0.000087 0.000000
# 3 -0.001095 -0.000240 0.005392 0.000000 -0.001187 0.000000
# 4 0.000000 0.000000 0.000000 -0.077691 0.000000 0.153911
# 5 -0.002199 -0.000087 -0.001187 0.000000 0.016805 0.000000
# 6 0.000000 0.000000 0.000000 0.153911 0.000000 -0.100928
#
#
# Mechanical properties :
#
#
# Convention : Reuss Voigt Hill
#
# Bulk Modulus (GPa) = 51.05736 56.80006 53.92871
# Shear Modulus (GPa) = -38.76922 41.05398 1.14238
#
# Velocity S-wave (km/s) = -3.76720 3.87662 0.64667
# Velocity P-wave (km/s) = 0.48211 6.38982 4.50540
#
# Compressibility (1/GPa) = 0.01958582
#
# Stress axis : x y z
#
# Youngs Moduli (GPa) = 102.76117 127.74667 185.45870
#
# Poissons Ratio (x) = 0.04437 0.20312
# Poissons Ratio (y) = 0.03569 0.04455
# Poissons Ratio (z) = 0.11255 0.03068
#
# Static dielectric constant tensor:
#      x y z
#    x 2.235260 0.000000 0.052380 
#    y 0.000000 -2.238560 0.000000 
#    z 0.052380 0.000000 2.103770 
# 
# From -- ./inp_files/212828.got.cif
#   From: 2010.05.17/outbox.cif.g08.bks.cpg/sg12_107_cif.got.tgz:212828.got - 2010.06.03 13:09:07.
