data_PCOD9191160
_publ_section_title
;
Structure prediction by ZEFSAII (Michael W. Deem and Ramdas Pophale) SiO2 
 PCOD9191160
Probable space group: C 2/M
;
_chemical_formula_sum "Si O2"
_cell_formula_units_Z 48
_cell_length_a 12.575851
_cell_length_b 16.176606
_cell_length_c 12.600669
_cell_angle_alpha 90.000000
_cell_angle_beta 102.548320
_cell_angle_gamma 90.000000
_cell_volume 2502.179997
_symmetry_space_group_name_H-M "C 2/M"
_symmetry_group_IT_number 12
_symmetry_cell_setting 'monoclinic'
loop_
_space_group_symop_operation_xyz
x,y,z
-x,y,-z
-x,-y,-z
x,-y,z
1/2+x,1/2+y,z
1/2-x,1/2+y,-z
1/2-x,1/2-y,-z
1/2+x,1/2-y,z
loop_
_atom_site_type_symbol
_atom_site_label
_atom_site_fract_x
_atom_site_fract_y
_atom_site_fract_z
Si Si1 0.438419 0.821102 0.276941
Si Si2 0.867652 0.500000 0.466666
Si Si3 0.734224 0.324965 0.073245
Si Si4 0.943135 0.500000 0.257715
Si Si5 0.745938 0.000000 0.935350
Si Si6 0.077282 0.833213 0.229742
Si Si7 0.220828 0.328555 0.566923
Si Si8 0.462505 0.500000 0.867921
O O1 0.337151 0.829358 0.174248
O O2 0.508765 0.743555 0.257376
O O3 0.383236 0.809242 0.379976
O O4 0.498634 0.910498 0.282620
O O5 0.855451 0.500000 0.335453
O O6 0.813574 0.415320 0.495349
O O7 0.000000 0.500000 0.500000
O O8 0.729855 0.411735 0.008769
O O9 0.630510 0.313777 0.126531
O O10 0.750000 0.250000 0.000000
O O11 0.876808 0.500000 0.133826
O O12 0.830710 0.000000 0.854581
O O13 0.175501 0.845919 0.334578
O O14 0.011199 0.917314 0.191351
O O15 0.250000 0.250000 0.500000
O O16 0.500000 0.500000 0.000000
#
# Coordination Sequence:
#
# PCOD9191160 Si02
#       8
#     8   4   8   4   4   8   8   4
#     4   9  19  34  56  81 109 149 189 241 297 352
#     4  10  20  34  61  84 106 151 204 237 281 365
#     4   9  18  32  52  76 106 141 182 233 287 342
#     4   8  16  34  53  72 104 142 188 231 280 333
#     4   8  16  32  49  68 100 138 178 223 268 335
#     4  10  21  36  55  81 116 146 192 244 292 350
#     4  10  22  38  59  86 118 152 198 250 302 348
#     4  10  20  32  55  82 106 151 196 229 284 364
#
# _framework density 19.183273
#
# number of rings (size 3 to 8) (size 9 to 14) (size 15 to 20)
#    0.000    2.667    0.000    3.500    9.333    0.000 
#    0.000    1.667    0.000    9.000    0.000    0.000 
#    0.000    0.000    0.000    0.000    0.000    0.000 
#
# Total GULP energy -133616.860955 kJ/mol
# GULP energy per Si atom -5567.369206 kJ/mol
# Density = 1.913961 g / cm^3
# Si number density = 19.183273 Si / 1000 Ang^3
#
#
#
# Elastic Constant Matrix: (Units=GPa)
#
#
# Indices 1 2 3 4 5 6 
#
# 1 59.3814 62.7798 15.4872 0.0000 2.1433 0.0000
# 2 62.7798 241.4554 57.0436 0.0000 -20.3946 0.0000
# 3 15.4872 57.0436 62.8274 0.0000 2.2627 0.0000
# 4 0.0000 0.0000 0.0000 33.1202 0.0000 -8.9926
# 5 2.1433 -20.3946 2.2627 0.0000 19.6331 0.0000
# 6 0.0000 0.0000 0.0000 -8.9926 0.0000 36.2421
#
#
#
# Elastic Compliance Matrix: (Units=1/GPa)
#
#
# Indices 1 2 3 4 5 6 
#
# 1 0.025094 -0.007738 0.001233 0.000000 -0.010920 0.000000
# 2 -0.007738 0.008488 -0.006173 0.000000 0.010373 0.000000
# 3 0.001233 -0.006173 0.021542 0.000000 -0.009029 0.000000
# 4 0.000000 0.000000 0.000000 0.032374 0.000000 0.008033
# 5 -0.010920 0.010373 -0.009029 0.000000 0.063943 0.000000
# 6 0.000000 0.000000 0.000000 0.008033 0.000000 0.029585
#
#
# Mechanical properties :
#
#
# Convention : Reuss Voigt Hill
#
# Bulk Modulus (GPa) = 33.59189 70.47616 52.03402
# Shear Modulus (GPa) = 23.11553 33.02265 28.06909
#
# Velocity S-wave (km/s) = 3.47505 4.15351 3.82934
# Velocity P-wave (km/s) = 5.80089 7.73436 6.83633
#
# Compressibility (1/GPa) = 0.02976909
#
# Stress axis : x y z
#
# Youngs Moduli (GPa) = 39.85019 117.81246 46.42046
#
# Poissons Ratio (x) = 0.91168 -0.05726
# Poissons Ratio (y) = 0.30838 0.28654
# Poissons Ratio (z) = -0.04916 0.72722
#
# Static dielectric constant tensor:
#      x y z
#    x 1.686900 0.000000 0.067970 
#    y 0.000000 1.751150 0.000000 
#    z 0.067970 0.000000 1.708210 
# 
# From -- ./inp_files/143149.got.cif
#   From: 2010.05.17/outbox.cif.g08.bks.cpg/sg12_72_cif.got.tgz:143149.got - 2010.06.03 13:09:07.
