data_PCOD9191606
_publ_section_title
;
Structure prediction by ZEFSAII (Michael W. Deem and Ramdas Pophale) SiO2 
 PCOD9191606
Probable space group: C 2/M
;
_chemical_formula_sum "Si O2"
_cell_formula_units_Z 64
_cell_length_a 23.118430
_cell_length_b 7.522510
_cell_length_c 20.650875
_cell_angle_alpha 90.000000
_cell_angle_beta 123.758559
_cell_angle_gamma 90.000000
_cell_volume 2985.812933
_symmetry_space_group_name_H-M "C 2/M"
_symmetry_group_IT_number 12
_symmetry_cell_setting 'monoclinic'
loop_
_space_group_symop_operation_xyz
x,y,z
-x,y,-z
-x,-y,-z
x,-y,z
1/2+x,1/2+y,z
1/2-x,1/2+y,-z
1/2-x,1/2-y,-z
1/2+x,1/2-y,z
loop_
_atom_site_type_symbol
_atom_site_label
_atom_site_fract_x
_atom_site_fract_y
_atom_site_fract_z
Si Si1 0.930327 0.295866 0.921710
Si Si2 0.884850 0.285004 0.444631
Si Si3 0.665550 0.216656 0.899032
Si Si4 0.383362 0.782499 0.751125
Si Si5 0.481767 0.783670 0.246439
Si Si6 0.521977 0.783406 0.609847
Si Si7 0.239316 0.700693 0.417556
Si Si8 0.305449 0.296075 0.934680
O O1 0.950345 0.500000 0.918700
O O2 0.900127 0.220411 0.835083
O O3 0.866185 0.294549 0.931983
O O4 0.000000 0.217891 0.000000
O O5 0.879145 0.500000 0.442601
O O6 0.910320 0.229296 0.389072
O O7 0.813550 0.212852 0.428376
O O8 0.950728 0.233318 0.529755
O O9 0.589635 0.272049 0.830480
O O10 0.726182 0.274225 0.886896
O O11 0.669093 0.000000 0.904116
O O12 0.677525 0.286929 0.978480
O O13 0.450676 0.732997 0.751174
O O14 0.317117 0.716016 0.667589
O O15 0.377504 0.000000 0.752179
O O16 0.481428 0.720274 0.319567
O O17 0.481730 0.000000 0.247802
O O18 0.522970 0.000000 0.610179
O O19 0.214409 0.500000 0.407777
O O20 0.250000 0.750000 0.500000
O O21 0.304468 0.500000 0.911930
#
# Coordination Sequence:
#
# PCOD9191606 Si02
#       8
#     8   8   8   8   8   8   8   8
#     4  10  20  36  58  79 101 137 181 217 253 306
#     4   9  17  32  53  77 103 133 171 210 255 308
#     4   9  18  32  52  75  98 131 173 211 250 307
#     4   9  19  33  52  79 105 132 173 221 260 301
#     4   9  15  28  51  75  97 125 170 219 254 293
#     4   8  15  28  51  79 102 128 166 214 259 302
#     4  11  22  36  54  77 107 142 177 214 259 307
#     4  10  20  33  50  76 107 134 163 207 263 310
#
# _framework density 21.434698000000001
#
# number of rings (size 3 to 8) (size 9 to 14) (size 15 to 20)
#    0.000    2.625    0.000    3.000    0.000    5.750 
#    0.000    3.750    0.000    6.000    0.000    0.000 
#    0.000    0.000    0.000    0.000    0.000    0.000 
#
# Total GULP energy -178384.497863 kJ/mol
# GULP energy per Si atom -5574.515558 kJ/mol
# Density = 2.138591 g / cm^3
# Si number density = 21.434698 Si / 1000 Ang^3
#
#
#
# Elastic Constant Matrix: (Units=GPa)
#
#
# Indices 1 2 3 4 5 6 
#
# 1 158.9748 -10.0768 86.0979 0.0000 3.0233 0.0000
# 2 -10.0768 50.2097 6.0920 0.0000 -0.2578 0.0000
# 3 86.0979 6.0920 139.7539 0.0000 1.2911 0.0000
# 4 0.0000 0.0000 0.0000 6.3987 0.0000 1.9471
# 5 3.0233 -0.2578 1.2911 0.0000 36.0992 0.0000
# 6 0.0000 0.0000 0.0000 1.9471 0.0000 23.4646
#
#
#
# Elastic Compliance Matrix: (Units=1/GPa)
#
#
# Indices 1 2 3 4 5 6 
#
# 1 0.009806 0.002712 -0.006154 0.000000 -0.000582 0.000000
# 2 0.002712 0.020773 -0.002576 0.000000 0.000013 0.000000
# 3 -0.006154 -0.002576 0.011058 0.000000 0.000101 0.000000
# 4 0.000000 0.000000 0.000000 0.160330 0.000000 -0.013304
# 5 -0.000582 0.000013 0.000101 0.000000 0.027747 0.000000
# 6 0.000000 0.000000 0.000000 -0.013304 0.000000 0.043721
#
#
# Mechanical properties :
#
#
# Convention : Reuss Voigt Hill
#
# Bulk Modulus (GPa) = 33.78331 57.01830 45.40080
# Shear Modulus (GPa) = 16.92963 30.98085 23.95524
#
# Velocity S-wave (km/s) = 2.81343 3.80591 3.34667
# Velocity P-wave (km/s) = 5.13314 6.78026 6.01336
#
# Compressibility (1/GPa) = 0.02960041
#
# Stress axis : x y z
#
# Youngs Moduli (GPa) = 101.97598 48.13864 90.43091
#
# Poissons Ratio (x) = -0.13054 0.55652
# Poissons Ratio (y) = -0.27653 0.23297
# Poissons Ratio (z) = 0.62757 0.12402
#
# Static dielectric constant tensor:
#      x y z
#    x 1.730280 0.000000 0.010550 
#    y 0.000000 1.907600 0.000000 
#    z 0.010550 0.000000 1.791430 
# 
# From -- ./inp_files/320156.got.cif
#   From: 2010.05.17/outbox.cif.g08.bks.cpg/sg12_161_cif.got.tgz:320156.got - 2010.06.03 13:09:07.
