data_PCOD9191864
_publ_section_title
;
Structure prediction by ZEFSAII (Michael W. Deem and Ramdas Pophale) SiO2 
 PCOD9191864
Probable space group: C 2/M
;
_chemical_formula_sum "Si O2"
_cell_formula_units_Z 56
_cell_length_a 25.712787
_cell_length_b 7.512970
_cell_length_c 16.131608
_cell_angle_alpha 90.000000
_cell_angle_beta 134.124650
_cell_angle_gamma 90.000000
_cell_volume 2236.959677
_symmetry_space_group_name_H-M "C 2/M"
_symmetry_group_IT_number 12
_symmetry_cell_setting 'monoclinic'
loop_
_space_group_symop_operation_xyz
x,y,z
-x,y,-z
-x,-y,-z
x,-y,z
1/2+x,1/2+y,z
1/2-x,1/2+y,-z
1/2-x,1/2-y,-z
1/2+x,1/2-y,z
loop_
_atom_site_type_symbol
_atom_site_label
_atom_site_fract_x
_atom_site_fract_y
_atom_site_fract_z
Si Si1 0.193582 0.799910 0.563186
Si Si2 0.888820 0.793740 0.688064
Si Si3 0.050948 0.299186 0.488043
Si Si4 0.916223 0.219203 0.899172
Si Si5 0.684342 0.212636 0.866144
Si Si6 0.961780 0.301286 0.221520
Si Si7 0.774051 0.795921 0.812785
O O1 0.163830 0.718639 0.442990
O O2 0.120050 0.805230 0.535307
O O3 0.246294 0.706155 0.686810
O O4 0.220234 0.000000 0.578398
O O5 0.887359 0.716520 0.777851
O O6 0.974348 0.788896 0.759802
O O7 0.867455 0.000000 0.668798
O O8 0.073640 0.500000 0.541204
O O9 0.000000 0.216527 0.500000
O O10 0.001153 0.319152 0.353303
O O11 0.856244 0.277671 0.900282
O O12 0.915931 0.000000 0.899091
O O13 0.000000 0.273137 0.000000
O O14 0.613813 0.285969 0.835918
O O15 0.713809 0.280249 0.809345
O O16 0.668959 0.000000 0.840826
O O17 0.750000 0.250000 0.000000
O O18 0.950110 0.500000 0.173260
O O19 0.781362 0.000000 0.847963
#
# Coordination Sequence:
#
# PCOD9191864 Si02
#       7
#     8   8   8   8   8   8   8
#     4  10  20  33  51  81 118 148 178 225 283 335
#     4   9  19  35  57  85 113 144 186 231 276 327
#     4   9  16  29  51  75 103 143 186 225 265 318
#     4   9  19  36  60  85 107 139 189 241 278 322
#     4  10  22  37  55  81 111 145 187 230 276 329
#     4   9  18  32  50  76 109 142 178 220 268 326
#     4  10  21  38  59  83 110 146 191 232 274 331
#
# _framework density 25.033978999999999
#
# number of rings (size 3 to 8) (size 9 to 14) (size 15 to 20)
#    0.000    2.571    0.000    1.286    2.000    4.857 
#    0.000    3.571    0.000    0.857    0.000    0.000 
#    0.000    0.000    0.000    0.000    0.000    0.000 
#
# Total GULP energy -156137.690972 kJ/mol
# GULP energy per Si atom -5576.346106 kJ/mol
# Density = 2.497700 g / cm^3
# Si number density = 25.033979 Si / 1000 Ang^3
#
#
#
# Elastic Constant Matrix: (Units=GPa)
#
#
# Indices 1 2 3 4 5 6 
#
# 1 113.2863 -0.5809 31.4148 0.0000 13.1046 0.0000
# 2 -0.5809 68.7687 -2.4032 0.0000 -1.0724 0.0000
# 3 31.4148 -2.4032 82.5199 0.0000 9.9363 0.0000
# 4 0.0000 0.0000 0.0000 19.9284 0.0000 1.6725
# 5 13.1046 -1.0724 9.9363 0.0000 46.3137 0.0000
# 6 0.0000 0.0000 0.0000 1.6725 0.0000 0.3295
#
#
#
# Elastic Compliance Matrix: (Units=1/GPa)
#
#
# Indices 1 2 3 4 5 6 
#
# 1 0.010061 -0.000073 -0.003582 0.000000 -0.002080 0.000000
# 2 -0.000073 0.014560 0.000419 0.000000 0.000268 0.000000
# 3 -0.003582 0.000419 0.013725 0.000000 -0.001922 0.000000
# 4 0.000000 0.000000 0.000000 0.087417 0.000000 -0.443700
# 5 -0.002080 0.000268 -0.001922 0.000000 0.022599 0.000000
# 6 0.000000 0.000000 0.000000 -0.443700 0.000000 5.286830
#
#
# Mechanical properties :
#
#
# Convention : Reuss Voigt Hill
#
# Bulk Modulus (GPa) = 31.37154 35.71512 33.54333
# Shear Modulus (GPa) = 0.91705 29.05728 14.98716
#
# Velocity S-wave (km/s) = 0.60590 3.41062 2.44943
# Velocity P-wave (km/s) = 3.61224 5.45962 4.62902
#
# Compressibility (1/GPa) = 0.03187602
#
# Stress axis : x y z
#
# Youngs Moduli (GPa) = 99.39728 68.68267 72.85761
#
# Poissons Ratio (x) = 0.00499 0.26095
# Poissons Ratio (y) = 0.00722 -0.03056
# Poissons Ratio (z) = 0.35601 -0.02881
#
# Static dielectric constant tensor:
#      x y z
#    x 3.279100 0.000000 0.434850 
#    y 0.000000 2.112590 0.000000 
#    z 0.434850 0.000000 2.117090 
# 
# From -- ./inp_files/292563.got.cif
#   From: 2010.05.17/outbox.cif.g08.bks.cpg/sg12_147_cif.got.tgz:292563.got - 2010.06.03 13:09:07.
