data_PCOD9191362
_publ_section_title
;
Structure prediction by ZEFSAII (Michael W. Deem and Ramdas Pophale) SiO2 
 PCOD9191362
Probable space group: C 2/M
;
_chemical_formula_sum "Si O2"
_cell_formula_units_Z 56
_cell_length_a 16.347803
_cell_length_b 7.508181
_cell_length_c 21.223176
_cell_angle_alpha 90.000000
_cell_angle_beta 53.509089
_cell_angle_gamma 90.000000
_cell_volume 2094.277358
_symmetry_space_group_name_H-M "C 2/M"
_symmetry_group_IT_number 12
_symmetry_cell_setting 'monoclinic'
loop_
_space_group_symop_operation_xyz
x,y,z
-x,y,-z
-x,-y,-z
x,-y,z
1/2+x,1/2+y,z
1/2-x,1/2+y,-z
1/2-x,1/2-y,-z
1/2+x,1/2-y,z
loop_
_atom_site_type_symbol
_atom_site_label
_atom_site_fract_x
_atom_site_fract_y
_atom_site_fract_z
Si Si1 0.829195 0.785954 0.235647
Si Si2 0.623948 0.294502 0.194774
Si Si3 0.084091 0.213020 0.672027
Si Si4 0.391096 0.213301 0.474222
Si Si5 0.352102 0.787777 0.089847
Si Si6 0.376103 0.782831 0.619953
Si Si7 0.372003 0.788380 0.945820
O O1 0.871022 0.719256 0.283066
O O2 0.887083 0.733437 0.145640
O O3 0.710968 0.725404 0.291976
O O4 0.829903 0.000000 0.236384
O O5 0.636264 0.500000 0.207317
O O6 0.531631 0.213851 0.276731
O O7 0.736302 0.212139 0.144787
O O8 0.588918 0.293141 0.137206
O O9 0.144590 0.241345 0.579640
O O10 0.077332 0.000000 0.681698
O O11 0.509043 0.277699 0.421476
O O12 0.347024 0.272428 0.561569
O O13 0.390424 0.000000 0.477331
O O14 0.347529 0.000000 0.081353
O O15 0.403135 0.721904 0.001633
O O16 0.378050 0.000000 0.619875
O O17 0.389117 0.000000 0.933060
O O18 0.250000 0.750000 0.000000
#
# Coordination Sequence:
#
# PCOD9191362 Si02
#       7
#     8   8   8   8   8   8   8
#     4  10  20  33  49  69  97 133 165 195 239 294
#     4   9  18  33  51  71  98 129 161 201 244 286
#     4  10  21  34  47  70 103 131 159 200 245 287
#     4   9  17  32  54  74  94 125 163 203 244 287
#     4   9  18  32  50  72  96 121 155 202 244 278
#     4   8  16  32  52  74  97 122 161 206 241 283
#     4   9  17  30  50  76 101 125 158 202 247 287
#
# _framework density 26.739535
#
# number of rings (size 3 to 8) (size 9 to 14) (size 15 to 20)
#    0.000    2.857    0.000    3.000    0.000    4.571 
#    0.000    2.857    0.000    4.286    0.000    0.000 
#    0.000    0.000    0.000    0.000    0.000    0.000 
#
# Total GULP energy -156437.037597 kJ/mol
# GULP energy per Si atom -5587.037057 kJ/mol
# Density = 2.667867 g / cm^3
# Si number density = 26.739535 Si / 1000 Ang^3
#
#
#
# Elastic Constant Matrix: (Units=GPa)
#
#
# Indices 1 2 3 4 5 6 
#
# 1 69.9379 -3.0963 33.9385 0.0001 26.6151 0.0005
# 2 -3.0963 86.4865 -4.4039 0.0001 -1.1041 0.0012
# 3 33.9385 -4.4039 205.7347 0.0000 25.4249 0.0001
# 4 0.0001 0.0001 0.0000 23.3545 0.0000 15.5527
# 5 26.6151 -1.1041 25.4249 0.0000 55.5671 0.0001
# 6 0.0005 0.0012 0.0001 15.5527 0.0001 9.8725
#
#
#
# Elastic Compliance Matrix: (Units=1/GPa)
#
#
# Indices 1 2 3 4 5 6 
#
# 1 0.018282 0.000451 -0.002041 -0.000012 -0.007814 0.000018
# 2 0.000451 0.011587 0.000182 -0.000019 -0.000069 0.000029
# 3 -0.002041 0.000182 0.005384 0.000000 -0.001483 0.000000
# 4 -0.000012 -0.000019 0.000000 -0.872169 0.000003 1.373979
# 5 -0.007814 -0.000069 -0.001483 0.000003 0.022416 -0.000004
# 6 0.000018 0.000029 0.000000 1.373979 -0.000004 -2.063217
#
#
# Mechanical properties :
#
#
# Convention : Reuss Voigt Hill
#
# Bulk Modulus (GPa) = 30.82742 46.11507 38.47125
# Shear Modulus (GPa) = -1.74576 40.14020 19.19722
#
# Velocity S-wave (km/s) = -0.80888 3.87868 2.68234
# Velocity P-wave (km/s) = 3.26824 6.11084 4.90019
#
# Compressibility (1/GPa) = 0.03243865
#
# Stress axis : x y z
#
# Youngs Moduli (GPa) = 54.69787 86.30336 185.72265
#
# Poissons Ratio (x) = -0.03891 0.37898
# Poissons Ratio (y) = -0.02466 -0.03384
# Poissons Ratio (z) = 0.11161 -0.01572
#
# Static dielectric constant tensor:
#      x y z
#    x 2.248380 0.000000 0.029680 
#    y 0.000000 2.024070 0.000000 
#    z 0.029680 0.000000 2.068460 
# 
# From -- ./inp_files/313750.got.cif
#   From: 2010.05.17/outbox.cif.g08.bks.cpg/sg12_157_cif.got.tgz:313750.got - 2010.06.03 13:09:07.
