data_PCOD9191556
_publ_section_title
;
Structure prediction by ZEFSAII (Michael W. Deem and Ramdas Pophale) SiO2 
 PCOD9191556
Probable space group: C 2/M
;
_chemical_formula_sum "Si O2"
_cell_formula_units_Z 48
_cell_length_a 18.875256
_cell_length_b 7.469753
_cell_length_c 21.406968
_cell_angle_alpha 90.000000
_cell_angle_beta 132.178488
_cell_angle_gamma 90.000000
_cell_volume 2236.689589
_symmetry_space_group_name_H-M "C 2/M"
_symmetry_group_IT_number 12
_symmetry_cell_setting 'monoclinic'
loop_
_space_group_symop_operation_xyz
x,y,z
-x,y,-z
-x,-y,-z
x,-y,z
1/2+x,1/2+y,z
1/2-x,1/2+y,-z
1/2-x,1/2-y,-z
1/2+x,1/2-y,z
loop_
_atom_site_type_symbol
_atom_site_label
_atom_site_fract_x
_atom_site_fract_y
_atom_site_fract_z
Si Si1 0.857063 0.714331 0.086145
Si Si2 0.593980 0.212772 0.407427
Si Si3 0.992262 0.710981 0.925496
Si Si4 0.385953 0.219627 0.245001
Si Si5 0.722222 0.716514 0.243492
Si Si6 0.744136 0.784329 0.596364
O O1 0.869978 0.500000 0.096995
O O2 0.873572 0.780473 0.166323
O O3 0.932963 0.785838 0.080631
O O4 0.750000 0.750000 0.000000
O O5 0.487622 0.280852 0.332699
O O6 0.654861 0.283740 0.502261
O O7 0.660367 0.240948 0.386054
O O8 0.585109 0.000000 0.411596
O O9 0.015136 0.500000 0.944220
O O10 0.884801 0.729519 0.837401
O O11 0.000000 0.787428 0.000000
O O12 0.298304 0.276350 0.236764
O O13 0.386338 0.000000 0.244987
O O14 0.724456 0.500000 0.245694
O O15 0.749552 0.780127 0.329084
O O16 0.737054 0.000000 0.594052
#
# Coordination Sequence:
#
# PCOD9191556 Si02
#       6
#     8   8   8   8   8   8
#     4  10  20  34  52  73  97 126 162 201 241 289
#     4   9  17  32  53  72  96 132 166 199 243 291
#     4  10  21  36  53  74 100 130 165 202 242 292
#     4   9  18  32  50  72  97 128 165 200 239 290
#     4  10  20  33  50  74 102 129 162 204 245 288
#     4   9  18  31  49  75 101 126 162 205 245 288
#
# _framework density 21.460286
#
# number of rings (size 3 to 8) (size 9 to 14) (size 15 to 20)
#    0.000    2.500    0.000    2.000    0.000    3.667 
#    0.000    5.000    0.000    0.000    0.000    5.833 
#    0.000    0.000    0.000    0.000    0.000    0.000 
#
# Total GULP energy -134077.682921 kJ/mol
# GULP energy per Si atom -5586.570122 kJ/mol
# Density = 2.141144 g / cm^3
# Si number density = 21.460286 Si / 1000 Ang^3
#
#
#
# Elastic Constant Matrix: (Units=GPa)
#
#
# Indices 1 2 3 4 5 6 
#
# 1 202.0337 -11.3181 126.4279 0.0000 1.3533 0.0000
# 2 -11.3181 54.5796 -13.7290 0.0000 -2.3474 0.0000
# 3 126.4279 -13.7290 161.5702 0.0000 -3.4990 0.0000
# 4 0.0000 0.0000 0.0000 29.9914 0.0000 16.8279
# 5 1.3533 -2.3474 -3.4990 0.0000 39.1828 0.0000
# 6 0.0000 0.0000 0.0000 16.8279 0.0000 16.2957
#
#
#
# Elastic Compliance Matrix: (Units=1/GPa)
#
#
# Indices 1 2 3 4 5 6 
#
# 1 0.009739 0.000055 -0.007638 0.000000 -0.001015 0.000000
# 2 0.000055 0.018785 0.001581 0.000000 0.001265 0.000000
# 3 -0.007638 0.001581 0.012332 0.000000 0.001460 0.000000
# 4 0.000000 0.000000 0.000000 0.079278 0.000000 -0.081867
# 5 -0.001015 0.001265 0.001460 0.000000 0.025763 0.000000
# 6 0.000000 0.000000 0.000000 -0.081867 0.000000 0.145906
#
#
# Mechanical properties :
#
#
# Convention : Reuss Voigt Hill
#
# Bulk Modulus (GPa) = 34.66075 68.99387 51.82731
# Shear Modulus (GPa) = 15.95273 38.21415 27.08344
#
# Velocity S-wave (km/s) = 2.72942 4.22440 3.55635
# Velocity P-wave (km/s) = 5.11069 7.48421 6.40830
#
# Compressibility (1/GPa) = 0.02885107
#
# Stress axis : x y z
#
# Youngs Moduli (GPa) = 102.67481 53.23330 81.08821
#
# Poissons Ratio (x) = -0.00291 0.61939
# Poissons Ratio (y) = -0.00561 -0.12819
# Poissons Ratio (z) = 0.78428 -0.08415
#
# Static dielectric constant tensor:
#      x y z
#    x 1.734180 0.000000 -0.020510 
#    y 0.000000 1.809890 0.000000 
#    z -0.020510 0.000000 1.745540 
# 
# From -- ./inp_files/153656.got.cif
#   From: 2010.05.17/outbox.cif.g08.bks.cpg/sg12_77_cif.got.tgz:153656.got - 2010.06.03 13:09:07.
