data_PCOD9191271
_publ_section_title
;
Structure prediction by ZEFSAII (Michael W. Deem and Ramdas Pophale) SiO2 
 PCOD9191271
Probable space group: C 2/M
;
_chemical_formula_sum "Si O2"
_cell_formula_units_Z 64
_cell_length_a 24.970104
_cell_length_b 8.719708
_cell_length_c 16.367841
_cell_angle_alpha 90.000000
_cell_angle_beta 97.913387
_cell_angle_gamma 90.000000
_cell_volume 3529.866066
_symmetry_space_group_name_H-M "C 2/M"
_symmetry_group_IT_number 12
_symmetry_cell_setting 'monoclinic'
loop_
_space_group_symop_operation_xyz
x,y,z
-x,y,-z
-x,-y,-z
x,-y,z
1/2+x,1/2+y,z
1/2-x,1/2+y,-z
1/2-x,1/2-y,-z
1/2+x,1/2-y,z
loop_
_atom_site_type_symbol
_atom_site_label
_atom_site_fract_x
_atom_site_fract_y
_atom_site_fract_z
Si Si1 0.292879 0.175357 0.068683
Si Si2 0.723270 0.319640 0.764419
Si Si3 0.346954 0.184175 0.802932
Si Si4 0.483433 0.315531 0.405016
Si Si5 0.599686 0.825213 0.017081
Si Si6 0.452726 0.317064 0.144155
Si Si7 0.942624 0.183466 0.731987
Si Si8 0.887134 0.681735 0.283717
O O1 0.293168 0.285205 0.145937
O O2 0.348448 0.168863 0.031543
O O3 0.278986 0.000000 0.089865
O O4 0.250000 0.250000 0.000000
O O5 0.722807 0.500000 0.746272
O O6 0.785490 0.262271 0.773143
O O7 0.673262 0.239732 0.708455
O O8 0.387417 0.231235 0.739979
O O9 0.343290 0.000000 0.811560
O O10 0.376034 0.240900 0.893086
O O11 0.500000 0.273455 0.500000
O O12 0.475119 0.500000 0.399692
O O13 0.530374 0.279285 0.349308
O O14 0.429473 0.235365 0.361080
O O15 0.557447 0.737563 0.950466
O O16 0.580792 0.000000 0.028246
O O17 0.447189 0.500000 0.146826
O O18 0.512122 0.275014 0.190452
O O19 0.411439 0.248298 0.203273
O O20 0.934348 0.000000 0.734157
O O21 0.886057 0.500000 0.274716
#
# Coordination Sequence:
#
# PCOD9191271 Si02
#       8
#     8   8   8   8   8   8   8   8
#     4  11  20  31  47  70 101 138 185 236 279 315
#     4  11  21  35  52  73 105 144 187 227 268 319
#     4  10  22  37  51  71 104 148 188 223 267 319
#     4   9  19  39  66  91 113 138 167 205 261 324
#     4  10  20  33  47  70 102 139 189 235 275 315
#     4  10  20  34  52  74 103 142 185 229 277 319
#     4   9  20  37  55  79 107 136 175 218 261 319
#     4  11  21  33  53  85 116 139 172 220 272 318
#
# _framework density 18.130998999999999
#
# number of rings (size 3 to 8) (size 9 to 14) (size 15 to 20)
#    0.000    1.875    2.500    3.000    0.000    5.250 
#    0.000    2.500    0.000    0.750    0.000    0.000 
#    0.000    0.000    0.000    0.000    0.000    0.000 
#
# Total GULP energy -178447.425842 kJ/mol
# GULP energy per Si atom -5576.482058 kJ/mol
# Density = 1.808973 g / cm^3
# Si number density = 18.130999 Si / 1000 Ang^3
#
#
#
# Elastic Constant Matrix: (Units=GPa)
#
#
# Indices 1 2 3 4 5 6 
#
# 1 114.0730 29.1209 51.5427 0.0000 5.6276 0.0000
# 2 29.1209 38.6892 21.9082 0.0000 6.9719 0.0000
# 3 51.5427 21.9082 76.1597 0.0000 15.4672 0.0000
# 4 0.0000 0.0000 0.0000 20.4322 0.0000 -0.0179
# 5 5.6276 6.9719 15.4672 0.0000 15.1636 0.0000
# 6 0.0000 0.0000 0.0000 -0.0179 0.0000 22.4886
#
#
#
# Elastic Compliance Matrix: (Units=1/GPa)
#
#
# Indices 1 2 3 4 5 6 
#
# 1 0.014309 -0.006877 -0.009169 0.000000 0.007204 0.000000
# 2 -0.006877 0.034694 -0.003286 0.000000 -0.010048 0.000000
# 3 -0.009169 -0.003286 0.024321 0.000000 -0.019895 0.000000
# 4 0.000000 0.000000 0.000000 0.048942 0.000000 0.000039
# 5 0.007204 -0.010048 -0.019895 0.000000 0.088187 0.000000
# 6 0.000000 0.000000 0.000000 0.000039 0.000000 0.044467
#
#
# Mechanical properties :
#
#
# Convention : Reuss Voigt Hill
#
# Bulk Modulus (GPa) = 28.84978 48.22949 38.53963
# Shear Modulus (GPa) = 16.38604 20.04022 18.21313
#
# Velocity S-wave (km/s) = 3.00952 3.32821 3.17287
# Velocity P-wave (km/s) = 5.29364 6.43643 5.89281
#
# Compressibility (1/GPa) = 0.03466231
#
# Stress axis : x y z
#
# Youngs Moduli (GPa) = 69.88445 28.82326 41.11638
#
# Poissons Ratio (x) = 0.19821 0.37700
# Poissons Ratio (y) = 0.48057 0.13509
# Poissons Ratio (z) = 0.64077 0.09470
#
# Static dielectric constant tensor:
#      x y z
#    x 1.644950 0.000000 0.023400 
#    y 0.000000 1.633400 0.000000 
#    z 0.023400 0.000000 1.621640 
# 
# From -- ./inp_files/287732.got.cif
#   From: 2010.05.17/outbox.cif.g08.bks.cpg/sg12_144_cif.got.tgz:287732.got - 2010.06.03 13:09:07.
