data_PCOD9191954
_publ_section_title
;
Structure prediction by ZEFSAII (Michael W. Deem and Ramdas Pophale) SiO2 
 PCOD9191954
Probable space group: C 2/M
;
_chemical_formula_sum "Si O2"
_cell_formula_units_Z 64
_cell_length_a 16.679435
_cell_length_b 7.656335
_cell_length_c 19.762197
_cell_angle_alpha 90.000000
_cell_angle_beta 80.077736
_cell_angle_gamma 90.000000
_cell_volume 2485.950237
_symmetry_space_group_name_H-M "C 2/M"
_symmetry_group_IT_number 12
_symmetry_cell_setting 'monoclinic'
loop_
_space_group_symop_operation_xyz
x,y,z
-x,y,-z
-x,-y,-z
x,-y,z
1/2+x,1/2+y,z
1/2-x,1/2+y,-z
1/2-x,1/2-y,-z
1/2+x,1/2-y,z
loop_
_atom_site_type_symbol
_atom_site_label
_atom_site_fract_x
_atom_site_fract_y
_atom_site_fract_z
Si Si1 0.609461 0.297944 0.791927
Si Si2 0.663563 0.197809 0.544405
Si Si3 0.644715 0.712986 0.159107
Si Si4 0.440581 0.299608 0.954370
Si Si5 0.904944 0.211843 0.583766
Si Si6 0.040275 0.201114 0.667094
Si Si7 0.714005 0.289239 0.285972
Si Si8 0.179488 0.297088 0.921802
O O1 0.587090 0.500000 0.804172
O O2 0.553836 0.221607 0.739752
O O3 0.700071 0.288676 0.746785
O O4 0.620038 0.219680 0.864993
O O5 0.750000 0.250000 0.500000
O O6 0.601674 0.215792 0.490204
O O7 0.624877 0.298779 0.612920
O O8 0.670315 0.000000 0.566928
O O9 0.641473 0.500000 0.157226
O O10 0.648989 0.761371 0.236938
O O11 0.732645 0.766137 0.116202
O O12 0.576375 0.776355 0.117040
O O13 0.468156 0.500000 0.941255
O O14 0.356188 0.300254 0.008466
O O15 0.500000 0.211177 0.000000
O O16 0.822058 0.254229 0.636244
O O17 0.975729 0.276717 0.623366
O O18 0.911796 0.000000 0.576439
O O19 0.014473 0.000000 0.681876
O O20 0.723037 0.500000 0.281068
O O21 0.186202 0.500000 0.938256
#
# Coordination Sequence:
#
# PCOD9191954 Si02
#       8
#     8   8   8   8   8   8   8   8
#     4  10  20  35  57  83 109 139 180 227 270 318
#     4  12  25  40  60  84 112 148 190 234 276 323
#     4   8  16  32  53  77 104 136 176 219 264 316
#     4  10  20  33  52  78 107 138 175 223 274 325
#     4  10  21  38  60  85 116 150 181 221 276 334
#     4  10  22  39  59  85 116 148 182 225 279 335
#     4   9  18  34  56  80 107 142 181 220 268 325
#     4  10  20  35  55  76 104 142 181 222 267 321
#
# _framework density 25.744683999999999
#
# number of rings (size 3 to 8) (size 9 to 14) (size 15 to 20)
#    0.000    2.125    0.000    4.125    0.000    6.750 
#    0.000    6.250    0.000    3.000    0.000    0.000 
#    0.000    0.000    0.000    0.000    0.000    0.000 
#
# Total GULP energy -178996.394833 kJ/mol
# GULP energy per Si atom -5593.637339 kJ/mol
# Density = 2.568609 g / cm^3
# Si number density = 25.744684 Si / 1000 Ang^3
#
#
#
# Elastic Constant Matrix: (Units=GPa)
#
#
# Indices 1 2 3 4 5 6 
#
# 1 74.3937 -3.0042 29.3646 0.0000 17.7018 0.0000
# 2 -3.0042 59.7151 -2.3651 0.0000 -2.8387 0.0000
# 3 29.3646 -2.3651 164.8224 0.0000 17.6024 0.0000
# 4 0.0000 0.0000 0.0000 17.3536 0.0000 0.6134
# 5 17.7018 -2.8387 17.6024 0.0000 56.1246 0.0000
# 6 0.0000 0.0000 0.0000 0.6134 0.0000 5.7263
#
#
#
# Elastic Compliance Matrix: (Units=1/GPa)
#
#
# Indices 1 2 3 4 5 6 
#
# 1 0.015340 0.000486 -0.002288 0.000000 -0.004096 0.000000
# 2 0.000486 0.016806 0.000083 0.000000 0.000671 0.000000
# 3 -0.002288 0.000083 0.006620 0.000000 -0.001350 0.000000
# 4 0.000000 0.000000 0.000000 0.057844 0.000000 -0.006196
# 5 -0.004096 0.000671 -0.001350 0.000000 0.019567 0.000000
# 6 0.000000 0.000000 0.000000 -0.006196 0.000000 0.175296
#
#
# Mechanical properties :
#
#
# Convention : Reuss Voigt Hill
#
# Bulk Modulus (GPa) = 28.30685 38.54687 33.42686
# Shear Modulus (GPa) = 16.30331 34.16998 25.23664
#
# Velocity S-wave (km/s) = 2.51921 3.64711 3.13432
# Velocity P-wave (km/s) = 4.41373 5.72193 5.10987
#
# Compressibility (1/GPa) = 0.03532714
#
# Stress axis : x y z
#
# Youngs Moduli (GPa) = 65.19109 59.50322 151.05174
#
# Poissons Ratio (x) = -0.02894 0.34568
# Poissons Ratio (y) = -0.03171 -0.01252
# Poissons Ratio (z) = 0.14919 -0.00493
#
# Static dielectric constant tensor:
#      x y z
#    x 2.125670 0.000000 0.030030 
#    y 0.000000 1.991370 0.000000 
#    z 0.030030 0.000000 1.978100 
# 
# From -- ./inp_files/314102.got.cif
#   From: 2010.05.17/outbox.cif.g08.bks.cpg/sg12_158_cif.got.tgz:314102.got - 2010.06.03 13:09:07.
