data_PCOD9191488
_publ_section_title
;
Structure prediction by ZEFSAII (Michael W. Deem and Ramdas Pophale) SiO2 
 PCOD9191488
Probable space group: C 2/M
;
_chemical_formula_sum "Si O2"
_cell_formula_units_Z 56
_cell_length_a 24.594556
_cell_length_b 9.191848
_cell_length_c 19.017758
_cell_angle_alpha 90.000000
_cell_angle_beta 49.658007
_cell_angle_gamma 90.000000
_cell_volume 3276.926573
_symmetry_space_group_name_H-M "C 2/M"
_symmetry_group_IT_number 12
_symmetry_cell_setting 'monoclinic'
loop_
_space_group_symop_operation_xyz
x,y,z
-x,y,-z
-x,-y,-z
x,-y,z
1/2+x,1/2+y,z
1/2-x,1/2+y,-z
1/2-x,1/2-y,-z
1/2+x,1/2-y,z
loop_
_atom_site_type_symbol
_atom_site_label
_atom_site_fract_x
_atom_site_fract_y
_atom_site_fract_z
Si Si1 0.291434 0.329095 0.403065
Si Si2 0.550857 0.826250 0.891910
Si Si3 0.217069 0.671874 0.737894
Si Si4 0.588206 0.173737 0.189758
Si Si5 0.812022 0.829970 0.991126
Si Si6 0.289827 0.830741 0.798155
Si Si7 0.540827 0.329298 0.750641
O O1 0.274085 0.500000 0.415929
O O2 0.250000 0.250000 0.500000
O O3 0.274858 0.255633 0.342133
O O4 0.376839 0.314812 0.340408
O O5 0.635642 0.802010 0.833633
O O6 0.534306 0.740635 0.833945
O O7 0.540909 0.000000 0.888458
O O8 0.500000 0.784449 0.000000
O O9 0.224120 0.500000 0.721109
O O10 0.274775 0.729997 0.744855
O O11 0.619375 0.243305 0.091686
O O12 0.643615 0.209091 0.206610
O O13 0.510866 0.244466 0.259304
O O14 0.586008 0.000000 0.185929
O O15 0.817892 0.000000 0.967102
O O16 0.750000 0.750000 0.000000
O O17 0.782469 0.822450 0.094440
O O18 0.299320 0.000000 0.770153
O O19 0.522378 0.500000 0.768802
#
# Coordination Sequence:
#
# PCOD9191488 Si02
#       7
#     8   8   8   8   8   8   8
#     4  10  21  39  62  84 107 133 168 217 271 326
#     4   9  19  34  49  71 104 142 179 218 260 309
#     4  10  20  33  53  80 107 139 178 217 264 317
#     4  10  20  33  50  72 104 146 185 223 264 312
#     4   9  17  29  44  66  97 139 186 225 259 300
#     4   9  19  33  48  71 105 143 181 221 263 306
#     4  10  21  35  53  80 107 136 174 219 268 318
#
# _framework density 17.089183999999999
#
# number of rings (size 3 to 8) (size 9 to 14) (size 15 to 20)
#    0.000    2.429    0.000    3.000    2.000    6.000 
#    0.000    0.000    0.000    0.857    0.000    6.000 
#    0.000    0.000    0.000    0.000    0.000    0.000 
#
# Total GULP energy -156058.471278 kJ/mol
# GULP energy per Si atom -5573.516831 kJ/mol
# Density = 1.705029 g / cm^3
# Si number density = 17.089184 Si / 1000 Ang^3
#
#
#
# Elastic Constant Matrix: (Units=GPa)
#
#
# Indices 1 2 3 4 5 6 
#
# 1 107.3594 76.2805 37.9526 -0.0004 2.1187 0.0006
# 2 76.2805 113.4831 64.2843 -0.0034 7.0834 0.0058
# 3 37.9526 64.2843 94.6713 0.0004 7.4394 -0.0003
# 4 -0.0004 -0.0034 0.0004 28.6140 0.0005 1.7913
# 5 2.1187 7.0834 7.4394 0.0005 8.9484 -0.0010
# 6 0.0006 0.0058 -0.0003 1.7913 -0.0010 29.6519
#
#
#
# Elastic Compliance Matrix: (Units=1/GPa)
#
#
# Indices 1 2 3 4 5 6 
#
# 1 0.018197 -0.013310 0.001342 -0.000002 0.005113 0.000003
# 2 -0.013310 0.024158 -0.010499 0.000003 -0.007243 -0.000005
# 3 0.001342 -0.010499 0.017681 -0.000002 -0.006706 0.000002
# 4 -0.000002 0.000003 -0.000002 0.035081 -0.000003 -0.002119
# 5 0.005113 -0.007243 -0.006706 -0.000003 0.121850 0.000005
# 6 0.000003 -0.000005 0.000002 -0.002119 0.000005 0.033853
#
#
# Mechanical properties :
#
#
# Convention : Reuss Voigt Hill
#
# Bulk Modulus (GPa) = 66.22330 74.72760 70.47545
# Shear Modulus (GPa) = 16.62299 22.57596 19.59948
#
# Velocity S-wave (km/s) = 3.12223 3.63859 3.39026
# Velocity P-wave (km/s) = 7.19955 7.84063 7.52691
#
# Compressibility (1/GPa) = 0.01510042
#
# Stress axis : x y z
#
# Youngs Moduli (GPa) = 54.95541 41.39394 56.55769
#
# Poissons Ratio (x) = 0.55097 -0.07587
# Poissons Ratio (y) = 0.73147 0.59379
# Poissons Ratio (z) = -0.07372 0.43459
#
# Static dielectric constant tensor:
#      x y z
#    x 1.568540 0.000000 -0.004160 
#    y 0.000000 1.568410 0.000000 
#    z -0.004160 0.000000 1.563640 
# 
# From -- ./inp_files/288170.got.cif
#   From: 2010.05.17/outbox.cif.g08.bks.cpg/sg12_145_cif.got.tgz:288170.got - 2010.06.03 13:09:07.
