data_PCOD9191006
_publ_section_title
;
Structure prediction by ZEFSAII (Michael W. Deem and Ramdas Pophale) SiO2 
 PCOD9191006
Probable space group: C 2/M
;
_chemical_formula_sum "Si O2"
_cell_formula_units_Z 60
_cell_length_a 12.226300
_cell_length_b 23.388321
_cell_length_c 14.553067
_cell_angle_alpha 90.000000
_cell_angle_beta 132.234738
_cell_angle_gamma 90.000000
_cell_volume 3081.153896
_symmetry_space_group_name_H-M "C 2/M"
_symmetry_group_IT_number 12
_symmetry_cell_setting 'monoclinic'
loop_
_space_group_symop_operation_xyz
x,y,z
-x,y,-z
-x,-y,-z
x,-y,z
1/2+x,1/2+y,z
1/2-x,1/2+y,-z
1/2-x,1/2-y,-z
1/2+x,1/2-y,z
loop_
_atom_site_type_symbol
_atom_site_label
_atom_site_fract_x
_atom_site_fract_y
_atom_site_fract_z
Si Si1 0.424629 0.390178 0.357226
Si Si2 0.973091 0.227001 0.590138
Si Si3 0.002185 0.068677 0.787332
Si Si4 0.000000 0.394758 0.500000
Si Si5 0.155721 0.335745 0.425847
Si Si6 0.754258 0.433236 0.226554
Si Si7 0.801064 0.569203 0.045842
Si Si8 0.874426 0.432899 0.745962
O O1 0.500000 0.395764 0.500000
O O2 0.407840 0.322777 0.326120
O O3 0.525371 0.415025 0.333352
O O4 0.270203 0.423127 0.274495
O O5 0.958591 0.282175 0.646415
O O6 0.816709 0.193031 0.508000
O O7 0.000000 0.245424 0.500000
O O8 0.881720 0.091177 0.791456
O O9 0.998598 0.000000 0.789907
O O10 0.165509 0.089593 0.907581
O O11 0.117044 0.360006 0.504417
O O12 0.098647 0.428172 0.629563
O O13 0.140311 0.387225 0.345122
O O14 0.721114 0.500000 0.194337
O O15 0.777025 0.409717 0.137233
O O16 0.789983 0.500000 0.039625
O O17 0.970732 0.580760 0.116828
O O18 0.879715 0.500000 0.719090
#
# Coordination Sequence:
#
# PCOD9191006 Si02
#       8
#     8   8   8   4   8   8   8   8
#     4  11  22  39  55  84 116 152 189 243 299 348
#     4  10  20  38  58  79 113 154 203 239 281 351
#     4  10  21  36  55  78 111 156 201 239 287 355
#     4  12  21  30  52  88 112 142 185 232 302 348
#     4  11  21  36  56  83 117 156 194 238 292 344
#     4  10  20  32  51  79 116 152 185 232 283 346
#     4   9  19  36  54  78 112 156 199 234 284 354
#     4  11  22  36  58  86 122 157 187 238 302 353
#
# _framework density 19.473223999999998
#
# number of rings (size 3 to 8) (size 9 to 14) (size 15 to 20)
#    0.000    1.600    4.667    1.800    0.000    3.733 
#    0.000    2.000    0.000    0.800    0.000    0.000 
#    0.000    0.000    0.000    0.000    0.000    0.000 
#
# Total GULP energy -167162.049310 kJ/mol
# GULP energy per Si atom -5572.068310 kJ/mol
# Density = 1.942890 g / cm^3
# Si number density = 19.473224 Si / 1000 Ang^3
#
#
#
# Elastic Constant Matrix: (Units=GPa)
#
#
# Indices 1 2 3 4 5 6 
#
# 1 92.8682 6.1482 9.8695 0.0000 8.3457 0.0000
# 2 6.1482 63.5682 5.4519 0.0000 7.4708 0.0000
# 3 9.8695 5.4519 50.6448 0.0000 5.4516 0.0000
# 4 0.0000 0.0000 0.0000 -0.0233 0.0000 3.7185
# 5 8.3457 7.4708 5.4516 0.0000 22.2382 0.0000
# 6 0.0000 0.0000 0.0000 3.7185 0.0000 34.6749
#
#
#
# Elastic Compliance Matrix: (Units=1/GPa)
#
#
# Indices 1 2 3 4 5 6 
#
# 1 0.011316 -0.000516 -0.001758 0.000000 -0.003643 0.000000
# 2 -0.000516 0.016473 -0.001128 0.000000 -0.005064 0.000000
# 3 -0.001758 -0.001128 0.020642 0.000000 -0.004022 0.000000
# 4 0.000000 0.000000 0.000000 -2.369058 0.000000 0.254054
# 5 -0.003643 -0.005064 -0.004022 0.000000 0.049022 0.000000
# 6 0.000000 0.000000 0.000000 0.254054 0.000000 0.001595
#
#
# Mechanical properties :
#
#
# Convention : Reuss Voigt Hill
#
# Bulk Modulus (GPa) = 24.02149 27.78004 25.90076
# Shear Modulus (GPa) = -2.22288 23.75205 10.76458
#
# Velocity S-wave (km/s) = -1.06957 3.49625 2.35370
# Velocity P-wave (km/s) = 3.29198 5.53128 4.55149
#
# Compressibility (1/GPa) = 0.04162939
#
# Stress axis : x y z
#
# Youngs Moduli (GPa) = 88.36862 60.70590 48.44437
#
# Poissons Ratio (x) = 0.03130 0.08515
# Poissons Ratio (y) = 0.04557 0.05463
# Poissons Ratio (z) = 0.15532 0.06846
#
# Static dielectric constant tensor:
#      x y z
#    x 1.736030 0.000000 0.016140 
#    y 0.000000 1.711160 0.000000 
#    z 0.016140 0.000000 1.684110 
# 
# From -- ./inp_files/208662.got.cif
#   From: 2010.05.17/outbox.cif.g08.bks.cpg/sg12_105_cif.got.tgz:208662.got - 2010.06.03 13:09:07.
