data_PCOD9191817
_publ_section_title
;
Structure prediction by ZEFSAII (Michael W. Deem and Ramdas Pophale) SiO2 
 PCOD9191817
Probable space group: C 2/M
;
_chemical_formula_sum "Si O2"
_cell_formula_units_Z 64
_cell_length_a 28.671309
_cell_length_b 15.027991
_cell_length_c 14.012453
_cell_angle_alpha 90.000000
_cell_angle_beta 29.939617
_cell_angle_gamma 90.000000
_cell_volume 3013.275938
_symmetry_space_group_name_H-M "C 2/M"
_symmetry_group_IT_number 12
_symmetry_cell_setting 'monoclinic'
loop_
_space_group_symop_operation_xyz
x,y,z
-x,y,-z
-x,-y,-z
x,-y,z
1/2+x,1/2+y,z
1/2-x,1/2+y,-z
1/2-x,1/2-y,-z
1/2+x,1/2-y,z
loop_
_atom_site_type_symbol
_atom_site_label
_atom_site_fract_x
_atom_site_fract_y
_atom_site_fract_z
Si Si1 0.633858 0.210169 0.521976
Si Si2 0.724874 0.397980 0.988856
Si Si3 0.658176 0.277324 0.945667
Si Si4 0.433163 0.897031 0.531436
Si Si5 0.828660 0.095608 0.520713
Si Si6 0.712484 0.099426 0.914997
Si Si7 0.416344 0.599066 0.074162
Si Si8 0.768356 0.645725 0.484172
O O1 0.738770 0.215883 0.288215
O O2 0.569554 0.167196 0.555141
O O3 0.614699 0.312264 0.586746
O O4 0.645813 0.147206 0.594037
O O5 0.690571 0.500000 0.048744
O O6 0.662952 0.334647 0.033575
O O7 0.828051 0.397526 0.759547
O O8 0.739723 0.369389 0.071632
O O9 0.643496 0.175144 0.999552
O O10 0.590014 0.323504 0.992018
O O11 0.500000 0.869231 0.500000
O O12 0.455795 0.000000 0.466168
O O13 0.790682 0.092581 0.695064
O O14 0.739440 0.104445 0.607131
O O15 0.874643 0.000000 0.417249
O O16 0.673636 0.000000 0.000445
O O17 0.419508 0.500000 0.025211
O O18 0.320439 0.605055 0.304231
O O19 0.500000 0.609794 0.000000
O O20 0.750000 0.750000 0.500000
#
# Coordination Sequence:
#
# PCOD9191817 Si02
#       8
#     8   8   8   8   8   8   8   8
#     4   8  16  28  45  69  92 114 151 198 237 284
#     4   9  16  27  46  70  94 120 155 201 247 295
#     4   9  16  29  48  70  94 123 160 199 245 300
#     4   9  17  29  45  66  92 120 150 192 250 303
#     4   9  16  27  45  67  91 120 154 194 236 279
#     4   9  17  28  44  68  94 121 159 204 244 284
#     4  10  20  33  51  78 109 135 162 208 269 317
#     4   9  17  31  51  73  98 129 167 205 242 295
#
# _framework density 21.239342000000001
#
# number of rings (size 3 to 8) (size 9 to 14) (size 15 to 20)
#    0.000    3.000    0.000    1.875    0.000    3.500 
#    0.000    2.500    0.000    0.750    0.000    0.000 
#    0.000    0.000    0.000    0.000    0.000    0.000 
#
# Total GULP energy -178383.972995 kJ/mol
# GULP energy per Si atom -5574.499156 kJ/mol
# Density = 2.119100 g / cm^3
# Si number density = 21.239342 Si / 1000 Ang^3
#
#
#
# Elastic Constant Matrix: (Units=GPa)
#
#
# Indices 1 2 3 4 5 6 
#
# 1 115.3352 58.7383 1.4537 0.0000 10.3345 0.0000
# 2 58.7383 113.5799 -3.9295 0.0000 -6.9962 0.0000
# 3 1.4537 -3.9295 36.6785 0.0000 2.1644 0.0000
# 4 0.0000 0.0000 0.0000 -3.6625 0.0000 0.2849
# 5 10.3345 -6.9962 2.1644 0.0000 26.6025 0.0000
# 6 0.0000 0.0000 0.0000 0.2849 0.0000 32.0533
#
#
#
# Elastic Compliance Matrix: (Units=1/GPa)
#
#
# Indices 1 2 3 4 5 6 
#
# 1 0.012928 -0.007136 -0.000874 0.000000 -0.006828 0.000000
# 2 -0.007136 0.012914 0.001309 0.000000 0.006062 0.000000
# 3 -0.000874 0.001309 0.027531 0.000000 -0.001556 0.000000
# 4 0.000000 0.000000 0.000000 -0.272851 0.000000 0.002426
# 5 -0.006828 0.006062 -0.001556 0.000000 0.041964 0.000000
# 6 0.000000 0.000000 0.000000 0.002426 0.000000 0.031176
#
#
# Mechanical properties :
#
#
# Convention : Reuss Voigt Hill
#
# Bulk Modulus (GPa) = 25.01981 42.01317 33.51649
# Shear Modulus (GPa) = -41.80164 24.95408 -8.42378
#
# Velocity S-wave (km/s) = -4.44117 3.43140 -1.99367
# Velocity P-wave (km/s) = 3.80698 5.96013 3.24268
#
# Compressibility (1/GPa) = 0.03996833
#
# Stress axis : x y z
#
# Youngs Moduli (GPa) = 77.35367 77.43738 36.32324
#
# Poissons Ratio (x) = 0.55262 0.03175
# Poissons Ratio (y) = 0.55203 -0.04753
# Poissons Ratio (z) = 0.06761 -0.10134
#
# Static dielectric constant tensor:
#      x y z
#    x 1.771190 0.000000 0.019400 
#    y 0.000000 1.837350 0.000000 
#    z 0.019400 0.000000 1.780390 
# 
# From -- ./inp_files/246356.got.cif
#   From: 2010.05.17/outbox.cif.g08.bks.cpg/sg12_124_cif.got.tgz:246356.got - 2010.06.03 13:09:07.
