data_PCOD9191588
_publ_section_title
;
Structure prediction by ZEFSAII (Michael W. Deem and Ramdas Pophale) SiO2 
 PCOD9191588
Probable space group: C 2/M
;
_chemical_formula_sum "Si O2"
_cell_formula_units_Z 64
_cell_length_a 14.413543
_cell_length_b 9.369633
_cell_length_c 30.098155
_cell_angle_alpha 90.000000
_cell_angle_beta 117.133546
_cell_angle_gamma 90.000000
_cell_volume 3617.402438
_symmetry_space_group_name_H-M "C 2/M"
_symmetry_group_IT_number 12
_symmetry_cell_setting 'monoclinic'
loop_
_space_group_symop_operation_xyz
x,y,z
-x,y,-z
-x,-y,-z
x,-y,z
1/2+x,1/2+y,z
1/2-x,1/2+y,-z
1/2-x,1/2-y,-z
1/2+x,1/2-y,z
loop_
_atom_site_type_symbol
_atom_site_label
_atom_site_fract_x
_atom_site_fract_y
_atom_site_fract_z
Si Si1 0.174033 0.171469 0.612561
Si Si2 0.464427 0.671051 0.867389
Si Si3 0.617384 0.337311 0.504573
Si Si4 0.036687 0.171045 0.783813
Si Si5 0.766194 0.328700 0.863812
Si Si6 0.903823 0.329867 0.681393
Si Si7 0.036709 0.329833 0.407183
Si Si8 0.194736 0.171044 0.947664
O O1 0.185680 0.202451 0.562301
O O2 0.281585 0.205172 0.660561
O O3 0.075798 0.258013 0.608925
O O4 0.154536 0.000000 0.611256
O O5 0.451171 0.500000 0.867796
O O6 0.483482 0.705328 0.819637
O O7 0.365647 0.750629 0.865690
O O8 0.572390 0.708175 0.915994
O O9 0.500000 0.336741 0.500000
O O10 0.641199 0.500000 0.496404
O O11 0.612893 0.235624 0.461308
O O12 0.158625 0.210259 0.815197
O O13 0.977575 0.247828 0.731249
O O14 0.031755 0.000000 0.777224
O O15 0.778053 0.500000 0.863054
O O16 0.747697 0.294562 0.911761
O O17 0.915560 0.500000 0.690124
O O18 0.930967 0.298137 0.636107
O O19 0.031806 0.500000 0.411819
O O20 0.201285 0.000000 0.954837
O O21 0.250000 0.250000 0.000000
#
# Coordination Sequence:
#
# PCOD9191588 Si02
#       8
#     8   8   8   8   8   8   8   8
#     4   9  19  36  53  70  98 134 166 198 245 307
#     4   9  19  36  56  78 105 138 176 217 258 299
#     4   8  15  30  51  71  95 130 165 196 240 302
#     4   9  20  38  55  73 101 134 170 214 259 303
#     4   9  19  36  56  78 105 139 177 214 255 304
#     4  10  22  37  52  74 103 132 165 208 257 306
#     4  10  20  33  50  75 103 127 159 207 254 296
#     4   9  19  35  53  78 114 147 175 212 255 299
#
# _framework density 17.692253000000001
#
# number of rings (size 3 to 8) (size 9 to 14) (size 15 to 20)
#    0.000    2.875    0.000    2.625    0.000    7.750 
#    0.000   10.000    0.000    0.000    0.000    0.000 
#    0.000    0.000    0.000    0.000    0.000    0.000 
#
# Total GULP energy -178485.070621 kJ/mol
# GULP energy per Si atom -5577.658457 kJ/mol
# Density = 1.765198 g / cm^3
# Si number density = 17.692253 Si / 1000 Ang^3
#
#
#
# Elastic Constant Matrix: (Units=GPa)
#
#
# Indices 1 2 3 4 5 6 
#
# 1 109.3493 43.0693 48.5896 0.0000 12.1999 0.0000
# 2 43.0693 36.5972 49.6177 0.0000 5.0169 0.0000
# 3 48.5896 49.6177 129.4182 0.0000 17.0636 0.0000
# 4 0.0000 0.0000 0.0000 38.6959 0.0000 -3.0389
# 5 12.1999 5.0169 17.0636 0.0000 9.8740 0.0000
# 6 0.0000 0.0000 0.0000 -3.0389 0.0000 27.9376
#
#
#
# Elastic Compliance Matrix: (Units=1/GPa)
#
#
# Indices 1 2 3 4 5 6 
#
# 1 0.020510 -0.030404 0.006813 0.000000 -0.021667 0.000000
# 2 -0.030404 0.102976 -0.033827 0.000000 0.043701 0.000000
# 3 0.006813 -0.033827 0.021993 0.000000 -0.029237 0.000000
# 4 0.000000 0.000000 0.000000 0.026065 0.000000 0.002835
# 5 -0.021667 0.043701 -0.029237 0.000000 0.156366 0.000000
# 6 0.000000 0.000000 0.000000 0.002835 0.000000 0.036102
#
#
# Mechanical properties :
#
#
# Convention : Reuss Voigt Hill
#
# Bulk Modulus (GPa) = 32.63370 61.99090 47.31230
# Shear Modulus (GPa) = 10.22361 24.24071 17.23216
#
# Velocity S-wave (km/s) = 2.40648 3.70554 3.12427
# Velocity P-wave (km/s) = 5.11925 7.30908 6.30989
#
# Compressibility (1/GPa) = 0.03064317
#
# Stress axis : x y z
#
# Youngs Moduli (GPa) = 48.75634 9.71096 45.46931
#
# Poissons Ratio (x) = 0.29525 -0.30977
# Poissons Ratio (y) = 1.48238 1.53810
# Poissons Ratio (z) = -0.33217 0.32849
#
# Static dielectric constant tensor:
#      x y z
#    x 1.610370 0.000000 0.011200 
#    y 0.000000 1.582050 0.000000 
#    z 0.011200 0.000000 1.594980 
# 
# From -- ./inp_files/375084.got.cif
#   From: 2010.05.17/outbox.cif.g08.bks.cpg/sg12_188_cif.got.tgz:375084.got - 2010.06.03 13:09:07.
