data_PCOD9191652
_publ_section_title
;
Structure prediction by ZEFSAII (Michael W. Deem and Ramdas Pophale) SiO2 
 PCOD9191652
Probable space group: C 2/M
;
_chemical_formula_sum "Si O2"
_cell_formula_units_Z 48
_cell_length_a 18.998856
_cell_length_b 24.374449
_cell_length_c 5.122217
_cell_angle_alpha 90.000000
_cell_angle_beta 81.881648
_cell_angle_gamma 90.000000
_cell_volume 2348.258935
_symmetry_space_group_name_H-M "C 2/M"
_symmetry_group_IT_number 12
_symmetry_cell_setting 'monoclinic'
loop_
_space_group_symop_operation_xyz
x,y,z
-x,y,-z
-x,-y,-z
x,-y,z
1/2+x,1/2+y,z
1/2-x,1/2+y,-z
1/2-x,1/2-y,-z
1/2+x,1/2-y,z
loop_
_atom_site_type_symbol
_atom_site_label
_atom_site_fract_x
_atom_site_fract_y
_atom_site_fract_z
Si Si1 0.288247 0.668279 0.126732
Si Si2 0.178693 0.060423 0.634621
Si Si3 0.921299 0.059318 0.811102
Si Si4 0.174664 0.709336 0.830807
Si Si5 0.445661 0.674913 0.820315
Si Si6 0.420463 0.218484 0.601537
O O1 0.278034 0.615784 0.317646
O O2 0.286702 0.731260 0.229179
O O3 0.233901 0.668655 0.913318
O O4 0.369128 0.666523 0.988900
O O5 0.139355 0.065111 0.378752
O O6 0.215239 0.000000 0.622985
O O7 0.118469 0.057996 0.890582
O O8 0.969615 0.112843 0.759811
O O9 0.956601 0.000000 0.759939
O O10 0.133890 0.697279 0.585977
O O11 0.114975 0.710944 0.094627
O O12 0.429351 0.714843 0.587420
O O13 0.500000 0.700985 0.000000
O O14 0.500000 0.197070 0.500000
#
# Coordination Sequence:
#
# PCOD9191652 Si02
#       6
#     8   8   8   8   8   8
#     4   9  19  34  50  74 102 129 170 204 244 297
#     4   9  17  31  50  69  96 131 165 209 250 285
#     4   9  18  31  46  66  93 130 175 214 245 274
#     4  10  21  33  53  74  99 133 159 203 251 293
#     4  10  20  33  51  71  99 139 174 210 247 283
#     4  11  21  36  52  73  98 125 162 200 250 308
#
# _framework density 20.440676
#
# number of rings (size 3 to 8) (size 9 to 14) (size 15 to 20)
#    0.000    2.333    0.000    3.500    0.000   10.333 
#    0.000    0.000    0.000    9.500    0.000    0.000 
#    0.000    4.000    0.000    0.000    0.000    0.333 
#
# Total GULP energy -133849.268299 kJ/mol
# GULP energy per Si atom -5577.052846 kJ/mol
# Density = 2.039415 g / cm^3
# Si number density = 20.440676 Si / 1000 Ang^3
#
#
#
# Elastic Constant Matrix: (Units=GPa)
#
#
# Indices 1 2 3 4 5 6 
#
# 1 93.7922 27.7030 31.7833 0.0000 22.2460 0.0000
# 2 27.7030 61.4345 22.8070 0.0000 16.2907 0.0000
# 3 31.7833 22.8070 86.3869 0.0000 7.5168 0.0000
# 4 0.0000 0.0000 0.0000 28.0101 0.0000 24.1923
# 5 22.2460 16.2907 7.5168 0.0000 38.9877 0.0000
# 6 0.0000 0.0000 0.0000 24.1923 0.0000 40.2212
#
#
#
# Elastic Compliance Matrix: (Units=1/GPa)
#
#
# Indices 1 2 3 4 5 6 
#
# 1 0.014429 -0.003470 -0.003867 0.000000 -0.006038 0.000000
# 2 -0.003470 0.020805 -0.003694 0.000000 -0.006001 0.000000
# 3 -0.003867 -0.003694 0.013880 0.000000 0.001074 0.000000
# 4 0.000000 0.000000 0.000000 0.074300 0.000000 -0.044690
# 5 -0.006038 -0.006001 0.001074 0.000000 0.031395 0.000000
# 6 0.000000 0.000000 0.000000 -0.044690 0.000000 0.051743
#
#
# Mechanical properties :
#
#
# Convention : Reuss Voigt Hill
#
# Bulk Modulus (GPa) = 36.96537 45.13335 41.04936
# Shear Modulus (GPa) = 21.04096 32.06516 26.55306
#
# Velocity S-wave (km/s) = 3.21186 3.96497 3.60812
# Velocity P-wave (km/s) = 5.64608 6.56425 6.12240
#
# Compressibility (1/GPa) = 0.02705234
#
# Stress axis : x y z
#
# Youngs Moduli (GPa) = 69.30318 48.06572 72.04368
#
# Poissons Ratio (x) = 0.16679 0.27862
# Poissons Ratio (y) = 0.24048 0.26612
# Poissons Ratio (z) = 0.26802 0.17755
#
# Static dielectric constant tensor:
#      x y z
#    x 1.745370 0.000000 -0.023570 
#    y 0.000000 1.842210 0.000000 
#    z -0.023570 0.000000 1.814400 
# 
# From -- ./inp_files/17202.got.cif
#   From: 2010.05.17/outbox.cif.g08.bks.cpg/sg12_9_cif.got.tgz:17202.got - 2010.06.03 13:09:07.
