data_PCOD9191594
_publ_section_title
;
Structure prediction by ZEFSAII (Michael W. Deem and Ramdas Pophale) SiO2 
 PCOD9191594
Probable space group: C 2/M
;
_chemical_formula_sum "Si O2"
_cell_formula_units_Z 40
_cell_length_a 12.934891
_cell_length_b 17.945222
_cell_length_c 19.560783
_cell_angle_alpha 90.000000
_cell_angle_beta 25.636214
_cell_angle_gamma 90.000000
_cell_volume 1964.446666
_symmetry_space_group_name_H-M "C 2/M"
_symmetry_group_IT_number 12
_symmetry_cell_setting 'monoclinic'
loop_
_space_group_symop_operation_xyz
x,y,z
-x,y,-z
-x,-y,-z
x,-y,z
1/2+x,1/2+y,z
1/2-x,1/2+y,-z
1/2-x,1/2-y,-z
1/2+x,1/2-y,z
loop_
_atom_site_type_symbol
_atom_site_label
_atom_site_fract_x
_atom_site_fract_y
_atom_site_fract_z
Si Si1 0.619847 0.692092 0.125517
Si Si2 0.928631 0.916746 0.394551
Si Si3 0.730483 0.584222 0.667627
Si Si4 0.261287 0.186209 0.377602
Si Si5 0.545017 0.912426 0.862141
O O1 0.438266 0.639572 0.191398
O O2 0.440789 0.743522 0.277374
O O3 0.750000 0.750000 0.000000
O O4 0.832873 0.636779 0.021034
O O5 0.873499 0.914670 0.347331
O O6 0.791797 0.854867 0.519689
O O7 0.209761 0.909114 0.241607
O O8 0.859649 0.000000 0.460611
O O9 0.729396 0.500000 0.694565
O O10 0.000000 0.609762 0.500000
O O11 0.383447 0.126547 0.252662
O O12 0.000000 0.205356 0.500000
O O13 0.477197 0.000000 0.896080
#
# Coordination Sequence:
#
# PCOD9191594 Si02
#       5
#     8   8   8   8   8
#     4  10  20  33  50  75 106 136 163 198 249 305
#     4   9  18  33  54  78  99 126 169 212 249 292
#     4  10  21  37  55  72  96 134 175 211 245 289
#     4   9  17  31  52  78 105 131 163 205 251 296
#     4   9  17  31  53  78 104 131 161 204 252 297
#
# _framework density 20.361967
#
# number of rings (size 3 to 8) (size 9 to 14) (size 15 to 20)
#    0.000    2.600    0.000    1.800    0.000    4.000 
#    0.000    5.000    0.000    3.600    0.000   18.200 
#    0.000    0.000    0.000    0.000    0.000    0.000 
#
# Total GULP energy -111451.317546 kJ/mol
# GULP energy per Si atom -5572.565877 kJ/mol
# Density = 2.031562 g / cm^3
# Si number density = 20.361967 Si / 1000 Ang^3
#
#
#
# Elastic Constant Matrix: (Units=GPa)
#
#
# Indices 1 2 3 4 5 6 
#
# 1 23.6011 5.6859 9.8466 -0.0255 -3.1652 0.0002
# 2 5.6859 137.7416 73.1836 0.0629 -1.0069 -0.0002
# 3 9.8466 73.1836 122.9350 -0.0606 -9.8721 0.0010
# 4 -0.0255 0.0629 -0.0606 57.2160 -0.0297 -10.8656
# 5 -3.1652 -1.0069 -9.8721 -0.0297 26.6740 -0.0169
# 6 0.0002 -0.0002 0.0010 -10.8656 -0.0169 -3.4887
#
#
#
# Elastic Compliance Matrix: (Units=1/GPa)
#
#
# Indices 1 2 3 4 5 6 
#
# 1 0.044260 -0.000129 -0.003140 0.000010 0.004085 -0.000048
# 2 -0.000129 0.010723 -0.006536 -0.000012 -0.002030 0.000043
# 3 -0.003140 -0.006536 0.012602 0.000011 0.004045 -0.000051
# 4 0.000010 -0.000012 0.000011 0.010982 -0.000005 -0.034204
# 5 0.004085 -0.002030 0.004045 -0.000005 0.039395 -0.000175
# 6 -0.000048 0.000043 -0.000051 -0.034204 -0.000175 -0.180111
#
#
# Mechanical properties :
#
#
# Convention : Reuss Voigt Hill
#
# Bulk Modulus (GPa) = 20.84447 51.30110 36.07279
# Shear Modulus (GPa) = -188.34242 29.11770 -79.61236
#
# Velocity S-wave (km/s) = -9.62798 3.78564 -6.25967
# Velocity P-wave (km/s) = 10.64604 6.66013 5.87285
#
# Compressibility (1/GPa) = 0.04797436
#
# Stress axis : x y z
#
# Youngs Moduli (GPa) = 22.59375 93.25551 79.35394
#
# Poissons Ratio (x) = 0.01199 0.24921
# Poissons Ratio (y) = 0.00291 0.51868
# Poissons Ratio (z) = 0.07096 0.60954
#
# Static dielectric constant tensor:
#      x y z
#    x 1.715350 -0.000040 -0.000220 
#    y -0.000040 1.817770 0.000030 
#    z -0.000220 0.000030 1.755880 
# 
# From -- ./inp_files/63174.got.cif
#   From: 2010.05.17/outbox.cif.g08.bks.cpg/sg12_32_cif.got.tgz:63174.got - 2010.06.03 13:09:07.
