data_PCOD9191083
_publ_section_title
;
Structure prediction by ZEFSAII (Michael W. Deem and Ramdas Pophale) SiO2 
 PCOD9191083
Probable space group: C 2/M
;
_chemical_formula_sum "Si O2"
_cell_formula_units_Z 34
_cell_length_a 5.262405
_cell_length_b 24.772717
_cell_length_c 12.358571
_cell_angle_alpha 90.000000
_cell_angle_beta 88.404358
_cell_angle_gamma 90.000000
_cell_volume 1610.488881
_symmetry_space_group_name_H-M "C 2/M"
_symmetry_group_IT_number 12
_symmetry_cell_setting 'monoclinic'
loop_
_space_group_symop_operation_xyz
x,y,z
-x,y,-z
-x,-y,-z
x,-y,z
1/2+x,1/2+y,z
1/2-x,1/2+y,-z
1/2-x,1/2-y,-z
1/2+x,1/2-y,z
loop_
_atom_site_type_symbol
_atom_site_label
_atom_site_fract_x
_atom_site_fract_y
_atom_site_fract_z
Si Si1 0.729676 0.091269 0.613824
Si Si2 0.755065 0.500000 0.926846
Si Si3 0.500000 0.311494 0.500000
Si Si4 0.000000 0.000000 0.500000
Si Si5 0.715035 0.405369 0.754953
Si Si6 0.640936 0.718787 0.732571
O O1 0.795010 0.149202 0.561172
O O2 0.460782 0.090230 0.675031
O O3 0.953640 0.078476 0.698076
O O4 0.785745 0.046886 0.524186
O O5 0.755634 0.446547 0.852115
O O6 0.500000 0.500000 0.000000
O O7 0.000000 0.500000 0.000000
O O8 0.364971 0.283265 0.399762
O O9 0.682348 0.341523 0.776414
O O10 0.369553 0.743166 0.766324
#
# Coordination Sequence:
#
# PCOD9191083 Si02
#       6
#     8   4   4   2   8   8
#     4  10  21  34  55  82 125 168 197 249 288 342
#     4  12  26  45  74  95 112 145 192 263 328 390
#     4   9  20  33  52  88 128 171 220 243 270 322
#     4  10  20  32  52  82 116 166 216 230 288 348
#     4  11  23  42  60  89 122 152 199 248 314 365
#     4  11  22  36  59  87 127 173 209 247 281 336
#
# _framework density 21.111602000000001
#
# number of rings (size 3 to 8) (size 9 to 14) (size 15 to 20)
#    0.000    1.412    0.000    6.353    0.000   13.176 
#    0.000    0.000    0.000    4.235    0.000    0.000 
#    0.000    0.000    0.000    0.000    0.000    0.000 
#
# Total GULP energy -94825.327364 kJ/mol
# GULP energy per Si atom -5577.960433 kJ/mol
# Density = 2.106355 g / cm^3
# Si number density = 21.111602 Si / 1000 Ang^3
#
#
#
# Elastic Constant Matrix: (Units=GPa)
#
#
# Indices 1 2 3 4 5 6 
#
# 1 175.9619 65.7567 45.2419 0.0000 3.1916 0.0000
# 2 65.7567 137.9728 47.4242 0.0000 4.5012 0.0000
# 3 45.2419 47.4242 59.8114 0.0000 9.7904 0.0000
# 4 0.0000 0.0000 0.0000 37.0836 0.0000 5.6840
# 5 3.1916 4.5012 9.7904 0.0000 40.1469 0.0000
# 6 0.0000 0.0000 0.0000 5.6840 0.0000 12.8359
#
#
#
# Elastic Compliance Matrix: (Units=1/GPa)
#
#
# Indices 1 2 3 4 5 6 
#
# 1 0.007543 -0.002225 -0.004046 0.000000 0.000636 0.000000
# 2 -0.002225 0.010647 -0.006866 0.000000 0.000658 0.000000
# 3 -0.004046 -0.006866 0.026086 0.000000 -0.005270 0.000000
# 4 0.000000 0.000000 0.000000 0.028930 0.000000 -0.012811
# 5 0.000636 0.000658 -0.005270 0.000000 0.026069 0.000000
# 6 0.000000 0.000000 0.000000 -0.012811 0.000000 0.083580
#
#
# Mechanical properties :
#
#
# Convention : Reuss Voigt Hill
#
# Bulk Modulus (GPa) = 55.54903 76.73241 66.14072
# Shear Modulus (GPa) = 23.24172 32.36815 27.80494
#
# Velocity S-wave (km/s) = 3.32158 3.91985 3.63305
# Velocity P-wave (km/s) = 6.40935 7.54400 6.99970
#
# Compressibility (1/GPa) = 0.01800211
#
# Stress axis : x y z
#
# Youngs Moduli (GPa) = 132.56898 93.92284 38.33430
#
# Poissons Ratio (x) = 0.20900 0.15508
# Poissons Ratio (y) = 0.29500 0.26322
# Poissons Ratio (z) = 0.53631 0.64491
#
# Static dielectric constant tensor:
#      x y z
#    x 1.788570 0.000000 0.028230 
#    y 0.000000 1.766310 0.000000 
#    z 0.028230 0.000000 1.779830 
# 
# From -- ./inp_files/115035.got.cif
#   From: 2010.05.17/outbox.cif.g08.bks.cpg/sg12_58_cif.got.tgz:115035.got - 2010.06.03 13:09:07.
