data_PCOD9191162
_publ_section_title
;
Structure prediction by ZEFSAII (Michael W. Deem and Ramdas Pophale) SiO2 
 PCOD9191162
Probable space group: C 2/M
;
_chemical_formula_sum "Si O2"
_cell_formula_units_Z 48
_cell_length_a 15.159509
_cell_length_b 18.304701
_cell_length_c 8.377657
_cell_angle_alpha 90.000000
_cell_angle_beta 103.351819
_cell_angle_gamma 90.000000
_cell_volume 2261.882210
_symmetry_space_group_name_H-M "C 2/M"
_symmetry_group_IT_number 12
_symmetry_cell_setting 'monoclinic'
loop_
_space_group_symop_operation_xyz
x,y,z
-x,y,-z
-x,-y,-z
x,-y,z
1/2+x,1/2+y,z
1/2-x,1/2+y,-z
1/2-x,1/2-y,-z
1/2+x,1/2-y,z
loop_
_atom_site_type_symbol
_atom_site_label
_atom_site_fract_x
_atom_site_fract_y
_atom_site_fract_z
Si Si1 0.751180 0.416867 0.791460
Si Si2 0.430933 0.140558 0.329501
Si Si3 0.397128 0.302234 0.659745
Si Si4 0.570574 0.845065 0.152787
Si Si5 0.749071 0.081429 0.597391
Si Si6 0.603012 0.698981 0.725158
O O1 0.728917 0.500000 0.826986
O O2 0.850284 0.392460 0.889226
O O3 0.757400 0.414326 0.599017
O O4 0.677872 0.357367 0.816278
O O5 0.500000 0.163871 0.500000
O O6 0.503071 0.107488 0.235885
O O7 0.349240 0.094982 0.367068
O O8 0.389456 0.214836 0.236698
O O9 0.385536 0.221555 0.728700
O O10 0.320457 0.357887 0.684524
O O11 0.389173 0.301791 0.464572
O O12 0.501622 0.324168 0.733570
O O13 0.500000 0.811085 0.000000
O O14 0.780985 0.000000 0.650049
#
# Coordination Sequence:
#
# PCOD9191162 Si02
#       6
#     8   8   8   8   8   8
#     4  10  20  33  52  81 112 143 174 216 270 318
#     4  11  18  34  56  78 105 140 181 222 260 304
#     4   9  17  34  54  80 107 136 179 224 265 307
#     4  11  22  36  55  80 109 142 179 220 265 317
#     4  10  20  32  55  84 108 137 177 223 267 314
#     4   9  16  32  57  80 102 139 181 224 264 305
#
# _framework density 21.221264000000001
#
# number of rings (size 3 to 8) (size 9 to 14) (size 15 to 20)
#    0.000    2.000    5.000    1.000    0.000    4.667 
#    0.000   10.833    0.000    0.500    0.000    0.000 
#    0.000    0.000    0.000    0.000    0.000    0.000 
#
# Total GULP energy -133834.090864 kJ/mol
# GULP energy per Si atom -5576.420453 kJ/mol
# Density = 2.117296 g / cm^3
# Si number density = 21.221264 Si / 1000 Ang^3
#
#
#
# Elastic Constant Matrix: (Units=GPa)
#
#
# Indices 1 2 3 4 5 6 
#
# 1 49.5598 6.8760 -4.3063 0.0000 -0.1641 0.0000
# 2 6.8760 47.6088 6.4857 0.0000 6.5123 0.0000
# 3 -4.3063 6.4857 13.3420 0.0000 7.2770 0.0000
# 4 0.0000 0.0000 0.0000 5.3624 0.0000 -1.7958
# 5 -0.1641 6.5123 7.2770 0.0000 15.4797 0.0000
# 6 0.0000 0.0000 0.0000 -1.7958 0.0000 -2.1599
#
#
#
# Elastic Compliance Matrix: (Units=1/GPa)
#
#
# Indices 1 2 3 4 5 6 
#
# 1 0.021674 -0.004170 0.010678 0.000000 -0.003036 0.000000
# 2 -0.004170 0.023692 -0.009955 0.000000 -0.005332 0.000000
# 3 0.010678 -0.009955 0.108783 0.000000 -0.046838 0.000000
# 4 0.000000 0.000000 0.000000 0.145866 0.000000 -0.121282
# 5 -0.003036 -0.005332 -0.046838 0.000000 0.088830 0.000000
# 6 0.000000 0.000000 0.000000 -0.121282 0.000000 -0.362150
#
#
# Mechanical properties :
#
#
# Convention : Reuss Voigt Hill
#
# Bulk Modulus (GPa) = 6.79087 14.29128 10.54107
# Shear Modulus (GPa) = 60.47958 10.50014 35.48986
#
# Velocity S-wave (km/s) = 5.34429 2.22681 4.09390
# Velocity P-wave (km/s) = 6.42564 3.65522 5.22730
#
# Compressibility (1/GPa) = 0.14725650
#
# Stress axis : x y z
#
# Youngs Moduli (GPa) = 46.13833 42.20804 9.19264
#
# Poissons Ratio (x) = 0.17600 -0.09816
# Poissons Ratio (y) = 0.19238 0.09151
# Poissons Ratio (z) = -0.49268 0.42017
#
# Static dielectric constant tensor:
#      x y z
#    x 1.774480 0.000000 -0.037670 
#    y 0.000000 1.754210 0.000000 
#    z -0.037670 0.000000 1.845480 
# 
# From -- ./inp_files/63632.got.cif
#   From: 2010.05.17/outbox.cif.g08.bks.cpg/sg12_32_cif.got.tgz:63632.got - 2010.06.03 13:09:07.
