data_PCOD9191760
_publ_section_title
;
Structure prediction by ZEFSAII (Michael W. Deem and Ramdas Pophale) SiO2 
 PCOD9191760
Probable space group: C 2/M
;
_chemical_formula_sum "Si O2"
_cell_formula_units_Z 40
_cell_length_a 14.667609
_cell_length_b 8.228056
_cell_length_c 18.203477
_cell_angle_alpha 90.000000
_cell_angle_beta 69.323545
_cell_angle_gamma 90.000000
_cell_volume 2055.398883
_symmetry_space_group_name_H-M "C 2/M"
_symmetry_group_IT_number 12
_symmetry_cell_setting 'monoclinic'
loop_
_space_group_symop_operation_xyz
x,y,z
-x,y,-z
-x,-y,-z
x,-y,z
1/2+x,1/2+y,z
1/2-x,1/2+y,-z
1/2-x,1/2-y,-z
1/2+x,1/2-y,z
loop_
_atom_site_type_symbol
_atom_site_label
_atom_site_fract_x
_atom_site_fract_y
_atom_site_fract_z
Si Si1 0.668887 0.304848 0.703876
Si Si2 0.368393 0.695740 0.602076
Si Si3 0.352611 0.808885 0.003081
Si Si4 0.952095 0.806930 0.121940
Si Si5 0.909492 0.198084 0.429516
O O1 0.660025 0.500000 0.705691
O O2 0.782180 0.261227 0.676516
O O3 0.602988 0.245628 0.789801
O O4 0.634092 0.241577 0.634302
O O5 0.363921 0.500000 0.603260
O O6 0.359281 0.753366 0.519681
O O7 0.476531 0.741525 0.597069
O O8 0.384136 0.724286 0.070326
O O9 0.347257 0.000000 0.018364
O O10 0.250000 0.750000 0.000000
O O11 0.443343 0.773334 0.923029
O O12 0.968169 0.000000 0.123715
O O13 0.904464 0.000000 0.431106
#
# Coordination Sequence:
#
# PCOD9191760 Si02
#       5
#     8   8   8   8   8
#     4  10  20  33  51  76 108 138 168 215 269 309
#     4   9  17  31  52  73  99 139 185 221 253 305
#     4  11  22  39  62  83 106 139 175 217 268 325
#     4  10  21  37  55  81 113 143 179 222 264 318
#     4   8  16  32  50  71 101 140 180 217 260 308
#
# _framework density 19.460944000000001
#
# number of rings (size 3 to 8) (size 9 to 14) (size 15 to 20)
#    0.000    2.400    0.000    5.400    0.000    3.200 
#    0.000    5.000    0.000    0.000    0.000    0.000 
#    0.000    0.000    0.000    0.000    0.000    0.000 
#
# Total GULP energy -111613.949902 kJ/mol
# GULP energy per Si atom -5580.697495 kJ/mol
# Density = 1.941665 g / cm^3
# Si number density = 19.460944 Si / 1000 Ang^3
#
#
#
# Elastic Constant Matrix: (Units=GPa)
#
#
# Indices 1 2 3 4 5 6 
#
# 1 86.7830 -9.4443 37.0800 0.0000 -15.9083 0.0000
# 2 -9.4443 13.7607 -7.2989 0.0000 1.7471 0.0000
# 3 37.0800 -7.2989 104.6354 0.0000 -23.6334 0.0000
# 4 0.0000 0.0000 0.0000 20.9558 0.0000 -8.3014
# 5 -15.9083 1.7471 -23.6334 0.0000 16.2060 0.0000
# 6 0.0000 0.0000 0.0000 -8.3014 0.0000 25.0361
#
#
#
# Elastic Compliance Matrix: (Units=1/GPa)
#
#
# Indices 1 2 3 4 5 6 
#
# 1 0.015398 0.007890 -0.002512 0.000000 0.010602 0.000000
# 2 0.007890 0.079511 0.003823 0.000000 0.004748 0.000000
# 3 -0.002512 0.003823 0.015007 0.000000 0.019007 0.000000
# 4 0.000000 0.000000 0.000000 0.054935 0.000000 0.018215
# 5 0.010602 0.004748 0.019007 0.000000 0.099318 0.000000
# 6 0.000000 0.000000 0.000000 0.018215 0.000000 0.045982
#
#
# Mechanical properties :
#
#
# Convention : Reuss Voigt Hill
#
# Bulk Modulus (GPa) = 7.79316 27.31696 17.55506
# Shear Modulus (GPa) = 14.94668 24.76240 19.85454
#
# Velocity S-wave (km/s) = 2.77435 3.57096 3.19756
# Velocity P-wave (km/s) = 3.77835 5.57402 4.76159
#
# Compressibility (1/GPa) = 0.12831765
#
# Stress axis : x y z
#
# Youngs Moduli (GPa) = 64.94232 12.57689 66.63682
#
# Poissons Ratio (x) = -0.09923 0.16738
# Poissons Ratio (y) = -0.51239 -0.25474
# Poissons Ratio (z) = 0.16312 -0.04808
#
# Static dielectric constant tensor:
#      x y z
#    x 1.674910 0.000000 0.009440 
#    y 0.000000 1.676720 0.000000 
#    z 0.009440 0.000000 1.685400 
# 
# From -- ./inp_files/249506.got.cif
#   From: 2010.05.17/outbox.cif.g08.bks.cpg/sg12_125_cif.got.tgz:249506.got - 2010.06.03 13:09:07.
