data_PCOD9191633
_publ_section_title
;
Structure prediction by ZEFSAII (Michael W. Deem and Ramdas Pophale) SiO2 
 PCOD9191633
Probable space group: C 2/M
;
_chemical_formula_sum "Si O2"
_cell_formula_units_Z 48
_cell_length_a 8.808072
_cell_length_b 22.434470
_cell_length_c 13.463542
_cell_angle_alpha 90.000000
_cell_angle_beta 73.645480
_cell_angle_gamma 90.000000
_cell_volume 2552.807589
_symmetry_space_group_name_H-M "C 2/M"
_symmetry_group_IT_number 12
_symmetry_cell_setting 'monoclinic'
loop_
_space_group_symop_operation_xyz
x,y,z
-x,y,-z
-x,-y,-z
x,-y,z
1/2+x,1/2+y,z
1/2-x,1/2+y,-z
1/2-x,1/2-y,-z
1/2+x,1/2-y,z
loop_
_atom_site_type_symbol
_atom_site_label
_atom_site_fract_x
_atom_site_fract_y
_atom_site_fract_z
Si Si1 0.471530 0.199428 0.389234
Si Si2 0.390023 0.670174 0.609900
Si Si3 0.061545 0.349649 0.175704
Si Si4 0.781684 0.885725 0.817164
Si Si5 0.595831 0.724089 0.077456
Si Si6 0.312379 0.434102 0.020851
O O1 0.500000 0.184632 0.500000
O O2 0.526091 0.268465 0.368221
O O3 0.286937 0.189409 0.394012
O O4 0.572522 0.160117 0.292160
O O5 0.500000 0.649399 0.500000
O O6 0.371885 0.618845 0.695925
O O7 0.024898 0.282583 0.142301
O O8 0.206978 0.383452 0.095468
O O9 0.902330 0.383739 0.176818
O O10 0.850925 0.826212 0.857213
O O11 0.792816 0.931296 0.905378
O O12 0.500000 0.702058 0.000000
O O13 0.750000 0.750000 0.000000
O O14 0.264979 0.500000 0.066462
O O15 0.500000 0.427383 0.000000
#
# Coordination Sequence:
#
# PCOD9191633 Si02
#       6
#     8   8   8   8   8   8
#     4  10  20  33  51  79 112 149 186 218 265 320
#     4  10  20  33  50  78 115 149 184 220 264 319
#     4  11  22  36  55  80 112 147 183 223 272 330
#     4  11  22  35  55  81 111 149 184 221 273 328
#     4  12  20  31  49  80 116 144 179 219 270 330
#     4  11  25  41  58  82 108 140 183 231 283 331
#
# _framework density 18.802828000000002
#
# number of rings (size 3 to 8) (size 9 to 14) (size 15 to 20)
#    0.000    1.167    5.000    3.000    0.000    4.000 
#    0.000    0.000    0.000    1.000    0.000    0.000 
#    0.000    0.000    0.000    0.000    0.000    0.000 
#
# Total GULP energy -133690.276002 kJ/mol
# GULP energy per Si atom -5570.428167 kJ/mol
# Density = 1.876003 g / cm^3
# Si number density = 18.802828 Si / 1000 Ang^3
#
#
#
# Elastic Constant Matrix: (Units=GPa)
#
#
# Indices 1 2 3 4 5 6 
#
# 1 50.0895 3.1112 40.6647 0.0000 -10.3116 0.0000
# 2 3.1112 65.1391 28.1348 0.0000 -5.3208 0.0000
# 3 40.6647 28.1348 138.0288 0.0000 -3.1651 0.0000
# 4 0.0000 0.0000 0.0000 11.7304 0.0000 -3.4139
# 5 -10.3116 -5.3208 -3.1651 0.0000 26.7153 0.0000
# 6 0.0000 0.0000 0.0000 -3.4139 0.0000 6.8697
#
#
#
# Elastic Compliance Matrix: (Units=1/GPa)
#
#
# Indices 1 2 3 4 5 6 
#
# 1 0.029401 0.003425 -0.009109 0.000000 0.010951 0.000000
# 2 0.003425 0.017468 -0.004472 0.000000 0.004271 0.000000
# 3 -0.009109 -0.004472 0.010768 0.000000 -0.003131 0.000000
# 4 0.000000 0.000000 0.000000 0.099662 0.000000 0.049527
# 5 0.010951 0.004271 -0.003131 0.000000 0.042138 0.000000
# 6 0.000000 0.000000 0.000000 0.049527 0.000000 0.170178
#
#
# Mechanical properties :
#
#
# Convention : Reuss Voigt Hill
#
# Bulk Modulus (GPa) = 26.79115 44.11986 35.45550
# Shear Modulus (GPa) = 12.42639 21.15287 16.78963
#
# Velocity S-wave (km/s) = 2.57354 3.35772 2.99144
# Velocity P-wave (km/s) = 4.80731 6.20868 5.55239
#
# Compressibility (1/GPa) = 0.03732576
#
# Stress axis : x y z
#
# Youngs Moduli (GPa) = 34.01261 57.24606 92.86722
#
# Poissons Ratio (x) = -0.19604 0.84590
# Poissons Ratio (y) = -0.11648 0.41527
# Poissons Ratio (z) = 0.30981 0.25598
#
# Static dielectric constant tensor:
#      x y z
#    x 1.749720 0.000000 -0.205750 
#    y 0.000000 1.748080 0.000000 
#    z -0.205750 0.000000 2.056620 
# 
# From -- ./inp_files/197933.got.cif
#   From: 2010.05.17/outbox.cif.g08.bks.cpg/sg12_99_cif.got.tgz:197933.got - 2010.06.03 13:09:07.
