data_PCOD9191833
_publ_section_title
;
Structure prediction by ZEFSAII (Michael W. Deem and Ramdas Pophale) SiO2 
 PCOD9191833
Probable space group: C 2/M
;
_chemical_formula_sum "Si O2"
_cell_formula_units_Z 56
_cell_length_a 17.164985
_cell_length_b 13.612906
_cell_length_c 17.381443
_cell_angle_alpha 90.000000
_cell_angle_beta 146.766864
_cell_angle_gamma 90.000000
_cell_volume 2225.860561
_symmetry_space_group_name_H-M "C 2/M"
_symmetry_group_IT_number 12
_symmetry_cell_setting 'monoclinic'
loop_
_space_group_symop_operation_xyz
x,y,z
-x,y,-z
-x,-y,-z
x,-y,z
1/2+x,1/2+y,z
1/2-x,1/2+y,-z
1/2-x,1/2-y,-z
1/2+x,1/2-y,z
loop_
_atom_site_type_symbol
_atom_site_label
_atom_site_fract_x
_atom_site_fract_y
_atom_site_fract_z
Si Si1 0.528436 0.613995 0.754394
Si Si2 0.023511 0.620115 0.849736
Si Si3 0.600957 0.111598 0.495147
Si Si4 0.788225 0.118130 0.958330
Si Si5 0.797481 0.696264 0.273824
Si Si6 0.250152 0.886997 0.546168
Si Si7 0.296389 0.111040 0.859767
O O1 0.484992 0.500000 0.732621
O O2 0.401247 0.659428 0.599659
O O3 0.667650 0.610850 0.816005
O O4 0.580356 0.652728 0.879919
O O5 0.019839 0.500000 0.842180
O O6 0.143906 0.646936 0.885476
O O7 0.868433 0.657847 0.699139
O O8 0.072423 0.640927 0.977060
O O9 0.463301 0.180066 0.388947
O O10 0.711900 0.139364 0.653692
O O11 0.672187 0.112600 0.471743
O O12 0.548237 0.000000 0.462077
O O13 0.784868 0.155131 0.868673
O O14 0.790689 0.000000 0.959527
O O15 0.752381 0.809060 0.241319
O O16 0.224754 0.000000 0.551762
O O17 0.314625 0.000000 0.845712
#
# Coordination Sequence:
#
# PCOD9191833 Si02
#       7
#     8   8   8   8   8   8   8
#     4   8  16  29  48  74 106 138 162 198 256 309
#     4   8  14  26  47  72  98 130 165 205 247 294
#     4  10  20  33  51  79 105 130 166 213 249 299
#     4   9  15  27  46  72 101 130 163 201 248 300
#     4  11  19  30  51  72 101 134 174 205 254 290
#     4   9  15  29  51  75 105 137 166 196 250 310
#     4   9  19  34  50  73 104 131 169 213 249 295
#
# _framework density 25.158808000000001
#
# number of rings (size 3 to 8) (size 9 to 14) (size 15 to 20)
#    0.000    2.857    1.429    3.429    0.000    2.286 
#    0.000    2.857    0.000    3.429    0.000    0.000 
#    0.000    5.714    0.000    1.143    0.000    0.000 
#
# Total GULP energy -156602.582563 kJ/mol
# GULP energy per Si atom -5592.949377 kJ/mol
# Density = 2.510155 g / cm^3
# Si number density = 25.158808 Si / 1000 Ang^3
#
#
#
# Elastic Constant Matrix: (Units=GPa)
#
#
# Indices 1 2 3 4 5 6 
#
# 1 57.9890 16.9897 23.2332 0.0000 -8.9580 0.0000
# 2 16.9897 116.5060 44.9784 0.0000 -11.5364 0.0000
# 3 23.2332 44.9784 198.6839 0.0000 6.2734 0.0000
# 4 0.0000 0.0000 0.0000 26.6939 0.0000 -6.1857
# 5 -8.9580 -11.5364 6.2734 0.0000 20.8843 0.0000
# 6 0.0000 0.0000 0.0000 -6.1857 0.0000 12.9295
#
#
#
# Elastic Compliance Matrix: (Units=1/GPa)
#
#
# Indices 1 2 3 4 5 6 
#
# 1 0.019839 -0.001143 -0.002332 0.000000 0.008579 0.000000
# 2 -0.001143 0.010248 -0.002372 0.000000 0.005883 0.000000
# 3 -0.002332 -0.002372 0.005972 0.000000 -0.004105 0.000000
# 4 0.000000 0.000000 0.000000 0.042133 0.000000 0.020157
# 5 0.008579 0.005883 -0.004105 0.000000 0.056046 0.000000
# 6 0.000000 0.000000 0.000000 0.020157 0.000000 0.086986
#
#
# Mechanical properties :
#
#
# Convention : Reuss Voigt Hill
#
# Bulk Modulus (GPa) = 41.04234 60.39793 50.72014
# Shear Modulus (GPa) = 20.74337 31.30004 26.02170
#
# Velocity S-wave (km/s) = 2.87452 3.53100 3.21954
# Velocity P-wave (km/s) = 5.23124 6.37831 5.83304
#
# Compressibility (1/GPa) = 0.02436508
#
# Stress axis : x y z
#
# Youngs Moduli (GPa) = 50.40541 97.57706 167.43667
#
# Poissons Ratio (x) = 0.11157 0.39045
# Poissons Ratio (y) = 0.05763 0.39718
# Poissons Ratio (z) = 0.11754 0.23146
#
# Static dielectric constant tensor:
#      x y z
#    x 1.951870 0.000000 0.016760 
#    y 0.000000 2.054200 0.000000 
#    z 0.016760 0.000000 2.019920 
# 
# From -- ./inp_files/352084.got.cif
#   From: 2010.05.17/outbox.cif.g08.bks.cpg/sg12_177_cif.got.tgz:352084.got - 2010.06.03 13:09:07.
