data_PCOD9191251
_publ_section_title
;
Structure prediction by ZEFSAII (Michael W. Deem and Ramdas Pophale) SiO2 
 PCOD9191251
Probable space group: C 2/M
;
_chemical_formula_sum "Si O2"
_cell_formula_units_Z 48
_cell_length_a 20.107324
_cell_length_b 7.333464
_cell_length_c 17.899077
_cell_angle_alpha 90.000000
_cell_angle_beta 62.756693
_cell_angle_gamma 90.000000
_cell_volume 2346.552831
_symmetry_space_group_name_H-M "C 2/M"
_symmetry_group_IT_number 12
_symmetry_cell_setting 'monoclinic'
loop_
_space_group_symop_operation_xyz
x,y,z
-x,y,-z
-x,-y,-z
x,-y,z
1/2+x,1/2+y,z
1/2-x,1/2+y,-z
1/2-x,1/2-y,-z
1/2+x,1/2-y,z
loop_
_atom_site_type_symbol
_atom_site_label
_atom_site_fract_x
_atom_site_fract_y
_atom_site_fract_z
Si Si1 0.385162 0.280047 0.093850
Si Si2 0.471609 0.293427 0.437925
Si Si3 0.317861 0.722430 0.276943
Si Si4 0.523909 0.276916 0.729627
Si Si5 0.698297 0.783883 0.454984
Si Si6 0.546642 0.719878 0.086658
O O1 0.378405 0.500000 0.093577
O O2 0.326421 0.217267 0.186458
O O3 0.465813 0.242687 0.090509
O O4 0.392108 0.213747 0.004859
O O5 0.500000 0.206079 0.500000
O O6 0.502632 0.500000 0.420771
O O7 0.489659 0.212649 0.347503
O O8 0.382164 0.300378 0.490126
O O9 0.317933 0.500000 0.277210
O O10 0.393233 0.776024 0.283444
O O11 0.244784 0.781889 0.359182
O O12 0.524652 0.500000 0.727913
O O13 0.463512 0.218207 0.822991
O O14 0.750000 0.750000 0.500000
O O15 0.686699 0.000000 0.453287
O O16 0.553665 0.500000 0.085891
#
# Coordination Sequence:
#
# PCOD9191251 Si02
#       6
#     8   8   8   8   8   8
#     4   7   9  14  25  48  79 106 129 161 212 259
#     4  10  20  33  47  64  90 122 154 187 223 262
#     4   8  13  21  36  57  83 110 136 173 218 261
#     4   8  12  21  36  56  82 111 141 174 216 256
#     4  11  20  31  48  68  91 119 151 185 223 267
#     4   7   9  13  26  48  77 107 131 163 209 258
#
# _framework density 20.455537
#
# number of rings (size 3 to 8) (size 9 to 14) (size 15 to 20)
#    0.000    3.500    1.667    3.500    0.000    0.333 
#    0.000    0.000    0.000    0.000    0.000    1.167 
#    0.000    4.000    0.000    0.000    0.000    0.000 
#
# Total GULP energy -133623.915238 kJ/mol
# GULP energy per Si atom -5567.663135 kJ/mol
# Density = 2.040898 g / cm^3
# Si number density = 20.455537 Si / 1000 Ang^3
#
#
#
# Elastic Constant Matrix: (Units=GPa)
#
#
# Indices 1 2 3 4 5 6 
#
# 1 40.1356 -4.6599 34.4744 0.0001 19.0543 0.0004
# 2 -4.6599 79.6419 5.1591 0.0005 3.2971 0.0004
# 3 34.4744 5.1591 250.2216 0.0000 31.0375 0.0000
# 4 0.0001 0.0005 0.0000 -3.5947 0.0000 -6.8803
# 5 19.0543 3.2971 31.0375 0.0000 22.8924 0.0001
# 6 0.0004 0.0004 0.0000 -6.8803 0.0001 -3.4361
#
#
#
# Elastic Compliance Matrix: (Units=1/GPa)
#
#
# Indices 1 2 3 4 5 6 
#
# 1 0.043068 0.004044 -0.001801 0.000002 -0.033987 0.000000
# 2 0.004044 0.013012 -0.000211 0.000000 -0.004954 0.000001
# 3 -0.001801 -0.000211 0.004880 0.000000 -0.005087 0.000000
# 4 0.000002 0.000000 0.000000 0.098212 0.000000 -0.196654
# 5 -0.033987 -0.004954 -0.005087 0.000000 0.079582 -0.000001
# 6 0.000000 0.000001 0.000000 -0.196654 -0.000001 0.102744
#
#
# Mechanical properties :
#
#
# Convention : Reuss Voigt Hill
#
# Bulk Modulus (GPa) = 15.37938 48.88290 32.13114
# Shear Modulus (GPa) = 13.92338 25.50735 19.71537
#
# Velocity S-wave (km/s) = 2.61179 3.53507 3.10791
# Velocity P-wave (km/s) = 4.07799 6.37270 5.34983
#
# Compressibility (1/GPa) = 0.06502213
#
# Stress axis : x y z
#
# Youngs Moduli (GPa) = 23.21927 76.85484 204.92180
#
# Poissons Ratio (x) = -0.31078 0.36911
# Poissons Ratio (y) = -0.09389 0.04322
# Poissons Ratio (z) = 0.04182 0.01621
#
# Static dielectric constant tensor:
#      x y z
#    x 1.691050 0.000000 0.005140 
#    y 0.000000 1.814960 0.000000 
#    z 0.005140 0.000000 1.823300 
# 
# From -- ./inp_files/280058.got.cif
#   From: 2010.05.17/outbox.cif.g08.bks.cpg/sg12_141_cif.got.tgz:280058.got - 2010.06.03 13:09:07.
