data_PCOD9191678
_publ_section_title
;
Structure prediction by ZEFSAII (Michael W. Deem and Ramdas Pophale) SiO2 
 PCOD9191678
Probable space group: C 2/M
;
_chemical_formula_sum "Si O2"
_cell_formula_units_Z 56
_cell_length_a 21.377709
_cell_length_b 7.424768
_cell_length_c 21.412642
_cell_angle_alpha 90.000000
_cell_angle_beta 133.795339
_cell_angle_gamma 90.000000
_cell_volume 2453.246169
_symmetry_space_group_name_H-M "C 2/M"
_symmetry_group_IT_number 12
_symmetry_cell_setting 'monoclinic'
loop_
_space_group_symop_operation_xyz
x,y,z
-x,y,-z
-x,-y,-z
x,-y,z
1/2+x,1/2+y,z
1/2-x,1/2+y,-z
1/2-x,1/2-y,-z
1/2+x,1/2-y,z
loop_
_atom_site_type_symbol
_atom_site_label
_atom_site_fract_x
_atom_site_fract_y
_atom_site_fract_z
Si Si1 0.078269 0.782641 0.725171
Si Si2 0.543645 0.280573 0.935139
Si Si3 0.192472 0.712151 0.691927
Si Si4 0.633096 0.280401 0.124033
Si Si5 0.889211 0.206830 0.626108
Si Si6 0.281102 0.219892 0.428557
Si Si7 0.840848 0.785073 0.095875
O O1 0.108878 0.732058 0.677465
O O2 0.146800 0.719092 0.825028
O O3 0.984222 0.714355 0.681672
O O4 0.075303 0.000000 0.722783
O O5 0.543582 0.500000 0.934384
O O6 0.446418 0.226618 0.885854
O O7 0.583090 0.217987 0.897277
O O8 0.606133 0.224464 0.035578
O O9 0.208759 0.500000 0.696048
O O10 0.275363 0.785475 0.787143
O O11 0.188807 0.780900 0.618807
O O12 0.634435 0.500000 0.123682
O O13 0.817389 0.280334 0.624254
O O14 0.841704 0.212684 0.526197
O O15 0.903137 0.000000 0.655596
O O16 0.282703 0.000000 0.433578
O O17 0.849744 0.000000 0.105145
O O18 0.750000 0.750000 0.000000
#
# Coordination Sequence:
#
# PCOD9191678 Si02
#       7
#     8   8   8   8   8   8   8
#     4  10  22  36  52  77 109 144 177 212 259 319
#     4   8  14  25  44  70  96 126 166 211 253 296
#     4  10  20  33  53  79 106 136 171 221 269 308
#     4   8  14  25  44  72 100 124 161 212 259 297
#     4   9  19  37  57  78 106 139 175 215 263 320
#     4   9  19  35  57  82 105 133 173 223 270 310
#     4  10  20  33  51  74 104 140 176 215 258 307
#
# _framework density 22.826899000000001
#
# number of rings (size 3 to 8) (size 9 to 14) (size 15 to 20)
#    0.000    2.857    0.000    1.714    2.000    3.429 
#    0.000    2.857    0.000    0.857    0.000    4.000 
#    0.000    0.000    0.000    0.000    0.000    0.000 
#
# Total GULP energy -156336.786481 kJ/mol
# GULP energy per Si atom -5583.456660 kJ/mol
# Density = 2.277494 g / cm^3
# Si number density = 22.826899 Si / 1000 Ang^3
#
#
#
# Elastic Constant Matrix: (Units=GPa)
#
#
# Indices 1 2 3 4 5 6 
#
# 1 115.1597 -10.7928 35.3057 0.0000 -25.6506 0.0000
# 2 -10.7928 70.7274 -8.9082 0.0000 -2.4790 0.0000
# 3 35.3057 -8.9082 42.5275 0.0000 -3.8255 0.0000
# 4 0.0000 0.0000 0.0000 8.5607 0.0000 2.8983
# 5 -25.6506 -2.4790 -3.8255 0.0000 38.0704 0.0000
# 6 0.0000 0.0000 0.0000 2.8983 0.0000 8.9523
#
#
#
# Elastic Compliance Matrix: (Units=1/GPa)
#
#
# Indices 1 2 3 4 5 6 
#
# 1 0.013881 0.001083 -0.010544 0.000000 0.008363 0.000000
# 2 0.001083 0.014667 0.002346 0.000000 0.001921 0.000000
# 3 -0.010544 0.002346 0.032427 0.000000 -0.003693 0.000000
# 4 0.000000 0.000000 0.000000 0.131192 0.000000 -0.042473
# 5 0.008363 0.001921 -0.003693 0.000000 0.031656 0.000000
# 6 0.000000 0.000000 0.000000 -0.042473 0.000000 0.125453
#
#
# Mechanical properties :
#
#
# Convention : Reuss Voigt Hill
#
# Bulk Modulus (GPa) = 21.39319 28.84710 25.12015
# Shear Modulus (GPa) = 13.18958 25.30402 19.24680
#
# Velocity S-wave (km/s) = 2.40637 3.33305 2.90688
# Velocity P-wave (km/s) = 4.13680 5.24186 4.72177
#
# Compressibility (1/GPa) = 0.04674384
#
# Stress axis : x y z
#
# Youngs Moduli (GPa) = 72.04286 68.18095 30.83849
#
# Poissons Ratio (x) = -0.07386 0.32517
# Poissons Ratio (y) = -0.07804 -0.07234
# Poissons Ratio (z) = 0.75964 -0.15993
#
# Static dielectric constant tensor:
#      x y z
#    x 1.841830 0.000000 -0.000620 
#    y 0.000000 1.910270 0.000000 
#    z -0.000620 0.000000 1.831950 
# 
# From -- ./inp_files/277088.got.cif
#   From: 2010.05.17/outbox.cif.g08.bks.cpg/sg12_139_cif.got.tgz:277088.got - 2010.06.03 13:09:07.
