data_PCOD9191305
_publ_section_title
;
Structure prediction by ZEFSAII (Michael W. Deem and Ramdas Pophale) SiO2 
 PCOD9191305
Probable space group: C 2/M
;
_chemical_formula_sum "Si O2"
_cell_formula_units_Z 56
_cell_length_a 16.497454
_cell_length_b 7.808940
_cell_length_c 21.044486
_cell_angle_alpha 90.000000
_cell_angle_beta 100.490830
_cell_angle_gamma 90.000000
_cell_volume 2665.792454
_symmetry_space_group_name_H-M "C 2/M"
_symmetry_group_IT_number 12
_symmetry_cell_setting 'monoclinic'
loop_
_space_group_symop_operation_xyz
x,y,z
-x,y,-z
-x,-y,-z
x,-y,z
1/2+x,1/2+y,z
1/2-x,1/2+y,-z
1/2-x,1/2-y,-z
1/2+x,1/2-y,z
loop_
_atom_site_type_symbol
_atom_site_label
_atom_site_fract_x
_atom_site_fract_y
_atom_site_fract_z
Si Si1 0.566055 0.289686 0.340998
Si Si2 0.524415 0.693101 0.198643
Si Si3 0.120695 0.205718 0.654722
Si Si4 0.263215 0.793087 0.928563
Si Si5 0.055846 0.299142 0.063999
Si Si6 0.666983 0.694705 0.794107
Si Si7 0.739826 0.703665 0.425081
O O1 0.564985 0.500000 0.340447
O O2 0.568797 0.233167 0.267273
O O3 0.476226 0.236729 0.357785
O O4 0.650259 0.232033 0.387061
O O5 0.555841 0.500000 0.192420
O O6 0.525405 0.783872 0.131293
O O7 0.429837 0.682589 0.206117
O O8 0.168485 0.276005 0.724332
O O9 0.179803 0.239063 0.603498
O O10 0.115822 0.000000 0.661623
O O11 0.353424 0.725877 0.925428
O O12 0.205883 0.726817 0.863167
O O13 0.257210 0.000000 0.924938
O O14 0.250000 0.750000 0.000000
O O15 0.065040 0.500000 0.050434
O O16 0.000000 0.223651 0.000000
O O17 0.701342 0.500000 0.792978
O O18 0.736705 0.500000 0.418532
O O19 0.750000 0.750000 0.500000
#
# Coordination Sequence:
#
# PCOD9191305 Si02
#       7
#     8   8   8   8   8   8   8
#     4   8  18  37  59  82 113 148 182 225 280 334
#     4   9  17  33  56  77  96 129 178 223 259 311
#     4   9  18  37  62  84 108 146 189 228 276 333
#     4  10  20  33  48  69  99 136 175 215 260 311
#     4  10  21  33  45  69 107 141 167 210 273 324
#     4   8  16  32  54  76  99 130 174 222 263 310
#     4  11  23  39  58  85 118 149 183 228 278 333
#
# _framework density 21.006886999999999
#
# number of rings (size 3 to 8) (size 9 to 14) (size 15 to 20)
#    0.000    2.714    0.000    3.000    2.000    1.429 
#    0.000    8.571    0.000    0.000    0.000    0.000 
#    0.000    0.000    0.000    0.000    0.000    0.000 
#
# Total GULP energy -155912.857757 kJ/mol
# GULP energy per Si atom -5568.316348 kJ/mol
# Density = 2.095907 g / cm^3
# Si number density = 21.006887 Si / 1000 Ang^3
#
#
#
# Elastic Constant Matrix: (Units=GPa)
#
#
# Indices 1 2 3 4 5 6 
#
# 1 82.5241 3.8270 69.4865 0.0000 11.2030 0.0000
# 2 3.8270 22.5623 -7.2475 0.0000 6.2209 0.0000
# 3 69.4865 -7.2475 155.0909 0.0000 10.9718 0.0000
# 4 0.0000 0.0000 0.0000 16.4582 0.0000 -4.1151
# 5 11.2030 6.2209 10.9718 0.0000 45.1809 0.0000
# 6 0.0000 0.0000 0.0000 -4.1151 0.0000 7.6866
#
#
#
# Elastic Compliance Matrix: (Units=1/GPa)
#
#
# Indices 1 2 3 4 5 6 
#
# 1 0.020519 -0.005924 -0.009328 0.000000 -0.002007 0.000000
# 2 -0.005924 0.048874 0.005403 0.000000 -0.006573 0.000000
# 3 -0.009328 0.005403 0.010957 0.000000 -0.001092 0.000000
# 4 0.000000 0.000000 0.000000 0.070150 0.000000 0.037556
# 5 -0.002007 -0.006573 -0.001092 0.000000 0.023801 0.000000
# 6 0.000000 0.000000 0.000000 0.037556 0.000000 0.150203
#
#
# Mechanical properties :
#
#
# Convention : Reuss Voigt Hill
#
# Bulk Modulus (GPa) = 16.48734 43.58992 30.03863
# Shear Modulus (GPa) = 13.72043 26.80588 20.26316
#
# Velocity S-wave (km/s) = 2.55843 3.57606 3.10916
# Velocity P-wave (km/s) = 4.07345 6.15194 5.21725
#
# Compressibility (1/GPa) = 0.06065260
#
# Stress axis : x y z
#
# Youngs Moduli (GPa) = 48.73442 20.46073 91.26615
#
# Poissons Ratio (x) = 0.12120 0.85136
# Poissons Ratio (y) = 0.28868 -0.49310
# Poissons Ratio (z) = 0.45461 -0.11055
#
# Static dielectric constant tensor:
#      x y z
#    x 1.759860 0.000000 -0.024710 
#    y 0.000000 1.805860 0.000000 
#    z -0.024710 0.000000 2.021540 
# 
# From -- ./inp_files/308979.got.cif
#   From: 2010.05.17/outbox.cif.g08.bks.cpg/sg12_155_cif.got.tgz:308979.got - 2010.06.03 13:09:07.
