data_PCOD9191840
_publ_section_title
;
Structure prediction by ZEFSAII (Michael W. Deem and Ramdas Pophale) SiO2 
 PCOD9191840
Probable space group: C 2/M
;
_chemical_formula_sum "Si O2"
_cell_formula_units_Z 64
_cell_length_a 19.048399
_cell_length_b 7.972549
_cell_length_c 17.095580
_cell_angle_alpha 90.000000
_cell_angle_beta 94.003498
_cell_angle_gamma 90.000000
_cell_volume 2589.872900
_symmetry_space_group_name_H-M "C 2/M"
_symmetry_group_IT_number 12
_symmetry_cell_setting 'monoclinic'
loop_
_space_group_symop_operation_xyz
x,y,z
-x,y,-z
-x,-y,-z
x,-y,z
1/2+x,1/2+y,z
1/2-x,1/2+y,-z
1/2-x,1/2-y,-z
1/2+x,1/2-y,z
loop_
_atom_site_type_symbol
_atom_site_label
_atom_site_fract_x
_atom_site_fract_y
_atom_site_fract_z
Si Si1 0.331273 0.699668 0.506991
Si Si2 0.263196 0.301905 0.101579
Si Si3 0.372457 0.309072 0.999803
Si Si4 0.556272 0.304215 0.143742
Si Si5 0.313880 0.191845 0.742743
Si Si6 0.319437 0.296325 0.335239
Si Si7 0.547300 0.801868 0.741772
Si Si8 0.529027 0.801897 0.419581
O O1 0.336817 0.500000 0.514451
O O2 0.250000 0.750000 0.500000
O O3 0.353415 0.753446 0.420545
O O4 0.386782 0.778837 0.570765
O O5 0.258036 0.500000 0.078641
O O6 0.200387 0.198411 0.056297
O O7 0.242008 0.303446 0.189772
O O8 0.339222 0.238431 0.077729
O O9 0.395766 0.500000 0.018609
O O10 0.425803 0.227406 0.940706
O O11 0.561657 0.500000 0.130541
O O12 0.615607 0.261268 0.213284
O O13 0.483233 0.265739 0.179497
O O14 0.261290 0.269977 0.674895
O O15 0.330377 0.000000 0.722924
O O16 0.315195 0.500000 0.333160
O O17 0.372717 0.237093 0.273131
O O18 0.503424 0.731539 0.663191
O O19 0.536246 0.000000 0.744073
O O20 0.500000 0.729685 0.500000
O O21 0.512981 0.000000 0.418507
#
# Coordination Sequence:
#
# PCOD9191840 Si02
#       8
#     8   8   8   8   8   8   8   8
#     4  11  24  39  58  83 111 141 174 214 260 311
#     4   8  13  24  45  71  99 134 172 208 252 305
#     4   8  14  25  43  70 103 134 167 211 256 299
#     4  10  20  33  51  79 111 139 173 217 262 310
#     4   9  18  33  53  78 108 140 175 215 261 311
#     4  10  22  39  56  77 107 140 173 214 262 311
#     4  11  23  38  58  78 102 138 178 219 263 315
#     4  10  21  40  61  80 103 134 175 221 265 310
#
# _framework density 24.711639000000002
#
# number of rings (size 3 to 8) (size 9 to 14) (size 15 to 20)
#    0.000    2.375    1.250    1.125    1.750    2.750 
#    0.000    0.000    0.000    0.750    0.000    5.250 
#    0.000    0.000    0.000    0.000    0.000    0.000 
#
# Total GULP energy -178497.840409 kJ/mol
# GULP energy per Si atom -5578.057513 kJ/mol
# Density = 2.465539 g / cm^3
# Si number density = 24.711639 Si / 1000 Ang^3
#
#
#
# Elastic Constant Matrix: (Units=GPa)
#
#
# Indices 1 2 3 4 5 6 
#
# 1 104.5045 -12.7382 25.0865 0.0000 -7.8780 0.0000
# 2 -12.7382 28.0327 0.0937 0.0000 3.1420 0.0000
# 3 25.0865 0.0937 33.8210 0.0000 -17.2123 0.0000
# 4 0.0000 0.0000 0.0000 14.3878 0.0000 -6.8317
# 5 -7.8780 3.1420 -17.2123 0.0000 52.7146 0.0000
# 6 0.0000 0.0000 0.0000 -6.8317 0.0000 20.9575
#
#
#
# Elastic Compliance Matrix: (Units=1/GPa)
#
#
# Indices 1 2 3 4 5 6 
#
# 1 0.012639 0.005984 -0.010328 0.000000 -0.001840 0.000000
# 2 0.005984 0.038803 -0.006318 0.000000 -0.003481 0.000000
# 3 -0.010328 -0.006318 0.043956 0.000000 0.013186 0.000000
# 4 0.000000 0.000000 0.000000 0.082231 0.000000 0.026806
# 5 -0.001840 -0.003481 0.013186 0.000000 0.023208 0.000000
# 6 0.000000 0.000000 0.000000 0.026806 0.000000 0.056454
#
#
# Mechanical properties :
#
#
# Convention : Reuss Voigt Hill
#
# Bulk Modulus (GPa) = 13.49994 21.24915 17.37455
# Shear Modulus (GPa) = 16.48502 27.87307 22.17905
#
# Velocity S-wave (km/s) = 2.58562 3.36211 2.99910
# Velocity P-wave (km/s) = 3.79325 4.86716 4.36337
#
# Compressibility (1/GPa) = 0.07407438
#
# Stress axis : x y z
#
# Youngs Moduli (GPa) = 79.12108 25.77112 22.75007
#
# Poissons Ratio (x) = -0.15421 0.23496
# Poissons Ratio (y) = -0.47345 0.14373
# Poissons Ratio (z) = 0.81715 0.16282
#
# Static dielectric constant tensor:
#      x y z
#    x 1.989950 0.000000 -0.049540 
#    y 0.000000 1.905300 0.000000 
#    z -0.049540 0.000000 2.093180 
# 
# From -- ./inp_files/313987.got.cif
#   From: 2010.05.17/outbox.cif.g08.bks.cpg/sg12_157_cif.got.tgz:313987.got - 2010.06.03 13:09:07.
