data_PCOD9191599
_publ_section_title
;
Structure prediction by ZEFSAII (Michael W. Deem and Ramdas Pophale) SiO2 
 PCOD9191599
Probable space group: C 2/M
;
_chemical_formula_sum "Si O2"
_cell_formula_units_Z 64
_cell_length_a 31.308440
_cell_length_b 8.926645
_cell_length_c 15.048294
_cell_angle_alpha 90.000000
_cell_angle_beta 118.969355
_cell_angle_gamma 90.000000
_cell_volume 3679.466856
_symmetry_space_group_name_H-M "C 2/M"
_symmetry_group_IT_number 12
_symmetry_cell_setting 'monoclinic'
loop_
_space_group_symop_operation_xyz
x,y,z
-x,y,-z
-x,-y,-z
x,-y,z
1/2+x,1/2+y,z
1/2-x,1/2+y,-z
1/2-x,1/2-y,-z
1/2+x,1/2-y,z
loop_
_atom_site_type_symbol
_atom_site_label
_atom_site_fract_x
_atom_site_fract_y
_atom_site_fract_z
Si Si1 0.194306 0.821974 0.340674
Si Si2 0.416586 0.177756 0.259907
Si Si3 0.299117 0.321405 0.447141
Si Si4 0.610710 0.178388 0.137726
Si Si5 0.032540 0.822656 0.185793
Si Si6 0.083997 0.177410 0.929688
Si Si7 0.390872 0.679067 0.415217
Si Si8 0.467186 0.177987 0.624426
O O1 0.249597 0.768532 0.379648
O O2 0.184342 0.788860 0.434932
O O3 0.156725 0.736309 0.240314
O O4 0.189454 0.000000 0.322726
O O5 0.403214 0.250055 0.152028
O O6 0.390109 0.254005 0.316010
O O7 0.474974 0.202291 0.331230
O O8 0.408206 0.000000 0.250065
O O9 0.288754 0.500000 0.432792
O O10 0.341967 0.286753 0.421525
O O11 0.563191 0.241259 0.141004
O O12 0.609433 0.000000 0.133750
O O13 0.610499 0.245375 0.038719
O O14 0.046180 0.755797 0.295696
O O15 0.974488 0.800827 0.116248
O O16 0.042910 0.000000 0.194003
O O17 0.093128 0.000000 0.937723
O O18 0.396854 0.500000 0.418125
O O19 0.435695 0.751515 0.514221
O O20 0.458683 0.000000 0.621223
#
# Coordination Sequence:
#
# PCOD9191599 Si02
#       8
#     8   8   8   8   8   8   8   8
#     4  10  20  36  58  81 107 138 172 212 259 312
#     4  10  21  36  52  74 106 141 180 224 265 307
#     4   9  20  37  55  79 109 137 169 212 261 312
#     4  12  23  34  53  79 108 141 176 215 260 312
#     4  10  20  34  52  76 107 141 178 219 260 309
#     4  10  21  37  55  75 103 140 181 222 263 308
#     4  11  21  33  53  78 106 142 180 217 260 314
#     4  10  20  33  50  75 108 143 178 219 264 310
#
# _framework density 17.393823999999999
#
# number of rings (size 3 to 8) (size 9 to 14) (size 15 to 20)
#    0.000    1.750    0.000    4.875    0.000    8.500 
#    0.000    0.000    0.000    0.750    0.000    0.000 
#    0.000    0.000    0.000    0.000    0.000    0.000 
#
# Total GULP energy -178847.155007 kJ/mol
# GULP energy per Si atom -5588.973594 kJ/mol
# Density = 1.735423 g / cm^3
# Si number density = 17.393824 Si / 1000 Ang^3
#
#
#
# Elastic Constant Matrix: (Units=GPa)
#
#
# Indices 1 2 3 4 5 6 
#
# 1 77.2213 60.2674 60.7314 0.0000 -22.5939 0.0000
# 2 60.2674 97.0295 69.5488 0.0000 -10.1303 0.0000
# 3 60.7314 69.5488 119.7615 0.0000 -23.9192 0.0000
# 4 0.0000 0.0000 0.0000 33.6245 0.0000 -2.1490
# 5 -22.5939 -10.1303 -23.9192 0.0000 20.5334 0.0000
# 6 0.0000 0.0000 0.0000 -2.1490 0.0000 24.1531
#
#
#
# Elastic Compliance Matrix: (Units=1/GPa)
#
#
# Indices 1 2 3 4 5 6 
#
# 1 0.038593 -0.019037 -0.002489 0.000000 0.030175 0.000000
# 2 -0.019037 0.027330 -0.010045 0.000000 -0.019165 0.000000
# 3 -0.002489 -0.010045 0.018126 0.000000 0.013420 0.000000
# 4 0.000000 0.000000 0.000000 0.029910 0.000000 0.002661
# 5 0.030175 -0.019165 0.013420 0.000000 0.088081 0.000000
# 6 0.000000 0.000000 0.000000 0.002661 0.000000 0.041639
#
#
# Mechanical properties :
#
#
# Convention : Reuss Voigt Hill
#
# Bulk Modulus (GPa) = 47.83127 75.01194 61.42161
# Shear Modulus (GPa) = 15.93419 22.55984 19.24702
#
# Velocity S-wave (km/s) = 3.02997 3.60530 3.33008
# Velocity P-wave (km/s) = 6.30870 7.78140 7.08342
#
# Compressibility (1/GPa) = 0.02090682
#
# Stress axis : x y z
#
# Youngs Moduli (GPa) = 25.91132 36.59038 55.16948
#
# Poissons Ratio (x) = 0.69656 0.13732
# Poissons Ratio (y) = 0.49327 0.55419
# Poissons Ratio (z) = 0.06449 0.36756
#
# Static dielectric constant tensor:
#      x y z
#    x 1.574690 0.000000 -0.004740 
#    y 0.000000 1.574770 0.000000 
#    z -0.004740 0.000000 1.574100 
# 
# From -- ./inp_files/249144.got.cif
#   From: 2010.05.17/outbox.cif.g08.bks.cpg/sg12_125_cif.got.tgz:249144.got - 2010.06.03 13:09:07.
