data_PCOD9191818
_publ_section_title
;
Structure prediction by ZEFSAII (Michael W. Deem and Ramdas Pophale) SiO2 
 PCOD9191818
Probable space group: C 2/M
;
_chemical_formula_sum "Si O2"
_cell_formula_units_Z 64
_cell_length_a 19.830809
_cell_length_b 7.751450
_cell_length_c 19.719524
_cell_angle_alpha 90.000000
_cell_angle_beta 91.141677
_cell_angle_gamma 90.000000
_cell_volume 3030.634661
_symmetry_space_group_name_H-M "C 2/M"
_symmetry_group_IT_number 12
_symmetry_cell_setting 'monoclinic'
loop_
_space_group_symop_operation_xyz
x,y,z
-x,y,-z
-x,-y,-z
x,-y,z
1/2+x,1/2+y,z
1/2-x,1/2+y,-z
1/2-x,1/2-y,-z
1/2+x,1/2-y,z
loop_
_atom_site_type_symbol
_atom_site_label
_atom_site_fract_x
_atom_site_fract_y
_atom_site_fract_z
Si Si1 0.604361 0.296569 0.818115
Si Si2 0.172682 0.292374 0.488029
Si Si3 0.642216 0.300943 0.960268
Si Si4 0.547120 0.789734 0.564421
Si Si5 0.749568 0.202434 0.765037
Si Si6 0.709456 0.288350 0.089652
Si Si7 0.148338 0.702241 0.338395
Si Si8 0.492262 0.208690 0.709835
O O1 0.615772 0.500000 0.825957
O O2 0.602390 0.223450 0.895279
O O3 0.670889 0.229726 0.780218
O O4 0.538219 0.268628 0.772595
O O5 0.166714 0.500000 0.486594
O O6 0.250000 0.250000 0.500000
O O7 0.122241 0.232785 0.545784
O O8 0.150293 0.223308 0.413990
O O9 0.621013 0.500000 0.967708
O O10 0.719699 0.288122 0.935468
O O11 0.650534 0.230776 0.036988
O O12 0.500000 0.738190 0.500000
O O13 0.522860 0.733294 0.637821
O O14 0.544599 0.000000 0.566351
O O15 0.791911 0.263076 0.831889
O O16 0.781008 0.281782 0.698542
O O17 0.760218 0.000000 0.758373
O O18 0.714200 0.500000 0.086649
O O19 0.134250 0.500000 0.346991
O O20 0.085435 0.769090 0.293165
O O21 0.495061 0.000000 0.712209
#
# Coordination Sequence:
#
# PCOD9191818 Si02
#       8
#     8   8   8   8   8   8   8   8
#     4  10  20  33  51  78 109 136 166 210 260 308
#     4  10  21  36  55  79 104 130 165 209 255 304
#     4   8  14  26  45  69  99 131 162 202 254 302
#     4   9  16  33  58  77  94 125 171 211 246 297
#     4  10  20  33  52  77 105 136 174 215 253 302
#     4   8  14  26  45  70  97 128 167 208 248 295
#     4  10  21  37  54  74 105 140 172 210 256 307
#     4  10  20  35  56  77 100 135 175 212 253 303
#
# _framework density 21.117687
#
# number of rings (size 3 to 8) (size 9 to 14) (size 15 to 20)
#    0.000    2.625    1.250    0.750    1.750    2.000 
#    0.000    0.000    0.000    1.500    0.000    5.250 
#    0.000    0.000    0.000    0.000    0.000    0.000 
#
# Total GULP energy -178322.215163 kJ/mol
# GULP energy per Si atom -5572.569224 kJ/mol
# Density = 2.106962 g / cm^3
# Si number density = 21.117687 Si / 1000 Ang^3
#
#
#
# Elastic Constant Matrix: (Units=GPa)
#
#
# Indices 1 2 3 4 5 6 
#
# 1 60.8509 -3.8359 -2.4014 0.0000 21.0519 0.0000
# 2 -3.8359 28.9263 2.0273 0.0000 0.5760 0.0000
# 3 -2.4014 2.0273 31.0547 0.0000 26.3863 0.0000
# 4 0.0000 0.0000 0.0000 8.5251 0.0000 4.5857
# 5 21.0519 0.5760 26.3863 0.0000 35.7192 0.0000
# 6 0.0000 0.0000 0.0000 4.5857 0.0000 17.8847
#
#
#
# Elastic Compliance Matrix: (Units=1/GPa)
#
#
# Indices 1 2 3 4 5 6 
#
# 1 0.048851 0.002874 0.075449 0.000000 -0.084573 0.000000
# 2 0.002874 0.035018 -0.000388 0.000000 -0.001972 0.000000
# 3 0.075449 -0.000388 0.203682 0.000000 -0.194924 0.000000
# 4 0.000000 0.000000 0.000000 0.136068 0.000000 -0.034888
# 5 -0.084573 -0.001972 -0.194924 0.000000 0.221866 0.000000
# 6 0.000000 0.000000 0.000000 -0.034888 0.000000 0.064859
#
#
# Mechanical properties :
#
#
# Convention : Reuss Voigt Hill
#
# Bulk Modulus (GPa) = 2.25519 12.49020 7.37269
# Shear Modulus (GPa) = 7.11966 20.76191 13.94078
#
# Velocity S-wave (km/s) = 1.83813 3.13893 2.57212
# Velocity P-wave (km/s) = 2.36119 4.36630 3.50997
#
# Compressibility (1/GPa) = 0.44342174
#
# Stress axis : x y z
#
# Youngs Moduli (GPa) = 20.47037 28.55651 4.90962
#
# Poissons Ratio (x) = -0.08208 -0.37043
# Poissons Ratio (y) = -0.05884 0.00191
# Poissons Ratio (z) = -1.54447 0.01109
#
# Static dielectric constant tensor:
#      x y z
#    x 1.732890 0.000000 0.031000 
#    y 0.000000 1.825920 0.000000 
#    z 0.031000 0.000000 1.811070 
# 
# From -- ./inp_files/281348.got.cif
#   From: 2010.05.17/outbox.cif.g08.bks.cpg/sg12_141_cif.got.tgz:281348.got - 2010.06.03 13:09:07.
