data_PCOD9191737
_publ_section_title
;
Structure prediction by ZEFSAII (Michael W. Deem and Ramdas Pophale) SiO2 
 PCOD9191737
Probable space group: C 2/M
;
_chemical_formula_sum "Si O2"
_cell_formula_units_Z 56
_cell_length_a 14.561713
_cell_length_b 7.644913
_cell_length_c 27.987582
_cell_angle_alpha 90.000000
_cell_angle_beta 120.587508
_cell_angle_gamma 90.000000
_cell_volume 2682.127299
_symmetry_space_group_name_H-M "C 2/M"
_symmetry_group_IT_number 12
_symmetry_cell_setting 'monoclinic'
loop_
_space_group_symop_operation_xyz
x,y,z
-x,y,-z
-x,-y,-z
x,-y,z
1/2+x,1/2+y,z
1/2-x,1/2+y,-z
1/2-x,1/2-y,-z
1/2+x,1/2-y,z
loop_
_atom_site_type_symbol
_atom_site_label
_atom_site_fract_x
_atom_site_fract_y
_atom_site_fract_z
Si Si1 0.161460 0.500000 0.072643
Si Si2 0.385930 0.706980 0.644778
Si Si3 0.580621 0.000000 0.949161
Si Si4 0.287696 0.302369 0.845612
Si Si5 0.561737 0.288448 0.765180
Si Si6 0.655657 0.289615 0.572375
Si Si7 0.020992 0.206310 0.863752
Si Si8 0.076088 0.786354 0.451297
O O1 0.214793 0.667872 0.111154
O O2 0.038774 0.500000 0.059180
O O3 0.158942 0.500000 0.015013
O O4 0.406755 0.500000 0.646894
O O5 0.472345 0.777163 0.704872
O O6 0.263023 0.730479 0.626207
O O7 0.395815 0.779804 0.593680
O O8 0.585495 0.170517 0.917004
O O9 0.290588 0.500000 0.864376
O O10 0.396114 0.272325 0.844779
O O11 0.181451 0.274195 0.786633
O O12 0.561594 0.500000 0.763970
O O13 0.536574 0.238109 0.813150
O O14 0.656396 0.500000 0.571687
O O15 0.647724 0.226487 0.515077
O O16 0.545581 0.237418 0.568306
O O17 0.047072 0.000000 0.875601
O O18 0.081495 0.000000 0.452669
#
# Coordination Sequence:
#
# PCOD9191737 Si02
#       8
#     4   8   4   8   8   8   8   8
#     4   9  18  36  58  88 115 137 184 231 271 325
#     4  10  20  33  51  76 103 139 177 220 272 317
#     4   9  18  34  62  86 109 147 182 223 275 331
#     4  10  20  36  59  81 109 149 184 224 277 327
#     4  10  21  37  54  73 111 147 182 234 275 324
#     4   9  17  32  52  74 104 137 177 224 264 319
#     4   9  20  37  56  81 112 146 183 226 276 326
#     4   8  16  32  52  73 103 142 175 215 273 325
#
# _framework density 20.878948999999999
#
# number of rings (size 3 to 8) (size 9 to 14) (size 15 to 20)
#    0.000    2.714    0.714    1.286    1.000    2.286 
#    0.000    5.714    0.000    0.000    0.000    0.000 
#    0.000    0.000    0.000    0.000    0.000    0.000 
#
# Total GULP energy -156317.445766 kJ/mol
# GULP energy per Si atom -5582.765920 kJ/mol
# Density = 2.083143 g / cm^3
# Si number density = 20.878949 Si / 1000 Ang^3
#
#
#
# Elastic Constant Matrix: (Units=GPa)
#
#
# Indices 1 2 3 4 5 6 
#
# 1 39.4189 7.9664 15.6679 0.0000 1.9484 0.0000
# 2 7.9664 47.1341 9.1865 0.0000 -3.7886 0.0000
# 3 15.6679 9.1865 68.1775 0.0000 17.4679 0.0000
# 4 0.0000 0.0000 0.0000 16.3079 0.0000 11.2794
# 5 1.9484 -3.7886 17.4679 0.0000 24.8455 0.0000
# 6 0.0000 0.0000 0.0000 11.2794 0.0000 -2.4840
#
#
#
# Elastic Compliance Matrix: (Units=1/GPa)
#
#
# Indices 1 2 3 4 5 6 
#
# 1 0.028582 -0.003395 -0.006591 0.000000 0.001875 0.000000
# 2 -0.003395 0.023108 -0.004030 0.000000 0.006623 0.000000
# 3 -0.006591 -0.004030 0.020431 0.000000 -0.014462 0.000000
# 4 0.000000 0.000000 0.000000 0.014809 0.000000 0.067246
# 5 0.001875 0.006623 -0.014462 0.000000 0.051279 0.000000
# 6 0.000000 0.000000 0.000000 0.067246 0.000000 -0.097224
#
#
# Mechanical properties :
#
#
# Convention : Reuss Voigt Hill
#
# Bulk Modulus (GPa) = 22.68281 24.48580 23.58431
# Shear Modulus (GPa) = 59.72698 15.86118 37.79408
#
# Velocity S-wave (km/s) = 5.35429 2.75921 4.25920
# Velocity P-wave (km/s) = 7.00800 4.68016 5.95886
#
# Compressibility (1/GPa) = 0.04408625
#
# Stress axis : x y z
#
# Youngs Moduli (GPa) = 34.98717 43.27536 48.94602
#
# Poissons Ratio (x) = 0.14694 0.32262
# Poissons Ratio (y) = 0.11880 0.19727
# Poissons Ratio (z) = 0.23061 0.17441
#
# Static dielectric constant tensor:
#      x y z
#    x 1.758410 0.000000 0.012020 
#    y 0.000000 1.759370 0.000000 
#    z 0.012020 0.000000 1.727470 
# 
# From -- ./inp_files/375153.got.cif
#   From: 2010.05.17/outbox.cif.g08.bks.cpg/sg12_188_cif.got.tgz:375153.got - 2010.06.03 13:09:07.
