data_PCOD9191369
_publ_section_title
;
Structure prediction by ZEFSAII (Michael W. Deem and Ramdas Pophale) SiO2 
 PCOD9191369
Probable space group: C 2/M
;
_chemical_formula_sum "Si O2"
_cell_formula_units_Z 64
_cell_length_a 9.376732
_cell_length_b 27.935011
_cell_length_c 14.099924
_cell_angle_alpha 90.000000
_cell_angle_beta 62.583678
_cell_angle_gamma 90.000000
_cell_volume 3278.503387
_symmetry_space_group_name_H-M "C 2/M"
_symmetry_group_IT_number 12
_symmetry_cell_setting 'monoclinic'
loop_
_space_group_symop_operation_xyz
x,y,z
-x,y,-z
-x,-y,-z
x,-y,z
1/2+x,1/2+y,z
1/2-x,1/2+y,-z
1/2-x,1/2-y,-z
1/2+x,1/2-y,z
loop_
_atom_site_type_symbol
_atom_site_label
_atom_site_fract_x
_atom_site_fract_y
_atom_site_fract_z
Si Si1 0.986567 0.551333 0.617576
Si Si2 0.273300 0.820972 0.292098
Si Si3 0.439172 0.636488 0.113453
Si Si4 0.728914 0.304346 0.095604
Si Si5 0.719665 0.375301 0.663555
Si Si6 0.819665 0.728270 0.576720
Si Si7 0.180348 0.092208 0.458654
Si Si8 0.638280 0.195456 0.140626
O O1 0.919285 0.500000 0.672553
O O2 0.164073 0.559151 0.604915
O O3 0.000000 0.547494 0.500000
O O4 0.876074 0.598240 0.659163
O O5 0.246698 0.831528 0.189341
O O6 0.183673 0.772295 0.349712
O O7 0.209557 0.862032 0.381454
O O8 0.464382 0.810593 0.240697
O O9 0.566245 0.678754 0.093363
O O10 0.419356 0.610803 0.219894
O O11 0.265748 0.658783 0.144493
O O12 0.500000 0.610336 0.000000
O O13 0.709320 0.248780 0.127915
O O14 0.862384 0.311710 0.973432
O O15 0.730978 0.317816 0.647178
O O16 0.692596 0.392905 0.565178
O O17 0.750000 0.750000 0.500000
O O18 0.000000 0.711763 0.500000
O O19 0.000000 0.073041 0.500000
#
# Coordination Sequence:
#
# PCOD9191369 Si02
#       8
#     8   8   8   8   8   8   8   8
#     4   9  20  39  62  83 106 146 193 236 284 334
#     4  12  23  33  50  74 113 149 185 222 271 341
#     4  10  21  34  53  75 101 140 186 234 281 322
#     4  10  20  33  49  70 101 140 193 238 276 308
#     4  11  21  38  57  77 115 147 188 237 276 337
#     4  12  26  36  49  77 115 157 192 220 270 337
#     4  11  22  34  53  83 114 146 178 227 285 342
#     4  10  20  34  49  69  96 147 197 239 264 310
#
# _framework density 19.521101999999999
#
# number of rings (size 3 to 8) (size 9 to 14) (size 15 to 20)
#    0.000    1.375    1.250    5.625    5.250    2.250 
#    0.000    0.000    0.000    0.375    0.000    0.000 
#    0.000   20.000    0.000    0.000    0.000    0.000 
#
# Total GULP energy -178489.802547 kJ/mol
# GULP energy per Si atom -5577.806330 kJ/mol
# Density = 1.947667 g / cm^3
# Si number density = 19.521102 Si / 1000 Ang^3
#
#
#
# Elastic Constant Matrix: (Units=GPa)
#
#
# Indices 1 2 3 4 5 6 
#
# 1 59.1735 10.7892 5.1911 0.0000 -0.4171 0.0000
# 2 10.7892 56.7082 10.6308 0.0000 7.3032 0.0000
# 3 5.1911 10.6308 118.1741 0.0000 14.7374 0.0000
# 4 0.0000 0.0000 0.0000 1.9383 0.0000 -1.7061
# 5 -0.4171 7.3032 14.7374 0.0000 31.8526 0.0000
# 6 0.0000 0.0000 0.0000 -1.7061 0.0000 2.4531
#
#
#
# Elastic Compliance Matrix: (Units=1/GPa)
#
#
# Indices 1 2 3 4 5 6 
#
# 1 0.017583 -0.003395 -0.000629 0.000000 0.001300 0.000000
# 2 -0.003395 0.018983 -0.001072 0.000000 -0.003901 0.000000
# 3 -0.000629 -0.001072 0.009080 0.000000 -0.003964 0.000000
# 4 0.000000 0.000000 0.000000 1.330200 0.000000 0.925126
# 5 0.001300 -0.003901 -0.003964 0.000000 0.034140 0.000000
# 6 0.000000 0.000000 0.000000 0.925126 0.000000 1.051050
#
#
# Mechanical properties :
#
#
# Convention : Reuss Voigt Hill
#
# Bulk Modulus (GPa) = 28.20489 31.91977 30.06233
# Shear Modulus (GPa) = 2.01366 21.07844 11.54605
#
# Velocity S-wave (km/s) = 1.01674 3.28956 2.43464
# Velocity P-wave (km/s) = 3.98223 5.55114 4.83080
#
# Compressibility (1/GPa) = 0.03545485
#
# Stress axis : x y z
#
# Youngs Moduli (GPa) = 56.87380 52.67764 110.12625
#
# Poissons Ratio (x) = 0.17883 0.06928
# Poissons Ratio (y) = 0.19307 0.11807
# Poissons Ratio (z) = 0.03578 0.05648
#
# Static dielectric constant tensor:
#      x y z
#    x 1.747310 0.000000 0.007450 
#    y 0.000000 1.683470 0.000000 
#    z 0.007450 0.000000 1.748160 
# 
# From -- ./inp_files/200911.got.cif
#   From: 2010.05.17/outbox.cif.g08.bks.cpg/sg12_101_cif.got.tgz:200911.got - 2010.06.03 13:09:07.
