data_PCOD9191350
_publ_section_title
;
Structure prediction by ZEFSAII (Michael W. Deem and Ramdas Pophale) SiO2 
 PCOD9191350
Probable space group: C 2/M
;
_chemical_formula_sum "Si O2"
_cell_formula_units_Z 56
_cell_length_a 13.922734
_cell_length_b 9.008148
_cell_length_c 23.280470
_cell_angle_alpha 90.000000
_cell_angle_beta 125.836729
_cell_angle_gamma 90.000000
_cell_volume 2367.041575
_symmetry_space_group_name_H-M "C 2/M"
_symmetry_group_IT_number 12
_symmetry_cell_setting 'monoclinic'
loop_
_space_group_symop_operation_xyz
x,y,z
-x,y,-z
-x,-y,-z
x,-y,z
1/2+x,1/2+y,z
1/2-x,1/2+y,-z
1/2-x,1/2-y,-z
1/2+x,1/2-y,z
loop_
_atom_site_type_symbol
_atom_site_label
_atom_site_fract_x
_atom_site_fract_y
_atom_site_fract_z
Si Si1 0.417148 0.327331 0.728037
Si Si2 0.477169 0.830037 0.129375
Si Si3 0.158754 0.671561 0.701265
Si Si4 0.705127 0.673386 0.425728
Si Si5 0.370976 0.329573 0.986492
Si Si6 0.264551 0.171190 0.843439
Si Si7 0.610226 0.335037 0.579636
O O1 0.448060 0.500000 0.733093
O O2 0.503992 0.248210 0.802938
O O3 0.289826 0.322407 0.716959
O O4 0.393868 0.267719 0.654968
O O5 0.606435 0.827986 0.143098
O O6 0.443928 0.000000 0.126374
O O7 0.391173 0.751791 0.053784
O O8 0.120921 0.500000 0.689375
O O9 0.178813 0.740673 0.770616
O O10 0.082127 0.777872 0.633252
O O11 0.682310 0.500000 0.429110
O O12 0.750000 0.750000 0.500000
O O13 0.818293 0.702638 0.425084
O O14 0.337924 0.500000 0.983957
O O15 0.285360 0.249024 0.911555
O O16 0.500000 0.328831 0.000000
O O17 0.229873 0.000000 0.837892
O O18 0.500000 0.352825 0.500000
O O19 0.669418 0.500000 0.603514
#
# Coordination Sequence:
#
# PCOD9191350 Si02
#       7
#     8   8   8   8   8   8   8
#     4   8  15  26  38  54  76 104 137 173 214 260
#     4   9  15  21  31  47  67  95 131 170 209 251
#     4   9  16  26  40  57  78 106 141 178 218 265
#     4  10  20  33  50  70  93 121 154 192 233 278
#     4   9  15  21  29  42  64  95 130 168 208 251
#     4   9  15  22  32  47  69  97 132 172 211 254
#     4  10  20  33  49  69  93 121 154 192 233 276
#
# _framework density 23.658221999999999
#
# number of rings (size 3 to 8) (size 9 to 14) (size 15 to 20)
#    0.000    2.857    0.000    3.429    0.000   10.286 
#    0.000    0.000    0.000    0.000    0.000    0.000 
#    0.000    0.000    0.000    1.286    0.000   18.286 
#
# Total GULP energy -156378.443307 kJ/mol
# GULP energy per Si atom -5584.944404 kJ/mol
# Density = 2.360438 g / cm^3
# Si number density = 23.658222 Si / 1000 Ang^3
#
#
#
# Elastic Constant Matrix: (Units=GPa)
#
#
# Indices 1 2 3 4 5 6 
#
# 1 57.2878 -4.7040 27.7678 0.0000 -18.2430 0.0000
# 2 -4.7040 140.5501 119.2841 0.0000 -21.3045 0.0000
# 3 27.7678 119.2841 282.7179 0.0000 -32.2188 0.0000
# 4 0.0000 0.0000 0.0000 -66.9158 0.0000 31.7511
# 5 -18.2430 -21.3045 -32.2188 0.0000 32.7277 0.0000
# 6 0.0000 0.0000 0.0000 31.7511 0.0000 -10.0487
#
#
#
# Elastic Compliance Matrix: (Units=1/GPa)
#
#
# Indices 1 2 3 4 5 6 
#
# 1 0.023806 0.005513 -0.003090 0.000000 0.013817 0.000000
# 2 0.005513 0.012618 -0.005158 0.000000 0.006210 0.000000
# 3 -0.003090 -0.005158 0.006125 0.000000 0.000950 0.000000
# 4 0.000000 0.000000 0.000000 0.029933 0.000000 0.094578
# 5 0.013817 0.006210 0.000950 0.000000 0.043235 0.000000
# 6 0.000000 0.000000 0.000000 0.094578 0.000000 0.199325
#
#
# Mechanical properties :
#
#
# Convention : Reuss Voigt Hill
#
# Bulk Modulus (GPa) = 26.96788 85.02793 55.99791
# Shear Modulus (GPa) = 15.02090 13.69982 14.36036
#
# Velocity S-wave (km/s) = 2.52248 2.40900 2.46639
# Velocity P-wave (km/s) = 4.46179 6.61482 5.64196
#
# Compressibility (1/GPa) = 0.03708115
#
# Stress axis : x y z
#
# Youngs Moduli (GPa) = 42.00597 79.25245 163.26767
#
# Poissons Ratio (x) = -0.43695 0.50446
# Poissons Ratio (y) = -0.23160 0.84207
# Poissons Ratio (z) = 0.12979 0.40875
#
# Static dielectric constant tensor:
#      x y z
#    x 2.033600 0.000000 0.029400 
#    y 0.000000 1.829040 0.000000 
#    z 0.029400 0.000000 1.903220 
# 
# From -- ./inp_files/287018.got.cif
#   From: 2010.05.17/outbox.cif.g08.bks.cpg/sg12_144_cif.got.tgz:287018.got - 2010.06.03 13:09:07.
