data_PCOD9191490
_publ_section_title
;
Structure prediction by ZEFSAII (Michael W. Deem and Ramdas Pophale) SiO2 
 PCOD9191490
Probable space group: C 2/M
;
_chemical_formula_sum "Si O2"
_cell_formula_units_Z 56
_cell_length_a 33.604458
_cell_length_b 9.399592
_cell_length_c 18.553990
_cell_angle_alpha 90.000000
_cell_angle_beta 35.264286
_cell_angle_gamma 90.000000
_cell_volume 3383.619175
_symmetry_space_group_name_H-M "C 2/M"
_symmetry_group_IT_number 12
_symmetry_cell_setting 'monoclinic'
loop_
_space_group_symop_operation_xyz
x,y,z
-x,y,-z
-x,-y,-z
x,-y,z
1/2+x,1/2+y,z
1/2-x,1/2+y,-z
1/2-x,1/2-y,-z
1/2+x,1/2-y,z
loop_
_atom_site_type_symbol
_atom_site_label
_atom_site_fract_x
_atom_site_fract_y
_atom_site_fract_z
Si Si1 0.645200 0.833987 0.183113
Si Si2 0.386928 0.830549 0.498136
Si Si3 0.347881 0.164617 0.399493
Si Si4 0.772956 0.830685 0.220705
Si Si5 0.813895 0.835209 0.315434
Si Si6 0.005525 0.833458 0.405438
Si Si7 0.240754 0.665664 0.900674
O O1 0.573341 0.753211 0.282722
O O2 0.692431 0.753524 0.171914
O O3 0.636089 0.000000 0.216194
O O4 0.686857 0.827671 0.046323
O O5 0.387824 0.787634 0.412235
O O6 0.308520 0.812327 0.641572
O O7 0.439638 0.739244 0.466304
O O8 0.402229 0.000000 0.480051
O O9 0.266939 0.170916 0.541883
O O10 0.355072 0.250398 0.315160
O O11 0.364499 0.000000 0.362346
O O12 0.813995 0.786159 0.232271
O O13 0.788520 0.739354 0.127407
O O14 0.784064 0.000000 0.192868
O O15 0.834184 0.000000 0.286894
O O16 0.000000 0.823688 0.500000
O O17 0.010731 0.000000 0.378413
O O18 0.258153 0.500000 0.862463
#
# Coordination Sequence:
#
# PCOD9191490 Si02
#       7
#     8   8   8   8   8   8   8
#     4  10  21  36  52  68  90 123 156 187 230 278
#     4   9  18  31  46  66  94 128 161 188 224 278
#     4   8  14  25  40  60  88 121 155 188 222 265
#     4   9  17  29  46  69  97 128 157 186 227 277
#     4   8  14  24  39  62  91 121 153 186 222 268
#     4  11  23  35  48  70  96 120 153 195 231 267
#     4  10  20  33  50  72  94 117 152 195 231 268
#
# _framework density 16.550325999999998
#
# number of rings (size 3 to 8) (size 9 to 14) (size 15 to 20)
#    0.000    2.714    0.000    3.857    0.000    6.857 
#    0.000    2.857    0.000    0.000    0.000    1.000 
#    0.000    8.000    0.000    0.000    0.000    0.000 
#
# Total GULP energy -156052.069540 kJ/mol
# GULP energy per Si atom -5573.288198 kJ/mol
# Density = 1.651266 g / cm^3
# Si number density = 16.550326 Si / 1000 Ang^3
#
#
#
# Elastic Constant Matrix: (Units=GPa)
#
#
# Indices 1 2 3 4 5 6 
#
# 1 111.6920 59.7990 12.9347 -0.0009 24.0057 0.0010
# 2 59.7990 88.4138 23.8126 -0.0006 10.2401 0.0019
# 3 12.9347 23.8126 14.7434 -0.0010 2.8863 0.0009
# 4 -0.0009 -0.0006 -0.0010 19.3674 0.0005 3.6495
# 5 24.0057 10.2401 2.8863 0.0005 25.2125 -0.0003
# 6 0.0010 0.0019 0.0009 3.6495 -0.0003 30.7136
#
#
#
# Elastic Compliance Matrix: (Units=1/GPa)
#
#
# Indices 1 2 3 4 5 6 
#
# 1 0.017293 -0.012092 0.006773 0.000001 -0.012329 0.000000
# 2 -0.012092 0.028994 -0.036998 -0.000002 0.003973 0.000000
# 3 0.006773 -0.036998 0.122712 0.000006 -0.005470 -0.000002
# 4 0.000001 -0.000002 0.000006 0.052816 -0.000002 -0.006276
# 5 -0.012329 0.003973 -0.005470 -0.000002 0.050414 0.000001
# 6 0.000000 0.000000 -0.000002 -0.006276 0.000001 0.033305
#
#
# Mechanical properties :
#
#
# Convention : Reuss Voigt Hill
#
# Bulk Modulus (GPa) = 11.85330 45.32688 28.59009
# Shear Modulus (GPa) = 11.95346 22.94556 17.44951
#
# Velocity S-wave (km/s) = 2.69038 3.72749 3.25057
# Velocity P-wave (km/s) = 4.10225 6.78029 5.60361
#
# Compressibility (1/GPa) = 0.08436469
#
# Stress axis : x y z
#
# Youngs Moduli (GPa) = 57.82754 34.49040 8.14914
#
# Poissons Ratio (x) = 0.41707 -0.05519
# Poissons Ratio (y) = 0.69926 0.30150
# Poissons Ratio (z) = -0.39166 1.27607
#
# Static dielectric constant tensor:
#      x y z
#    x 1.565970 0.000000 0.017380 
#    y 0.000000 1.552980 0.000000 
#    z 0.017380 0.000000 1.549650 
# 
# From -- ./inp_files/295074.got.cif
#   From: 2010.05.17/outbox.cif.g08.bks.cpg/sg12_148_cif.got.tgz:295074.got - 2010.06.03 13:09:07.
