data_PCOD9191518
_publ_section_title
;
Structure prediction by ZEFSAII (Michael W. Deem and Ramdas Pophale) SiO2 
 PCOD9191518
Probable space group: C 2/M
;
_chemical_formula_sum "Si O2"
_cell_formula_units_Z 40
_cell_length_a 20.957340
_cell_length_b 9.434062
_cell_length_c 12.999255
_cell_angle_alpha 90.000000
_cell_angle_beta 74.985997
_cell_angle_gamma 90.000000
_cell_volume 2482.382336
_symmetry_space_group_name_H-M "C 2/M"
_symmetry_group_IT_number 12
_symmetry_cell_setting 'monoclinic'
loop_
_space_group_symop_operation_xyz
x,y,z
-x,y,-z
-x,-y,-z
x,-y,z
1/2+x,1/2+y,z
1/2-x,1/2+y,-z
1/2-x,1/2-y,-z
1/2+x,1/2-y,z
loop_
_atom_site_type_symbol
_atom_site_label
_atom_site_fract_x
_atom_site_fract_y
_atom_site_fract_z
Si Si1 0.599912 0.166846 0.280590
Si Si2 0.579185 0.337049 0.488751
Si Si3 0.570309 0.827552 0.924589
Si Si4 0.681342 0.829273 0.042193
Si Si5 0.055881 0.668150 0.698466
O O1 0.610775 0.258399 0.378049
O O2 0.647416 0.202769 0.166093
O O3 0.523755 0.186223 0.276090
O O4 0.607178 0.000000 0.301735
O O5 0.500000 0.334506 0.500000
O O6 0.599953 0.500000 0.487468
O O7 0.587998 0.253820 0.591637
O O8 0.577497 0.784239 0.802964
O O9 0.567997 0.000000 0.925081
O O10 0.500000 0.779418 0.000000
O O11 0.629807 0.786455 0.974367
O O12 0.689798 0.000000 0.033167
O O13 0.750000 0.750000 0.000000
O O14 0.068774 0.500000 0.681229
#
# Coordination Sequence:
#
# PCOD9191518 Si02
#       5
#     8   8   8   8   8
#     4   9  16  28  47  69  93 124 163 200 232 276
#     4   9  17  27  41  66 100 129 152 189 244 294
#     4   9  15  28  51  75  96 123 163 206 240 276
#     4  10  20  33  50  73 101 131 162 198 241 290
#     4   9  15  26  48  73  94 119 158 203 239 276
#
# _framework density 16.113553
#
# number of rings (size 3 to 8) (size 9 to 14) (size 15 to 20)
#    0.000    2.800    2.000    0.600    0.000    3.200 
#    0.000    1.000    0.000    2.400    0.000    0.000 
#    0.000    0.000    0.000    0.000    0.000    0.000 
#
# Total GULP energy -111430.475926 kJ/mol
# GULP energy per Si atom -5571.523796 kJ/mol
# Density = 1.607688 g / cm^3
# Si number density = 16.113553 Si / 1000 Ang^3
#
#
#
# Elastic Constant Matrix: (Units=GPa)
#
#
# Indices 1 2 3 4 5 6 
#
# 1 76.6465 39.2358 69.2048 0.0000 4.3073 0.0000
# 2 39.2358 57.3560 84.3131 0.0000 -2.3504 0.0000
# 3 69.2048 84.3131 195.4135 0.0000 10.2379 0.0000
# 4 0.0000 0.0000 0.0000 13.0711 0.0000 -7.0268
# 5 4.3073 -2.3504 10.2379 0.0000 16.4366 0.0000
# 6 0.0000 0.0000 0.0000 -7.0268 0.0000 18.7438
#
#
#
# Elastic Compliance Matrix: (Units=1/GPa)
#
#
# Indices 1 2 3 4 5 6 
#
# 1 0.021301 -0.011378 -0.002333 0.000000 -0.005756 0.000000
# 2 -0.011378 0.061333 -0.023827 0.000000 0.026593 0.000000
# 3 -0.002333 -0.023827 0.016923 0.000000 -0.013336 0.000000
# 4 0.000000 0.000000 0.000000 0.095814 0.000000 0.035919
# 5 -0.005756 0.026593 -0.013336 0.000000 0.074458 0.000000
# 6 0.000000 0.000000 0.000000 0.035919 0.000000 0.066816
#
#
# Mechanical properties :
#
#
# Convention : Reuss Voigt Hill
#
# Bulk Modulus (GPa) = 40.84677 79.43594 60.14136
# Shear Modulus (GPa) = 11.90812 18.76112 15.33462
#
# Velocity S-wave (km/s) = 2.72143 3.41590 3.08824
# Velocity P-wave (km/s) = 5.93963 8.05993 7.07961
#
# Compressibility (1/GPa) = 0.02448174
#
# Stress axis : x y z
#
# Youngs Moduli (GPa) = 46.94527 16.30441 59.09292
#
# Poissons Ratio (x) = 0.18551 0.13787
# Poissons Ratio (y) = 0.53414 1.40798
# Poissons Ratio (z) = 0.10953 0.38848
#
# Static dielectric constant tensor:
#      x y z
#    x 1.514270 0.000000 0.008280 
#    y 0.000000 1.534550 0.000000 
#    z 0.008280 0.000000 1.539710 
# 
# From -- ./inp_files/151633.got.cif
#   From: 2010.05.17/outbox.cif.g08.bks.cpg/sg12_76_cif.got.tgz:151633.got - 2010.06.03 13:09:07.
