data_PCOD9191574
_publ_section_title
;
Structure prediction by ZEFSAII (Michael W. Deem and Ramdas Pophale) SiO2 
 PCOD9191574
Probable space group: C 2/M
;
_chemical_formula_sum "Si O2"
_cell_formula_units_Z 60
_cell_length_a 20.915427
_cell_length_b 28.687433
_cell_length_c 11.749868
_cell_angle_alpha 90.000000
_cell_angle_beta 152.795313
_cell_angle_gamma 90.000000
_cell_volume 3223.070344
_symmetry_space_group_name_H-M "C 2/M"
_symmetry_group_IT_number 12
_symmetry_cell_setting 'monoclinic'
loop_
_space_group_symop_operation_xyz
x,y,z
-x,y,-z
-x,-y,-z
x,-y,z
1/2+x,1/2+y,z
1/2-x,1/2+y,-z
1/2-x,1/2-y,-z
1/2+x,1/2-y,z
loop_
_atom_site_type_symbol
_atom_site_label
_atom_site_fract_x
_atom_site_fract_y
_atom_site_fract_z
Si Si1 0.454656 0.230218 0.229103
Si Si2 0.823032 0.809727 0.915483
Si Si3 0.277908 0.148646 0.032927
Si Si4 0.775271 0.947860 0.111552
Si Si5 0.193874 0.297512 0.465147
Si Si6 0.954157 0.052783 0.623038
Si Si7 0.000000 0.200399 0.500000
Si Si8 0.579115 0.634739 0.246933
O O1 0.532121 0.212777 0.236898
O O2 0.526393 0.265399 0.433585
O O3 0.323556 0.261632 0.983939
O O4 0.400702 0.184625 0.205036
O O5 0.750634 0.802967 0.682506
O O6 0.755713 0.848992 0.886843
O O7 0.982945 0.824370 0.147201
O O8 0.316886 0.097423 0.053666
O O9 0.134429 0.167787 0.743879
O O10 0.842439 0.944044 0.343456
O O11 0.899534 0.942673 0.214351
O O12 0.716223 0.000000 0.005914
O O13 0.250000 0.250000 0.500000
O O14 0.266057 0.342503 0.520409
O O15 0.929987 0.091288 0.681534
O O16 0.948443 0.000000 0.660881
O O17 0.500000 0.624510 0.000000
#
# Coordination Sequence:
#
# PCOD9191574 Si02
#       8
#     8   8   8   8   8   8   4   8
#     4  11  21  33  49  76 105 141 179 204 255 320
#     4  10  20  34  49  75 103 134 180 216 261 311
#     4  11  20  32  56  79 108 136 169 224 272 318
#     4   9  18  31  53  82 105 129 167 223 283 320
#     4  11  22  35  50  67 105 149 179 215 245 301
#     4   9  17  32  53  79 103 127 169 222 276 322
#     4  10  20  34  51  80 109 134 164 220 272 304
#     4  10  20  33  50  74 104 142 174 211 259 310
#
# _framework density 18.615791000000002
#
# number of rings (size 3 to 8) (size 9 to 14) (size 15 to 20)
#    0.000    1.867    2.667    4.800    1.867    1.333 
#    0.000    0.000    0.000    0.800    0.000    5.133 
#    0.000    0.000    0.000    0.000    0.000    0.000 
#
# Total GULP energy -167094.682631 kJ/mol
# GULP energy per Si atom -5569.822754 kJ/mol
# Density = 1.857342 g / cm^3
# Si number density = 18.615791 Si / 1000 Ang^3
#
#
#
# Elastic Constant Matrix: (Units=GPa)
#
#
# Indices 1 2 3 4 5 6 
#
# 1 60.4036 28.9235 -2.7839 0.0000 -8.4643 0.0000
# 2 28.9235 129.8636 18.1609 0.0000 -19.2076 0.0000
# 3 -2.7839 18.1609 12.0510 0.0000 -7.8989 0.0000
# 4 0.0000 0.0000 0.0000 12.5401 0.0000 -2.2884
# 5 -8.4643 -19.2076 -7.8989 0.0000 20.9749 0.0000
# 6 0.0000 0.0000 0.0000 -2.2884 0.0000 34.5723
#
#
#
# Elastic Compliance Matrix: (Units=1/GPa)
#
#
# Indices 1 2 3 4 5 6 
#
# 1 0.022250 -0.006367 0.022304 0.000000 0.011548 0.000000
# 2 -0.006367 0.011911 -0.018529 0.000000 0.001360 0.000000
# 3 0.022304 -0.018529 0.147159 0.000000 0.047452 0.000000
# 4 0.000000 0.000000 0.000000 0.080719 0.000000 0.005343
# 5 0.011548 0.001360 0.047452 0.000000 0.071451 0.000000
# 6 0.000000 0.000000 0.000000 0.005343 0.000000 0.029279
#
#
# Mechanical properties :
#
#
# Convention : Reuss Voigt Hill
#
# Bulk Modulus (GPa) = 5.67740 32.32435 19.00087
# Shear Modulus (GPa) = 11.71881 24.15198 17.93539
#
# Velocity S-wave (km/s) = 2.51172 3.60584 3.10732
# Velocity P-wave (km/s) = 3.38645 5.89387 4.80655
#
# Compressibility (1/GPa) = 0.17613696
#
# Stress axis : x y z
#
# Youngs Moduli (GPa) = 44.94367 83.95784 6.79536
#
# Poissons Ratio (x) = 0.53453 -0.15156
# Poissons Ratio (y) = 0.28614 0.12591
# Poissons Ratio (z) = -1.00242 1.55564
#
# Static dielectric constant tensor:
#      x y z
#    x 1.733070 0.000000 0.200120 
#    y 0.000000 1.647680 0.000000 
#    z 0.200120 0.000000 2.295720 
# 
# From -- ./inp_files/170615.got.cif
#   From: 2010.05.17/outbox.cif.g08.bks.cpg/sg12_86_cif.got.tgz:170615.got - 2010.06.03 13:09:07.
