data_PCOD9191431
_publ_section_title
;
Structure prediction by ZEFSAII (Michael W. Deem and Ramdas Pophale) SiO2 
 PCOD9191431
Probable space group: C 2/M
;
_chemical_formula_sum "Si O2"
_cell_formula_units_Z 64
_cell_length_a 26.162005
_cell_length_b 7.615371
_cell_length_c 15.151169
_cell_angle_alpha 90.000000
_cell_angle_beta 69.063817
_cell_angle_gamma 90.000000
_cell_volume 2819.326320
_symmetry_space_group_name_H-M "C 2/M"
_symmetry_group_IT_number 12
_symmetry_cell_setting 'monoclinic'
loop_
_space_group_symop_operation_xyz
x,y,z
-x,y,-z
-x,-y,-z
x,-y,z
1/2+x,1/2+y,z
1/2-x,1/2+y,-z
1/2-x,1/2-y,-z
1/2+x,1/2-y,z
loop_
_atom_site_type_symbol
_atom_site_label
_atom_site_fract_x
_atom_site_fract_y
_atom_site_fract_z
Si Si1 0.492325 0.712825 0.106402
Si Si2 0.609545 0.201038 0.568869
Si Si3 0.676861 0.786099 0.893824
Si Si4 0.627558 0.208668 0.745967
Si Si5 0.373618 0.707158 0.642339
Si Si6 0.605466 0.703359 0.098094
Si Si7 0.489772 0.299067 0.612170
Si Si8 0.202077 0.214334 0.162554
O O1 0.494464 0.500000 0.104653
O O2 0.434260 0.766244 0.181252
O O3 0.544201 0.776847 0.132250
O O4 0.500000 0.771447 0.000000
O O5 0.632683 0.284041 0.644220
O O6 0.625207 0.273344 0.463406
O O7 0.543347 0.209093 0.617411
O O8 0.626569 0.000000 0.554765
O O9 0.666880 0.727773 0.799545
O O10 0.736193 0.726246 0.891338
O O11 0.674174 0.000000 0.898690
O O12 0.628851 0.713868 0.984593
O O13 0.636834 0.000000 0.732926
O O14 0.378514 0.500000 0.655651
O O15 0.429128 0.781429 0.653457
O O16 0.319788 0.765208 0.726867
O O17 0.600602 0.500000 0.128496
O O18 0.654666 0.779437 0.126276
O O19 0.500000 0.306086 0.500000
O O20 0.490242 0.500000 0.645333
O O21 0.204356 0.000000 0.155237
#
# Coordination Sequence:
#
# PCOD9191431 Si02
#       8
#     8   8   8   8   8   8   8   8
#     4  10  20  34  54  81 109 138 171 215 267 311
#     4  10  20  33  49  73 106 140 173 213 260 306
#     4  10  20  37  57  76 103 142 180 214 258 314
#     4  10  22  36  52  76 109 146 179 211 255 316
#     4   9  18  34  53  75 102 134 175 218 258 306
#     4  10  20  35  56  82 109 134 169 219 268 314
#     4   8  15  28  48  71  96 129 166 205 253 307
#     4   9  19  35  57  80 103 136 178 221 263 308
#
# _framework density 22.700461000000001
#
# number of rings (size 3 to 8) (size 9 to 14) (size 15 to 20)
#    0.000    2.500    1.250    1.500    1.750    4.000 
#    0.000    1.875    0.000    0.000    0.000    0.000 
#    0.000    0.000    0.000    0.000    0.000    0.000 
#
# Total GULP energy -178591.660077 kJ/mol
# GULP energy per Si atom -5580.989377 kJ/mol
# Density = 2.264879 g / cm^3
# Si number density = 22.700461 Si / 1000 Ang^3
#
#
#
# Elastic Constant Matrix: (Units=GPa)
#
#
# Indices 1 2 3 4 5 6 
#
# 1 89.3072 -2.2650 -0.3334 0.0000 17.2132 0.0000
# 2 -2.2650 44.2192 -6.9199 0.0000 2.1517 0.0000
# 3 -0.3334 -6.9199 56.1362 0.0000 19.5826 0.0000
# 4 0.0000 0.0000 0.0000 5.6270 0.0000 7.1366
# 5 17.2132 2.1517 19.5826 0.0000 38.7158 0.0000
# 6 0.0000 0.0000 0.0000 7.1366 0.0000 7.8187
#
#
#
# Elastic Compliance Matrix: (Units=1/GPa)
#
#
# Indices 1 2 3 4 5 6 
#
# 1 0.012602 0.001413 0.002709 0.000000 -0.007052 0.000000
# 2 0.001413 0.023571 0.004359 0.000000 -0.004143 0.000000
# 3 0.002709 0.004359 0.022915 0.000000 -0.013037 0.000000
# 4 0.000000 0.000000 0.000000 -1.127409 0.000000 1.029058
# 5 -0.007052 -0.004143 -0.013037 0.000000 0.035789 0.000000
# 6 0.000000 0.000000 0.000000 1.029058 0.000000 -0.811389
#
#
# Mechanical properties :
#
#
# Convention : Reuss Voigt Hill
#
# Bulk Modulus (GPa) = 13.14932 18.95845 16.05389
# Shear Modulus (GPa) = -2.72401 23.71101 10.49350
#
# Velocity S-wave (km/s) = -1.09662 3.23540 2.15235
# Velocity P-wave (km/s) = 2.04980 4.72513 3.64201
#
# Compressibility (1/GPa) = 0.07604957
#
# Stress axis : x y z
#
# Youngs Moduli (GPa) = 79.34988 42.42548 43.63921
#
# Poissons Ratio (x) = -0.05993 -0.11821
# Poissons Ratio (y) = -0.11209 -0.19023
# Poissons Ratio (z) = -0.21495 -0.18494
#
# Static dielectric constant tensor:
#      x y z
#    x 1.849540 0.000000 0.033280 
#    y 0.000000 1.749830 0.000000 
#    z 0.033280 0.000000 1.877760 
# 
# From -- ./inp_files/243891.got.cif
#   From: 2010.05.17/outbox.cif.g08.bks.cpg/sg12_122_cif.got.tgz:243891.got - 2010.06.03 13:09:07.
