data_PCOD9191196
_publ_section_title
;
Structure prediction by ZEFSAII (Michael W. Deem and Ramdas Pophale) SiO2 
 PCOD9191196
Probable space group: C 2/M
;
_chemical_formula_sum "Si O2"
_cell_formula_units_Z 58
_cell_length_a 12.579413
_cell_length_b 14.532484
_cell_length_c 27.411339
_cell_angle_alpha 90.000000
_cell_angle_beta 31.130112
_cell_angle_gamma 90.000000
_cell_volume 2590.639426
_symmetry_space_group_name_H-M "C 2/M"
_symmetry_group_IT_number 12
_symmetry_cell_setting 'monoclinic'
loop_
_space_group_symop_operation_xyz
x,y,z
-x,y,-z
-x,-y,-z
x,-y,z
1/2+x,1/2+y,z
1/2-x,1/2+y,-z
1/2-x,1/2-y,-z
1/2+x,1/2-y,z
loop_
_atom_site_type_symbol
_atom_site_label
_atom_site_fract_x
_atom_site_fract_y
_atom_site_fract_z
Si Si1 0.103496 0.612133 0.051505
Si Si2 0.861224 0.887777 0.779505
Si Si3 0.325930 0.649184 0.529130
Si Si4 0.376276 0.890285 0.746656
Si Si5 0.691066 0.645703 0.574254
Si Si6 0.000000 0.500000 0.500000
Si Si7 0.739341 0.612460 0.905320
Si Si8 0.993043 0.887526 0.833984
O O1 0.105581 0.500000 0.049806
O O2 0.149829 0.641454 0.088624
O O3 0.876899 0.640238 0.124147
O O4 0.289689 0.641184 0.943452
O O5 0.975774 0.861747 0.784397
O O6 0.978851 0.846100 0.687307
O O7 0.867159 0.000000 0.772647
O O8 0.500000 0.624149 0.500000
O O9 0.351182 0.612284 0.464281
O O10 0.313171 0.758621 0.526359
O O11 0.102885 0.623012 0.637318
O O12 0.343213 0.854965 0.814535
O O13 0.198367 0.854851 0.780411
O O14 0.341186 0.000000 0.763247
O O15 0.835505 0.577722 0.546802
O O16 0.742508 0.500000 0.904464
O O17 0.500000 0.639486 0.000000
O O18 0.994600 0.000000 0.833839
#
# Coordination Sequence:
#
# PCOD9191196 Si02
#       8
#     8   8   8   8   8   2   8   8
#     4   9  16  28  48  82 127 156 195 263 322 366
#     4  10  20  32  57  90 119 157 212 267 317 382
#     4  11  27  47  65  96 138 171 215 286 352 393
#     4  10  21  34  58  90 123 169 213 262 324 397
#     4  11  26  45  72  96 127 175 225 276 344 402
#     4  12  24  48  78  96 124 176 236 278 316 430
#     4   9  15  28  50  80 118 162 211 257 308 384
#     4   9  17  30  53  88 123 160 212 259 310 377
#
# _framework density 22.388296
#
# number of rings (size 3 to 8) (size 9 to 14) (size 15 to 20)
#    0.000    2.069    2.759    0.414    4.828    1.931 
#    0.000    0.000    0.000    2.483    0.000    0.000 
#    0.000    0.000    0.000    0.000    0.000    0.000 
#
# Total GULP energy -161917.464191 kJ/mol
# GULP energy per Si atom -5583.360834 kJ/mol
# Density = 2.233734 g / cm^3
# Si number density = 22.388296 Si / 1000 Ang^3
#
#
#
# Elastic Constant Matrix: (Units=GPa)
#
#
# Indices 1 2 3 4 5 6 
#
# 1 80.6836 -0.5892 68.8524 -0.0019 13.8443 -0.0069
# 2 -0.5892 50.5231 -5.9480 -0.0033 -8.5886 0.0012
# 3 68.8524 -5.9480 149.1708 -0.0111 15.4182 -0.0036
# 4 -0.0019 -0.0033 -0.0111 -10.5469 0.0026 -18.0804
# 5 13.8443 -8.5886 15.4182 0.0026 40.1879 0.0054
# 6 -0.0069 0.0012 -0.0036 -18.0804 0.0054 48.7738
#
#
#
# Elastic Compliance Matrix: (Units=1/GPa)
#
#
# Indices 1 2 3 4 5 6 
#
# 1 0.021065 -0.001536 -0.009372 0.000000 -0.003989 0.000003
# 2 -0.001536 0.020672 0.001064 -0.000003 0.004539 -0.000002
# 3 -0.009372 0.001064 0.011157 -0.000006 -0.000825 -0.000003
# 4 0.000000 -0.000003 -0.000006 -0.057973 0.000008 -0.021491
# 5 -0.003989 0.004539 -0.000825 0.000008 0.027544 -0.000001
# 6 0.000003 -0.000002 -0.000003 -0.021491 -0.000001 0.012536
#
#
# Mechanical properties :
#
#
# Convention : Reuss Voigt Hill
#
# Bulk Modulus (GPa) = 30.11442 45.00087 37.55765
# Shear Modulus (GPa) = 76.03803 30.22046 53.12924
#
# Velocity S-wave (km/s) = 5.83413 3.67799 4.87671
# Velocity P-wave (km/s) = 7.67221 6.17905 6.96576
#
# Compressibility (1/GPa) = 0.03320668
#
# Stress axis : x y z
#
# Youngs Moduli (GPa) = 47.47231 48.37504 89.62916
#
# Poissons Ratio (x) = 0.07430 0.83998
# Poissons Ratio (y) = 0.07291 -0.09537
# Poissons Ratio (z) = 0.44490 -0.05147
#
# Static dielectric constant tensor:
#      x y z
#    x 1.802410 0.000000 0.016180 
#    y 0.000000 1.870530 0.000000 
#    z 0.016180 0.000000 1.791200 
# 
# From -- ./inp_files/358790.got.cif
#   From: 2010.05.17/outbox.cif.g08.bks.cpg/sg12_180_cif.got.tgz:358790.got - 2010.06.03 13:09:07.
