data_PCOD9191830
_publ_section_title
;
Structure prediction by ZEFSAII (Michael W. Deem and Ramdas Pophale) SiO2 
 PCOD9191830
Probable space group: C 2/M
;
_chemical_formula_sum "Si O2"
_cell_formula_units_Z 56
_cell_length_a 23.112318
_cell_length_b 14.778520
_cell_length_c 8.520103
_cell_angle_alpha 90.000000
_cell_angle_beta 49.266932
_cell_angle_gamma 90.000000
_cell_volume 2205.208915
_symmetry_space_group_name_H-M "C 2/M"
_symmetry_group_IT_number 12
_symmetry_cell_setting 'monoclinic'
loop_
_space_group_symop_operation_xyz
x,y,z
-x,y,-z
-x,-y,-z
x,-y,z
1/2+x,1/2+y,z
1/2-x,1/2+y,-z
1/2-x,1/2-y,-z
1/2+x,1/2-y,z
loop_
_atom_site_type_symbol
_atom_site_label
_atom_site_fract_x
_atom_site_fract_y
_atom_site_fract_z
Si Si1 0.921924 0.901058 0.537131
Si Si2 0.416551 0.603084 0.070912
Si Si3 0.512888 0.243091 0.238902
Si Si4 0.268747 0.354450 0.994836
Si Si5 0.904689 0.396677 0.332882
Si Si6 0.603926 0.903167 0.270902
Si Si7 0.242241 0.893286 0.614721
O O1 0.942460 0.808278 0.412696
O O2 0.845476 0.886790 0.773417
O O3 0.000000 0.908149 0.500000
O O4 0.915936 0.000000 0.464595
O O5 0.405520 0.500000 0.026189
O O6 0.426475 0.685964 0.935242
O O7 0.500000 0.601458 0.000000
O O8 0.341477 0.623385 0.308380
O O9 0.474387 0.170787 0.193155
O O10 0.558513 0.181479 0.282400
O O11 0.250000 0.250000 0.000000
O O12 0.192110 0.401049 0.065484
O O13 0.270282 0.372619 0.178717
O O14 0.917516 0.500000 0.255765
O O15 0.896084 0.400255 0.539550
O O16 0.823775 0.356094 0.414189
O O17 0.570405 0.000000 0.278110
O O18 0.255679 0.000000 0.577571
#
# Coordination Sequence:
#
# PCOD9191830 Si02
#       7
#     8   8   8   8   8   8   8
#     4  11  21  30  43  69 105 136 163 205 258 305
#     4  10  22  40  58  73  92 126 176 229 274 314
#     4  12  21  32  51  76 103 134 171 212 258 307
#     4  11  19  30  49  75 109 145 175 200 238 304
#     4   9  18  32  52  80 110 139 169 200 240 298
#     4  10  20  33  51  78 114 151 179 201 235 298
#     4   9  17  32  52  71  96 133 173 206 239 291
#
# _framework density 25.39442
#
# number of rings (size 3 to 8) (size 9 to 14) (size 15 to 20)
#    0.000    1.714    0.000    8.571    0.000    3.429 
#    0.000    0.714    0.000    1.714    0.000    0.000 
#    0.000    0.000    0.000    0.000    0.000    0.000 
#
# Total GULP energy -156388.998291 kJ/mol
# GULP energy per Si atom -5585.321368 kJ/mol
# Density = 2.533662 g / cm^3
# Si number density = 25.394420 Si / 1000 Ang^3
#
#
#
# Elastic Constant Matrix: (Units=GPa)
#
#
# Indices 1 2 3 4 5 6 
#
# 1 80.5005 38.8031 39.0158 0.0000 -38.0890 0.0000
# 2 38.8031 177.2162 24.8475 0.0000 -4.5123 0.0000
# 3 39.0158 24.8475 81.1839 0.0000 -30.1860 0.0000
# 4 0.0000 0.0000 0.0000 -14.7496 0.0000 -23.1867
# 5 -38.0890 -4.5123 -30.1860 0.0000 38.7912 0.0000
# 6 0.0000 0.0000 0.0000 -23.1867 0.0000 10.2012
#
#
#
# Elastic Compliance Matrix: (Units=1/GPa)
#
#
# Indices 1 2 3 4 5 6 
#
# 1 0.027840 -0.005097 -0.002640 0.000000 0.024690 0.000000
# 2 -0.005097 0.006857 -0.001708 0.000000 -0.005536 0.000000
# 3 -0.002640 -0.001708 0.018393 0.000000 0.011523 0.000000
# 4 0.000000 0.000000 0.000000 -0.014825 0.000000 -0.033697
# 5 0.024690 -0.005536 0.011523 0.000000 0.058344 0.000000
# 6 0.000000 0.000000 0.000000 -0.033697 0.000000 0.021436
#
#
# Mechanical properties :
#
#
# Convention : Reuss Voigt Hill
#
# Bulk Modulus (GPa) = 29.23769 60.47039 44.85404
# Shear Modulus (GPa) = 33.70756 22.59752 28.15254
#
# Velocity S-wave (km/s) = 3.64725 2.98629 3.33319
# Velocity P-wave (km/s) = 5.41064 5.97953 5.70218
#
# Compressibility (1/GPa) = 0.03420243
#
# Stress axis : x y z
#
# Youngs Moduli (GPa) = 35.91897 145.82881 54.36792
#
# Poissons Ratio (x) = 0.74331 0.14351
# Poissons Ratio (y) = 0.18309 0.09284
# Poissons Ratio (z) = 0.09481 0.24901
#
# Static dielectric constant tensor:
#      x y z
#    x 2.071970 0.000000 0.035250 
#    y 0.000000 2.072750 0.000000 
#    z 0.035250 0.000000 2.003930 
# 
# From -- ./inp_files/156170.got.cif
#   From: 2010.05.17/outbox.cif.g08.bks.cpg/sg12_79_cif.got.tgz:156170.got - 2010.06.03 13:09:07.
