data_PCOD9191698
_publ_section_title
;
Structure prediction by ZEFSAII (Michael W. Deem and Ramdas Pophale) SiO2 
 PCOD9191698
Probable space group: C 2/M
;
_chemical_formula_sum "Si O2"
_cell_formula_units_Z 48
_cell_length_a 27.865114
_cell_length_b 8.722249
_cell_length_c 14.038958
_cell_angle_alpha 90.000000
_cell_angle_beta 120.252884
_cell_angle_gamma 90.000000
_cell_volume 2947.423084
_symmetry_space_group_name_H-M "C 2/M"
_symmetry_group_IT_number 12
_symmetry_cell_setting 'monoclinic'
loop_
_space_group_symop_operation_xyz
x,y,z
-x,y,-z
-x,-y,-z
x,-y,z
1/2+x,1/2+y,z
1/2-x,1/2+y,-z
1/2-x,1/2-y,-z
1/2+x,1/2-y,z
loop_
_atom_site_type_symbol
_atom_site_label
_atom_site_fract_x
_atom_site_fract_y
_atom_site_fract_z
Si Si1 0.775735 0.683369 0.880903
Si Si2 0.560431 0.316808 0.455626
Si Si3 0.662505 0.183158 0.445418
Si Si4 0.724265 0.683369 0.329434
Si Si5 0.662505 0.683159 0.879593
Si Si6 0.939568 0.316808 0.334762
O O1 0.781929 0.500000 0.886332
O O2 0.781832 0.750002 0.781832
O O3 0.714262 0.719012 0.860905
O O4 0.818761 0.756206 0.998639
O O5 0.557798 0.500000 0.458391
O O6 0.607621 0.262589 0.430434
O O7 0.573984 0.250000 0.573984
O O8 0.500000 0.249999 0.369316
O O9 0.681239 0.243789 0.361118
O O10 0.714262 0.219011 0.567620
O O11 0.655372 0.000000 0.436321
O O12 0.718070 0.500000 0.322478
O O13 0.655374 0.500000 0.874429
O O14 0.607621 0.762585 0.784809
O O15 0.942201 0.500000 0.342791
#
# Coordination Sequence:
#
# PCOD9191698 Si02
#       6
#     8   8   8   8   8   8
#     4  10  20  33  51  75 103 135 169 207 251 298
#     4  11  21  34  52  75 103 134 169 207 251 299
#     4  10  20  34  52  75 103 134 169 208 251 298
#     4  10  20  33  51  75 103 135 169 207 251 298
#     4  10  20  34  52  75 103 134 169 208 251 298
#     4  11  21  34  52  75 103 134 169 207 251 299
#
# _framework density 16.285412000000001
#
# number of rings (size 3 to 8) (size 9 to 14) (size 15 to 20)
#    0.000    1.667    0.000    7.000    0.000    6.667 
#    0.000    0.000    0.000    1.000    0.000    7.000 
#    0.000    0.000    0.000    0.000    0.000    0.000 
#
# Total GULP energy -134087.970807 kJ/mol
# GULP energy per Si atom -5586.998784 kJ/mol
# Density = 1.624835 g / cm^3
# Si number density = 16.285412 Si / 1000 Ang^3
#
#
#
# Elastic Constant Matrix: (Units=GPa)
#
#
# Indices 1 2 3 4 5 6 
#
# 1 112.0920 66.4772 81.8533 0.0000 -11.3012 0.0000
# 2 66.4772 117.2635 69.5072 0.0000 -2.2492 0.0000
# 3 81.8533 69.5072 138.5156 0.0000 -8.3431 0.0000
# 4 0.0000 0.0000 0.0000 30.9893 0.0000 -1.3750
# 5 -11.3012 -2.2492 -8.3431 0.0000 20.5178 0.0000
# 6 0.0000 0.0000 0.0000 -1.3750 0.0000 29.1409
#
#
#
# Elastic Compliance Matrix: (Units=1/GPa)
#
#
# Indices 1 2 3 4 5 6 
#
# 1 0.018706 -0.005922 -0.007690 0.000000 0.006527 0.000000
# 2 -0.005922 0.014040 -0.003742 0.000000 -0.003244 0.000000
# 3 -0.007690 -0.003742 0.013697 0.000000 0.000924 0.000000
# 4 0.000000 0.000000 0.000000 0.032337 0.000000 0.001526
# 5 0.006527 -0.003244 0.000924 0.000000 0.052353 0.000000
# 6 0.000000 0.000000 0.000000 0.001526 0.000000 0.034388
#
#
# Mechanical properties :
#
#
# Convention : Reuss Voigt Hill
#
# Bulk Modulus (GPa) = 85.19463 89.28297 87.23880
# Shear Modulus (GPa) = 24.49301 26.13183 25.31242
#
# Velocity S-wave (km/s) = 3.88233 4.01011 3.94674
# Velocity P-wave (km/s) = 8.51608 8.73981 8.62867
#
# Compressibility (1/GPa) = 0.01173783
#
# Stress axis : x y z
#
# Youngs Moduli (GPa) = 53.45771 71.22328 73.01079
#
# Poissons Ratio (x) = 0.42175 0.56142
# Poissons Ratio (y) = 0.31655 0.27318
# Poissons Ratio (z) = 0.41107 0.26649
#
# Static dielectric constant tensor:
#      x y z
#    x 1.526750 0.000000 0.004840 
#    y 0.000000 1.539180 0.000000 
#    z 0.004840 0.000000 1.520240 
# 
# From -- ./inp_files/180257.got.cif
#   From: 2010.05.17/outbox.cif.g08.bks.cpg/sg12_91_cif.got.tgz:180257.got - 2010.06.03 13:09:07.
