data_PCOD9191955
_publ_section_title
;
Structure prediction by ZEFSAII (Michael W. Deem and Ramdas Pophale) SiO2 
 PCOD9191955
Probable space group: C 2/M
;
_chemical_formula_sum "Si O2"
_cell_formula_units_Z 64
_cell_length_a 23.002284
_cell_length_b 9.114190
_cell_length_c 24.274108
_cell_angle_alpha 90.000000
_cell_angle_beta 45.697340
_cell_angle_gamma 90.000000
_cell_volume 3641.994204
_symmetry_space_group_name_H-M "C 2/M"
_symmetry_group_IT_number 12
_symmetry_cell_setting 'monoclinic'
loop_
_space_group_symop_operation_xyz
x,y,z
-x,y,-z
-x,-y,-z
x,-y,z
1/2+x,1/2+y,z
1/2-x,1/2+y,-z
1/2-x,1/2-y,-z
1/2+x,1/2-y,z
loop_
_atom_site_type_symbol
_atom_site_label
_atom_site_fract_x
_atom_site_fract_y
_atom_site_fract_z
Si Si1 0.405582 0.677145 0.047304
Si Si2 0.312291 0.671073 0.418328
Si Si3 0.426592 0.331877 0.505969
Si Si4 0.780530 0.827036 0.036076
Si Si5 0.722257 0.174760 0.786741
Si Si6 0.484744 0.324038 0.343873
Si Si7 0.734061 0.170454 0.351532
Si Si8 0.847436 0.672754 0.780298
O O1 0.396106 0.500000 0.057036
O O2 0.363020 0.718927 0.016036
O O3 0.350366 0.753884 0.130051
O O4 0.500000 0.710062 0.000000
O O5 0.311835 0.500000 0.434519
O O6 0.250000 0.750000 0.500000
O O7 0.404371 0.721776 0.364317
O O8 0.283734 0.683978 0.374966
O O9 0.500000 0.328364 0.500000
O O10 0.395062 0.500000 0.523709
O O11 0.461932 0.294005 0.422676
O O12 0.355377 0.228249 0.574222
O O13 0.708540 0.808782 0.128631
O O14 0.790109 0.000000 0.017757
O O15 0.750000 0.750000 0.000000
O O16 0.725660 0.233662 0.722675
O O17 0.804139 0.234894 0.761052
O O18 0.718738 0.000000 0.791470
O O19 0.498681 0.500000 0.329126
O O20 0.562910 0.235901 0.272852
O O21 0.731623 0.000000 0.336186
O O22 0.848110 0.500000 0.766278
#
# Coordination Sequence:
#
# PCOD9191955 Si02
#       8
#     8   8   8   8   8   8   8   8
#     4   9  19  39  64  88 118 153 191 234 284 341
#     4  10  21  37  56  77 106 148 190 231 279 334
#     4  10  20  33  52  78 107 139 179 229 280 328
#     4   9  19  36  59  87 117 151 186 228 280 335
#     4  11  22  37  59  85 114 148 185 231 284 332
#     4  10  20  35  54  79 111 145 185 228 278 333
#     4  11  22  36  55  79 108 144 189 231 275 332
#     4  10  21  38  59  84 114 147 186 230 279 332
#
# _framework density 17.572790999999999
#
# number of rings (size 3 to 8) (size 9 to 14) (size 15 to 20)
#    0.000    2.000    1.250    3.375    0.000    5.500 
#    2.250    0.000    0.000    0.000    0.000    0.000 
#    0.000    0.000    0.000    0.000    0.000    0.000 
#
# Total GULP energy -178485.269270 kJ/mol
# GULP energy per Si atom -5577.664665 kJ/mol
# Density = 1.753279 g / cm^3
# Si number density = 17.572791 Si / 1000 Ang^3
#
#
#
# Elastic Constant Matrix: (Units=GPa)
#
#
# Indices 1 2 3 4 5 6 
#
# 1 110.2938 50.3881 48.3315 0.0000 -22.0013 0.0001
# 2 50.3881 62.8360 42.0916 -0.0002 -4.8135 0.0001
# 3 48.3315 42.0916 57.6143 -0.0001 -16.2438 0.0002
# 4 0.0000 -0.0002 -0.0001 37.1923 0.0001 6.0388
# 5 -22.0013 -4.8135 -16.2438 0.0001 29.0319 -0.0001
# 6 0.0001 0.0001 0.0002 6.0388 -0.0001 40.9678
#
#
#
# Elastic Compliance Matrix: (Units=1/GPa)
#
#
# Indices 1 2 3 4 5 6 
#
# 1 0.017638 -0.010268 -0.004756 0.000000 0.009003 0.000000
# 2 -0.010268 0.039256 -0.024250 0.000000 -0.014841 0.000000
# 3 -0.004756 -0.024250 0.043827 0.000000 0.016897 0.000000
# 4 0.000000 0.000000 0.000000 0.027547 0.000000 -0.004060
# 5 0.009003 -0.014841 0.016897 0.000000 0.048261 0.000000
# 6 0.000000 0.000000 0.000000 -0.004060 0.000000 0.025008
#
#
# Mechanical properties :
#
#
# Convention : Reuss Voigt Hill
#
# Bulk Modulus (GPa) = 45.10138 56.92959 51.01549
# Shear Modulus (GPa) = 17.39289 27.43394 22.41341
#
# Velocity S-wave (km/s) = 3.14946 3.95544 3.57523
# Velocity P-wave (km/s) = 6.24073 7.30256 6.79243
#
# Compressibility (1/GPa) = 0.02217227
#
# Stress axis : x y z
#
# Youngs Moduli (GPa) = 56.69660 25.47409 22.81716
#
# Poissons Ratio (x) = 0.26157 0.10852
# Poissons Ratio (y) = 0.58217 0.55331
# Poissons Ratio (z) = 0.26965 0.61774
#
# Static dielectric constant tensor:
#      x y z
#    x 1.625080 0.000000 -0.003680 
#    y 0.000000 1.597540 0.000000 
#    z -0.003680 0.000000 1.565650 
# 
# From -- ./inp_files/345981.got.cif
#   From: 2010.05.17/outbox.cif.g08.bks.cpg/sg12_173_cif.got.tgz:345981.got - 2010.06.03 13:09:07.
