data_PCOD9191461
_publ_section_title
;
Structure prediction by ZEFSAII (Michael W. Deem and Ramdas Pophale) SiO2 
 PCOD9191461
Probable space group: C 2/M
;
_chemical_formula_sum "Si O2"
_cell_formula_units_Z 64
_cell_length_a 24.978125
_cell_length_b 14.343599
_cell_length_c 15.364449
_cell_angle_alpha 90.000000
_cell_angle_beta 138.266753
_cell_angle_gamma 90.000000
_cell_volume 3664.288844
_symmetry_space_group_name_H-M "C 2/M"
_symmetry_group_IT_number 12
_symmetry_cell_setting 'monoclinic'
loop_
_space_group_symop_operation_xyz
x,y,z
-x,y,-z
-x,-y,-z
x,-y,z
1/2+x,1/2+y,z
1/2-x,1/2+y,-z
1/2-x,1/2-y,-z
1/2+x,1/2-y,z
loop_
_atom_site_type_symbol
_atom_site_label
_atom_site_fract_x
_atom_site_fract_y
_atom_site_fract_z
Si Si1 0.990349 0.105867 0.358831
Si Si2 0.883140 0.787566 0.980981
Si Si3 0.190829 0.266411 0.508392
Si Si4 0.318889 0.391870 0.734139
Si Si5 0.556937 0.327072 0.259878
Si Si6 0.293154 0.892382 0.918129
Si Si7 0.827220 0.113020 0.085457
Si Si8 0.840886 0.890679 0.392017
O O1 0.028103 0.110830 0.306628
O O2 0.065777 0.139814 0.508079
O O3 0.902714 0.149032 0.236002
O O4 0.975009 0.000000 0.368027
O O5 0.853675 0.828931 0.854117
O O6 0.858213 0.680558 0.964022
O O7 0.838599 0.843638 0.004662
O O8 0.978007 0.801732 0.110035
O O9 0.250000 0.250000 0.500000
O O10 0.229287 0.355125 0.602611
O O11 0.101723 0.261438 0.359216
O O12 0.193664 0.178253 0.576937
O O13 0.319170 0.500000 0.758472
O O14 0.377884 0.376330 0.722857
O O15 0.256232 0.866883 0.967419
O O16 0.216789 0.886240 0.760512
O O17 0.320070 0.000000 0.951496
O O18 0.834217 0.000000 0.088680
O O19 0.843050 0.000000 0.421571
#
# Coordination Sequence:
#
# PCOD9191461 Si02
#       8
#     8   8   8   8   8   8   8   8
#     4   8  14  26  46  72 102 126 154 200 251 300
#     4  11  20  34  52  75 105 135 169 214 258 304
#     4   9  18  33  49  73 102 133 168 205 246 304
#     4  11  21  33  53  80 106 135 169 211 263 315
#     4   9  19  32  51  73 104 134 168 203 253 307
#     4  10  20  33  50  70  98 135 175 210 246 298
#     4   9  18  31  48  75 103 130 164 206 258 308
#     4   9  16  29  49  71  97 131 165 204 248 294
#
# _framework density 17.465872000000001
#
# number of rings (size 3 to 8) (size 9 to 14) (size 15 to 20)
#    0.000    2.500    1.250    1.500    0.000    5.500 
#    0.000    3.125    0.000    2.250    0.000    0.000 
#    0.000    6.500    0.000    0.000    0.000    0.000 
#
# Total GULP energy -178163.287345 kJ/mol
# GULP energy per Si atom -5567.602730 kJ/mol
# Density = 1.742612 g / cm^3
# Si number density = 17.465872 Si / 1000 Ang^3
#
#
#
# Elastic Constant Matrix: (Units=GPa)
#
#
# Indices 1 2 3 4 5 6 
#
# 1 47.3082 25.7751 -5.5415 0.0000 -3.2006 0.0000
# 2 25.7751 61.8911 7.4290 0.0000 6.3326 0.0000
# 3 -5.5415 7.4290 50.4325 0.0000 2.2473 0.0000
# 4 0.0000 0.0000 0.0000 18.9013 0.0000 -1.3547
# 5 -3.2006 6.3326 2.2473 0.0000 17.6870 0.0000
# 6 0.0000 0.0000 0.0000 -1.3547 0.0000 22.3308
#
#
#
# Elastic Compliance Matrix: (Units=1/GPa)
#
#
# Indices 1 2 3 4 5 6 
#
# 1 0.030087 -0.014134 0.004948 0.000000 0.009876 0.000000
# 2 -0.014134 0.023662 -0.004573 0.000000 -0.010448 0.000000
# 3 0.004948 -0.004573 0.021052 0.000000 -0.000142 0.000000
# 4 0.000000 0.000000 0.000000 0.053137 0.000000 0.003224
# 5 0.009876 -0.010448 -0.000142 0.000000 0.062085 0.000000
# 6 0.000000 0.000000 0.000000 0.003224 0.000000 0.044977
#
#
# Mechanical properties :
#
#
# Convention : Reuss Voigt Hill
#
# Bulk Modulus (GPa) = 21.14985 23.88412 22.51698
# Shear Modulus (GPa) = 17.96762 20.58177 19.27470
#
# Velocity S-wave (km/s) = 3.21086 3.43651 3.32560
# Velocity P-wave (km/s) = 5.08740 5.42683 5.25986
#
# Compressibility (1/GPa) = 0.04728166
#
# Stress axis : x y z
#
# Youngs Moduli (GPa) = 33.23749 42.26243 47.50110
#
# Poissons Ratio (x) = 0.59735 -0.23503
# Poissons Ratio (y) = 0.46979 0.21722
# Poissons Ratio (z) = -0.16446 0.19327
#
# Static dielectric constant tensor:
#      x y z
#    x 1.618960 0.000000 -0.008540 
#    y 0.000000 1.582400 0.000000 
#    z -0.008540 0.000000 1.642900 
# 
# From -- ./inp_files/246401.got.cif
#   From: 2010.05.17/outbox.cif.g08.bks.cpg/sg12_124_cif.got.tgz:246401.got - 2010.06.03 13:09:07.
