data_PCOD9191636
_publ_section_title
;
Structure prediction by ZEFSAII (Michael W. Deem and Ramdas Pophale) SiO2 
 PCOD9191636
Probable space group: C 2/M
;
_chemical_formula_sum "Si O2"
_cell_formula_units_Z 60
_cell_length_a 9.707663
_cell_length_b 24.687508
_cell_length_c 22.993517
_cell_angle_alpha 90.000000
_cell_angle_beta 139.245198
_cell_angle_gamma 90.000000
_cell_volume 3597.435016
_symmetry_space_group_name_H-M "C 2/M"
_symmetry_group_IT_number 12
_symmetry_cell_setting 'monoclinic'
loop_
_space_group_symop_operation_xyz
x,y,z
-x,y,-z
-x,-y,-z
x,-y,z
1/2+x,1/2+y,z
1/2-x,1/2+y,-z
1/2-x,1/2-y,-z
1/2+x,1/2-y,z
loop_
_atom_site_type_symbol
_atom_site_label
_atom_site_fract_x
_atom_site_fract_y
_atom_site_fract_z
Si Si1 0.552603 0.664286 0.815723
Si Si2 0.723911 0.814624 0.997883
Si Si3 0.327237 0.860885 0.805013
Si Si4 0.425380 0.143734 0.303158
Si Si5 0.548465 0.790120 0.448457
Si Si6 0.630400 0.225775 0.280256
Si Si7 0.500000 0.384754 0.000000
Si Si8 0.089729 0.435849 0.808053
O O1 0.625501 0.632745 0.781461
O O2 0.522460 0.727614 0.791628
O O3 0.323859 0.645292 0.764073
O O4 0.721900 0.663668 0.921082
O O5 0.500721 0.834476 0.902960
O O6 0.889278 0.845072 0.009838
O O7 0.750000 0.750000 0.000000
O O8 0.298994 0.816115 0.746311
O O9 0.423686 0.912236 0.802358
O O10 0.541477 0.158270 0.401719
O O11 0.503351 0.193798 0.288632
O O12 0.456796 0.092937 0.269301
O O13 0.500000 0.806388 0.500000
O O14 0.750000 0.750000 0.500000
O O15 0.341143 0.754728 0.368515
O O16 0.318970 0.418174 0.907705
O O17 0.078911 0.500000 0.799560
#
# Coordination Sequence:
#
# PCOD9191636 Si02
#       8
#     8   8   8   8   8   8   4   8
#     4  11  19  31  49  76 115 147 175 224 272 327
#     4  11  21  28  47  75 117 151 180 213 264 331
#     4  10  22  32  49  77 106 145 186 224 275 321
#     4  10  21  36  54  82 109 144 190 225 269 332
#     4  11  21  35  55  84 121 153 177 213 272 344
#     4  10  20  33  50  78 118 148 178 208 263 346
#     4  10  21  36  52  82 104 150 201 224 266 330
#     4  10  21  41  60  73 101 146 198 248 279 316
#
# _framework density 16.678550000000001
#
# number of rings (size 3 to 8) (size 9 to 14) (size 15 to 20)
#    0.000    1.600    4.000    2.200    3.733    0.000 
#    0.000    0.667    0.000    2.000    0.000    7.467 
#    0.000    0.000    0.000    0.000    0.000    0.000 
#
# Total GULP energy -167118.113796 kJ/mol
# GULP energy per Si atom -5570.603793 kJ/mol
# Density = 1.664059 g / cm^3
# Si number density = 16.678550 Si / 1000 Ang^3
#
#
#
# Elastic Constant Matrix: (Units=GPa)
#
#
# Indices 1 2 3 4 5 6 
#
# 1 125.7240 34.5925 27.3860 0.0000 -12.1837 0.0000
# 2 34.5925 97.5818 23.9531 0.0000 -8.0086 0.0000
# 3 27.3860 23.9531 63.0538 0.0000 -17.9583 0.0000
# 4 0.0000 0.0000 0.0000 12.8457 0.0000 -1.8440
# 5 -12.1837 -8.0086 -17.9583 0.0000 28.5985 0.0000
# 6 0.0000 0.0000 0.0000 -1.8440 0.0000 4.5572
#
#
#
# Elastic Compliance Matrix: (Units=1/GPa)
#
#
# Indices 1 2 3 4 5 6 
#
# 1 0.009388 -0.002545 -0.002648 0.000000 0.001624 0.000000
# 2 -0.002545 0.011999 -0.003416 0.000000 0.000131 0.000000
# 3 -0.002648 -0.003416 0.021571 0.000000 0.011461 0.000000
# 4 0.000000 0.000000 0.000000 0.082648 0.000000 0.033443
# 5 0.001624 0.000131 0.011461 0.000000 0.042892 0.000000
# 6 0.000000 0.000000 0.000000 0.033443 0.000000 0.232967
#
#
# Mechanical properties :
#
#
# Convention : Reuss Voigt Hill
#
# Bulk Modulus (GPa) = 38.84794 50.91365 44.88079
# Shear Modulus (GPa) = 11.70237 22.56214 17.13225
#
# Velocity S-wave (km/s) = 2.65173 3.68198 3.20848
# Velocity P-wave (km/s) = 5.71999 6.97630 6.37914
#
# Compressibility (1/GPa) = 0.02574139
#
# Stress axis : x y z
#
# Youngs Moduli (GPa) = 106.51459 83.33936 46.35755
#
# Poissons Ratio (x) = 0.21208 0.12277
# Poissons Ratio (y) = 0.27106 0.15834
# Poissons Ratio (z) = 0.28209 0.28466
#
# Static dielectric constant tensor:
#      x y z
#    x 1.755210 0.000000 0.056740 
#    y 0.000000 1.521930 0.000000 
#    z 0.056740 0.000000 1.647110 
# 
# From -- ./inp_files/334090.got.cif
#   From: 2010.05.17/outbox.cif.g08.bks.cpg/sg12_168_cif.got.tgz:334090.got - 2010.06.03 13:09:07.
