data_PCOD9191582
_publ_section_title
;
Structure prediction by ZEFSAII (Michael W. Deem and Ramdas Pophale) SiO2 
 PCOD9191582
Probable space group: C 2/M
;
_chemical_formula_sum "Si O2"
_cell_formula_units_Z 48
_cell_length_a 27.012694
_cell_length_b 8.944444
_cell_length_c 20.673865
_cell_angle_alpha 90.000000
_cell_angle_beta 145.316521
_cell_angle_gamma 90.000000
_cell_volume 2842.415617
_symmetry_space_group_name_H-M "C 2/M"
_symmetry_group_IT_number 12
_symmetry_cell_setting 'monoclinic'
loop_
_space_group_symop_operation_xyz
x,y,z
-x,y,-z
-x,-y,-z
x,-y,z
1/2+x,1/2+y,z
1/2-x,1/2+y,-z
1/2-x,1/2-y,-z
1/2+x,1/2-y,z
loop_
_atom_site_type_symbol
_atom_site_label
_atom_site_fract_x
_atom_site_fract_y
_atom_site_fract_z
Si Si1 0.294229 0.823478 0.734907
Si Si2 0.806681 0.819057 0.502673
Si Si3 0.506019 0.326636 0.251507
Si Si4 0.165018 0.176922 0.092862
Si Si5 0.036511 0.829642 0.130697
Si Si6 0.324625 0.178005 0.036467
O O1 0.232807 0.776708 0.609252
O O2 0.281964 0.738240 0.789246
O O3 0.391610 0.784235 0.816010
O O4 0.284714 0.000000 0.734882
O O5 0.750000 0.750000 0.500000
O O6 0.907822 0.775896 0.618396
O O7 0.802342 0.000000 0.503945
O O8 0.486468 0.500000 0.247062
O O9 0.532236 0.324851 0.203915
O O10 0.419130 0.230388 0.163961
O O11 0.176996 0.000000 0.096503
O O12 0.183266 0.260249 0.045298
O O13 0.061999 0.200287 0.997131
O O14 0.060813 0.000000 0.137474
O O15 0.318598 0.000000 0.030202
O O16 0.250000 0.250000 0.000000
#
# Coordination Sequence:
#
# PCOD9191582 Si02
#       6
#     8   8   8   8   8   8
#     4  11  21  30  46  75 108 143 182 220 258 305
#     4  10  20  33  50  74 109 150 187 220 256 306
#     4   9  18  34  53  76 108 144 181 219 263 312
#     4  10  21  36  52  73 104 140 177 216 267 320
#     4   9  17  30  48  69 100 143 182 214 259 312
#     4  11  22  38  61  85 106 130 168 220 274 323
#
# _framework density 16.887045000000001
#
# number of rings (size 3 to 8) (size 9 to 14) (size 15 to 20)
#    0.000    2.000    1.667    4.000    0.000    6.667 
#    0.000    0.000    0.000    1.000    0.000    7.000 
#    0.000    0.000    0.000    0.000    0.000    0.000 
#
# Total GULP energy -133947.326711 kJ/mol
# GULP energy per Si atom -5581.138613 kJ/mol
# Density = 1.684861 g / cm^3
# Si number density = 16.887045 Si / 1000 Ang^3
#
#
#
# Elastic Constant Matrix: (Units=GPa)
#
#
# Indices 1 2 3 4 5 6 
#
# 1 77.7283 53.3094 67.9200 0.0000 2.2690 0.0000
# 2 53.3094 87.7380 63.7893 0.0000 0.2918 0.0000
# 3 67.9200 63.7893 138.3529 0.0000 -22.0154 0.0000
# 4 0.0000 0.0000 0.0000 24.8760 0.0000 -0.6512
# 5 2.2690 0.2918 -22.0154 0.0000 21.2147 0.0000
# 6 0.0000 0.0000 0.0000 -0.6512 0.0000 29.4886
#
#
#
# Elastic Compliance Matrix: (Units=1/GPa)
#
#
# Indices 1 2 3 4 5 6 
#
# 1 0.032447 -0.008884 -0.014811 0.000000 -0.018719 0.000000
# 2 -0.008884 0.021600 -0.006580 0.000000 -0.006176 0.000000
# 3 -0.014811 -0.006580 0.021320 0.000000 0.023800 0.000000
# 4 0.000000 0.000000 0.000000 0.040223 0.000000 0.000888
# 5 -0.018719 -0.006176 0.023800 0.000000 0.073922 0.000000
# 6 0.000000 0.000000 0.000000 0.000888 0.000000 0.033931
#
#
# Mechanical properties :
#
#
# Convention : Reuss Voigt Hill
#
# Bulk Modulus (GPa) = 67.49529 74.87295 71.18412
# Shear Modulus (GPa) = 17.30498 23.03590 20.17044
#
# Velocity S-wave (km/s) = 3.20464 3.69740 3.45981
# Velocity P-wave (km/s) = 7.33133 7.91590 7.62922
#
# Compressibility (1/GPa) = 0.01481585
#
# Stress axis : x y z
#
# Youngs Moduli (GPa) = 30.81918 46.29556 46.90383
#
# Poissons Ratio (x) = 0.41129 0.69472
# Poissons Ratio (y) = 0.27380 0.30865
# Poissons Ratio (z) = 0.45648 0.30465
#
# Static dielectric constant tensor:
#      x y z
#    x 1.554290 0.000000 -0.024060 
#    y 0.000000 1.569410 0.000000 
#    z -0.024060 0.000000 1.593990 
# 
# From -- ./inp_files/327341.got.cif
#   From: 2010.05.17/outbox.cif.g08.bks.cpg/sg12_164_cif.got.tgz:327341.got - 2010.06.03 13:09:07.
