data_PCOD9191154
_publ_section_title
;
Structure prediction by ZEFSAII (Michael W. Deem and Ramdas Pophale) SiO2 
 PCOD9191154
Probable space group: C 2/M
;
_chemical_formula_sum "Si O2"
_cell_formula_units_Z 56
_cell_length_a 22.236931
_cell_length_b 29.100043
_cell_length_c 14.842861
_cell_angle_alpha 90.000000
_cell_angle_beta 161.737077
_cell_angle_gamma 90.000000
_cell_volume 3009.917604
_symmetry_space_group_name_H-M "C 2/M"
_symmetry_group_IT_number 12
_symmetry_cell_setting 'monoclinic'
loop_
_space_group_symop_operation_xyz
x,y,z
-x,y,-z
-x,-y,-z
x,-y,z
1/2+x,1/2+y,z
1/2-x,1/2+y,-z
1/2-x,1/2-y,-z
1/2+x,1/2-y,z
loop_
_atom_site_type_symbol
_atom_site_label
_atom_site_fract_x
_atom_site_fract_y
_atom_site_fract_z
Si Si1 0.568814 0.618660 0.337432
Si Si2 0.817979 0.780760 0.808008
Si Si3 0.110765 0.224718 0.373795
Si Si4 0.492792 0.051343 0.335546
Si Si5 0.662427 0.447015 0.306789
Si Si6 0.962901 0.946704 0.341843
Si Si7 0.165170 0.636820 0.680004
O O1 0.651503 0.670377 0.446466
O O2 0.646426 0.587103 0.367224
O O3 0.574339 0.589824 0.437775
O O4 0.343906 0.625758 0.996808
O O5 0.656379 0.748893 0.533679
O O6 0.738687 0.832176 0.702906
O O7 0.000000 0.779625 0.000000
O O8 0.903868 0.770214 0.029897
O O9 0.250000 0.250000 0.500000
O O10 0.627235 0.054693 0.438445
O O11 0.573587 0.090344 0.514188
O O12 0.525648 0.000000 0.419096
O O13 0.267028 0.057187 0.998738
O O14 0.623290 0.500000 0.278389
O O15 0.500000 0.435628 0.000000
O O16 0.000000 0.939216 0.500000
O O17 0.015454 0.000000 0.394440
O O18 0.000000 0.662769 0.500000
#
# Coordination Sequence:
#
# PCOD9191154 Si02
#       7
#     8   8   8   8   8   8   8
#     4  11  21  36  61  89 117 155 199 246 296 362
#     4   9  20  39  60  79 112 153 194 245 299 361
#     4   9  20  37  58  85 112 149 197 242 304 359
#     4  10  21  35  55  86 122 155 190 233 291 355
#     4  10  20  32  54  93 126 149 184 240 303 359
#     4  10  22  42  60  80 121 170 207 243 289 348
#     4  11  21  34  56  87 116 148 187 238 303 352
#
# _framework density 18.605160000000001
#
# number of rings (size 3 to 8) (size 9 to 14) (size 15 to 20)
#    0.000    2.000    2.857    0.429    6.000    0.857 
#    2.571    5.714    0.000    3.429    0.000    0.000 
#    0.000    0.000    0.000    0.000    0.000    0.000 
#
# Total GULP energy -156008.380282 kJ/mol
# GULP energy per Si atom -5571.727867 kJ/mol
# Density = 1.856281 g / cm^3
# Si number density = 18.605160 Si / 1000 Ang^3
#
#
#
# Elastic Constant Matrix: (Units=GPa)
#
#
# Indices 1 2 3 4 5 6 
#
# 1 66.5222 51.9857 19.5477 -0.0001 -12.1337 0.0000
# 2 51.9857 130.0826 45.3440 -0.0001 -24.8273 0.0000
# 3 19.5477 45.3440 41.4470 0.0000 -12.6847 0.0000
# 4 -0.0001 -0.0001 0.0000 23.6271 0.0000 -2.6554
# 5 -12.1337 -24.8273 -12.6847 0.0000 26.7549 0.0000
# 6 0.0000 0.0000 0.0000 -2.6554 0.0000 19.4828
#
#
#
# Elastic Compliance Matrix: (Units=1/GPa)
#
#
# Indices 1 2 3 4 5 6 
#
# 1 0.021986 -0.008082 -0.000902 0.000000 0.002044 0.000000
# 2 -0.008082 0.016263 -0.012263 0.000000 0.005612 0.000000
# 3 -0.000902 -0.012263 0.040192 0.000000 0.007267 0.000000
# 4 0.000000 0.000000 0.000000 0.042983 0.000000 0.005858
# 5 0.002044 0.005612 0.007267 0.000000 0.046956 0.000000
# 6 0.000000 0.000000 0.000000 0.005858 0.000000 0.052126
#
#
# Mechanical properties :
#
#
# Convention : Reuss Voigt Hill
#
# Bulk Modulus (GPa) = 27.81792 52.42298 40.12045
# Shear Modulus (GPa) = 18.18294 22.05125 20.11710
#
# Velocity S-wave (km/s) = 3.12958 3.44644 3.29183
# Velocity P-wave (km/s) = 5.29559 6.63890 6.00492
#
# Compressibility (1/GPa) = 0.03594806
#
# Stress axis : x y z
#
# Youngs Moduli (GPa) = 45.48276 61.48947 24.88029
#
# Poissons Ratio (x) = 0.49696 0.02244
# Poissons Ratio (y) = 0.36759 0.30510
# Poissons Ratio (z) = 0.04103 0.75403
#
# Static dielectric constant tensor:
#      x y z
#    x 1.677840 0.000000 0.008660 
#    y 0.000000 1.660270 0.000000 
#    z 0.008660 0.000000 1.655330 
# 
# From -- ./inp_files/242188.got.cif
#   From: 2010.05.17/outbox.cif.g08.bks.cpg/sg12_122_cif.got.tgz:242188.got - 2010.06.03 13:09:07.
