data_PCOD9191442
_publ_section_title
;
Structure prediction by ZEFSAII (Michael W. Deem and Ramdas Pophale) SiO2 
 PCOD9191442
Probable space group: C 2/M
;
_chemical_formula_sum "Si O2"
_cell_formula_units_Z 64
_cell_length_a 22.798426
_cell_length_b 10.654454
_cell_length_c 13.880986
_cell_angle_alpha 90.000000
_cell_angle_beta 121.695581
_cell_angle_gamma 90.000000
_cell_volume 2868.865691
_symmetry_space_group_name_H-M "C 2/M"
_symmetry_group_IT_number 12
_symmetry_cell_setting 'monoclinic'
loop_
_space_group_symop_operation_xyz
x,y,z
-x,y,-z
-x,-y,-z
x,-y,z
1/2+x,1/2+y,z
1/2-x,1/2+y,-z
1/2-x,1/2-y,-z
1/2+x,1/2-y,z
loop_
_atom_site_type_symbol
_atom_site_label
_atom_site_fract_x
_atom_site_fract_y
_atom_site_fract_z
Si Si1 0.208296 0.145862 0.586784
Si Si2 0.560485 0.650485 0.487547
Si Si3 0.082786 0.142621 0.083471
Si Si4 0.096110 0.354102 0.946636
Si Si5 0.776558 0.629617 0.096333
Si Si6 0.316156 0.358611 0.663619
Si Si7 0.976968 0.855231 0.230661
Si Si8 0.322866 0.631407 0.167390
O O1 0.137755 0.188087 0.577837
O O2 0.268559 0.243962 0.655114
O O3 0.186227 0.148600 0.454288
O O4 0.225850 0.000000 0.621176
O O5 0.500000 0.706498 0.500000
O O6 0.561049 0.500000 0.501828
O O7 0.537075 0.669116 0.357846
O O8 0.113643 0.260293 0.050302
O O9 0.095435 0.137530 0.771625
O O10 0.102746 0.000000 0.066917
O O11 0.000000 0.149380 0.000000
O O12 0.078403 0.500000 0.956389
O O13 0.158547 0.365898 0.922866
O O14 0.036840 0.267411 0.846079
O O15 0.778427 0.500000 0.152334
O O16 0.785736 0.746413 0.173056
O O17 0.710033 0.629961 0.969844
O O18 0.290497 0.500000 0.664979
O O19 0.388811 0.348133 0.782993
O O20 0.984048 0.000000 0.197066
O O21 0.302386 0.500000 0.194718
#
# Coordination Sequence:
#
# PCOD9191442 Si02
#       8
#     8   8   8   8   8   8   8   8
#     4   9  18  35  62  89 116 152 194 244 297 347
#     4   9  18  33  55  88 118 145 192 249 297 345
#     4  10  22  38  58  82 112 148 187 232 286 349
#     4  10  20  33  49  76 112 145 180 225 282 344
#     4   8  14  25  40  60  92 128 164 206 252 305
#     4   9  19  37  60  88 117 149 195 243 291 351
#     4   9  17  30  52  75 104 145 192 234 274 334
#     4   8  13  23  40  64  88 123 170 212 251 296
#
# _framework density 22.308468000000001
#
# number of rings (size 3 to 8) (size 9 to 14) (size 15 to 20)
#    0.000    3.000    0.000    0.375    1.750    1.250 
#    2.250    0.625    0.000    1.500    0.000    0.000 
#    0.000    0.000    0.000    0.000    0.000    0.000 
#
# Total GULP energy -178276.250735 kJ/mol
# GULP energy per Si atom -5571.132835 kJ/mol
# Density = 2.225769 g / cm^3
# Si number density = 22.308468 Si / 1000 Ang^3
#
#
#
# Elastic Constant Matrix: (Units=GPa)
#
#
# Indices 1 2 3 4 5 6 
#
# 1 61.2698 33.4867 23.7090 0.0000 8.0284 0.0000
# 2 33.4867 183.2785 39.7525 0.0000 7.8181 0.0000
# 3 23.7090 39.7525 107.6585 0.0000 10.3141 0.0000
# 4 0.0000 0.0000 0.0000 12.5326 0.0000 1.1718
# 5 8.0284 7.8181 10.3141 0.0000 37.8505 0.0000
# 6 0.0000 0.0000 0.0000 1.1718 0.0000 7.0208
#
#
#
# Elastic Compliance Matrix: (Units=1/GPa)
#
#
# Indices 1 2 3 4 5 6 
#
# 1 0.019345 -0.002773 -0.002976 0.000000 -0.002720 0.000000
# 2 -0.002773 0.006344 -0.001707 0.000000 -0.000257 0.000000
# 3 -0.002976 -0.001707 0.010761 0.000000 -0.001949 0.000000
# 4 0.000000 0.000000 0.000000 0.081057 0.000000 -0.013529
# 5 -0.002720 -0.000257 -0.001949 0.000000 0.027581 0.000000
# 6 0.000000 0.000000 0.000000 -0.013529 0.000000 0.144693
#
#
# Mechanical properties :
#
#
# Convention : Reuss Voigt Hill
#
# Bulk Modulus (GPa) = 46.42985 60.67815 53.55400
# Shear Modulus (GPa) = 16.03224 28.49799 22.26511
#
# Velocity S-wave (km/s) = 2.68369 3.57802 3.16263
# Velocity P-wave (km/s) = 5.51913 6.65795 6.11511
#
# Compressibility (1/GPa) = 0.02153787
#
# Stress axis : x y z
#
# Youngs Moduli (GPa) = 51.69389 157.62698 92.92802
#
# Poissons Ratio (x) = 0.43710 0.27653
# Poissons Ratio (y) = 0.14335 0.15865
# Poissons Ratio (z) = 0.15383 0.26910
#
# Static dielectric constant tensor:
#      x y z
#    x 1.892620 0.000000 -0.050670 
#    y 0.000000 1.875310 0.000000 
#    z -0.050670 0.000000 1.835530 
# 
# From -- ./inp_files/282923.got.cif
#   From: 2010.05.17/outbox.cif.g08.bks.cpg/sg12_142_cif.got.tgz:282923.got - 2010.06.03 13:09:07.
