data_PCOD9191942
_publ_section_title
;
Structure prediction by ZEFSAII (Michael W. Deem and Ramdas Pophale) SiO2 
 PCOD9191942
Probable space group: C 2/M
;
_chemical_formula_sum "Si O2"
_cell_formula_units_Z 56
_cell_length_a 18.861226
_cell_length_b 7.771559
_cell_length_c 23.631161
_cell_angle_alpha 90.000000
_cell_angle_beta 52.339415
_cell_angle_gamma 90.000000
_cell_volume 2742.161736
_symmetry_space_group_name_H-M "C 2/M"
_symmetry_group_IT_number 12
_symmetry_cell_setting 'monoclinic'
loop_
_space_group_symop_operation_xyz
x,y,z
-x,y,-z
-x,-y,-z
x,-y,z
1/2+x,1/2+y,z
1/2-x,1/2+y,-z
1/2-x,1/2-y,-z
1/2+x,1/2-y,z
loop_
_atom_site_type_symbol
_atom_site_label
_atom_site_fract_x
_atom_site_fract_y
_atom_site_fract_z
Si Si1 0.351086 0.699850 0.437240
Si Si2 0.043029 0.708015 0.721007
Si Si3 0.984135 0.698748 0.569345
Si Si4 0.181235 0.294083 0.866522
Si Si5 0.834593 0.707136 0.997456
Si Si6 0.473349 0.211127 0.142562
Si Si7 0.623791 0.208009 0.273681
O O1 0.363796 0.500000 0.443487
O O2 0.250000 0.750000 0.500000
O O3 0.378068 0.733213 0.359034
O O4 0.423471 0.797843 0.440480
O O5 0.043579 0.500000 0.720786
O O6 0.047812 0.767037 0.783201
O O7 0.950037 0.764419 0.736612
O O8 0.957169 0.500000 0.572710
O O9 0.910515 0.773578 0.648476
O O10 0.000000 0.778836 0.500000
O O11 0.170128 0.500000 0.875320
O O12 0.176817 0.226786 0.932884
O O13 0.277338 0.259312 0.792115
O O14 0.101290 0.229806 0.865586
O O15 0.839843 0.500000 0.997622
O O16 0.750000 0.750000 0.000000
O O17 0.927861 0.767161 0.924729
O O18 0.472939 0.000000 0.142966
O O19 0.619846 0.000000 0.277073
#
# Coordination Sequence:
#
# PCOD9191942 Si02
#       7
#     8   8   8   8   8   8   8
#     4  11  22  36  55  79 109 142 179 222 266 315
#     4   9  18  35  56  75  99 136 179 217 260 315
#     4   9  19  37  58  79 106 140 178 220 269 323
#     4  10  20  33  52  78 105 134 172 216 257 304
#     4  10  20  35  55  77 103 137 175 212 255 307
#     4   9  18  34  55  77 103 136 173 215 261 308
#     4   9  18  33  53  76 104 137 169 207 260 316
#
# _framework density 20.421845000000001
#
# number of rings (size 3 to 8) (size 9 to 14) (size 15 to 20)
#    0.000    2.429    0.000    3.429    0.000    7.143 
#    0.000    5.000    0.000    1.714    0.000    0.000 
#    0.000    0.000    0.000    0.000    0.000    0.000 
#
# Total GULP energy -156313.722370 kJ/mol
# GULP energy per Si atom -5582.632942 kJ/mol
# Density = 2.037536 g / cm^3
# Si number density = 20.421845 Si / 1000 Ang^3
#
#
#
# Elastic Constant Matrix: (Units=GPa)
#
#
# Indices 1 2 3 4 5 6 
#
# 1 138.7910 -0.3150 121.8041 0.0001 9.2173 0.0002
# 2 -0.3150 32.8491 0.7571 0.0001 5.2970 0.0001
# 3 121.8041 0.7571 208.0159 0.0001 8.6982 -0.0001
# 4 0.0001 0.0001 0.0001 23.2077 -0.0001 -6.0623
# 5 9.2173 5.2970 8.6982 -0.0001 44.4360 0.0001
# 6 0.0002 0.0001 -0.0001 -6.0623 0.0001 15.8050
#
#
#
# Elastic Compliance Matrix: (Units=1/GPa)
#
#
# Indices 1 2 3 4 5 6 
#
# 1 0.014918 0.000579 -0.008676 0.000000 -0.001465 0.000000
# 2 0.000579 0.031062 -0.000295 0.000000 -0.003765 0.000000
# 3 -0.008676 -0.000295 0.009893 0.000000 -0.000102 0.000000
# 4 0.000000 0.000000 0.000000 0.047887 0.000000 0.018368
# 5 -0.001465 -0.003765 -0.000102 0.000000 0.023277 0.000000
# 6 0.000000 0.000000 0.000000 0.018368 0.000000 0.070317
#
#
# Mechanical properties :
#
#
# Convention : Reuss Voigt Hill
#
# Bulk Modulus (GPa) = 25.58240 69.34983 47.46611
# Shear Modulus (GPa) = 22.01032 33.85039 27.93036
#
# Velocity S-wave (km/s) = 3.28652 4.07573 3.70222
# Velocity P-wave (km/s) = 5.19190 7.49541 6.44736
#
# Compressibility (1/GPa) = 0.03908937
#
# Stress axis : x y z
#
# Youngs Moduli (GPa) = 67.03395 32.19396 101.08265
#
# Poissons Ratio (x) = -0.01865 0.87699
# Poissons Ratio (y) = -0.03883 0.02980
# Poissons Ratio (z) = 0.58159 0.00949
#
# Static dielectric constant tensor:
#      x y z
#    x 1.696520 0.000000 0.023300 
#    y 0.000000 1.764060 0.000000 
#    z 0.023300 0.000000 1.719820 
# 
# From -- ./inp_files/342207.got.cif
#   From: 2010.05.17/outbox.cif.g08.bks.cpg/sg12_172_cif.got.tgz:342207.got - 2010.06.03 13:09:07.
