data_PCOD9191505
_publ_section_title
;
Structure prediction by ZEFSAII (Michael W. Deem and Ramdas Pophale) SiO2 
 PCOD9191505
Probable space group: C 2/M
;
_chemical_formula_sum "Si O2"
_cell_formula_units_Z 64
_cell_length_a 9.025133
_cell_length_b 14.147755
_cell_length_c 23.045012
_cell_angle_alpha 90.000000
_cell_angle_beta 65.685359
_cell_angle_gamma 90.000000
_cell_volume 2681.504563
_symmetry_space_group_name_H-M "C 2/M"
_symmetry_group_IT_number 12
_symmetry_cell_setting 'monoclinic'
loop_
_space_group_symop_operation_xyz
x,y,z
-x,y,-z
-x,-y,-z
x,-y,z
1/2+x,1/2+y,z
1/2-x,1/2+y,-z
1/2-x,1/2-y,-z
1/2+x,1/2-y,z
loop_
_atom_site_type_symbol
_atom_site_label
_atom_site_fract_x
_atom_site_fract_y
_atom_site_fract_z
Si Si1 0.305563 0.115450 0.327325
Si Si2 0.061012 0.104726 0.821375
Si Si3 0.657022 0.884512 0.550176
Si Si4 0.285775 0.884823 0.585447
Si Si5 0.780294 0.859042 0.949620
Si Si6 0.593006 0.114640 0.198135
Si Si7 0.520637 0.384228 0.289726
Si Si8 0.540838 0.163822 0.075901
O O1 0.280110 0.147871 0.397502
O O2 0.479050 0.138813 0.270954
O O3 0.169112 0.150009 0.304860
O O4 0.298055 0.000000 0.330251
O O5 0.921470 0.092094 0.890761
O O6 0.985745 0.148962 0.775604
O O7 0.223499 0.150223 0.820785
O O8 0.118128 0.000000 0.793234
O O9 0.467533 0.857205 0.574378
O O10 0.744800 0.855334 0.476402
O O11 0.662147 0.000000 0.549852
O O12 0.146676 0.856770 0.652214
O O13 0.285598 0.000000 0.585537
O O14 0.629808 0.847199 0.928959
O O15 0.884879 0.766358 0.948441
O O16 0.685400 0.896541 0.021643
O O17 0.529483 0.149434 0.146149
O O18 0.591019 0.000000 0.193051
O O19 0.535094 0.500000 0.287614
#
# Coordination Sequence:
#
# PCOD9191505 Si02
#       8
#     8   8   8   8   8   8   8   8
#     4   9  16  25  38  58  86 119 155 196 240 284
#     4  10  20  33  50  72  99 131 165 201 242 289
#     4   8  13  21  33  50  76 113 154 192 232 281
#     4   8  13  21  33  50  76 113 154 192 232 281
#     4  10  21  37  56  76  99 127 159 197 241 289
#     4  10  20  33  50  72  99 131 165 201 242 289
#     4   9  16  25  38  58  86 119 155 196 240 284
#     4  10  21  37  56  76  99 127 159 197 241 289
#
# _framework density 23.867197000000001
#
# number of rings (size 3 to 8) (size 9 to 14) (size 15 to 20)
#    0.000    2.750    0.000    3.000    0.000    7.000 
#    0.000    5.000    0.000    0.000    0.000    0.000 
#    0.000    1.000    0.000    3.750    0.000    8.750 
#
# Total GULP energy -178639.215190 kJ/mol
# GULP energy per Si atom -5582.475475 kJ/mol
# Density = 2.381287 g / cm^3
# Si number density = 23.867197 Si / 1000 Ang^3
#
#
#
# Elastic Constant Matrix: (Units=GPa)
#
#
# Indices 1 2 3 4 5 6 
#
# 1 57.3556 -13.2892 2.4002 0.0000 3.9756 0.0000
# 2 -13.2892 41.8855 -11.7522 0.0000 -0.1007 0.0000
# 3 2.4002 -11.7522 97.4389 0.0000 5.7693 0.0000
# 4 0.0000 0.0000 0.0000 17.3330 0.0000 0.5158
# 5 3.9756 -0.1007 5.7693 0.0000 42.5877 0.0000
# 6 0.0000 0.0000 0.0000 0.5158 0.0000 10.1709
#
#
#
# Elastic Compliance Matrix: (Units=1/GPa)
#
#
# Indices 1 2 3 4 5 6 
#
# 1 0.018962 0.006118 0.000378 0.000000 -0.001807 0.000000
# 2 0.006118 0.026690 0.003124 0.000000 -0.000931 0.000000
# 3 0.000378 0.003124 0.010718 0.000000 -0.001480 0.000000
# 4 0.000000 0.000000 0.000000 0.057781 0.000000 -0.002930
# 5 -0.001807 -0.000931 -0.001480 0.000000 0.023848 0.000000
# 6 0.000000 0.000000 0.000000 -0.002930 0.000000 0.098468
#
#
# Mechanical properties :
#
#
# Convention : Reuss Voigt Hill
#
# Bulk Modulus (GPa) = 13.22614 16.82197 15.02405
# Shear Modulus (GPa) = 20.62446 28.63976 24.63211
#
# Velocity S-wave (km/s) = 2.94280 3.46781 3.21604
# Velocity P-wave (km/s) = 4.13526 4.80601 4.48320
#
# Compressibility (1/GPa) = 0.07560783
#
# Stress axis : x y z
#
# Youngs Moduli (GPa) = 52.73702 37.46755 93.30201
#
# Poissons Ratio (x) = -0.22922 -0.03525
# Poissons Ratio (y) = -0.32263 -0.29143
# Poissons Ratio (z) = -0.01992 -0.11703
#
# Static dielectric constant tensor:
#      x y z
#    x 1.847290 0.000000 0.015680 
#    y 0.000000 3.708390 0.000000 
#    z 0.015680 0.000000 1.892070 
# 
# From -- ./inp_files/301702.got.cif
#   From: 2010.05.17/outbox.cif.g08.bks.cpg/sg12_151_cif.got.tgz:301702.got - 2010.06.03 13:09:07.
