data_PCOD9191396
_publ_section_title
;
Structure prediction by ZEFSAII (Michael W. Deem and Ramdas Pophale) SiO2 
 PCOD9191396
Probable space group: C 2/M
;
_chemical_formula_sum "Si O2"
_cell_formula_units_Z 64
_cell_length_a 24.390722
_cell_length_b 7.573069
_cell_length_c 15.905385
_cell_angle_alpha 90.000000
_cell_angle_beta 86.979482
_cell_angle_gamma 90.000000
_cell_volume 2933.843771
_symmetry_space_group_name_H-M "C 2/M"
_symmetry_group_IT_number 12
_symmetry_cell_setting 'monoclinic'
loop_
_space_group_symop_operation_xyz
x,y,z
-x,y,-z
-x,-y,-z
x,-y,z
1/2+x,1/2+y,z
1/2-x,1/2+y,-z
1/2-x,1/2-y,-z
1/2+x,1/2-y,z
loop_
_atom_site_type_symbol
_atom_site_label
_atom_site_fract_x
_atom_site_fract_y
_atom_site_fract_z
Si Si1 0.403580 0.205694 0.112442
Si Si2 0.718400 0.210371 0.625981
Si Si3 0.065438 0.703014 0.064797
Si Si4 0.667118 0.286479 0.157066
Si Si5 0.289224 0.216772 0.182754
Si Si6 0.506282 0.699300 0.773509
Si Si7 0.907671 0.784502 0.677317
Si Si8 0.333134 0.712325 0.537287
O O1 0.343116 0.280764 0.130350
O O2 0.438544 0.216613 0.194996
O O3 0.397384 0.000000 0.091582
O O4 0.436261 0.278148 0.029123
O O5 0.707495 0.275291 0.720356
O O6 0.671878 0.243727 0.560272
O O7 0.776339 0.279501 0.584378
O O8 0.725033 0.000000 0.632387
O O9 0.045119 0.500000 0.069713
O O10 0.129087 0.709649 0.087403
O O11 0.033594 0.800884 0.141471
O O12 0.665479 0.500000 0.151637
O O13 0.730207 0.230038 0.151723
O O14 0.637666 0.238377 0.247962
O O15 0.290440 0.000000 0.181987
O O16 0.520148 0.500000 0.748206
O O17 0.467112 0.779464 0.704684
O O18 0.884194 0.726179 0.589460
O O19 0.910886 0.000000 0.677405
O O20 0.332730 0.500000 0.543339
#
# Coordination Sequence:
#
# PCOD9191396 Si02
#       8
#     8   8   8   8   8   8   8   8
#     4  10  21  35  50  69  96 131 165 198 243 291
#     4   9  16  27  46  71  97 125 157 190 227 280
#     4  10  20  33  49  72 100 125 154 202 255 290
#     4   9  16  30  51  72  94 127 167 197 230 283
#     4   9  17  32  52  69  95 136 169 191 229 292
#     4  10  20  34  54  74  92 121 166 209 241 281
#     4   8  14  27  48  71  93 120 154 195 238 280
#     4   9  15  26  46  71  98 122 149 190 240 282
#
# _framework density 21.814385000000001
#
# number of rings (size 3 to 8) (size 9 to 14) (size 15 to 20)
#    0.000    2.750    1.250    1.875    0.000    3.000 
#    0.000    5.000    0.000    0.750    0.000    5.250 
#    0.000    0.000    0.000    0.000    0.000    0.000 
#
# Total GULP energy -178498.169695 kJ/mol
# GULP energy per Si atom -5578.067803 kJ/mol
# Density = 2.176473 g / cm^3
# Si number density = 21.814385 Si / 1000 Ang^3
#
#
#
# Elastic Constant Matrix: (Units=GPa)
#
#
# Indices 1 2 3 4 5 6 
#
# 1 74.7809 -6.6406 7.9418 0.0000 26.4103 0.0000
# 2 -6.6406 49.8664 -3.8432 0.0000 -2.6109 0.0000
# 3 7.9418 -3.8432 45.0749 0.0000 29.8937 0.0000
# 4 0.0000 0.0000 0.0000 9.4038 0.0000 5.7666
# 5 26.4103 -2.6109 29.8937 0.0000 36.6501 0.0000
# 6 0.0000 0.0000 0.0000 5.7666 0.0000 15.0000
#
#
#
# Elastic Compliance Matrix: (Units=1/GPa)
#
#
# Indices 1 2 3 4 5 6 
#
# 1 0.021687 0.002577 0.014467 0.000000 -0.027244 0.000000
# 2 0.002577 0.020492 0.003391 0.000000 -0.003162 0.000000
# 3 0.014467 0.003391 0.058117 0.000000 -0.057587 0.000000
# 4 0.000000 0.000000 0.000000 0.139143 0.000000 -0.053492
# 5 -0.027244 -0.003162 -0.057587 0.000000 0.093663 0.000000
# 6 0.000000 0.000000 0.000000 -0.053492 0.000000 0.087231
#
#
# Mechanical properties :
#
#
# Convention : Reuss Voigt Hill
#
# Bulk Modulus (GPa) = 7.08396 18.29312 12.68854
# Shear Modulus (GPa) = 11.72280 23.69504 17.70892
#
# Velocity S-wave (km/s) = 2.32068 3.29935 2.85230
# Velocity P-wave (km/s) = 3.23035 4.78730 4.08371
#
# Compressibility (1/GPa) = 0.14116402
#
# Stress axis : x y z
#
# Youngs Moduli (GPa) = 46.11160 48.79849 17.20663
#
# Poissons Ratio (x) = -0.12573 -0.24893
# Poissons Ratio (y) = -0.11881 -0.05834
# Poissons Ratio (z) = -0.66709 -0.16545
#
# Static dielectric constant tensor:
#      x y z
#    x 1.820740 0.000000 0.026040 
#    y 0.000000 1.874680 0.000000 
#    z 0.026040 0.000000 1.794460 
# 
# From -- ./inp_files/287692.got.cif
#   From: 2010.05.17/outbox.cif.g08.bks.cpg/sg12_144_cif.got.tgz:287692.got - 2010.06.03 13:09:07.
