data_PCOD9191402
_publ_section_title
;
Structure prediction by ZEFSAII (Michael W. Deem and Ramdas Pophale) SiO2 
 PCOD9191402
Probable space group: C 2/M
;
_chemical_formula_sum "Si O2"
_cell_formula_units_Z 56
_cell_length_a 25.526497
_cell_length_b 7.616223
_cell_length_c 19.389197
_cell_angle_alpha 90.000000
_cell_angle_beta 130.082055
_cell_angle_gamma 90.000000
_cell_volume 2884.177675
_symmetry_space_group_name_H-M "C 2/M"
_symmetry_group_IT_number 12
_symmetry_cell_setting 'monoclinic'
loop_
_space_group_symop_operation_xyz
x,y,z
-x,y,-z
-x,-y,-z
x,-y,z
1/2+x,1/2+y,z
1/2-x,1/2+y,-z
1/2-x,1/2-y,-z
1/2+x,1/2-y,z
loop_
_atom_site_type_symbol
_atom_site_label
_atom_site_fract_x
_atom_site_fract_y
_atom_site_fract_z
Si Si1 0.208269 0.700352 0.794579
Si Si2 0.304654 0.791350 0.604731
Si Si3 0.543527 0.205001 0.101373
Si Si4 0.957241 0.715015 0.742130
Si Si5 0.700262 0.293875 0.242193
Si Si6 0.402381 0.214587 0.189576
Si Si7 0.807531 0.708223 0.991928
O O1 0.186627 0.500000 0.762537
O O2 0.236062 0.781520 0.747562
O O3 0.148243 0.778297 0.792387
O O4 0.277717 0.702080 0.899426
O O5 0.250000 0.750000 0.500000
O O6 0.381927 0.727855 0.654889
O O7 0.286909 0.723704 0.665726
O O8 0.308656 0.000000 0.614605
O O9 0.532110 0.276100 0.169394
O O10 0.625695 0.215711 0.160776
O O11 0.523776 0.000000 0.088720
O O12 0.500000 0.279643 0.000000
O O13 0.958187 0.500000 0.744668
O O14 0.018882 0.767939 0.744230
O O15 0.695262 0.500000 0.221652
O O16 0.397303 0.000000 0.186562
O O17 0.374496 0.265919 0.089883
O O18 0.811507 0.500000 0.981858
O O19 0.750000 0.750000 0.000000
#
# Coordination Sequence:
#
# PCOD9191402 Si02
#       7
#     8   8   8   8   8   8   8
#     4   9  18  30  44  66  98 132 166 204 239 282
#     4  10  20  36  58  79  97 119 156 203 253 306
#     4   9  18  30  46  68  97 132 172 211 246 288
#     4   8  15  28  47  72  95 120 159 204 244 288
#     4  10  20  33  49  72 102 131 163 202 249 298
#     4   8  14  26  44  66  93 126 164 202 239 276
#     4   9  16  25  41  62  90 130 172 205 235 272
#
# _framework density 19.41628
#
# number of rings (size 3 to 8) (size 9 to 14) (size 15 to 20)
#    0.000    3.000    0.000    3.000    2.000    1.429 
#    0.000    0.000    0.000   12.857    0.000    6.000 
#    0.000    0.000    0.000    0.000    0.000    0.000 
#
# Total GULP energy -155873.137941 kJ/mol
# GULP energy per Si atom -5566.897784 kJ/mol
# Density = 1.937209 g / cm^3
# Si number density = 19.416280 Si / 1000 Ang^3
#
#
#
# Elastic Constant Matrix: (Units=GPa)
#
#
# Indices 1 2 3 4 5 6 
#
# 1 159.8628 -3.2636 64.3284 0.0000 5.7235 0.0000
# 2 -3.2636 41.6767 -4.1485 0.0000 0.0623 -0.0001
# 3 64.3284 -4.1485 112.7601 0.0000 7.6307 0.0000
# 4 0.0000 0.0000 0.0000 17.7695 0.0000 0.3955
# 5 5.7235 0.0623 7.6307 0.0000 16.2376 0.0000
# 6 0.0000 -0.0001 0.0000 0.3955 0.0000 13.7038
#
#
#
# Elastic Compliance Matrix: (Units=1/GPa)
#
#
# Indices 1 2 3 4 5 6 
#
# 1 0.008128 0.000181 -0.004582 0.000000 -0.000712 0.000000
# 2 0.000181 0.024091 0.000819 0.000000 -0.000541 0.000000
# 3 -0.004582 0.000819 0.011778 0.000000 -0.003923 0.000000
# 4 0.000000 0.000000 0.000000 0.056312 0.000000 -0.001625
# 5 -0.000712 -0.000541 -0.003923 0.000000 0.063682 0.000000
# 6 0.000000 0.000000 0.000000 -0.001625 0.000000 0.073019
#
#
# Mechanical properties :
#
#
# Convention : Reuss Voigt Hill
#
# Bulk Modulus (GPa) = 27.14837 47.57023 37.35930
# Shear Modulus (GPa) = 19.49680 26.70107 23.09894
#
# Velocity S-wave (km/s) = 3.17227 3.71238 3.45290
# Velocity P-wave (km/s) = 5.23740 6.55202 5.93125
#
# Compressibility (1/GPa) = 0.03683463
#
# Stress axis : x y z
#
# Youngs Moduli (GPa) = 123.02400 41.50960 84.90275
#
# Poissons Ratio (x) = -0.00753 0.38905
# Poissons Ratio (y) = -0.02232 -0.06957
# Poissons Ratio (z) = 0.56374 -0.03401
#
# Static dielectric constant tensor:
#      x y z
#    x 1.732660 0.000000 -0.005370 
#    y 0.000000 1.728640 0.000000 
#    z -0.005370 0.000000 1.574780 
# 
# From -- ./inp_files/291954.got.cif
#   From: 2010.05.17/outbox.cif.g08.bks.cpg/sg12_146_cif.got.tgz:291954.got - 2010.06.03 13:09:07.
