data_PCOD9191223
_publ_section_title
;
Structure prediction by ZEFSAII (Michael W. Deem and Ramdas Pophale) SiO2 
 PCOD9191223
Probable space group: C 2/M
;
_chemical_formula_sum "Si O2"
_cell_formula_units_Z 52
_cell_length_a 7.803891
_cell_length_b 26.973178
_cell_length_c 15.704225
_cell_angle_alpha 90.000000
_cell_angle_beta 137.885778
_cell_angle_gamma 90.000000
_cell_volume 2216.819573
_symmetry_space_group_name_H-M "C 2/M"
_symmetry_group_IT_number 12
_symmetry_cell_setting 'monoclinic'
loop_
_space_group_symop_operation_xyz
x,y,z
-x,y,-z
-x,-y,-z
x,-y,z
1/2+x,1/2+y,z
1/2-x,1/2+y,-z
1/2-x,1/2-y,-z
1/2+x,1/2-y,z
loop_
_atom_site_type_symbol
_atom_site_label
_atom_site_fract_x
_atom_site_fract_y
_atom_site_fract_z
Si Si1 0.233539 0.599587 0.948020
Si Si2 0.042610 0.627882 0.710145
Si Si3 0.433149 0.500000 0.077740
Si Si4 0.000000 0.671652 0.000000
Si Si5 0.297748 0.500000 0.642219
Si Si6 0.266690 0.773949 0.600133
Si Si7 0.716790 0.397561 0.438382
Si Si8 0.548334 0.322074 0.253891
O O1 0.071413 0.593371 0.802339
O O2 0.500000 0.615641 0.000000
O O3 0.279995 0.551382 0.023119
O O4 0.094419 0.639113 0.955192
O O5 0.310325 0.638450 0.757111
O O6 0.968629 0.684873 0.700589
O O7 0.814421 0.604986 0.570135
O O8 0.637491 0.500000 0.231866
O O9 0.500000 0.500000 0.000000
O O10 0.266788 0.696300 0.125237
O O11 0.395577 0.449081 0.636940
O O12 0.000000 0.500000 0.500000
O O13 0.250000 0.750000 0.500000
O O14 0.285713 0.726907 0.669447
O O15 0.000000 0.801700 0.500000
O O16 0.545158 0.352990 0.340512
O O17 0.000000 0.389453 0.500000
#
# Coordination Sequence:
#
# PCOD9191223 Si02
#       8
#     8   8   4   4   4   8   8   8
#     4  11  25  45  69  98 147 187 242 293 357 433
#     4  11  23  42  68 103 139 185 235 302 362 426
#     4  10  24  41  67 101 146 194 243 295 363 443
#     4  12  26  43  70  98 140 194 240 289 364 428
#     4  10  20  32  63 103 132 179 240 291 356 424
#     4  12  23  42  69  99 134 180 231 293 362 436
#     4   9  19  34  64  95 137 170 228 291 356 408
#     4  11  22  43  64  97 139 184 234 291 353 430
#
# _framework density 23.457028999999999
#
# number of rings (size 3 to 8) (size 9 to 14) (size 15 to 20)
#    0.000    1.231    4.615    1.385   12.923    0.308 
#    1.385    2.308    0.000    0.000    0.000    4.308 
#    0.000    0.000    0.000    0.000    0.000    0.000 
#
# Total GULP energy -144813.927620 kJ/mol
# GULP energy per Si atom -5569.766447 kJ/mol
# Density = 2.340364 g / cm^3
# Si number density = 23.457029 Si / 1000 Ang^3
#
#
#
# Elastic Constant Matrix: (Units=GPa)
#
#
# Indices 1 2 3 4 5 6 
#
# 1 50.9483 3.9154 24.7738 0.0000 3.2052 0.0000
# 2 3.9154 67.3556 40.7473 0.0000 -2.2253 0.0000
# 3 24.7738 40.7473 169.9730 0.0000 -13.9608 0.0000
# 4 0.0000 0.0000 0.0000 31.1502 0.0000 -3.8841
# 5 3.2052 -2.2253 -13.9608 0.0000 37.3424 0.0000
# 6 0.0000 0.0000 0.0000 -3.8841 0.0000 13.7035
#
#
#
# Elastic Compliance Matrix: (Units=1/GPa)
#
#
# Indices 1 2 3 4 5 6 
#
# 1 0.021507 0.000817 -0.003588 0.000000 -0.003139 0.000000
# 2 0.000817 0.017406 -0.004346 0.000000 -0.000658 0.000000
# 3 -0.003588 -0.004346 0.007688 0.000000 0.002923 0.000000
# 4 0.000000 0.000000 0.000000 0.033279 0.000000 0.009432
# 5 -0.003139 -0.000658 0.002923 0.000000 0.028102 0.000000
# 6 0.000000 0.000000 0.000000 0.009432 0.000000 0.075648
#
#
# Mechanical properties :
#
#
# Convention : Reuss Voigt Hill
#
# Bulk Modulus (GPa) = 30.89541 47.46108 39.17825
# Shear Modulus (GPa) = 23.96305 31.02856 27.49580
#
# Velocity S-wave (km/s) = 3.19967 3.64095 3.42742
# Velocity P-wave (km/s) = 5.18172 6.16056 5.69222
#
# Compressibility (1/GPa) = 0.03236727
#
# Stress axis : x y z
#
# Youngs Moduli (GPa) = 46.49582 57.45002 130.06888
#
# Poissons Ratio (x) = -0.04693 0.46673
# Poissons Ratio (y) = -0.03798 0.56526
# Poissons Ratio (z) = 0.16684 0.24967
#
# Static dielectric constant tensor:
#      x y z
#    x 2.004980 0.000000 -0.017370 
#    y 0.000000 1.877910 0.000000 
#    z -0.017370 0.000000 2.044470 
# 
# From -- ./inp_files/201399.got.cif
#   From: 2010.05.17/outbox.cif.g08.bks.cpg/sg12_101_cif.got.tgz:201399.got - 2010.06.03 13:09:07.
