data_PCOD9191360
_publ_section_title
;
Structure prediction by ZEFSAII (Michael W. Deem and Ramdas Pophale) SiO2 
 PCOD9191360
Probable space group: C 2/M
;
_chemical_formula_sum "Si O2"
_cell_formula_units_Z 56
_cell_length_a 19.482640
_cell_length_b 7.555851
_cell_length_c 20.937252
_cell_angle_alpha 90.000000
_cell_angle_beta 62.391520
_cell_angle_gamma 90.000000
_cell_volume 2731.182754
_symmetry_space_group_name_H-M "C 2/M"
_symmetry_group_IT_number 12
_symmetry_cell_setting 'monoclinic'
loop_
_space_group_symop_operation_xyz
x,y,z
-x,y,-z
-x,-y,-z
x,-y,z
1/2+x,1/2+y,z
1/2-x,1/2+y,-z
1/2-x,1/2-y,-z
1/2+x,1/2-y,z
loop_
_atom_site_type_symbol
_atom_site_label
_atom_site_fract_x
_atom_site_fract_y
_atom_site_fract_z
Si Si1 0.207918 0.210759 0.921153
Si Si2 0.132961 0.287886 0.085997
Si Si3 0.414644 0.295496 0.504049
Si Si4 0.029482 0.290607 0.791635
Si Si5 0.152887 0.782489 0.338388
Si Si6 0.990607 0.214600 0.346893
Si Si7 0.814981 0.706469 0.213377
O O1 0.292752 0.279900 0.906186
O O2 0.182845 0.282872 0.863889
O O3 0.212842 0.000000 0.912705
O O4 0.150622 0.251388 0.004334
O O5 0.132903 0.500000 0.094308
O O6 0.051051 0.217041 0.145675
O O7 0.500000 0.296317 0.500000
O O8 0.390975 0.500000 0.505251
O O9 0.359710 0.221040 0.582989
O O10 0.430665 0.219265 0.427078
O O11 0.028495 0.500000 0.807249
O O12 0.029151 0.269766 0.715744
O O13 0.107564 0.215325 0.789028
O O14 0.233152 0.720039 0.273669
O O15 0.077429 0.728665 0.329935
O O16 0.151244 0.000000 0.339682
O O17 0.989928 0.000000 0.350050
O O18 0.813134 0.500000 0.232869
#
# Coordination Sequence:
#
# PCOD9191360 Si02
#       7
#     8   8   8   8   8   8   8
#     4  10  20  34  54  76  94 116 152 199 239 270
#     4   9  19  36  54  71  94 124 155 187 230 284
#     4   7  11  22  43  71  95 115 150 199 240 270
#     4  10  21  34  47  67  98 132 158 184 228 285
#     4   8  14  27  49  73  93 119 160 201 232 270
#     4   9  16  28  50  74  93 119 158 203 240 268
#     4  10  20  33  49  69  96 130 161 188 226 280
#
# _framework density 20.503937000000001
#
# number of rings (size 3 to 8) (size 9 to 14) (size 15 to 20)
#    0.000    3.000    0.000    3.000    0.000    2.286 
#    0.000    3.571    0.000    4.714    0.000    0.000 
#    0.000    0.000    0.000    0.000    0.000    0.000 
#
# Total GULP energy -156135.674357 kJ/mol
# GULP energy per Si atom -5576.274084 kJ/mol
# Density = 2.045727 g / cm^3
# Si number density = 20.503937 Si / 1000 Ang^3
#
#
#
# Elastic Constant Matrix: (Units=GPa)
#
#
# Indices 1 2 3 4 5 6 
#
# 1 113.3289 -6.8811 92.0554 0.0002 22.4534 0.0004
# 2 -6.8811 38.8089 -21.2802 0.0004 11.0978 0.0007
# 3 92.0554 -21.2802 130.3323 -0.0002 32.1288 -0.0003
# 4 0.0002 0.0004 -0.0002 -5.7143 0.0003 0.5685
# 5 22.4534 11.0978 32.1288 0.0003 -40.0137 0.0001
# 6 0.0004 0.0007 -0.0003 0.5685 0.0001 -2.7312
#
#
#
# Elastic Compliance Matrix: (Units=1/GPa)
#
#
# Indices 1 2 3 4 5 6 
#
# 1 0.021405 -0.004221 -0.015426 0.000001 -0.001546 0.000004
# 2 -0.004221 0.025278 0.004979 0.000003 0.008640 0.000006
# 3 -0.015426 0.004979 0.017676 -0.000001 0.006918 -0.000003
# 4 0.000001 0.000003 -0.000001 -0.178700 -0.000001 -0.037194
# 5 -0.001546 0.008640 0.006918 -0.000001 -0.017908 0.000001
# 6 0.000004 0.000006 -0.000003 -0.037194 0.000001 -0.373883
#
#
# Mechanical properties :
#
#
# Convention : Reuss Voigt Hill
#
# Bulk Modulus (GPa) = 28.55378 45.58425 37.06901
# Shear Modulus (GPa) = -10.74990 4.87990 -2.93500
#
# Velocity S-wave (km/s) = -2.29221 1.54439 -1.19772
# Velocity P-wave (km/s) = 2.63640 5.04583 4.02561
#
# Compressibility (1/GPa) = 0.03502164
#
# Stress axis : x y z
#
# Youngs Moduli (GPa) = 46.71907 39.55966 56.57321
#
# Poissons Ratio (x) = 0.16700 0.87272
# Poissons Ratio (y) = 0.19722 -0.28168
# Poissons Ratio (z) = 0.72071 -0.19697
#
# Static dielectric constant tensor:
#      x y z
#    x 1.710870 0.000000 -0.022690 
#    y 0.000000 1.762510 0.000000 
#    z -0.022690 0.000000 1.730930 
# 
# From -- ./inp_files/313706.got.cif
#   From: 2010.05.17/outbox.cif.g08.bks.cpg/sg12_157_cif.got.tgz:313706.got - 2010.06.03 13:09:07.
