data_PCOD9191427
_publ_section_title
;
Structure prediction by ZEFSAII (Michael W. Deem and Ramdas Pophale) SiO2 
 PCOD9191427
Probable space group: C 2/M
;
_chemical_formula_sum "Si O2"
_cell_formula_units_Z 56
_cell_length_a 8.932731
_cell_length_b 15.202665
_cell_length_c 29.399025
_cell_angle_alpha 90.000000
_cell_angle_beta 40.573091
_cell_angle_gamma 90.000000
_cell_volume 2596.744153
_symmetry_space_group_name_H-M "C 2/M"
_symmetry_group_IT_number 12
_symmetry_cell_setting 'monoclinic'
loop_
_space_group_symop_operation_xyz
x,y,z
-x,y,-z
-x,-y,-z
x,-y,z
1/2+x,1/2+y,z
1/2-x,1/2+y,-z
1/2-x,1/2-y,-z
1/2+x,1/2-y,z
loop_
_atom_site_type_symbol
_atom_site_label
_atom_site_fract_x
_atom_site_fract_y
_atom_site_fract_z
Si Si1 0.795086 0.891953 0.651748
Si Si2 0.060849 0.104136 0.209309
Si Si3 0.899698 0.846725 0.069002
Si Si4 0.107255 0.395839 0.790732
Si Si5 0.182306 0.896928 0.499998
Si Si6 0.946215 0.391951 0.651755
Si Si7 0.244566 0.346888 0.930993
O O1 0.720887 0.860296 0.718444
O O2 0.600263 0.868101 0.659907
O O3 0.042557 0.861094 0.575423
O O4 0.802197 0.000000 0.650441
O O5 0.264834 0.141008 0.194065
O O6 0.119264 0.114343 0.143040
O O7 0.813041 0.139727 0.281556
O O8 0.048389 0.000000 0.220090
O O9 0.665615 0.885478 0.143017
O O10 0.822857 0.749884 0.070943
O O11 0.096200 0.844137 0.061552
O O12 0.000000 0.890754 0.000000
O O13 0.148256 0.500000 0.780056
O O14 0.419662 0.861098 0.424570
O O15 0.000000 0.893912 0.500000
O O16 0.224590 0.000000 0.499998
O O17 0.945644 0.500000 0.650452
O O18 0.000000 0.390967 0.000000
#
# Coordination Sequence:
#
# PCOD9191427 Si02
#       7
#     8   8   8   8   8   8   8
#     4   8  13  23  40  63  92 127 165 203 244 288
#     4  10  20  33  49  73 105 136 167 205 247 290
#     4  11  22  38  58  77  99 127 162 202 245 295
#     4  10  20  33  49  73 105 136 167 205 247 290
#     4   7  10  18  35  59  88 123 162 201 240 285
#     4   8  13  23  40  63  92 127 165 203 244 288
#     4  11  22  38  58  77  99 127 162 202 245 295
#
# _framework density 21.565467000000002
#
# number of rings (size 3 to 8) (size 9 to 14) (size 15 to 20)
#    0.000    2.714    0.000    6.000    0.000    2.286 
#    0.000    0.714    0.000    4.286    0.000    1.000 
#    0.000    0.000    0.000    0.000    0.000    0.000 
#
# Total GULP energy -156133.866205 kJ/mol
# GULP energy per Si atom -5576.209507 kJ/mol
# Density = 2.151638 g / cm^3
# Si number density = 21.565467 Si / 1000 Ang^3
#
#
#
# Elastic Constant Matrix: (Units=GPa)
#
#
# Indices 1 2 3 4 5 6 
#
# 1 150.5424 5.4113 88.8071 -0.0024 1.4659 0.0003
# 2 5.4113 29.8476 8.8841 -0.0007 -0.1983 0.0000
# 3 88.8071 8.8841 214.9169 -0.0054 0.4713 -0.0020
# 4 -0.0024 -0.0007 -0.0054 19.7146 -0.0026 0.1646
# 5 1.4659 -0.1983 0.4713 -0.0026 64.3814 -0.0031
# 6 0.0003 0.0000 -0.0020 0.1646 -0.0031 11.7245
#
#
#
# Elastic Compliance Matrix: (Units=1/GPa)
#
#
# Indices 1 2 3 4 5 6 
#
# 1 0.008794 -0.000520 -0.003612 0.000000 -0.000175 -0.000001
# 2 -0.000520 0.033953 -0.001189 0.000001 0.000125 0.000000
# 3 -0.003612 -0.001189 0.006194 0.000001 0.000033 0.000001
# 4 0.000000 0.000001 0.000001 0.050730 0.000002 -0.000712
# 5 -0.000175 0.000125 0.000033 0.000002 0.015537 0.000004
# 6 -0.000001 0.000000 0.000001 -0.000712 0.000004 0.085301
#
#
# Mechanical properties :
#
#
# Convention : Reuss Voigt Hill
#
# Bulk Modulus (GPa) = 26.11043 66.83465 46.47254
# Shear Modulus (GPa) = 22.32975 38.64440 30.48707
#
# Velocity S-wave (km/s) = 3.22132 4.23774 3.76400
# Velocity P-wave (km/s) = 5.09604 7.41643 6.36290
#
# Compressibility (1/GPa) = 0.03829888
#
# Stress axis : x y z
#
# Youngs Moduli (GPa) = 113.71757 29.45285 161.43394
#
# Poissons Ratio (x) = 0.01533 0.58307
# Poissons Ratio (y) = 0.05918 0.19190
# Poissons Ratio (z) = 0.41073 0.03501
#
# Static dielectric constant tensor:
#      x y z
#    x 1.759700 0.000000 0.001110 
#    y 0.000000 1.865510 0.000000 
#    z 0.001110 0.000000 1.846210 
# 
# From -- ./inp_files/258691.got.cif
#   From: 2010.05.17/outbox.cif.g08.bks.cpg/sg12_130_cif.got.tgz:258691.got - 2010.06.03 13:09:07.
