data_PCOD9191986
_publ_section_title
;
Structure prediction by ZEFSAII (Michael W. Deem and Ramdas Pophale) SiO2 
 PCOD9191986
Probable space group: C 2/M
;
_chemical_formula_sum "Si O2"
_cell_formula_units_Z 64
_cell_length_a 28.297111
_cell_length_b 9.386269
_cell_length_c 19.491891
_cell_angle_alpha 90.000000
_cell_angle_beta 137.030710
_cell_angle_gamma 90.000000
_cell_volume 3528.764222
_symmetry_space_group_name_H-M "C 2/M"
_symmetry_group_IT_number 12
_symmetry_cell_setting 'monoclinic'
loop_
_space_group_symop_operation_xyz
x,y,z
-x,y,-z
-x,-y,-z
x,-y,z
1/2+x,1/2+y,z
1/2-x,1/2+y,-z
1/2-x,1/2-y,-z
1/2+x,1/2-y,z
loop_
_atom_site_type_symbol
_atom_site_label
_atom_site_fract_x
_atom_site_fract_y
_atom_site_fract_z
Si Si1 0.739426 0.334868 0.594520
Si Si2 0.858341 0.665263 0.604069
Si Si3 0.003597 0.830545 0.206850
Si Si4 0.558392 0.671072 0.005708
Si Si5 0.441015 0.162185 0.496893
Si Si6 0.543243 0.331601 0.696921
Si Si7 0.844227 0.830183 0.295699
Si Si8 0.300804 0.170190 0.808490
O O1 0.716147 0.500000 0.574545
O O2 0.800895 0.327798 0.603607
O O3 0.677514 0.238386 0.499863
O O4 0.771793 0.293331 0.701879
O O5 0.874044 0.500000 0.607891
O O6 0.925864 0.748275 0.701328
O O7 0.952949 0.807742 0.217958
O O8 0.018665 0.000000 0.218993
O O9 0.969816 0.786959 0.099215
O O10 0.568203 0.500000 0.016648
O O11 0.629907 0.747048 0.099983
O O12 0.500000 0.705979 0.000000
O O13 0.500000 0.158667 0.500000
O O14 0.478770 0.242985 0.598733
O O15 0.379132 0.249368 0.396547
O O16 0.422128 0.000000 0.493345
O O17 0.529875 0.500000 0.671223
O O18 0.611365 0.294454 0.724969
O O19 0.762924 0.797372 0.207901
O O20 0.850982 0.000000 0.314461
O O21 0.313583 0.000000 0.822802
#
# Coordination Sequence:
#
# PCOD9191986 Si02
#       8
#     8   8   8   8   8   8   8   8
#     4   9  19  35  52  75 109 142 171 210 267 330
#     4  10  20  33  52  79 108 138 173 217 268 321
#     4  10  21  36  55  77 104 141 181 220 269 322
#     4  10  22  40  60  81 105 136 178 227 276 326
#     4   9  17  29  47  74 108 142 176 218 264 306
#     4   9  18  33  52  73 104 145 183 217 256 314
#     4   9  18  33  52  76 106 142 183 217 255 314
#     4  10  21  36  57  81 105 138 180 222 266 317
#
# _framework density 18.136662000000001
#
# number of rings (size 3 to 8) (size 9 to 14) (size 15 to 20)
#    0.000    2.500    0.000    1.500    1.750    4.250 
#    0.000    0.625    0.000    0.000    0.000    0.000 
#    0.000    0.000    0.000    0.000    0.000    0.000 
#
# Total GULP energy -178613.092567 kJ/mol
# GULP energy per Si atom -5581.659143 kJ/mol
# Density = 1.809538 g / cm^3
# Si number density = 18.136662 Si / 1000 Ang^3
#
#
#
# Elastic Constant Matrix: (Units=GPa)
#
#
# Indices 1 2 3 4 5 6 
#
# 1 104.1625 51.0243 83.6599 0.0000 2.6402 0.0000
# 2 51.0243 54.0864 72.2846 0.0000 5.6711 0.0000
# 3 83.6599 72.2846 162.2567 0.0000 2.8410 0.0000
# 4 0.0000 0.0000 0.0000 27.9068 0.0000 6.5525
# 5 2.6402 5.6711 2.8410 0.0000 34.8479 0.0000
# 6 0.0000 0.0000 0.0000 6.5525 0.0000 16.4653
#
#
#
# Elastic Compliance Matrix: (Units=1/GPa)
#
#
# Indices 1 2 3 4 5 6 
#
# 1 0.019118 -0.012196 -0.004439 0.000000 0.000898 0.000000
# 2 -0.012196 0.054672 -0.017953 0.000000 -0.006509 0.000000
# 3 -0.004439 -0.017953 0.016417 0.000000 0.001920 0.000000
# 4 0.000000 0.000000 0.000000 0.039527 0.000000 -0.015730
# 5 0.000898 -0.006509 0.001920 0.000000 0.029531 0.000000
# 6 0.000000 0.000000 0.000000 -0.015730 0.000000 0.066994
#
#
# Mechanical properties :
#
#
# Convention : Reuss Voigt Hill
#
# Bulk Modulus (GPa) = 47.55722 81.60479 64.58101
# Shear Modulus (GPa) = 16.53193 23.41312 19.97253
#
# Velocity S-wave (km/s) = 3.02241 3.59685 3.32207
# Velocity P-wave (km/s) = 6.20149 7.89568 7.09931
#
# Compressibility (1/GPa) = 0.02102730
#
# Stress axis : x y z
#
# Youngs Moduli (GPa) = 52.30783 18.29105 60.91408
#
# Poissons Ratio (x) = 0.22309 0.27042
# Poissons Ratio (y) = 0.63797 1.09362
# Poissons Ratio (z) = 0.23221 0.32839
#
# Static dielectric constant tensor:
#      x y z
#    x 1.668120 0.000000 -0.021630 
#    y 0.000000 1.611260 0.000000 
#    z -0.021630 0.000000 1.570840 
# 
# From -- ./inp_files/295831.got.cif
#   From: 2010.05.17/outbox.cif.g08.bks.cpg/sg12_148_cif.got.tgz:295831.got - 2010.06.03 13:09:07.
