data_PCOD9191101
_publ_section_title
;
Structure prediction by ZEFSAII (Michael W. Deem and Ramdas Pophale) SiO2 
 PCOD9191101
Probable space group: C 2/M
;
_chemical_formula_sum "Si O2"
_cell_formula_units_Z 60
_cell_length_a 11.642570
_cell_length_b 31.951577
_cell_length_c 18.166440
_cell_angle_alpha 90.000000
_cell_angle_beta 30.208894
_cell_angle_gamma 90.000000
_cell_volume 3400.259024
_symmetry_space_group_name_H-M "C 2/M"
_symmetry_group_IT_number 12
_symmetry_cell_setting 'monoclinic'
loop_
_space_group_symop_operation_xyz
x,y,z
-x,y,-z
-x,-y,-z
x,-y,z
1/2+x,1/2+y,z
1/2-x,1/2+y,-z
1/2-x,1/2-y,-z
1/2+x,1/2-y,z
loop_
_atom_site_type_symbol
_atom_site_label
_atom_site_fract_x
_atom_site_fract_y
_atom_site_fract_z
Si Si1 0.917133 0.952600 0.461710
Si Si2 0.685353 0.197385 0.960687
Si Si3 0.872974 0.326941 0.649061
Si Si4 0.240125 0.048462 0.143104
Si Si5 0.800586 0.136806 0.483174
Si Si6 0.994921 0.877737 0.791978
Si Si7 0.500000 0.690911 0.500000
Si Si8 0.909559 0.250591 0.231432
O O1 0.767719 0.911350 0.527361
O O2 0.000000 0.950080 0.500000
O O3 0.125194 0.948817 0.287690
O O4 0.820854 0.000000 0.504123
O O5 0.783117 0.152203 0.927008
O O6 0.911347 0.225112 0.817034
O O7 0.500000 0.194655 0.000000
O O8 0.560756 0.219587 0.097137
O O9 0.699938 0.365650 0.732515
O O10 0.721946 0.285322 0.742889
O O11 0.000000 0.320523 0.500000
O O12 0.063595 0.338504 0.602734
O O13 0.088522 0.075238 0.170984
O O14 0.244883 0.000000 0.119121
O O15 0.500000 0.064372 0.000000
O O16 0.918293 0.134793 0.337979
O O17 0.962079 0.161174 0.450622
O O18 0.281345 0.721058 0.625703
#
# Coordination Sequence:
#
# PCOD9191101 Si02
#       8
#     8   8   8   8   8   8   4   8
#     4   9  17  33  52  76 108 134 162 208 263 313
#     4  10  20  35  50  69  97 136 171 207 256 306
#     4   9  18  35  51  71 101 137 171 209 263 301
#     4   9  17  29  51  81 105 131 168 212 259 309
#     4  10  20  32  53  78 102 131 170 216 254 311
#     4   9  18  34  52  71 101 138 168 207 259 309
#     4  12  22  32  49  80 100 126 179 220 254 302
#     4  10  22  34  49  73  98 133 175 213 255 304
#
# _framework density 17.645714000000002
#
# number of rings (size 3 to 8) (size 9 to 14) (size 15 to 20)
#    0.000    2.400    1.333    1.200    1.867    1.600 
#    0.000    0.667    0.000    4.000    0.000    0.000 
#    0.000    4.267    0.000    0.000    0.000    0.000 
#
# Total GULP energy -167111.620797 kJ/mol
# GULP energy per Si atom -5570.387360 kJ/mol
# Density = 1.760555 g / cm^3
# Si number density = 17.645714 Si / 1000 Ang^3
#
#
#
# Elastic Constant Matrix: (Units=GPa)
#
#
# Indices 1 2 3 4 5 6 
#
# 1 39.2928 11.7254 5.9194 0.0000 -15.9150 0.0000
# 2 11.7254 80.6284 25.4485 0.0000 -6.4236 0.0000
# 3 5.9194 25.4485 50.5859 0.0000 -15.0972 0.0000
# 4 0.0000 0.0000 0.0000 23.2423 0.0000 -0.8378
# 5 -15.9150 -6.4236 -15.0972 0.0000 19.2712 0.0000
# 6 0.0000 0.0000 0.0000 -0.8378 0.0000 20.6616
#
#
#
# Elastic Compliance Matrix: (Units=1/GPa)
#
#
# Indices 1 2 3 4 5 6 
#
# 1 0.042364 -0.006173 0.010410 0.000000 0.041083 0.000000
# 2 -0.006173 0.015663 -0.009294 0.000000 -0.007158 0.000000
# 3 0.010410 -0.009294 0.032455 0.000000 0.030924 0.000000
# 4 0.000000 0.000000 0.000000 0.043088 0.000000 0.001747
# 5 0.041083 -0.007158 0.030924 0.000000 0.107660 0.000000
# 6 0.000000 0.000000 0.000000 0.001747 0.000000 0.048470
#
#
# Mechanical properties :
#
#
# Convention : Reuss Voigt Hill
#
# Bulk Modulus (GPa) = 12.44281 28.52150 20.48216
# Shear Modulus (GPa) = 15.30904 21.12928 18.21916
#
# Velocity S-wave (km/s) = 2.94866 3.46413 3.21674
# Velocity P-wave (km/s) = 4.31968 5.67439 5.04273
#
# Compressibility (1/GPa) = 0.08036770
#
# Stress axis : x y z
#
# Youngs Moduli (GPa) = 23.60482 63.84300 30.81185
#
# Poissons Ratio (x) = 0.39412 -0.32074
# Poissons Ratio (y) = 0.14572 0.28636
# Poissons Ratio (z) = -0.24572 0.59334
#
# Static dielectric constant tensor:
#      x y z
#    x 1.594750 0.000000 -0.009530 
#    y 0.000000 1.628320 0.000000 
#    z -0.009530 0.000000 1.623380 
# 
# From -- ./inp_files/307593.got.cif
#   From: 2010.05.17/outbox.cif.g08.bks.cpg/sg12_154_cif.got.tgz:307593.got - 2010.06.03 13:09:07.
