data_PCOD9191773
_publ_section_title
;
Structure prediction by ZEFSAII (Michael W. Deem and Ramdas Pophale) SiO2 
 PCOD9191773
Probable space group: C 2/M
;
_chemical_formula_sum "Si O2"
_cell_formula_units_Z 48
_cell_length_a 27.003734
_cell_length_b 20.762685
_cell_length_c 12.078423
_cell_angle_alpha 90.000000
_cell_angle_beta 158.238845
_cell_angle_gamma 90.000000
_cell_volume 2510.643105
_symmetry_space_group_name_H-M "C 2/M"
_symmetry_group_IT_number 12
_symmetry_cell_setting 'monoclinic'
loop_
_space_group_symop_operation_xyz
x,y,z
-x,y,-z
-x,-y,-z
x,-y,z
1/2+x,1/2+y,z
1/2-x,1/2+y,-z
1/2-x,1/2-y,-z
1/2+x,1/2-y,z
loop_
_atom_site_type_symbol
_atom_site_label
_atom_site_fract_x
_atom_site_fract_y
_atom_site_fract_z
Si Si1 0.813023 0.070928 0.063671
Si Si2 0.070380 0.886145 0.480379
Si Si3 0.466852 0.881250 0.561305
Si Si4 0.204156 0.426608 0.214881
Si Si5 0.191229 0.286819 0.272842
Si Si6 0.570916 0.248593 0.386855
O O1 0.840090 0.118441 0.222293
O O2 0.936703 0.077467 0.238010
O O3 0.814383 0.000000 0.118064
O O4 0.672908 0.082235 0.715325
O O5 0.158933 0.919413 0.570303
O O6 0.031357 0.815500 0.360221
O O7 0.500000 0.883132 0.500000
O O8 0.440386 0.809290 0.549986
O O9 0.584300 0.912072 0.878812
O O10 0.191902 0.500000 0.232247
O O11 0.202077 0.365084 0.293947
O O12 0.250000 0.250000 0.500000
O O13 0.282742 0.261267 0.360564
O O14 0.037795 0.268409 0.932721
#
# Coordination Sequence:
#
# PCOD9191773 Si02
#       6
#     8   8   8   8   8   8
#     4  11  21  32  49  74 111 160 189 214 262 317
#     4  10  20  33  51  76 112 150 185 229 263 324
#     4  11  22  33  53  81 119 155 187 226 267 330
#     4  10  20  37  58  85 113 145 189 232 279 339
#     4  10  21  40  64  83 107 143 186 244 300 339
#     4  10  22  37  56  86 108 144 188 232 285 332
#
# _framework density 19.118607000000001
#
# number of rings (size 3 to 8) (size 9 to 14) (size 15 to 20)
#    0.000    1.667    1.667    4.000    2.333    1.333 
#    0.000    0.000    0.000   21.000    0.000    0.000 
#    0.000    0.000    0.000    0.000    0.000    0.000 
#
# Total GULP energy -133919.038001 kJ/mol
# GULP energy per Si atom -5579.959917 kJ/mol
# Density = 1.907509 g / cm^3
# Si number density = 19.118607 Si / 1000 Ang^3
#
#
#
# Elastic Constant Matrix: (Units=GPa)
#
#
# Indices 1 2 3 4 5 6 
#
# 1 23.6896 23.7833 14.8943 0.0000 -8.4343 0.0000
# 2 23.7833 137.2965 26.8691 0.0000 -9.4640 0.0000
# 3 14.8943 26.8691 71.1026 0.0000 9.1957 0.0000
# 4 0.0000 0.0000 0.0000 -3.0470 0.0000 -18.3805
# 5 -8.4343 -9.4640 9.1957 0.0000 23.9724 0.0000
# 6 0.0000 0.0000 0.0000 -18.3805 0.0000 3.5994
#
#
#
# Elastic Compliance Matrix: (Units=1/GPa)
#
#
# Indices 1 2 3 4 5 6 
#
# 1 0.068487 -0.007015 -0.015208 0.000000 0.027160 0.000000
# 2 -0.007015 0.009066 -0.002210 0.000000 0.001959 0.000000
# 3 -0.015208 -0.002210 0.019876 0.000000 -0.013847 0.000000
# 4 0.000000 0.000000 0.000000 -0.010319 0.000000 -0.052695
# 5 0.027160 0.001959 -0.013847 0.000000 0.057356 0.000000
# 6 0.000000 0.000000 0.000000 -0.052695 0.000000 0.008736
#
#
# Mechanical properties :
#
#
# Convention : Reuss Voigt Hill
#
# Bulk Modulus (GPa) = 20.59182 40.35359 30.47270
# Shear Modulus (GPa) = 22.90889 16.00774 19.45832
#
# Velocity S-wave (km/s) = 3.46533 2.89673 3.19371
# Velocity P-wave (km/s) = 5.17738 5.68690 5.43811
#
# Compressibility (1/GPa) = 0.04856297
#
# Stress axis : x y z
#
# Youngs Moduli (GPa) = 14.60121 110.29945 50.31228
#
# Poissons Ratio (x) = 0.77379 0.76515
# Poissons Ratio (y) = 0.10243 0.11118
# Poissons Ratio (z) = 0.22206 0.24374
#
# Static dielectric constant tensor:
#      x y z
#    x 1.670400 0.000000 0.001430 
#    y 0.000000 1.682480 0.000000 
#    z 0.001430 0.000000 1.673910 
# 
# From -- ./inp_files/184780.got.cif
#   From: 2010.05.17/outbox.cif.g08.bks.cpg/sg12_93_cif.got.tgz:184780.got - 2010.06.03 13:09:07.
