data_PCOD9191094
_publ_section_title
;
Structure prediction by ZEFSAII (Michael W. Deem and Ramdas Pophale) SiO2 
 PCOD9191094
Probable space group: C 2/M
;
_chemical_formula_sum "Si O2"
_cell_formula_units_Z 56
_cell_length_a 27.638562
_cell_length_b 8.736383
_cell_length_c 13.749086
_cell_angle_alpha 90.000000
_cell_angle_beta 63.647263
_cell_angle_gamma 90.000000
_cell_volume 2974.862278
_symmetry_space_group_name_H-M "C 2/M"
_symmetry_group_IT_number 12
_symmetry_cell_setting 'monoclinic'
loop_
_space_group_symop_operation_xyz
x,y,z
-x,y,-z
-x,-y,-z
x,-y,z
1/2+x,1/2+y,z
1/2-x,1/2+y,-z
1/2-x,1/2-y,-z
1/2+x,1/2-y,z
loop_
_atom_site_type_symbol
_atom_site_label
_atom_site_fract_x
_atom_site_fract_y
_atom_site_fract_z
Si Si1 0.971783 0.815578 0.239955
Si Si2 0.411456 0.821589 0.111869
Si Si3 0.869162 0.816401 0.454257
Si Si4 0.199662 0.682375 0.323388
Si Si5 0.089775 0.815656 0.101480
Si Si6 0.696221 0.179742 0.665095
Si Si7 0.700402 0.315401 0.106395
O O1 0.951826 0.753144 0.153747
O O2 0.927587 0.768388 0.359633
O O3 0.033437 0.767268 0.201604
O O4 0.969931 0.000000 0.237392
O O5 0.352159 0.809236 0.213176
O O6 0.424708 0.000000 0.089216
O O7 0.411514 0.742450 0.007736
O O8 0.852169 0.740960 0.570422
O O9 0.826270 0.761288 0.411136
O O10 0.867422 0.000000 0.463966
O O11 0.200311 0.500000 0.317219
O O12 0.251325 0.741534 0.337782
O O13 0.202479 0.754329 0.214103
O O14 0.143951 0.765399 0.107471
O O15 0.090615 0.000000 0.099158
O O16 0.706347 0.000000 0.636349
O O17 0.702992 0.500000 0.104333
O O18 0.750000 0.250000 0.000000
#
# Coordination Sequence:
#
# PCOD9191094 Si02
#       7
#     8   8   8   8   8   8   8
#     4   9  19  36  57  81 110 145 184 224 269 324
#     4  10  20  32  52  84 117 147 179 221 273 326
#     4  10  20  36  58  83 112 145 183 227 275 327
#     4  12  24  38  57  81 111 147 187 228 275 328
#     4  10  21  37  57  80 108 145 186 227 271 323
#     4  10  20  35  55  82 116 149 184 226 275 330
#     4  11  24  42  62  84 111 143 183 228 274 324
#
# _framework density 18.824401000000002
#
# number of rings (size 3 to 8) (size 9 to 14) (size 15 to 20)
#    0.000    1.714    0.000    4.714    0.000    8.000 
#    0.000    0.714    0.000    4.286    0.000    0.000 
#    0.000    0.000    0.000    0.000    0.000    0.000 
#
# Total GULP energy -156484.910402 kJ/mol
# GULP energy per Si atom -5588.746800 kJ/mol
# Density = 1.878156 g / cm^3
# Si number density = 18.824401 Si / 1000 Ang^3
#
#
#
# Elastic Constant Matrix: (Units=GPa)
#
#
# Indices 1 2 3 4 5 6 
#
# 1 128.8092 40.6328 73.2845 0.0000 -24.2533 0.0000
# 2 40.6328 62.4400 38.2254 0.0000 -8.6735 0.0000
# 3 73.2845 38.2254 140.5094 0.0000 -8.4359 0.0000
# 4 0.0000 0.0000 0.0000 33.4031 0.0000 -0.8226
# 5 -24.2533 -8.6735 -8.4359 0.0000 9.4561 0.0000
# 6 0.0000 0.0000 0.0000 -0.8226 0.0000 21.6180
#
#
#
# Elastic Compliance Matrix: (Units=1/GPa)
#
#
# Indices 1 2 3 4 5 6 
#
# 1 0.021910 -0.003020 -0.007817 0.000000 0.046451 0.000000
# 2 -0.003020 0.021471 -0.003750 0.000000 0.008604 0.000000
# 3 -0.007817 -0.003750 0.011415 0.000000 -0.013305 0.000000
# 4 0.000000 0.000000 0.000000 0.029965 0.000000 0.001140
# 5 0.046451 0.008604 -0.013305 0.000000 0.220916 0.000000
# 6 0.000000 0.000000 0.000000 0.001140 0.000000 0.046301
#
#
# Mechanical properties :
#
#
# Convention : Reuss Voigt Hill
#
# Bulk Modulus (GPa) = 39.02666 70.67157 54.84911
# Shear Modulus (GPa) = 12.83065 24.86984 18.85025
#
# Velocity S-wave (km/s) = 2.61357 3.63870 3.16788
# Velocity P-wave (km/s) = 5.46669 7.43489 6.52542
#
# Compressibility (1/GPa) = 0.02562351
#
# Stress axis : x y z
#
# Youngs Moduli (GPa) = 45.64212 46.57415 87.60192
#
# Poissons Ratio (x) = 0.14064 0.68478
# Poissons Ratio (y) = 0.13782 0.32848
# Poissons Ratio (z) = 0.35678 0.17464
#
# Static dielectric constant tensor:
#      x y z
#    x 1.653140 0.000000 -0.041100 
#    y 0.000000 1.631670 0.000000 
#    z -0.041100 0.000000 1.640010 
# 
# From -- ./inp_files/180773.got.cif
#   From: 2010.05.17/outbox.cif.g08.bks.cpg/sg12_91_cif.got.tgz:180773.got - 2010.06.03 13:09:07.
