data_PCOD9191187
_publ_section_title
;
Structure prediction by ZEFSAII (Michael W. Deem and Ramdas Pophale) SiO2 
 PCOD9191187
Probable space group: C 2/M
;
_chemical_formula_sum "Si O2"
_cell_formula_units_Z 40
_cell_length_a 9.043393
_cell_length_b 17.974636
_cell_length_c 21.789862
_cell_angle_alpha 90.000000
_cell_angle_beta 148.676234
_cell_angle_gamma 90.000000
_cell_volume 1841.381021
_symmetry_space_group_name_H-M "C 2/M"
_symmetry_group_IT_number 12
_symmetry_cell_setting 'monoclinic'
loop_
_space_group_symop_operation_xyz
x,y,z
-x,y,-z
-x,-y,-z
x,-y,z
1/2+x,1/2+y,z
1/2-x,1/2+y,-z
1/2-x,1/2-y,-z
1/2+x,1/2-y,z
loop_
_atom_site_type_symbol
_atom_site_label
_atom_site_fract_x
_atom_site_fract_y
_atom_site_fract_z
Si Si1 0.291012 0.641087 0.601533
Si Si2 0.187193 0.616658 0.147857
Si Si3 0.588459 0.419497 0.907031
Si Si4 0.786516 0.792994 0.866232
Si Si5 0.134391 0.790620 0.612901
O O1 0.565644 0.595875 0.718416
O O2 0.202113 0.704219 0.620543
O O3 0.406567 0.686857 0.583678
O O4 0.000000 0.595378 0.500000
O O5 0.296303 0.588535 0.120830
O O6 0.174024 0.706873 0.139229
O O7 0.874626 0.586702 0.049109
O O8 0.452035 0.500000 0.868038
O O9 0.399458 0.348833 0.854725
O O10 0.449755 0.812340 0.750514
O O11 0.000000 0.802734 0.000000
O O12 0.000000 0.819572 0.500000
#
# Coordination Sequence:
#
# PCOD9191187 Si02
#       5
#     8   8   8   8   8
#     4  10  20  32  56  88 124 159 202 259 309 360
#     4  10  21  35  63  88 124 155 213 254 307 361
#     4  11  23  39  60  90 128 167 199 254 321 373
#     4  11  22  35  63  92 123 156 215 258 306 355
#     4  10  21  33  54  87 132 160 199 254 320 364
#
# _framework density 21.722826000000001
#
# number of rings (size 3 to 8) (size 9 to 14) (size 15 to 20)
#    0.000    1.600    2.000    5.400   14.000    0.400 
#    0.000    0.000    0.000    3.000    0.000    0.000 
#    0.000    0.000    0.000    0.000    0.000    0.000 
#
# Total GULP energy -111404.529360 kJ/mol
# GULP energy per Si atom -5570.226468 kJ/mol
# Density = 2.167338 g / cm^3
# Si number density = 21.722826 Si / 1000 Ang^3
#
#
#
# Elastic Constant Matrix: (Units=GPa)
#
#
# Indices 1 2 3 4 5 6 
#
# 1 45.5652 19.3159 22.7063 -0.0057 13.8061 0.0121
# 2 19.3159 90.4562 2.8459 0.0043 3.7380 -0.0080
# 3 22.7063 2.8459 117.2089 0.0367 4.1517 -0.0660
# 4 -0.0057 0.0043 0.0367 46.4837 0.0078 -84.1942
# 5 13.8061 3.7380 4.1517 0.0078 32.4342 -0.0122
# 6 0.0121 -0.0080 -0.0660 -84.1942 -0.0122 160.6710
#
#
#
# Elastic Compliance Matrix: (Units=1/GPa)
#
#
# Indices 1 2 3 4 5 6 
#
# 1 0.030671 -0.005897 -0.005385 0.000003 -0.011686 -0.000004
# 2 -0.005897 0.012248 0.000810 0.000000 0.000995 0.000001
# 3 -0.005385 0.000810 0.009521 -0.000008 0.000980 0.000000
# 4 0.000003 0.000000 -0.000008 0.422916 -0.000018 0.221615
# 5 -0.011686 0.000995 0.000980 -0.000018 0.035566 -0.000006
# 6 -0.000004 0.000001 0.000000 0.221615 -0.000006 0.122354
#
#
# Mechanical properties :
#
#
# Convention : Reuss Voigt Hill
#
# Bulk Modulus (GPa) = 31.75077 38.10739 34.92908
# Shear Modulus (GPa) = 7.52201 61.80859 34.66530
#
# Velocity S-wave (km/s) = 1.86286 5.33995 3.99908
# Velocity P-wave (km/s) = 4.39033 7.45659 6.11865
#
# Compressibility (1/GPa) = 0.03149530
#
# Stress axis : x y z
#
# Youngs Moduli (GPa) = 32.60449 81.64779 105.03625
#
# Poissons Ratio (x) = 0.48148 0.56557
# Poissons Ratio (y) = 0.19227 -0.08506
# Poissons Ratio (z) = 0.17556 -0.06612
#
# Static dielectric constant tensor:
#      x y z
#    x 1.799170 0.000000 -0.046840 
#    y 0.000000 1.783670 0.000000 
#    z -0.046840 0.000000 1.988230 
# 
# From -- ./inp_files/333483.got.cif
#   From: 2010.05.17/outbox.cif.g08.bks.cpg/sg12_167_cif.got.tgz:333483.got - 2010.06.03 13:09:07.
