data_PCOD9191075
_publ_section_title
;
Structure prediction by ZEFSAII (Michael W. Deem and Ramdas Pophale) SiO2 
 PCOD9191075
Probable space group: C 2/M
;
_chemical_formula_sum "Si O2"
_cell_formula_units_Z 64
_cell_length_a 18.490573
_cell_length_b 15.470246
_cell_length_c 17.411641
_cell_angle_alpha 90.000000
_cell_angle_beta 146.186022
_cell_angle_gamma 90.000000
_cell_volume 2771.731497
_symmetry_space_group_name_H-M "C 2/M"
_symmetry_group_IT_number 12
_symmetry_cell_setting 'monoclinic'
loop_
_space_group_symop_operation_xyz
x,y,z
-x,y,-z
-x,-y,-z
x,-y,z
1/2+x,1/2+y,z
1/2-x,1/2+y,-z
1/2-x,1/2-y,-z
1/2+x,1/2-y,z
loop_
_atom_site_type_symbol
_atom_site_label
_atom_site_fract_x
_atom_site_fract_y
_atom_site_fract_z
Si Si1 0.745491 0.651605 0.098838
Si Si2 0.422814 0.768478 0.715848
Si Si3 0.619199 0.404973 0.549224
Si Si4 0.034602 0.097053 0.169409
Si Si5 0.830182 0.347291 0.004895
Si Si6 0.695454 0.101932 0.681867
Si Si7 0.123746 0.731707 0.489951
Si Si8 0.642114 0.097830 0.133424
O O1 0.787629 0.618690 0.051158
O O2 0.820314 0.631659 0.243798
O O3 0.604360 0.610677 0.992018
O O4 0.733883 0.754400 0.072958
O O5 0.468233 0.669641 0.767076
O O6 0.515949 0.826498 0.849656
O O7 0.273409 0.758706 0.605490
O O8 0.432854 0.804050 0.638916
O O9 0.500000 0.417988 0.500000
O O10 0.650069 0.500000 0.541474
O O11 0.567225 0.326455 0.452728
O O12 0.744097 0.371748 0.709232
O O13 0.154863 0.111575 0.217333
O O14 0.047876 0.000000 0.211123
O O15 0.806416 0.402784 0.908464
O O16 0.620601 0.164686 0.556629
O O17 0.663098 0.000000 0.646305
O O18 0.617557 0.000000 0.138773
O O19 0.500000 0.142526 0.000000
#
# Coordination Sequence:
#
# PCOD9191075 Si02
#       8
#     8   8   8   8   8   8   8   8
#     4  10  20  32  52  81 112 146 184 231 295 357
#     4   9  20  36  55  81 109 147 197 239 290 355
#     4  10  22  38  60  91 119 149 193 242 298 357
#     4   9  18  33  55  84 114 143 184 242 300 356
#     4  10  21  36  53  79 113 149 192 242 295 351
#     4  10  20  35  57  84 113 151 198 242 289 352
#     4  10  20  37  59  81 113 152 192 242 293 349
#     4  10  21  38  60  85 114 151 194 238 290 354
#
# _framework density 23.090260000000001
#
# number of rings (size 3 to 8) (size 9 to 14) (size 15 to 20)
#    0.000    2.250    0.000    2.250    0.000    8.500 
#    0.000    3.750    0.000    2.625    0.000    0.000 
#    0.000    0.000    0.000    0.000    0.000    0.000 
#
# Total GULP energy -178377.479280 kJ/mol
# GULP energy per Si atom -5574.296228 kJ/mol
# Density = 2.303771 g / cm^3
# Si number density = 23.090260 Si / 1000 Ang^3
#
#
#
# Elastic Constant Matrix: (Units=GPa)
#
#
# Indices 1 2 3 4 5 6 
#
# 1 72.3092 18.4750 37.4367 0.0000 -16.3845 0.0000
# 2 18.4750 61.9945 10.2362 0.0000 -20.0976 0.0000
# 3 37.4367 10.2362 69.7159 0.0000 -23.3400 0.0000
# 4 0.0000 0.0000 0.0000 -21.1078 0.0000 1.5409
# 5 -16.3845 -20.0976 -23.3400 0.0000 45.7497 0.0000
# 6 0.0000 0.0000 0.0000 1.5409 0.0000 23.6193
#
#
#
# Elastic Compliance Matrix: (Units=1/GPa)
#
#
# Indices 1 2 3 4 5 6 
#
# 1 0.020235 -0.004295 -0.010180 0.000000 0.000167 0.000000
# 2 -0.004295 0.019721 0.002166 0.000000 0.008230 0.000000
# 3 -0.010180 0.002166 0.022419 0.000000 0.008744 0.000000
# 4 0.000000 0.000000 0.000000 -0.047151 0.000000 0.003076
# 5 0.000167 0.008230 0.008744 0.000000 0.029994 0.000000
# 6 0.000000 0.000000 0.000000 0.003076 0.000000 0.042138
#
#
# Mechanical properties :
#
#
# Convention : Reuss Voigt Hill
#
# Bulk Modulus (GPa) = 26.48433 37.36841 31.92637
# Shear Modulus (GPa) = 40.14170 18.84369 29.49270
#
# Velocity S-wave (km/s) = 4.17402 2.85982 3.57778
# Velocity P-wave (km/s) = 5.89277 5.20803 5.56095
#
# Compressibility (1/GPa) = 0.03775818
#
# Stress axis : x y z
#
# Youngs Moduli (GPa) = 49.41934 50.70754 44.60423
#
# Poissons Ratio (x) = 0.21781 0.45405
# Poissons Ratio (y) = 0.21228 -0.09663
# Poissons Ratio (z) = 0.50306 -0.10985
#
# Static dielectric constant tensor:
#      x y z
#    x 1.927440 0.000000 0.052010 
#    y 0.000000 1.977290 0.000000 
#    z 0.052010 0.000000 1.896560 
# 
# From -- ./inp_files/226867.got.cif
#   From: 2010.05.17/outbox.cif.g08.bks.cpg/sg12_114_cif.got.tgz:226867.got - 2010.06.03 13:09:07.
