data_PCOD9191398
_publ_section_title
;
Structure prediction by ZEFSAII (Michael W. Deem and Ramdas Pophale) SiO2 
 PCOD9191398
Probable space group: C 2/M
;
_chemical_formula_sum "Si O2"
_cell_formula_units_Z 56
_cell_length_a 21.699197
_cell_length_b 7.699954
_cell_length_c 16.251488
_cell_angle_alpha 90.000000
_cell_angle_beta 126.938804
_cell_angle_gamma 90.000000
_cell_volume 2170.314615
_symmetry_space_group_name_H-M "C 2/M"
_symmetry_group_IT_number 12
_symmetry_cell_setting 'monoclinic'
loop_
_space_group_symop_operation_xyz
x,y,z
-x,y,-z
-x,-y,-z
x,-y,z
1/2+x,1/2+y,z
1/2-x,1/2+y,-z
1/2-x,1/2-y,-z
1/2+x,1/2-y,z
loop_
_atom_site_type_symbol
_atom_site_label
_atom_site_fract_x
_atom_site_fract_y
_atom_site_fract_z
Si Si1 0.092003 0.297308 0.590673
Si Si2 0.039527 0.802421 0.717615
Si Si3 0.630215 0.802631 0.447424
Si Si4 0.807006 0.790581 0.118861
Si Si5 0.540427 0.696546 0.942309
Si Si6 0.190055 0.701452 0.150512
Si Si7 0.120635 0.290276 0.263719
O O1 0.112811 0.500000 0.617885
O O2 0.090678 0.196094 0.674729
O O3 0.135632 0.225950 0.544153
O O4 0.000000 0.294750 0.500000
O O5 0.105939 0.729101 0.829681
O O6 0.962874 0.694370 0.642027
O O7 0.015200 0.000000 0.715202
O O8 0.654209 0.724339 0.378294
O O9 0.658822 0.000000 0.475426
O O10 0.762599 0.717064 0.163117
O O11 0.812807 0.000000 0.129010
O O12 0.750000 0.750000 0.000000
O O13 0.562505 0.500000 0.938383
O O14 0.470274 0.751866 0.825941
O O15 0.500000 0.696331 0.000000
O O16 0.618838 0.793896 0.029096
O O17 0.207799 0.500000 0.180743
O O18 0.164622 0.777206 0.218042
O O19 0.126579 0.500000 0.271196
#
# Coordination Sequence:
#
# PCOD9191398 Si02
#       7
#     8   8   8   8   8   8   8
#     4   8  15  30  50  72  98 126 158 196 240 290
#     4  10  20  33  49  72 100 129 162 199 243 290
#     4   9  18  31  50  77 102 124 156 198 243 294
#     4  10  23  38  51  70  96 130 171 207 237 282
#     4   9  17  28  43  66  95 124 154 194 242 286
#     4   9  18  34  51  66  90 127 168 203 236 282
#     4   9  17  30  50  72  94 124 160 199 243 287
#
# _framework density 25.802709
#
# number of rings (size 3 to 8) (size 9 to 14) (size 15 to 20)
#    0.000    2.857    0.000    1.714    2.000    6.571 
#    0.000    0.000    0.000    0.857    0.000    0.000 
#    0.000    0.000    0.000    0.000    0.000    1.429 
#
# Total GULP energy -156172.071317 kJ/mol
# GULP energy per Si atom -5577.573976 kJ/mol
# Density = 2.574398 g / cm^3
# Si number density = 25.802709 Si / 1000 Ang^3
#
#
#
# Elastic Constant Matrix: (Units=GPa)
#
#
# Indices 1 2 3 4 5 6 
#
# 1 93.1179 -3.8736 -6.9829 0.0000 -19.2958 0.0000
# 2 -3.8736 57.6643 0.2101 0.0000 2.7769 0.0000
# 3 -6.9829 0.2101 32.4055 0.0000 -20.7235 0.0000
# 4 0.0000 0.0000 0.0000 19.3553 0.0000 -4.9376
# 5 -19.2958 2.7769 -20.7235 0.0000 54.3950 0.0000
# 6 0.0000 0.0000 0.0000 -4.9376 0.0000 11.8498
#
#
#
# Elastic Compliance Matrix: (Units=1/GPa)
#
#
# Indices 1 2 3 4 5 6 
#
# 1 0.012852 0.000480 0.007491 0.000000 0.007389 0.000000
# 2 0.000480 0.017422 -0.000620 0.000000 -0.000955 0.000000
# 3 0.007491 -0.000620 0.045213 0.000000 0.019914 0.000000
# 4 0.000000 0.000000 0.000000 0.057810 0.000000 0.024088
# 5 0.007389 -0.000955 0.019914 0.000000 0.028641 0.000000
# 6 0.000000 0.000000 0.000000 0.024088 0.000000 0.094427
#
#
# Mechanical properties :
#
#
# Convention : Reuss Voigt Hill
#
# Bulk Modulus (GPa) = 11.08786 17.98831 14.53809
# Shear Modulus (GPa) = 18.40092 30.04229 24.22161
#
# Velocity S-wave (km/s) = 2.67336 3.41590 3.06718
# Velocity P-wave (km/s) = 3.71963 4.74810 4.26498
#
# Compressibility (1/GPa) = 0.09018874
#
# Stress axis : x y z
#
# Youngs Moduli (GPa) = 77.80973 57.39771 22.11775
#
# Poissons Ratio (x) = -0.02756 -0.16569
# Poissons Ratio (y) = -0.03737 0.01372
# Poissons Ratio (z) = -0.58290 0.03562
#
# Static dielectric constant tensor:
#      x y z
#    x 2.134710 0.000000 -0.113480 
#    y 0.000000 1.986940 0.000000 
#    z -0.113480 0.000000 2.181390 
# 
# From -- ./inp_files/291975.got.cif
#   From: 2010.05.17/outbox.cif.g08.bks.cpg/sg12_146_cif.got.tgz:291975.got - 2010.06.03 13:09:07.
