data_PCOD9191058
_publ_section_title
;
Structure prediction by ZEFSAII (Michael W. Deem and Ramdas Pophale) SiO2 
 PCOD9191058
Probable space group: C 2/M
;
_chemical_formula_sum "Si O2"
_cell_formula_units_Z 48
_cell_length_a 22.258904
_cell_length_b 9.336938
_cell_length_c 12.624962
_cell_angle_alpha 90.000000
_cell_angle_beta 110.152179
_cell_angle_gamma 90.000000
_cell_volume 2463.216432
_symmetry_space_group_name_H-M "C 2/M"
_symmetry_group_IT_number 12
_symmetry_cell_setting 'monoclinic'
loop_
_space_group_symop_operation_xyz
x,y,z
-x,y,-z
-x,-y,-z
x,-y,z
1/2+x,1/2+y,z
1/2-x,1/2+y,-z
1/2-x,1/2-y,-z
1/2+x,1/2-y,z
loop_
_atom_site_type_symbol
_atom_site_label
_atom_site_fract_x
_atom_site_fract_y
_atom_site_fract_z
Si Si1 0.879406 0.829998 0.653035
Si Si2 0.731104 0.666165 0.883366
Si Si3 0.103200 0.332742 0.545165
Si Si4 0.253807 0.332296 0.689283
Si Si5 0.080045 0.832265 0.740281
Si Si6 0.010368 0.827254 0.124788
O O1 0.908971 0.745729 0.572780
O O2 0.806000 0.791304 0.633144
O O3 0.919888 0.801254 0.783791
O O4 0.882972 0.000000 0.632412
O O5 0.748793 0.500000 0.902792
O O6 0.762123 0.738779 0.799296
O O7 0.654633 0.674724 0.818132
O O8 0.750000 0.750000 0.000000
O O9 0.086947 0.500000 0.531757
O O10 0.180388 0.319033 0.608502
O O11 0.071938 0.256281 0.627511
O O12 0.265204 0.500000 0.721453
O O13 0.039109 0.777714 0.815035
O O14 0.064008 0.000000 0.711348
O O15 0.001851 0.000000 0.114248
O O16 0.000000 0.770761 0.000000
#
# Coordination Sequence:
#
# PCOD9191058 Si02
#       6
#     8   8   8   8   8   8
#     4  10  20  34  57  83 108 141 181 224 267 317
#     4  10  20  32  52  79 107 142 179 220 267 319
#     4  10  20  35  55  80 113 144 175 219 271 325
#     4   9  19  34  53  80 110 141 176 220 269 318
#     4   9  19  36  57  79 105 139 181 226 267 313
#     4   9  19  35  57  82 105 136 181 230 269 307
#
# _framework density 19.486716000000001
#
# number of rings (size 3 to 8) (size 9 to 14) (size 15 to 20)
#    0.000    2.500    0.000    1.500    2.333    2.667 
#    0.000    4.167    0.000    1.000    0.000    0.000 
#    0.000    0.000    0.000    0.000    0.000    0.000 
#
# Total GULP energy -133958.554647 kJ/mol
# GULP energy per Si atom -5581.606444 kJ/mol
# Density = 1.944236 g / cm^3
# Si number density = 19.486716 Si / 1000 Ang^3
#
#
#
# Elastic Constant Matrix: (Units=GPa)
#
#
# Indices 1 2 3 4 5 6 
#
# 1 82.8966 20.5328 26.1663 0.0000 -27.1059 0.0000
# 2 20.5328 57.2430 52.9436 0.0000 -12.1453 0.0000
# 3 26.1663 52.9436 120.7556 0.0000 -27.4866 0.0000
# 4 0.0000 0.0000 0.0000 29.4705 0.0000 -7.4203
# 5 -27.1059 -12.1453 -27.4866 0.0000 21.9780 0.0000
# 6 0.0000 0.0000 0.0000 -7.4203 0.0000 15.3924
#
#
#
# Elastic Compliance Matrix: (Units=1/GPa)
#
#
# Indices 1 2 3 4 5 6 
#
# 1 0.021539 -0.005654 0.004400 0.000000 0.028942 0.000000
# 2 -0.005654 0.030870 -0.013999 0.000000 -0.007422 0.000000
# 3 0.004400 -0.013999 0.018089 0.000000 0.020314 0.000000
# 4 0.000000 0.000000 0.000000 0.038620 0.000000 0.018618
# 5 0.028942 -0.007422 0.020314 0.000000 0.102498 0.000000
# 6 0.000000 0.000000 0.000000 0.018618 0.000000 0.073942
#
#
# Mechanical properties :
#
#
# Convention : Reuss Voigt Hill
#
# Bulk Modulus (GPa) = 25.00567 51.13117 38.06842
# Shear Modulus (GPa) = 15.17931 24.11832 19.64882
#
# Velocity S-wave (km/s) = 2.79401 3.52188 3.17885
# Velocity P-wave (km/s) = 4.82376 6.54478 5.74904
#
# Compressibility (1/GPa) = 0.03999094
#
# Stress axis : x y z
#
# Youngs Moduli (GPa) = 46.42847 32.39362 55.28156
#
# Poissons Ratio (x) = 0.18317 -0.24323
# Poissons Ratio (y) = 0.26253 0.77388
# Poissons Ratio (z) = -0.20427 0.45347
#
# Static dielectric constant tensor:
#      x y z
#    x 1.714430 0.000000 0.019920 
#    y 0.000000 1.652810 0.000000 
#    z 0.019920 0.000000 1.661640 
# 
# From -- ./inp_files/172395.got.cif
#   From: 2010.05.17/outbox.cif.g08.bks.cpg/sg12_87_cif.got.tgz:172395.got - 2010.06.03 13:09:07.
