data_PCOD9191413
_publ_section_title
;
Structure prediction by ZEFSAII (Michael W. Deem and Ramdas Pophale) SiO2 
 PCOD9191413
Probable space group: C 2/M
;
_chemical_formula_sum "Si O2"
_cell_formula_units_Z 64
_cell_length_a 33.123472
_cell_length_b 9.166070
_cell_length_c 17.540891
_cell_angle_alpha 90.000000
_cell_angle_beta 43.635621
_cell_angle_gamma 90.000000
_cell_volume 3675.052839
_symmetry_space_group_name_H-M "C 2/M"
_symmetry_group_IT_number 12
_symmetry_cell_setting 'monoclinic'
loop_
_space_group_symop_operation_xyz
x,y,z
-x,y,-z
-x,-y,-z
x,-y,z
1/2+x,1/2+y,z
1/2-x,1/2+y,-z
1/2-x,1/2-y,-z
1/2+x,1/2-y,z
loop_
_atom_site_type_symbol
_atom_site_label
_atom_site_fract_x
_atom_site_fract_y
_atom_site_fract_z
Si Si1 0.911897 0.171235 0.685294
Si Si2 0.992924 0.326891 0.349715
Si Si3 0.706152 0.172416 0.117526
Si Si4 0.967049 0.672632 0.874471
Si Si5 0.448657 0.333974 0.134012
Si Si6 0.631246 0.323692 0.890229
Si Si7 0.763847 0.672367 0.745501
Si Si8 0.380636 0.670436 0.549101
O O1 0.856887 0.251045 0.799364
O O2 0.901413 0.183877 0.609117
O O3 0.970129 0.248681 0.634821
O O4 0.913489 0.000000 0.702265
O O5 0.989916 0.500000 0.366914
O O6 0.928270 0.259250 0.436269
O O7 0.026007 0.299846 0.224695
O O8 0.729088 0.190103 0.172877
O O9 0.701304 0.000000 0.108239
O O10 0.750000 0.250000 0.000000
O O11 0.961759 0.500000 0.894330
O O12 0.025428 0.732300 0.836259
O O13 0.911791 0.752066 0.988819
O O14 0.440114 0.500000 0.173446
O O15 0.392859 0.284635 0.161059
O O16 0.500000 0.338662 0.000000
O O17 0.625888 0.500000 0.904190
O O18 0.698539 0.283548 0.810962
O O19 0.771364 0.500000 0.718822
O O20 0.815861 0.762211 0.635444
O O21 0.380591 0.500000 0.529234
#
# Coordination Sequence:
#
# PCOD9191413 Si02
#       8
#     8   8   8   8   8   8   8   8
#     4  10  21  36  53  74  99 132 175 218 260 304
#     4  11  23  36  52  76 104 136 172 216 260 305
#     4  10  20  33  49  72 104 140 173 208 254 303
#     4  10  21  33  48  77 109 135 166 207 257 303
#     4   8  15  30  51  74 102 135 167 202 248 305
#     4   9  18  33  54  79 105 135 171 205 247 308
#     4   9  19  35  54  75 100 135 172 208 253 304
#     4  10  21  37  55  76 100 132 174 218 259 301
#
# _framework density 17.414715999999999
#
# number of rings (size 3 to 8) (size 9 to 14) (size 15 to 20)
#    0.000    2.375    0.000    3.000    1.750    8.250 
#    0.000    0.000    0.000    0.750    0.000    0.000 
#    0.000    0.000    0.000    0.000    0.000    0.000 
#
# Total GULP energy -178532.374713 kJ/mol
# GULP energy per Si atom -5579.136710 kJ/mol
# Density = 1.737508 g / cm^3
# Si number density = 17.414716 Si / 1000 Ang^3
#
#
#
# Elastic Constant Matrix: (Units=GPa)
#
#
# Indices 1 2 3 4 5 6 
#
# 1 100.0790 44.2188 30.0252 -0.0001 -29.6911 0.0000
# 2 44.2188 60.8648 27.1406 -0.0006 -10.2151 0.0002
# 3 30.0252 27.1406 44.8772 -0.0002 -24.5282 0.0001
# 4 -0.0001 -0.0006 -0.0002 26.6905 0.0001 -2.7246
# 5 -29.6911 -10.2151 -24.5282 0.0001 25.0112 0.0000
# 6 0.0000 0.0002 0.0001 -2.7246 0.0000 26.0939
#
#
#
# Elastic Compliance Matrix: (Units=1/GPa)
#
#
# Indices 1 2 3 4 5 6 
#
# 1 0.023961 -0.017626 0.013450 0.000000 0.034436 0.000000
# 2 -0.017626 0.036433 -0.029191 0.000001 -0.034672 0.000000
# 3 0.013450 -0.029191 0.071443 0.000000 0.074107 0.000000
# 4 0.000000 0.000001 0.000000 0.037870 -0.000001 0.003954
# 5 0.034436 -0.034672 0.074107 -0.000001 0.139376 0.000000
# 6 0.000000 0.000000 0.000000 0.003954 0.000000 0.038736
#
#
# Mechanical properties :
#
#
# Convention : Reuss Voigt Hill
#
# Bulk Modulus (GPa) = 15.36056 45.39892 30.37974
# Shear Modulus (GPa) = 11.46119 22.52156 16.99137
#
# Velocity S-wave (km/s) = 2.56819 3.60008 3.12699
# Velocity P-wave (km/s) = 4.19926 6.58837 5.52451
#
# Compressibility (1/GPa) = 0.06510178
#
# Stress axis : x y z
#
# Youngs Moduli (GPa) = 41.73429 27.44748 13.99726
#
# Poissons Ratio (x) = 0.48379 -0.18826
# Poissons Ratio (y) = 0.73561 0.40860
# Poissons Ratio (z) = -0.56132 0.80123
#
# Static dielectric constant tensor:
#      x y z
#    x 1.606540 0.000000 -0.001450 
#    y 0.000000 1.580180 0.000000 
#    z -0.001450 0.000000 1.573740 
# 
# From -- ./inp_files/249871.got.cif
#   From: 2010.05.17/outbox.cif.g08.bks.cpg/sg12_125_cif.got.tgz:249871.got - 2010.06.03 13:09:07.
