data_PCOD9191349
_publ_section_title
;
Structure prediction by ZEFSAII (Michael W. Deem and Ramdas Pophale) SiO2 
 PCOD9191349
Probable space group: C 2/M
;
_chemical_formula_sum "Si O2"
_cell_formula_units_Z 64
_cell_length_a 9.728991
_cell_length_b 15.451279
_cell_length_c 21.715446
_cell_angle_alpha 90.000000
_cell_angle_beta 89.573131
_cell_angle_gamma 90.000000
_cell_volume 3264.291518
_symmetry_space_group_name_H-M "C 2/M"
_symmetry_group_IT_number 12
_symmetry_cell_setting 'monoclinic'
loop_
_space_group_symop_operation_xyz
x,y,z
-x,y,-z
-x,-y,-z
x,-y,z
1/2+x,1/2+y,z
1/2-x,1/2+y,-z
1/2-x,1/2-y,-z
1/2+x,1/2-y,z
loop_
_atom_site_type_symbol
_atom_site_label
_atom_site_fract_x
_atom_site_fract_y
_atom_site_fract_z
Si Si1 0.757974 0.173193 0.587624
Si Si2 0.911644 0.600578 0.063818
Si Si3 0.522328 0.401746 0.645002
Si Si4 0.244454 0.394326 0.265526
Si Si5 0.488413 0.902130 0.638600
Si Si6 0.843246 0.106166 0.007399
Si Si7 0.673727 0.106079 0.128908
Si Si8 0.744549 0.127995 0.452429
O O1 0.620290 0.155022 0.625537
O O2 0.756839 0.115646 0.525165
O O3 0.759621 0.270469 0.563658
O O4 0.891585 0.153412 0.626931
O O5 0.887627 0.500000 0.081044
O O6 0.019181 0.637422 0.112839
O O7 0.763225 0.637378 0.045149
O O8 0.000000 0.599943 0.000000
O O9 0.478202 0.500000 0.659488
O O10 0.616350 0.366988 0.700457
O O11 0.625389 0.405485 0.586215
O O12 0.247123 0.500000 0.267304
O O13 0.225187 0.366400 0.195587
O O14 0.114575 0.369362 0.308117
O O15 0.394970 0.906007 0.577462
O O16 0.532118 0.000000 0.654086
O O17 0.776746 0.130056 0.073280
O O18 0.843406 0.000000 0.004898
O O19 0.000000 0.135954 0.000000
O O20 0.668409 0.000000 0.128655
#
# Coordination Sequence:
#
# PCOD9191349 Si02
#       8
#     8   8   8   8   8   8   8   8
#     4  11  21  33  50  72  94 117 151 196 239 280
#     4   7  10  16  27  44  65  94 135 177 216 261
#     4  10  20  33  49  69  94 122 155 193 233 284
#     4   8  16  30  43  57  81 118 158 189 227 281
#     4  10  20  33  49  69  93 120 155 195 229 273
#     4   8  12  17  27  48  75 100 135 185 230 263
#     4   8  12  21  36  48  68 107 148 183 219 266
#     4  10  21  35  50  69  94 122 151 185 237 298
#
# _framework density 19.606092
#
# number of rings (size 3 to 8) (size 9 to 14) (size 15 to 20)
#    0.000    3.000    0.000    4.500    0.000    5.000 
#    0.000    1.250    0.000    6.000    0.000    0.000 
#    0.000    0.000    0.000    0.000    0.000  260.000 
#
# Total GULP energy -178394.612176 kJ/mol
# GULP energy per Si atom -5574.831630 kJ/mol
# Density = 1.956147 g / cm^3
# Si number density = 19.606092 Si / 1000 Ang^3
#
#
#
# Elastic Constant Matrix: (Units=GPa)
#
#
# Indices 1 2 3 4 5 6 
#
# 1 172.0759 19.6020 70.3760 0.0000 22.3229 0.0000
# 2 19.6020 34.3560 9.1650 0.0000 4.0374 0.0000
# 3 70.3760 9.1650 120.4466 0.0000 24.6522 0.0000
# 4 0.0000 0.0000 0.0000 1.8284 0.0000 1.4587
# 5 22.3229 4.0374 24.6522 0.0000 15.0985 0.0000
# 6 0.0000 0.0000 0.0000 1.4587 0.0000 20.9935
#
#
#
# Elastic Compliance Matrix: (Units=1/GPa)
#
#
# Indices 1 2 3 4 5 6 
#
# 1 0.008335 -0.003150 -0.003425 0.000000 -0.005888 0.000000
# 2 -0.003150 0.031316 0.000328 0.000000 -0.004252 0.000000
# 3 -0.003425 0.000328 0.013908 0.000000 -0.017732 0.000000
# 4 0.000000 0.000000 0.000000 0.579027 0.000000 -0.040233
# 5 -0.005888 -0.004252 -0.017732 0.000000 0.105027 0.000000
# 6 0.000000 0.000000 0.000000 -0.040233 0.000000 0.050429
#
#
# Mechanical properties :
#
#
# Convention : Reuss Voigt Hill
#
# Bulk Modulus (GPa) = 24.35157 58.35161 41.35159
# Shear Modulus (GPa) = 6.14080 22.76643 14.45362
#
# Velocity S-wave (km/s) = 1.77169 3.41132 2.71809
# Velocity P-wave (km/s) = 4.07830 6.73370 5.56666
#
# Compressibility (1/GPa) = 0.04106512
#
# Stress axis : x y z
#
# Youngs Moduli (GPa) = 119.97728 31.93211 71.90057
#
# Poissons Ratio (x) = 0.10058 0.24627
# Poissons Ratio (y) = 0.37791 -0.02357
# Poissons Ratio (z) = 0.41094 -0.01047
#
# Static dielectric constant tensor:
#      x y z
#    x 1.678940 0.000000 0.023510 
#    y 0.000000 1.734600 0.000000 
#    z 0.023510 0.000000 1.681150 
# 
# From -- ./inp_files/333190.got.cif
#   From: 2010.05.17/outbox.cif.g08.bks.cpg/sg12_167_cif.got.tgz:333190.got - 2010.06.03 13:09:07.
