data_PCOD9191827
_publ_section_title
;
Structure prediction by ZEFSAII (Michael W. Deem and Ramdas Pophale) SiO2 
 PCOD9191827
Probable space group: C 2/M
;
_chemical_formula_sum "Si O2"
_cell_formula_units_Z 64
_cell_length_a 16.424871
_cell_length_b 7.854392
_cell_length_c 29.254378
_cell_angle_alpha 90.000000
_cell_angle_beta 137.473145
_cell_angle_gamma 90.000000
_cell_volume 2551.001969
_symmetry_space_group_name_H-M "C 2/M"
_symmetry_group_IT_number 12
_symmetry_cell_setting 'monoclinic'
loop_
_space_group_symop_operation_xyz
x,y,z
-x,y,-z
-x,-y,-z
x,-y,z
1/2+x,1/2+y,z
1/2-x,1/2+y,-z
1/2-x,1/2-y,-z
1/2+x,1/2-y,z
loop_
_atom_site_type_symbol
_atom_site_label
_atom_site_fract_x
_atom_site_fract_y
_atom_site_fract_z
Si Si1 0.950155 0.196568 0.405621
Si Si2 0.114766 0.704606 0.957555
Si Si3 0.363332 0.204915 0.833366
Si Si4 0.601326 0.802273 0.713306
Si Si5 0.193298 0.292317 0.085008
Si Si6 0.195762 0.800681 0.334543
Si Si7 0.789108 0.702119 0.465521
Si Si8 0.452421 0.696278 0.206842
O O1 0.967741 0.229674 0.358911
O O2 0.829442 0.291914 0.370048
O O3 0.071600 0.246272 0.481580
O O4 0.925608 0.000000 0.403210
O O5 0.103986 0.500000 0.952780
O O6 0.000013 0.765621 0.880618
O O7 0.250000 0.750000 0.000000
O O8 0.111189 0.763102 0.009045
O O9 0.244632 0.283794 0.762116
O O10 0.347207 0.246993 0.880687
O O11 0.354417 0.000000 0.823732
O O12 0.573811 0.705178 0.749003
O O13 0.573511 0.000000 0.708235
O O14 0.196553 0.500000 0.084709
O O15 0.330598 0.225257 0.135757
O O16 0.209228 0.724823 0.391104
O O17 0.086225 0.725029 0.259320
O O18 0.163929 0.000000 0.325282
O O19 0.782703 0.500000 0.459170
O O20 0.750000 0.750000 0.500000
O O21 0.453712 0.500000 0.192225
#
# Coordination Sequence:
#
# PCOD9191827 Si02
#       8
#     8   8   8   8   8   8   8   8
#     4  12  25  40  59  84 117 154 192 235 284 338
#     4  10  20  33  51  78 111 146 183 227 280 335
#     4   9  18  35  57  78 104 143 191 235 276 329
#     4  11  22  37  59  85 113 145 187 237 287 341
#     4   8  15  31  56  80 103 139 186 227 265 322
#     4  10  22  39  59  86 119 153 188 231 283 336
#     4  11  23  40  63  89 119 154 194 237 281 332
#     4   9  18  36  61  86 113 146 186 231 282 340
#
# _framework density 25.088180000000001
#
# number of rings (size 3 to 8) (size 9 to 14) (size 15 to 20)
#    0.000    2.000    0.000    4.875    0.000    7.000 
#    0.000    3.750    0.000    3.750    0.000    0.000 
#    0.000    0.000    0.000    0.000    0.000    0.000 
#
# Total GULP energy -178922.288362 kJ/mol
# GULP energy per Si atom -5591.321511 kJ/mol
# Density = 2.503108 g / cm^3
# Si number density = 25.088180 Si / 1000 Ang^3
#
#
#
# Elastic Constant Matrix: (Units=GPa)
#
#
# Indices 1 2 3 4 5 6 
#
# 1 69.8985 -8.8269 3.2889 0.0000 19.2551 0.0000
# 2 -8.8269 59.7979 10.8529 0.0000 4.8161 0.0000
# 3 3.2889 10.8529 133.9141 0.0000 25.3297 0.0000
# 4 0.0000 0.0000 0.0000 14.7368 0.0000 3.9272
# 5 19.2551 4.8161 25.3297 0.0000 48.9205 0.0000
# 6 0.0000 0.0000 0.0000 3.9272 0.0000 24.2855
#
#
#
# Elastic Compliance Matrix: (Units=1/GPa)
#
#
# Indices 1 2 3 4 5 6 
#
# 1 0.016623 0.002903 0.000718 0.000000 -0.007201 0.000000
# 2 0.002903 0.017530 -0.001052 0.000000 -0.002324 0.000000
# 3 0.000718 -0.001052 0.008391 0.000000 -0.004524 0.000000
# 4 0.000000 0.000000 0.000000 0.070913 0.000000 -0.011467
# 5 -0.007201 -0.002324 -0.004524 0.000000 0.025846 0.000000
# 6 0.000000 0.000000 0.000000 -0.011467 0.000000 0.043031
#
#
# Mechanical properties :
#
#
# Convention : Reuss Voigt Hill
#
# Bulk Modulus (GPa) = 20.97237 30.47114 25.72176
# Shear Modulus (GPa) = 25.89468 34.80826 30.35147
#
# Velocity S-wave (km/s) = 3.21619 3.72887 3.48198
# Velocity P-wave (km/s) = 4.70844 5.54178 5.14202
#
# Compressibility (1/GPa) = 0.04768177
#
# Stress axis : x y z
#
# Youngs Moduli (GPa) = 60.15821 57.04601 119.17849
#
# Poissons Ratio (x) = -0.16562 -0.08562
# Poissons Ratio (y) = -0.17466 0.12543
# Poissons Ratio (z) = -0.04322 0.06004
#
# Static dielectric constant tensor:
#      x y z
#    x 2.073660 0.000000 0.019940 
#    y 0.000000 1.899660 0.000000 
#    z 0.019940 0.000000 2.001750 
# 
# From -- ./inp_files/378447.got.cif
#   From: 2010.05.17/outbox.cif.g08.bks.cpg/sg12_190_cif.got.tgz:378447.got - 2010.06.03 13:09:07.
