data_PCOD9191495
_publ_section_title
;
Structure prediction by ZEFSAII (Michael W. Deem and Ramdas Pophale) SiO2 
 PCOD9191495
Probable space group: C 2/M
;
_chemical_formula_sum "Si O2"
_cell_formula_units_Z 64
_cell_length_a 30.748097
_cell_length_b 8.325747
_cell_length_c 31.775675
_cell_angle_alpha 90.000000
_cell_angle_beta 151.275237
_cell_angle_gamma 90.000000
_cell_volume 3909.509827
_symmetry_space_group_name_H-M "C 2/M"
_symmetry_group_IT_number 12
_symmetry_cell_setting 'monoclinic'
loop_
_space_group_symop_operation_xyz
x,y,z
-x,y,-z
-x,-y,-z
x,-y,z
1/2+x,1/2+y,z
1/2-x,1/2+y,-z
1/2-x,1/2-y,-z
1/2+x,1/2-y,z
loop_
_atom_site_type_symbol
_atom_site_label
_atom_site_fract_x
_atom_site_fract_y
_atom_site_fract_z
Si Si1 0.378757 0.189834 0.249178
Si Si2 0.628478 0.190046 0.936473
Si Si3 0.663249 0.690189 0.876509
Si Si4 0.307879 0.188399 0.871785
Si Si5 0.467695 0.309843 0.066139
Si Si6 0.162295 0.805234 0.197601
Si Si7 0.982641 0.304090 0.417719
Si Si8 0.856625 0.304529 0.389163
O O1 0.380626 0.271793 0.205414
O O2 0.279960 0.219224 0.185623
O O3 0.450734 0.250362 0.344865
O O4 0.391376 0.000000 0.253913
O O5 0.617749 0.227396 0.878131
O O6 0.558825 0.275419 0.908293
O O7 0.623241 0.000000 0.939450
O O8 0.731198 0.244456 0.035084
O O9 0.664058 0.500000 0.884704
O O10 0.330926 0.242178 0.844160
O O11 0.287101 0.000000 0.855445
O O12 0.392988 0.224462 0.973850
O O13 0.461466 0.500000 0.052626
O O14 0.568456 0.255596 0.139393
O O15 0.253019 0.751753 0.298955
O O16 0.163489 0.000000 0.196968
O O17 0.982284 0.500000 0.416592
O O18 0.908392 0.257512 0.390006
O O19 0.079736 0.251754 0.518250
O O20 0.856849 0.500000 0.390049
#
# Coordination Sequence:
#
# PCOD9191495 Si02
#       8
#     8   8   8   8   8   8   8   8
#     4  11  19  30  50  74  99 129 162 197 239 288
#     4  10  20  34  51  71  96 127 160 197 240 285
#     4  10  20  33  50  72  98 126 158 196 242 289
#     4  12  23  33  45  66  98 135 169 202 237 277
#     4  11  22  34  50  70  95 129 167 204 239 280
#     4  10  20  34  51  70  94 129 169 204 239 280
#     4   8  14  24  46  73  96 122 156 198 241 283
#     4   8  13  26  46  71  96 121 158 201 239 281
#
# _framework density 16.370338
#
# number of rings (size 3 to 8) (size 9 to 14) (size 15 to 20)
#    0.000    2.000    2.500    3.750    0.000    3.500 
#    0.000    0.000    0.000    2.250    0.000    0.875 
#    0.000    0.000    0.000    0.000    0.000    0.000 
#
# Total GULP energy -178546.868214 kJ/mol
# GULP energy per Si atom -5579.589632 kJ/mol
# Density = 1.633308 g / cm^3
# Si number density = 16.370338 Si / 1000 Ang^3
#
#
#
# Elastic Constant Matrix: (Units=GPa)
#
#
# Indices 1 2 3 4 5 6 
#
# 1 67.6168 -5.8478 42.6401 0.0000 -10.3522 0.0000
# 2 -5.8478 10.8507 -4.9392 0.0002 0.6629 0.0000
# 3 42.6401 -4.9392 89.6361 0.0000 -17.0657 0.0000
# 4 0.0000 0.0002 0.0000 5.9229 0.0000 -7.9671
# 5 -10.3522 0.6629 -17.0657 0.0000 23.1039 0.0000
# 6 0.0000 0.0000 0.0000 -7.9671 0.0000 19.2174
#
#
#
# Elastic Compliance Matrix: (Units=1/GPa)
#
#
# Indices 1 2 3 4 5 6 
#
# 1 0.021785 0.007271 -0.009476 0.000000 0.002553 0.000000
# 2 0.007271 0.096993 0.002300 -0.000006 0.002174 -0.000002
# 3 -0.009476 0.002300 0.017420 0.000000 0.008555 0.000000
# 4 0.000000 -0.000006 0.000000 0.381690 0.000000 0.158241
# 5 0.002553 0.002174 0.008555 0.000000 0.050683 0.000000
# 6 0.000000 -0.000002 0.000000 0.158241 0.000000 0.117640
#
#
# Mechanical properties :
#
#
# Convention : Reuss Voigt Hill
#
# Bulk Modulus (GPa) = 7.33216 25.75664 16.54440
# Shear Modulus (GPa) = 6.83543 18.73220 12.78382
#
# Velocity S-wave (km/s) = 2.04562 3.38639 2.79751
# Velocity P-wave (km/s) = 3.17302 5.57297 4.53465
#
# Compressibility (1/GPa) = 0.13638545
#
# Stress axis : x y z
#
# Youngs Moduli (GPa) = 45.90334 10.31007 57.40637
#
# Poissons Ratio (x) = -0.07497 0.54401
# Poissons Ratio (y) = -0.33377 -0.13201
# Poissons Ratio (z) = 0.43500 -0.02371
#
# Static dielectric constant tensor:
#      x y z
#    x 1.527950 0.000000 -0.008010 
#    y 0.000000 1.559690 0.000000 
#    z -0.008010 0.000000 1.562730 
# 
# From -- ./inp_files/384629.got.cif
#   From: 2010.05.17/outbox.cif.g08.bks.cpg/sg12_193_cif.got.tgz:384629.got - 2010.06.03 13:09:07.
