data_PCOD9191328
_publ_section_title
;
Structure prediction by ZEFSAII (Michael W. Deem and Ramdas Pophale) SiO2 
 PCOD9191328
Probable space group: C 2/M
;
_chemical_formula_sum "Si O2"
_cell_formula_units_Z 36
_cell_length_a 20.856606
_cell_length_b 15.691065
_cell_length_c 5.299991
_cell_angle_alpha 90.000000
_cell_angle_beta 94.480520
_cell_angle_gamma 90.000000
_cell_volume 1729.186887
_symmetry_space_group_name_H-M "C 2/M"
_symmetry_group_IT_number 12
_symmetry_cell_setting 'monoclinic'
loop_
_space_group_symop_operation_xyz
x,y,z
-x,y,-z
-x,-y,-z
x,-y,z
1/2+x,1/2+y,z
1/2-x,1/2+y,-z
1/2-x,1/2-y,-z
1/2+x,1/2-y,z
loop_
_atom_site_type_symbol
_atom_site_label
_atom_site_fract_x
_atom_site_fract_y
_atom_site_fract_z
Si Si1 0.939918 0.590081 0.169666
Si Si2 0.000000 0.263289 0.500000
Si Si3 0.821283 0.593580 0.757005
Si Si4 0.701737 0.328977 0.943005
Si Si5 0.633320 0.277657 0.413627
O O1 0.939430 0.500000 0.314425
O O2 0.954513 0.673273 0.329923
O O3 0.875287 0.596264 0.991033
O O4 0.000000 0.586254 0.000000
O O5 0.055685 0.216945 0.360739
O O6 0.826374 0.500000 0.631851
O O7 0.751471 0.600096 0.863191
O O8 0.837880 0.680217 0.607453
O O9 0.654637 0.309993 0.694842
O O10 0.750000 0.250000 0.000000
O O11 0.665009 0.332883 0.197627
#
# Coordination Sequence:
#
# PCOD9191328 Si02
#       5
#     8   4   8   8   8
#     4  10  20  33  48  76 117 149 180 221 269 331
#     4  12  21  32  56  78 111 154 192 224 274 340
#     4  10  20  37  59  83 113 152 190 229 279 335
#     4  10  21  39  55  79 113 149 187 236 277 324
#     4  11  23  37  57  81 115 149 187 231 280 330
#
# _framework density 20.819033999999998
#
# number of rings (size 3 to 8) (size 9 to 14) (size 15 to 20)
#    0.000    1.556    2.222    5.667    0.000    0.889 
#    0.000   12.222    0.000    0.000    0.000    4.667 
#    0.000    0.000    0.000    0.000    0.000    0.000 
#
# Total GULP energy -100374.290620 kJ/mol
# GULP energy per Si atom -5576.349479 kJ/mol
# Density = 2.077165 g / cm^3
# Si number density = 20.819034 Si / 1000 Ang^3
#
#
#
# Elastic Constant Matrix: (Units=GPa)
#
#
# Indices 1 2 3 4 5 6 
#
# 1 130.9260 23.9490 16.7247 0.0000 -20.8555 0.0000
# 2 23.9490 38.8532 4.4469 0.0000 1.0491 0.0000
# 3 16.7247 4.4469 66.4741 0.0000 -3.1497 0.0000
# 4 0.0000 0.0000 0.0000 606.2545 0.0000 -653.3868
# 5 -20.8555 1.0491 -3.1497 0.0000 44.8357 0.0000
# 6 0.0000 0.0000 0.0000 -653.3868 0.0000 782.2655
#
#
#
# Elastic Compliance Matrix: (Units=1/GPa)
#
#
# Indices 1 2 3 4 5 6 
#
# 1 0.009662 -0.005868 -0.001825 0.000000 0.004503 0.000000
# 2 -0.005868 0.029525 -0.000663 0.000000 -0.003467 0.000000
# 3 -0.001825 -0.000663 0.015559 0.000000 0.000260 0.000000
# 4 0.000000 0.000000 0.000000 0.016525 0.000000 0.013803
# 5 0.004503 -0.003467 0.000260 0.000000 0.024498 0.000000
# 6 0.000000 0.000000 0.000000 0.013803 0.000000 0.012807
#
#
# Mechanical properties :
#
#
# Convention : Reuss Voigt Hill
#
# Bulk Modulus (GPa) = 26.29270 36.27719 31.28495
# Shear Modulus (GPa) = 36.24090 299.41331 167.82710
#
# Velocity S-wave (km/s) = 4.17677 12.00539 8.98818
# Velocity P-wave (km/s) = 5.99309 14.47879 11.08044
#
# Compressibility (1/GPa) = 0.03803336
#
# Stress axis : x y z
#
# Youngs Moduli (GPa) = 103.50058 33.87011 64.27042
#
# Poissons Ratio (x) = 0.19876 0.11729
# Poissons Ratio (y) = 0.60736 0.04261
# Poissons Ratio (z) = 0.18888 0.02245
#
# Static dielectric constant tensor:
#      x y z
#    x 1.836910 0.000000 -0.108450 
#    y 0.000000 1.826220 0.000000 
#    z -0.108450 0.000000 1.871050 
# 
# From -- ./inp_files/20017.got.cif
#   From: 2010.05.17/outbox.cif.g08.bks.cpg/sg12_11_cif.got.tgz:20017.got - 2010.06.03 13:09:07.
