data_PCOD9191969
_publ_section_title
;
Structure prediction by ZEFSAII (Michael W. Deem and Ramdas Pophale) SiO2 
 PCOD9191969
Probable space group: C 2/M
;
_chemical_formula_sum "Si O2"
_cell_formula_units_Z 64
_cell_length_a 15.566411
_cell_length_b 8.606979
_cell_length_c 26.403458
_cell_angle_alpha 90.000000
_cell_angle_beta 72.629004
_cell_angle_gamma 90.000000
_cell_volume 3376.188195
_symmetry_space_group_name_H-M "C 2/M"
_symmetry_group_IT_number 12
_symmetry_cell_setting 'monoclinic'
loop_
_space_group_symop_operation_xyz
x,y,z
-x,y,-z
-x,-y,-z
x,-y,z
1/2+x,1/2+y,z
1/2-x,1/2+y,-z
1/2-x,1/2-y,-z
1/2+x,1/2-y,z
loop_
_atom_site_type_symbol
_atom_site_label
_atom_site_fract_x
_atom_site_fract_y
_atom_site_fract_z
Si Si1 0.801672 0.688296 0.828844
Si Si2 0.006984 0.688136 0.246958
Si Si3 0.109697 0.684531 0.827521
Si Si4 0.925108 0.320068 0.056027
Si Si5 0.250175 0.313731 0.442807
Si Si6 0.556832 0.312287 0.634285
Si Si7 0.253257 0.823409 0.944337
Si Si8 0.438289 0.687655 0.558913
O O1 0.798958 0.500000 0.831093
O O2 0.890522 0.736906 0.783133
O O3 0.708115 0.744819 0.820937
O O4 0.807383 0.743842 0.886660
O O5 0.005935 0.500000 0.246804
O O6 0.942115 0.743300 0.212734
O O7 0.973183 0.746986 0.306719
O O8 0.122276 0.500000 0.819010
O O9 0.050736 0.704468 0.889386
O O10 0.890345 0.500000 0.059007
O O11 0.848367 0.196726 0.057331
O O12 0.000000 0.306675 0.000000
O O13 0.250105 0.500000 0.445064
O O14 0.250000 0.250000 0.500000
O O15 0.342264 0.263501 0.399079
O O16 0.160768 0.255794 0.430552
O O17 0.555843 0.500000 0.636415
O O18 0.488728 0.264562 0.601381
O O19 0.282528 0.000000 0.945800
O O20 0.250000 0.750000 0.000000
O O21 0.500000 0.733397 0.500000
O O22 0.432091 0.500000 0.559365
#
# Coordination Sequence:
#
# PCOD9191969 Si02
#       8
#     8   8   8   8   8   8   8   8
#     4   9  20  38  58  79 110 148 187 236 288 337
#     4  10  22  39  60  83 111 152 197 236 276 338
#     4   9  19  36  57  81 110 145 190 235 282 341
#     4   9  18  32  54  79 106 142 181 227 285 343
#     4  11  22  38  61  90 122 157 194 236 286 339
#     4  10  23  41  59  85 121 155 191 235 285 339
#     4  10  20  33  52  78 110 142 180 230 285 342
#     4  10  20  39  62  86 121 159 191 235 290 337
#
# _framework density 18.956291
#
# number of rings (size 3 to 8) (size 9 to 14) (size 15 to 20)
#    0.000    2.250    1.250    0.750    1.750    4.500 
#    0.000    5.000    0.000    0.000    0.000    0.000 
#    0.000    0.000    0.000    0.000    0.000    0.000 
#
# Total GULP energy -178459.761868 kJ/mol
# GULP energy per Si atom -5576.867558 kJ/mol
# Density = 1.891315 g / cm^3
# Si number density = 18.956291 Si / 1000 Ang^3
#
#
#
# Elastic Constant Matrix: (Units=GPa)
#
#
# Indices 1 2 3 4 5 6 
#
# 1 139.4875 24.2345 100.4675 0.0000 -1.6379 0.0000
# 2 24.2345 10.9243 31.8962 0.0000 -0.9686 0.0000
# 3 100.4675 31.8962 194.5865 0.0000 -2.6207 0.0000
# 4 0.0000 0.0000 0.0000 30.9079 0.0000 2.0988
# 5 -1.6379 -0.9686 -2.6207 0.0000 36.0687 0.0000
# 6 0.0000 0.0000 0.0000 2.0988 0.0000 30.2587
#
#
#
# Elastic Compliance Matrix: (Units=1/GPa)
#
#
# Indices 1 2 3 4 5 6 
#
# 1 0.012984 -0.017718 -0.003801 0.000000 -0.000162 0.000000
# 2 -0.017718 0.199992 -0.023596 0.000000 0.002852 0.000000
# 3 -0.003801 -0.023596 0.010970 0.000000 -0.000009 0.000000
# 4 0.000000 0.000000 0.000000 0.032507 0.000000 -0.002255
# 5 -0.000162 0.002852 -0.000009 0.000000 0.027793 0.000000
# 6 0.000000 0.000000 0.000000 -0.002255 0.000000 0.033205
#
#
# Mechanical properties :
#
#
# Convention : Reuss Voigt Hill
#
# Bulk Modulus (GPa) = 7.47861 73.13273 40.30567
# Shear Modulus (GPa) = 11.05576 32.00706 21.53141
#
# Velocity S-wave (km/s) = 2.41762 4.11355 3.37389
# Velocity P-wave (km/s) = 3.42738 7.82465 6.04037
#
# Compressibility (1/GPa) = 0.13371476
#
# Stress axis : x y z
#
# Youngs Moduli (GPa) = 77.02057 5.00019 91.16159
#
# Poissons Ratio (x) = 0.08859 0.34655
# Poissons Ratio (y) = 1.36464 2.15104
# Poissons Ratio (z) = 0.29279 0.11798
#
# Static dielectric constant tensor:
#      x y z
#    x 1.647640 0.000000 0.004200 
#    y 0.000000 1.664920 0.000000 
#    z 0.004200 0.000000 1.664540 
# 
# From -- ./inp_files/359803.got.cif
#   From: 2010.05.17/outbox.cif.g08.bks.cpg/sg12_180_cif.got.tgz:359803.got - 2010.06.03 13:09:07.
