data_PCOD9191925
_publ_section_title
;
Structure prediction by ZEFSAII (Michael W. Deem and Ramdas Pophale) SiO2 
 PCOD9191925
Probable space group: C 2/M
;
_chemical_formula_sum "Si O2"
_cell_formula_units_Z 64
_cell_length_a 20.590608
_cell_length_b 8.779792
_cell_length_c 24.006297
_cell_angle_alpha 90.000000
_cell_angle_beta 124.794482
_cell_angle_gamma 90.000000
_cell_volume 3563.934537
_symmetry_space_group_name_H-M "C 2/M"
_symmetry_group_IT_number 12
_symmetry_cell_setting 'monoclinic'
loop_
_space_group_symop_operation_xyz
x,y,z
-x,y,-z
-x,-y,-z
x,-y,z
1/2+x,1/2+y,z
1/2-x,1/2+y,-z
1/2-x,1/2-y,-z
1/2+x,1/2-y,z
loop_
_atom_site_type_symbol
_atom_site_label
_atom_site_fract_x
_atom_site_fract_y
_atom_site_fract_z
Si Si1 0.076554 0.315018 0.126570
Si Si2 0.487021 0.680581 0.699319
Si Si3 0.308969 0.815464 0.915732
Si Si4 0.859763 0.684811 0.723235
Si Si5 0.361116 0.182772 0.175043
Si Si6 0.232604 0.823689 0.578339
Si Si7 0.899758 0.685405 0.067514
Si Si8 0.622790 0.174592 0.440490
O O1 0.073555 0.500000 0.124034
O O2 0.121702 0.269011 0.092972
O O3 0.124999 0.271894 0.205695
O O4 0.986378 0.262799 0.089704
O O5 0.489069 0.500000 0.705309
O O6 0.429833 0.749185 0.719372
O O7 0.573165 0.749994 0.751756
O O8 0.446570 0.728068 0.621272
O O9 0.226480 0.743761 0.857358
O O10 0.302726 0.000000 0.911539
O O11 0.334541 0.767393 0.990447
O O12 0.863636 0.500000 0.720677
O O13 0.775857 0.732411 0.655520
O O14 0.383372 0.232707 0.122664
O O15 0.363471 0.000000 0.178306
O O16 0.304300 0.818608 0.568176
O O17 0.160210 0.733171 0.516289
O O18 0.209774 0.000000 0.573735
O O19 0.900712 0.500000 0.067947
O O20 0.597840 0.000000 0.432420
#
# Coordination Sequence:
#
# PCOD9191925 Si02
#       8
#     8   8   8   8   8   8   8   8
#     4   9  16  30  53  77 101 131 169 209 249 296
#     4  11  20  30  47  71  97 126 166 212 250 291
#     4  10  20  33  52  78 102 127 168 215 252 293
#     4   9  16  29  48  70  98 133 168 201 247 299
#     4  11  21  35  52  70 100 137 169 204 253 309
#     4   8  14  23  38  63  95 128 162 199 237 286
#     4   9  17  31  54  77  97 129 170 209 251 300
#     4   9  16  26  41  63  95 131 162 196 245 298
#
# _framework density 17.957681000000001
#
# number of rings (size 3 to 8) (size 9 to 14) (size 15 to 20)
#    0.000    2.500    1.250    3.375    0.000    4.500 
#    0.000    1.250    0.000    0.750    0.000    0.875 
#    0.000    7.000    0.000    0.000    0.000    0.000 
#
# Total GULP energy -178402.581318 kJ/mol
# GULP energy per Si atom -5575.080666 kJ/mol
# Density = 1.791681 g / cm^3
# Si number density = 17.957681 Si / 1000 Ang^3
#
#
#
# Elastic Constant Matrix: (Units=GPa)
#
#
# Indices 1 2 3 4 5 6 
#
# 1 34.9703 1.3275 -4.2620 0.0000 10.5998 0.0000
# 2 1.3275 32.7484 15.7417 0.0000 5.8617 0.0000
# 3 -4.2620 15.7417 80.8658 0.0000 21.3793 0.0000
# 4 0.0000 0.0000 0.0000 20.1019 0.0000 7.7602
# 5 10.5998 5.8617 21.3793 0.0000 15.1938 0.0000
# 6 0.0000 0.0000 0.0000 7.7602 0.0000 14.8368
#
#
#
# Elastic Compliance Matrix: (Units=1/GPa)
#
#
# Indices 1 2 3 4 5 6 
#
# 1 0.049180 -0.000114 0.018589 0.000000 -0.060422 0.000000
# 2 -0.000114 0.034036 -0.005065 0.000000 -0.005924 0.000000
# 3 0.018589 -0.005065 0.027459 0.000000 -0.049651 0.000000
# 4 0.000000 0.000000 0.000000 0.062332 0.000000 -0.032602
# 5 -0.060422 -0.005924 -0.049651 0.000000 0.180119 0.000000
# 6 0.000000 0.000000 0.000000 -0.032602 0.000000 0.084452
#
#
# Mechanical properties :
#
#
# Convention : Reuss Voigt Hill
#
# Bulk Modulus (GPa) = 7.27308 19.35542 13.31425
# Shear Modulus (GPa) = 10.95076 19.07834 15.01455
#
# Velocity S-wave (km/s) = 2.47211 3.26299 2.89469
# Velocity P-wave (km/s) = 3.49390 4.99979 4.31308
#
# Compressibility (1/GPa) = 0.13749329
#
# Stress axis : x y z
#
# Youngs Moduli (GPa) = 20.33346 29.38099 36.41842
#
# Poissons Ratio (x) = 0.00334 -0.67696
# Poissons Ratio (y) = 0.00231 0.18447
# Poissons Ratio (z) = -0.37797 0.14882
#
# Static dielectric constant tensor:
#      x y z
#    x 1.590930 0.000000 0.000820 
#    y 0.000000 1.604410 0.000000 
#    z 0.000820 0.000000 1.639440 
# 
# From -- ./inp_files/345623.got.cif
#   From: 2010.05.17/outbox.cif.g08.bks.cpg/sg12_173_cif.got.tgz:345623.got - 2010.06.03 13:09:07.
