data_PCOD9191972
_publ_section_title
;
Structure prediction by ZEFSAII (Michael W. Deem and Ramdas Pophale) SiO2 
 PCOD9191972
Probable space group: C 2/M
;
_chemical_formula_sum "Si O2"
_cell_formula_units_Z 64
_cell_length_a 32.063317
_cell_length_b 9.246264
_cell_length_c 16.347996
_cell_angle_alpha 90.000000
_cell_angle_beta 47.491618
_cell_angle_gamma 90.000000
_cell_volume 3572.826426
_symmetry_space_group_name_H-M "C 2/M"
_symmetry_group_IT_number 12
_symmetry_cell_setting 'monoclinic'
loop_
_space_group_symop_operation_xyz
x,y,z
-x,y,-z
-x,-y,-z
x,-y,z
1/2+x,1/2+y,z
1/2-x,1/2+y,-z
1/2-x,1/2-y,-z
1/2+x,1/2-y,z
loop_
_atom_site_type_symbol
_atom_site_label
_atom_site_fract_x
_atom_site_fract_y
_atom_site_fract_z
Si Si1 0.253204 0.841469 0.415320
Si Si2 0.926878 0.675418 0.370228
Si Si3 0.885939 0.659742 0.241700
Si Si4 0.834267 0.824628 0.606299
Si Si5 0.670477 0.328406 0.065581
Si Si6 0.214382 0.327437 0.168992
Si Si7 0.542226 0.325959 0.176715
Si Si8 0.941853 0.158780 0.028684
O O1 0.250000 0.750000 0.500000
O O2 0.319542 0.851619 0.314298
O O3 0.217618 0.787489 0.386116
O O4 0.229288 0.000000 0.465265
O O5 0.925647 0.500000 0.380433
O O6 0.900484 0.712195 0.314709
O O7 0.888768 0.751716 0.490563
O O8 0.990570 0.739109 0.285930
O O9 0.912322 0.500000 0.201909
O O10 0.906012 0.752746 0.139673
O O11 0.816009 0.756474 0.716897
O O12 0.840328 0.000000 0.604330
O O13 0.676249 0.500000 0.078059
O O14 0.687560 0.231311 0.120174
O O15 0.605251 0.302633 0.128262
O O16 0.717741 0.299953 0.932360
O O17 0.206552 0.500000 0.188226
O O18 0.530236 0.500000 0.195770
O O19 0.545564 0.279460 0.077184
O O20 0.916049 0.000000 0.048702
O O21 0.000000 0.143852 0.000000
#
# Coordination Sequence:
#
# PCOD9191972 Si02
#       8
#     8   8   8   8   8   8   8   8
#     4  10  21  36  53  78 111 150 193 235 278 330
#     4  11  22  37  57  81 115 155 195 240 286 332
#     4  10  21  35  50  74 111 150 189 235 283 326
#     4  11  23  38  59  85 115 154 195 235 285 343
#     4   9  20  40  64  88 117 150 184 229 287 345
#     4  10  21  39  64  91 118 146 183 234 288 342
#     4  10  21  38  58  84 116 152 194 235 281 340
#     4  10  20  33  52  78 110 149 192 230 270 327
#
# _framework density 17.912987999999999
#
# number of rings (size 3 to 8) (size 9 to 14) (size 15 to 20)
#    0.000    1.875    2.500    1.125    1.750    3.250 
#    0.000    0.625    0.000    3.750    0.000    0.000 
#    0.000    0.000    0.000    0.000    0.000    0.000 
#
# Total GULP energy -178264.540677 kJ/mol
# GULP energy per Si atom -5570.766896 kJ/mol
# Density = 1.787222 g / cm^3
# Si number density = 17.912988 Si / 1000 Ang^3
#
#
#
# Elastic Constant Matrix: (Units=GPa)
#
#
# Indices 1 2 3 4 5 6 
#
# 1 74.1157 30.6169 49.2198 0.0000 -12.4491 0.0000
# 2 30.6169 74.7753 79.5493 0.0001 -3.2665 -0.0001
# 3 49.2198 79.5493 160.0281 0.0000 -2.4588 0.0000
# 4 0.0000 0.0001 0.0000 36.2998 0.0000 0.0972
# 5 -12.4491 -3.2665 -2.4588 0.0000 28.0256 0.0000
# 6 0.0000 -0.0001 0.0000 0.0972 0.0000 24.9041
#
#
#
# Elastic Compliance Matrix: (Units=1/GPa)
#
#
# Indices 1 2 3 4 5 6 
#
# 1 0.018764 -0.002833 -0.004246 0.000000 0.007633 0.000000
# 2 -0.002833 0.028932 -0.013496 0.000000 0.000930 0.000000
# 3 -0.004246 -0.013496 0.014230 0.000000 -0.002211 0.000000
# 4 0.000000 0.000000 0.000000 0.027549 0.000000 -0.000107
# 5 0.007633 0.000930 -0.002211 0.000000 0.038987 0.000000
# 6 0.000000 0.000000 0.000000 -0.000107 0.000000 0.040154
#
#
# Mechanical properties :
#
#
# Convention : Reuss Voigt Hill
#
# Bulk Modulus (GPa) = 48.13223 69.74346 58.93784
# Shear Modulus (GPa) = 23.07432 27.81476 25.44454
#
# Velocity S-wave (km/s) = 3.59295 3.94480 3.77298
# Velocity P-wave (km/s) = 6.64385 7.73095 7.20793
#
# Compressibility (1/GPa) = 0.02077610
#
# Stress axis : x y z
#
# Youngs Moduli (GPa) = 53.29263 34.56390 70.27467
#
# Poissons Ratio (x) = 0.09791 0.29839
# Poissons Ratio (y) = 0.15096 0.94846
# Poissons Ratio (z) = 0.22628 0.46649
#
# Static dielectric constant tensor:
#      x y z
#    x 1.656180 0.000000 0.018170 
#    y 0.000000 1.681200 0.000000 
#    z 0.018170 0.000000 1.594170 
# 
# From -- ./inp_files/249804.got.cif
#   From: 2010.05.17/outbox.cif.g08.bks.cpg/sg12_125_cif.got.tgz:249804.got - 2010.06.03 13:09:07.
