data_PCOD9191265
_publ_section_title
;
Structure prediction by ZEFSAII (Michael W. Deem and Ramdas Pophale) SiO2 
 PCOD9191265
Probable space group: C 2/M
;
_chemical_formula_sum "Si O2"
_cell_formula_units_Z 56
_cell_length_a 14.620853
_cell_length_b 7.391393
_cell_length_c 26.989598
_cell_angle_alpha 90.000000
_cell_angle_beta 57.796026
_cell_angle_gamma 90.000000
_cell_volume 2468.004595
_symmetry_space_group_name_H-M "C 2/M"
_symmetry_group_IT_number 12
_symmetry_cell_setting 'monoclinic'
loop_
_space_group_symop_operation_xyz
x,y,z
-x,y,-z
-x,-y,-z
x,-y,z
1/2+x,1/2+y,z
1/2-x,1/2+y,-z
1/2-x,1/2-y,-z
1/2+x,1/2-y,z
loop_
_atom_site_type_symbol
_atom_site_label
_atom_site_fract_x
_atom_site_fract_y
_atom_site_fract_z
Si Si1 0.755321 0.278324 0.386809
Si Si2 0.400446 0.209856 0.844391
Si Si3 0.162269 0.717975 0.926585
Si Si4 0.434157 0.220522 0.944966
Si Si5 0.597700 0.287698 0.512424
Si Si6 0.988217 0.714089 0.285326
Si Si7 0.569190 0.717348 0.364546
O O1 0.755675 0.500000 0.388546
O O2 0.703356 0.214903 0.453986
O O3 0.670915 0.224443 0.368033
O O4 0.873732 0.213372 0.337962
O O5 0.272821 0.216876 0.871029
O O6 0.414422 0.288488 0.895384
O O7 0.467341 0.288592 0.779259
O O8 0.433089 0.000000 0.839113
O O9 0.165263 0.500000 0.925913
O O10 0.054065 0.770502 0.928766
O O11 0.147236 0.780251 0.987987
O O12 0.428522 0.000000 0.946325
O O13 0.500000 0.276134 0.500000
O O14 0.617835 0.500000 0.515087
O O15 0.541658 0.211056 0.577786
O O16 0.972629 0.500000 0.282837
O O17 0.071440 0.736744 0.306457
O O18 0.566025 0.500000 0.369587
#
# Coordination Sequence:
#
# PCOD9191265 Si02
#       7
#     8   8   8   8   8   8   8
#     4   8  15  30  50  69  92 125 160 191 233 292
#     4  10  20  33  47  67  99 133 159 187 229 281
#     4   9  17  32  55  78  95 117 155 200 238 272
#     4   8  16  32  53  75  98 123 153 191 236 283
#     4   7  11  23  46  72  91 111 149 200 243 277
#     4  10  21  33  45  66  97 132 163 188 226 283
#     4   9  17  31  52  73  91 117 159 206 241 274
#
# _framework density 22.690394999999999
#
# number of rings (size 3 to 8) (size 9 to 14) (size 15 to 20)
#    0.000    3.286    0.000    3.000    0.000    2.286 
#    0.000    5.714    0.000    3.857    0.000    0.000 
#    0.000    0.000    0.000    0.000    0.000    0.000 
#
# Total GULP energy -156269.848430 kJ/mol
# GULP energy per Si atom -5581.066015 kJ/mol
# Density = 2.263875 g / cm^3
# Si number density = 22.690395 Si / 1000 Ang^3
#
#
#
# Elastic Constant Matrix: (Units=GPa)
#
#
# Indices 1 2 3 4 5 6 
#
# 1 49.4204 -7.1049 37.1239 0.0000 -4.5123 0.0000
# 2 -7.1049 78.6613 3.5912 0.0000 0.0271 -0.0001
# 3 37.1239 3.5912 135.0287 0.0000 2.1673 0.0000
# 4 0.0000 0.0000 0.0000 9.4411 0.0000 0.0417
# 5 -4.5123 0.0271 2.1673 0.0000 19.0471 0.0000
# 6 0.0000 -0.0001 0.0000 0.0417 0.0000 13.1240
#
#
#
# Elastic Compliance Matrix: (Units=1/GPa)
#
#
# Indices 1 2 3 4 5 6 
#
# 1 0.027023 0.002786 -0.007620 0.000000 0.007265 0.000000
# 2 0.002786 0.013015 -0.001125 0.000000 0.000770 0.000000
# 3 -0.007620 -0.001125 0.009577 0.000000 -0.002893 0.000000
# 4 0.000000 0.000000 0.000000 0.105921 0.000000 -0.000336
# 5 0.007265 0.000770 -0.002893 0.000000 0.054551 0.000000
# 6 0.000000 0.000000 0.000000 -0.000336 0.000000 0.076197
#
#
# Mechanical properties :
#
#
# Convention : Reuss Voigt Hill
#
# Bulk Modulus (GPa) = 26.52640 36.70340 31.61490
# Shear Modulus (GPa) = 16.08920 23.62245 19.85583
#
# Velocity S-wave (km/s) = 2.66574 3.23007 2.96138
# Velocity P-wave (km/s) = 4.60335 5.48835 5.06522
#
# Compressibility (1/GPa) = 0.03769829
#
# Stress axis : x y z
#
# Youngs Moduli (GPa) = 37.00611 76.83169 104.41461
#
# Poissons Ratio (x) = -0.21406 0.79565
# Poissons Ratio (y) = -0.10310 0.11742
# Poissons Ratio (z) = 0.28199 0.08640
#
# Static dielectric constant tensor:
#      x y z
#    x 1.832380 0.000000 0.006850 
#    y 0.000000 1.891780 0.000000 
#    z 0.006850 0.000000 1.849050 
# 
# From -- ./inp_files/335120.got.cif
#   From: 2010.05.17/outbox.cif.g08.bks.cpg/sg12_168_cif.got.tgz:335120.got - 2010.06.03 13:09:07.
