data_PCOD9191680
_publ_section_title
;
Structure prediction by ZEFSAII (Michael W. Deem and Ramdas Pophale) SiO2 
 PCOD9191680
Probable space group: C 2/M
;
_chemical_formula_sum "Si O2"
_cell_formula_units_Z 58
_cell_length_a 14.408379
_cell_length_b 7.646765
_cell_length_c 23.720046
_cell_angle_alpha 90.000000
_cell_angle_beta 78.005870
_cell_angle_gamma 90.000000
_cell_volume 2556.361354
_symmetry_space_group_name_H-M "C 2/M"
_symmetry_group_IT_number 12
_symmetry_cell_setting 'monoclinic'
loop_
_space_group_symop_operation_xyz
x,y,z
-x,y,-z
-x,-y,-z
x,-y,z
1/2+x,1/2+y,z
1/2-x,1/2+y,-z
1/2-x,1/2-y,-z
1/2+x,1/2-y,z
loop_
_atom_site_type_symbol
_atom_site_label
_atom_site_fract_x
_atom_site_fract_y
_atom_site_fract_z
Si Si1 0.811625 0.204816 0.076434
Si Si2 0.947097 0.296588 0.151927
Si Si3 0.500000 0.000000 0.500000
Si Si4 0.742693 0.292430 0.618360
Si Si5 0.112106 0.712460 0.050612
Si Si6 0.447836 0.786257 0.631672
Si Si7 0.566292 0.790713 0.720775
Si Si8 0.378879 0.299961 0.468986
O O1 0.850971 0.287642 0.128210
O O2 0.710618 0.271372 0.066912
O O3 0.801645 0.000000 0.088398
O O4 0.883134 0.231704 0.014973
O O5 0.973149 0.500000 0.156088
O O6 0.026860 0.221136 0.100129
O O7 0.939259 0.218751 0.215267
O O8 0.583687 0.846080 0.493054
O O9 0.750323 0.500000 0.612471
O O10 0.843342 0.226664 0.628138
O O11 0.660281 0.259320 0.674387
O O12 0.706106 0.233563 0.561326
O O13 0.109849 0.500000 0.049364
O O14 0.475534 0.751104 0.692942
O O15 0.531222 0.698954 0.585637
O O16 0.458733 0.000000 0.618967
O O17 0.570351 0.000000 0.723884
O O18 0.366259 0.500000 0.490183
#
# Coordination Sequence:
#
# PCOD9191680 Si02
#       8
#     8   8   2   8   8   8   8   8
#     4  10  20  33  51  74  97 131 175 221 275 330
#     4  10  20  34  50  73 105 138 177 220 272 329
#     4  12  22  40  64  86 128 162 190 240 290 326
#     4   9  19  35  60  85 112 146 191 232 278 336
#     4   9  19  35  52  69  97 137 177 214 268 340
#     4   9  17  36  61  83 111 151 191 231 279 337
#     4   9  19  33  53  80 106 141 183 226 277 333
#     4  10  21  38  61  89 120 158 197 236 285 334
#
# _framework density 22.688497000000002
#
# number of rings (size 3 to 8) (size 9 to 14) (size 15 to 20)
#    0.000    2.483    0.690    1.034    0.966    4.966 
#    0.000    3.448    0.000    0.000    0.000    0.000 
#    0.000    0.000    0.000    0.000    0.000    0.000 
#
# Total GULP energy -161799.505094 kJ/mol
# GULP energy per Si atom -5579.293279 kJ/mol
# Density = 2.263686 g / cm^3
# Si number density = 22.688497 Si / 1000 Ang^3
#
#
#
# Elastic Constant Matrix: (Units=GPa)
#
#
# Indices 1 2 3 4 5 6 
#
# 1 132.7563 18.7723 50.3388 0.0000 20.4209 0.0000
# 2 18.7723 74.0355 22.4538 0.0000 10.8477 0.0000
# 3 50.3388 22.4538 133.9777 0.0000 20.1289 0.0000
# 4 0.0000 0.0000 0.0000 20.4348 0.0000 1.4688
# 5 20.4209 10.8477 20.1289 0.0000 21.4499 0.0000
# 6 0.0000 0.0000 0.0000 1.4688 0.0000 25.3518
#
#
#
# Elastic Compliance Matrix: (Units=1/GPa)
#
#
# Indices 1 2 3 4 5 6 
#
# 1 0.009571 -0.000729 -0.002515 0.000000 -0.006383 0.000000
# 2 -0.000729 0.014927 -0.001395 0.000000 -0.005547 0.000000
# 3 -0.002515 -0.001395 0.009519 0.000000 -0.005833 0.000000
# 4 0.000000 0.000000 0.000000 0.049141 0.000000 -0.002847
# 5 -0.006383 -0.005547 -0.005833 0.000000 0.060976 0.000000
# 6 0.000000 0.000000 0.000000 -0.002847 0.000000 0.039610
#
#
# Mechanical properties :
#
#
# Convention : Reuss Voigt Hill
#
# Bulk Modulus (GPa) = 40.41887 58.21103 49.31495
# Shear Modulus (GPa) = 24.84245 30.06094 27.45169
#
# Velocity S-wave (km/s) = 3.31257 3.64392 3.48219
# Velocity P-wave (km/s) = 5.69949 6.58912 6.16039
#
# Compressibility (1/GPa) = 0.02474092
#
# Stress axis : x y z
#
# Youngs Moduli (GPa) = 104.48020 66.99061 105.05353
#
# Poissons Ratio (x) = 0.04882 0.26420
# Poissons Ratio (y) = 0.07615 0.14651
# Poissons Ratio (z) = 0.26276 0.09342
#
# Static dielectric constant tensor:
#      x y z
#    x 1.884050 0.000000 0.014700 
#    y 0.000000 1.863880 0.000000 
#    z 0.014700 0.000000 2.029770 
# 
# From -- ./inp_files/338007.got.cif
#   From: 2010.05.17/outbox.cif.g08.bks.cpg/sg12_170_cif.got.tgz:338007.got - 2010.06.03 13:09:07.
