data_PCOD9191791
_publ_section_title
;
Structure prediction by ZEFSAII (Michael W. Deem and Ramdas Pophale) SiO2 
 PCOD9191791
Probable space group: C 2/M
;
_chemical_formula_sum "Si O2"
_cell_formula_units_Z 56
_cell_length_a 18.825880
_cell_length_b 7.848151
_cell_length_c 19.412716
_cell_angle_alpha 90.000000
_cell_angle_beta 75.664492
_cell_angle_gamma 90.000000
_cell_volume 2778.888182
_symmetry_space_group_name_H-M "C 2/M"
_symmetry_group_IT_number 12
_symmetry_cell_setting 'monoclinic'
loop_
_space_group_symop_operation_xyz
x,y,z
-x,y,-z
-x,-y,-z
x,-y,z
1/2+x,1/2+y,z
1/2-x,1/2+y,-z
1/2-x,1/2-y,-z
1/2+x,1/2-y,z
loop_
_atom_site_type_symbol
_atom_site_label
_atom_site_fract_x
_atom_site_fract_y
_atom_site_fract_z
Si Si1 0.971641 0.794934 0.433627
Si Si2 0.311256 0.297292 0.430442
Si Si3 0.082225 0.708651 0.999945
Si Si4 0.511818 0.205506 0.277066
Si Si5 0.131532 0.705052 0.139420
Si Si6 0.296664 0.205658 0.139610
Si Si7 0.650804 0.203442 0.724993
O O1 0.890122 0.728416 0.436617
O O2 0.000000 0.729889 0.500000
O O3 0.019847 0.752922 0.355140
O O4 0.967721 0.000000 0.439250
O O5 0.316013 0.500000 0.426751
O O6 0.250000 0.250000 0.500000
O O7 0.301091 0.237366 0.354450
O O8 0.082246 0.500000 0.000000
O O9 0.141908 0.764638 0.929386
O O10 0.105979 0.765930 0.070330
O O11 0.000000 0.762002 0.000000
O O12 0.576312 0.268153 0.212010
O O13 0.431737 0.268951 0.270672
O O14 0.510439 0.000000 0.273689
O O15 0.125480 0.500000 0.139728
O O16 0.215297 0.747769 0.135552
O O17 0.315872 0.269528 0.211757
O O18 0.300370 0.000000 0.139955
O O19 0.644300 0.000000 0.733668
#
# Coordination Sequence:
#
# PCOD9191791 Si02
#       7
#     8   8   8   8   8   8   8
#     4   9  19  35  53  73  98 129 165 205 249 297
#     4  10  20  34  53  76 102 133 168 207 253 302
#     4   9  17  32  55  78 100 133 176 214 248 293
#     4   9  18  33  52  73  97 129 169 208 247 293
#     4  10  20  33  51  77 107 134 164 209 258 301
#     4  10  20  33  52  77 103 134 170 208 253 302
#     4   9  18  34  53  72  97 131 173 214 248 293
#
# _framework density 20.151945000000001
#
# number of rings (size 3 to 8) (size 9 to 14) (size 15 to 20)
#    0.000    2.571    0.000    1.714    0.000    6.571 
#    0.000    4.286    0.000    3.429    0.000    0.000 
#    0.000    0.000    0.000    0.000    0.000    0.000 
#
# Total GULP energy -156276.079888 kJ/mol
# GULP energy per Si atom -5581.288567 kJ/mol
# Density = 2.010608 g / cm^3
# Si number density = 20.151945 Si / 1000 Ang^3
#
#
#
# Elastic Constant Matrix: (Units=GPa)
#
#
# Indices 1 2 3 4 5 6 
#
# 1 135.8369 1.8077 126.3090 0.0000 6.7541 0.0000
# 2 1.8077 19.5505 4.1301 0.0000 4.5110 0.0000
# 3 126.3090 4.1301 239.7709 0.0000 8.2682 0.0000
# 4 0.0000 0.0000 0.0000 13.9675 0.0000 0.4196
# 5 6.7541 4.5110 8.2682 0.0000 41.0333 0.0000
# 6 0.0000 0.0000 0.0000 0.4196 0.0000 22.4965
#
#
#
# Elastic Compliance Matrix: (Units=1/GPa)
#
#
# Indices 1 2 3 4 5 6 
#
# 1 0.014464 0.000476 -0.007597 0.000000 -0.000902 0.000000
# 2 0.000476 0.052617 -0.000961 0.000000 -0.005669 0.000000
# 3 -0.007597 -0.000961 0.008199 0.000000 -0.000296 0.000000
# 4 0.000000 0.000000 0.000000 0.071635 0.000000 -0.001336
# 5 -0.000902 -0.005669 -0.000296 0.000000 0.025202 0.000000
# 6 0.000000 0.000000 0.000000 -0.001336 0.000000 0.044476
#
#
# Mechanical properties :
#
#
# Convention : Reuss Voigt Hill
#
# Bulk Modulus (GPa) = 16.91608 73.29463 45.10536
# Shear Modulus (GPa) = 19.80490 33.02691 26.41590
#
# Velocity S-wave (km/s) = 3.13833 4.05272 3.62448
# Velocity P-wave (km/s) = 4.64162 7.63867 6.32036
#
# Compressibility (1/GPa) = 0.05911536
#
# Stress axis : x y z
#
# Youngs Moduli (GPa) = 69.13678 19.00534 121.96253
#
# Poissons Ratio (x) = -0.00904 0.92650
# Poissons Ratio (y) = -0.03288 0.11726
# Poissons Ratio (z) = 0.52521 0.01827
#
# Static dielectric constant tensor:
#      x y z
#    x 1.689550 0.000000 0.023840 
#    y 0.000000 1.744470 0.000000 
#    z 0.023840 0.000000 1.642570 
# 
# From -- ./inp_files/275344.got.cif
#   From: 2010.05.17/outbox.cif.g08.bks.cpg/sg12_138_cif.got.tgz:275344.got - 2010.06.03 13:09:07.
