data_PCOD9191122
_publ_section_title
;
Structure prediction by ZEFSAII (Michael W. Deem and Ramdas Pophale) SiO2 
 PCOD9191122
Probable space group: C 2/M
;
_chemical_formula_sum "Si O2"
_cell_formula_units_Z 52
_cell_length_a 22.110124
_cell_length_b 18.396899
_cell_length_c 8.329815
_cell_angle_alpha 90.000000
_cell_angle_beta 138.737607
_cell_angle_gamma 90.000000
_cell_volume 2234.557343
_symmetry_space_group_name_H-M "C 2/M"
_symmetry_group_IT_number 12
_symmetry_cell_setting 'monoclinic'
loop_
_space_group_symop_operation_xyz
x,y,z
-x,y,-z
-x,-y,-z
x,-y,z
1/2+x,1/2+y,z
1/2-x,1/2+y,-z
1/2-x,1/2-y,-z
1/2+x,1/2-y,z
loop_
_atom_site_type_symbol
_atom_site_label
_atom_site_fract_x
_atom_site_fract_y
_atom_site_fract_z
Si Si1 0.607561 0.774668 0.171016
Si Si2 0.000000 0.133366 0.500000
Si Si3 0.302710 0.849702 0.100638
Si Si4 0.595649 0.578725 0.256261
Si Si5 0.640362 0.730344 0.595451
Si Si6 0.707144 0.916764 0.230913
Si Si7 0.148293 0.870501 0.041932
O O1 0.646724 0.746543 0.420027
O O2 0.844851 0.649044 0.781691
O O3 0.500000 0.784675 0.000000
O O4 0.625546 0.711018 0.071624
O O5 0.940820 0.177856 0.512045
O O6 0.925814 0.099519 0.233639
O O7 0.235848 0.798856 0.857653
O O8 0.326642 0.910680 0.021042
O O9 0.241241 0.871185 0.129111
O O10 0.380335 0.801923 0.338003
O O11 0.563936 0.500000 0.251355
O O12 0.681464 0.596782 0.542891
O O13 0.500000 0.615885 0.000000
O O14 0.650706 0.579626 0.200374
O O15 0.692937 0.000000 0.259336
#
# Coordination Sequence:
#
# PCOD9191122 Si02
#       7
#     8   4   8   8   8   8   8
#     4  12  23  39  67  97 126 168 209 266 316 377
#     4  10  20  32  53  92 131 150 190 254 302 376
#     4  10  22  37  60  88 125 163 202 262 317 374
#     4  10  23  41  61  89 127 168 212 262 316 380
#     4  10  20  36  59  92 124 156 200 252 324 370
#     4  11  25  44  63  88 127 172 220 265 312 373
#     4  11  22  37  61  97 124 160 208 257 317 380
#
# _framework density 23.270828000000002
#
# number of rings (size 3 to 8) (size 9 to 14) (size 15 to 20)
#    0.000    1.385    1.538    5.077    4.308    2.769 
#    0.000    1.154    0.000    0.923    0.000    0.000 
#    0.000    0.000    0.000    0.000    0.000    0.000 
#
# Total GULP energy -144841.427483 kJ/mol
# GULP energy per Si atom -5570.824134 kJ/mol
# Density = 2.321786 g / cm^3
# Si number density = 23.270828 Si / 1000 Ang^3
#
#
#
# Elastic Constant Matrix: (Units=GPa)
#
#
# Indices 1 2 3 4 5 6 
#
# 1 94.1300 25.0912 -21.2148 0.0000 -10.8871 0.0000
# 2 25.0912 104.5675 -4.8524 0.0000 2.5111 0.0000
# 3 -21.2148 -4.8524 48.4207 0.0000 -18.7599 0.0000
# 4 0.0000 0.0000 0.0000 7.7927 0.0000 0.3051
# 5 -10.8871 2.5111 -18.7599 0.0000 44.6946 0.0000
# 6 0.0000 0.0000 0.0000 0.3051 0.0000 18.1371
#
#
#
# Elastic Compliance Matrix: (Units=1/GPa)
#
#
# Indices 1 2 3 4 5 6 
#
# 1 0.014312 -0.003203 0.008801 0.000000 0.007361 0.000000
# 2 -0.003203 0.010325 -0.001069 0.000000 -0.001809 0.000000
# 3 0.008801 -0.001069 0.030160 0.000000 0.014863 0.000000
# 4 0.000000 0.000000 0.000000 0.128409 0.000000 -0.002160
# 5 0.007361 -0.001809 0.014863 0.000000 0.030507 0.000000
# 6 0.000000 0.000000 0.000000 -0.002160 0.000000 0.055172
#
#
# Mechanical properties :
#
#
# Convention : Reuss Voigt Hill
#
# Bulk Modulus (GPa) = 15.66004 27.24071 21.45037
# Shear Modulus (GPa) = 17.78649 30.66450 24.22549
#
# Velocity S-wave (km/s) = 2.76764 3.63398 3.22999
# Velocity P-wave (km/s) = 4.11791 5.41656 4.81126
#
# Compressibility (1/GPa) = 0.06385679
#
# Stress axis : x y z
#
# Youngs Moduli (GPa) = 69.87017 96.84773 33.15661
#
# Poissons Ratio (x) = 0.31016 -0.29183
# Poissons Ratio (y) = 0.22377 0.03545
# Poissons Ratio (z) = -0.61496 0.10356
#
# Static dielectric constant tensor:
#      x y z
#    x 1.910480 0.000000 -0.017820 
#    y 0.000000 2.036820 0.000000 
#    z -0.017820 0.000000 1.999790 
# 
# From -- ./inp_files/113118.got.cif
#   From: 2010.05.17/outbox.cif.g08.bks.cpg/sg12_57_cif.got.tgz:113118.got - 2010.06.03 13:09:07.
