data_PCOD9191785
_publ_section_title
;
Structure prediction by ZEFSAII (Michael W. Deem and Ramdas Pophale) SiO2 
 PCOD9191785
Probable space group: C 2/M
;
_chemical_formula_sum "Si O2"
_cell_formula_units_Z 56
_cell_length_a 21.040187
_cell_length_b 7.411182
_cell_length_c 18.134731
_cell_angle_alpha 90.000000
_cell_angle_beta 64.747252
_cell_angle_gamma 90.000000
_cell_volume 2557.557469
_symmetry_space_group_name_H-M "C 2/M"
_symmetry_group_IT_number 12
_symmetry_cell_setting 'monoclinic'
loop_
_space_group_symop_operation_xyz
x,y,z
-x,y,-z
-x,-y,-z
x,-y,z
1/2+x,1/2+y,z
1/2-x,1/2+y,-z
1/2-x,1/2-y,-z
1/2+x,1/2-y,z
loop_
_atom_site_type_symbol
_atom_site_label
_atom_site_fract_x
_atom_site_fract_y
_atom_site_fract_z
Si Si1 0.614703 0.281324 0.228901
Si Si2 0.361140 0.278859 0.241040
Si Si3 0.575457 0.211652 0.487681
Si Si4 0.297520 0.210424 0.671450
Si Si5 0.455202 0.717636 0.332372
Si Si6 0.832636 0.215373 0.955779
Si Si7 0.580229 0.720417 0.946552
O O1 0.614771 0.500000 0.228939
O O2 0.670559 0.222536 0.262400
O O3 0.536208 0.220787 0.288984
O O4 0.635530 0.217637 0.137062
O O5 0.361005 0.500000 0.240366
O O6 0.281185 0.215425 0.291809
O O7 0.411354 0.222267 0.283064
O O8 0.390811 0.221611 0.147054
O O9 0.500000 0.289434 0.500000
O O10 0.642802 0.289331 0.411997
O O11 0.579272 0.227349 0.573516
O O12 0.573508 0.000000 0.468122
O O13 0.289883 0.000000 0.655152
O O14 0.456572 0.500000 0.330187
O O15 0.843239 0.000000 0.949906
O O16 0.750000 0.250000 0.000000
O O17 0.871634 0.282987 0.009475
O O18 0.581398 0.500000 0.945474
O O19 0.500000 0.774710 0.000000
#
# Coordination Sequence:
#
# PCOD9191785 Si02
#       7
#     8   8   8   8   8   8   8
#     4  10  20  33  51  77 106 133 168 215 260 300
#     4   9  18  32  50  75 102 132 170 210 252 300
#     4  10  20  35  53  76 104 135 172 210 250 304
#     4  10  20  35  55  75 102 138 174 210 252 306
#     4  10  20  34  54  78 104 132 168 214 260 303
#     4  10  20  33  51  77 105 135 171 212 256 301
#     4   9  16  29  51  75 101 133 170 209 250 299
#
# _framework density 21.895893000000001
#
# number of rings (size 3 to 8) (size 9 to 14) (size 15 to 20)
#    0.000    2.286    1.429    1.714    0.000    6.571 
#    0.000    0.714    0.000    1.286    0.000    0.000 
#    0.000    0.000    0.000    0.000    0.000    0.000 
#
# Total GULP energy -156500.629037 kJ/mol
# GULP energy per Si atom -5589.308180 kJ/mol
# Density = 2.184606 g / cm^3
# Si number density = 21.895893 Si / 1000 Ang^3
#
#
#
# Elastic Constant Matrix: (Units=GPa)
#
#
# Indices 1 2 3 4 5 6 
#
# 1 117.5025 -11.9384 24.6176 -0.0001 -6.2591 -0.0003
# 2 -11.9384 68.8320 -12.4108 -0.0002 -10.1540 -0.0003
# 3 24.6176 -12.4108 124.0957 0.0001 -4.7409 0.0001
# 4 -0.0001 -0.0002 0.0001 16.2770 -0.0001 13.2054
# 5 -6.2591 -10.1540 -4.7409 -0.0001 37.1966 -0.0001
# 6 -0.0003 -0.0003 0.0001 13.2054 -0.0001 9.6373
#
#
#
# Elastic Compliance Matrix: (Units=1/GPa)
#
#
# Indices 1 2 3 4 5 6 
#
# 1 0.009093 0.001550 -0.001582 0.000002 0.001752 -0.000002
# 2 0.001550 0.015759 0.001450 0.000002 0.004748 -0.000002
# 3 -0.001582 0.001450 0.008564 -0.000001 0.001221 0.000001
# 4 0.000002 0.000002 -0.000001 -0.550139 0.000003 0.753825
# 5 0.001752 0.004748 0.001221 0.000003 0.028631 -0.000003
# 6 -0.000002 -0.000002 0.000001 0.753825 -0.000003 -0.929162
#
#
# Mechanical properties :
#
#
# Convention : Reuss Voigt Hill
#
# Bulk Modulus (GPa) = 27.58483 34.55189 31.06836
# Shear Modulus (GPa) = -3.55112 33.29963 14.87426
#
# Velocity S-wave (km/s) = -1.27489 3.90400 2.60920
# Velocity P-wave (km/s) = 3.23395 6.01132 4.82671
#
# Compressibility (1/GPa) = 0.03625181
#
# Stress axis : x y z
#
# Youngs Moduli (GPa) = 109.97876 63.45668 116.77141
#
# Poissons Ratio (x) = -0.09837 0.18471
# Poissons Ratio (y) = -0.17049 -0.16930
# Poissons Ratio (z) = 0.17397 -0.09200
#
# Static dielectric constant tensor:
#      x y z
#    x 1.743590 0.000000 -0.013510 
#    y 0.000000 1.832450 0.000000 
#    z -0.013510 0.000000 1.758330 
# 
# From -- ./inp_files/223177.got.cif
#   From: 2010.05.17/outbox.cif.g08.bks.cpg/sg12_112_cif.got.tgz:223177.got - 2010.06.03 13:09:07.
