data_PCOD9191291
_publ_section_title
;
Structure prediction by ZEFSAII (Michael W. Deem and Ramdas Pophale) SiO2 
 PCOD9191291
Probable space group: C 2/M
;
_chemical_formula_sum "Si O2"
_cell_formula_units_Z 64
_cell_length_a 13.791121
_cell_length_b 31.075532
_cell_length_c 9.190011
_cell_angle_alpha 90.000000
_cell_angle_beta 94.697360
_cell_angle_gamma 90.000000
_cell_volume 3925.301244
_symmetry_space_group_name_H-M "C 2/M"
_symmetry_group_IT_number 12
_symmetry_cell_setting 'monoclinic'
loop_
_space_group_symop_operation_xyz
x,y,z
-x,y,-z
-x,-y,-z
x,-y,z
1/2+x,1/2+y,z
1/2-x,1/2+y,-z
1/2-x,1/2-y,-z
1/2+x,1/2-y,z
loop_
_atom_site_type_symbol
_atom_site_label
_atom_site_fract_x
_atom_site_fract_y
_atom_site_fract_z
Si Si1 0.877528 0.816274 0.102740
Si Si2 0.248523 0.807983 0.202391
Si Si3 0.890477 0.950309 0.418191
Si Si4 0.342791 0.381996 0.629595
Si Si5 0.024774 0.907652 0.849667
Si Si6 0.135800 0.264148 0.383956
Si Si7 0.463462 0.223923 0.152690
Si Si8 0.827731 0.807978 0.420403
O O1 0.928788 0.862060 0.101028
O O2 0.948157 0.775347 0.128973
O O3 0.825117 0.816498 0.250965
O O4 0.807086 0.809814 0.958489
O O5 0.232549 0.853562 0.283894
O O6 0.192845 0.769950 0.284876
O O7 0.359879 0.795698 0.186000
O O8 0.823288 0.922257 0.519520
O O9 0.905016 0.931462 0.257292
O O10 0.000000 0.948306 0.500000
O O11 0.860793 0.000000 0.409938
O O12 0.426300 0.396869 0.749943
O O13 0.376199 0.346275 0.515746
O O14 0.000000 0.930619 0.000000
O O15 0.116211 0.235007 0.523202
O O16 0.214238 0.299498 0.442094
O O17 0.045405 0.282011 0.285071
O O18 0.500000 0.207178 0.000000
#
# Coordination Sequence:
#
# PCOD9191291 Si02
#       8
#     8   8   8   8   8   8   8   8
#     4  12  19  32  48  70  98 135 179 217 244 290
#     4  11  21  35  51  69  99 137 183 217 252 302
#     4   9  19  35  55  78 105 132 159 199 253 309
#     4  10  20  35  50  72 102 133 172 208 249 301
#     4  11  20  32  52  77 101 140 174 199 244 301
#     4  10  21  36  45  69  98 134 181 223 261 290
#     4  12  22  32  50  70 100 143 181 222 264 289
#     4  10  20  33  48  67  99 132 174 223 252 290
#
# _framework density 16.304480000000002
#
# number of rings (size 3 to 8) (size 9 to 14) (size 15 to 20)
#    0.000    1.375    5.000    3.000    0.000    1.750 
#    0.000    0.000    0.000    0.000    0.000    0.000 
#    0.000    2.500    0.000    0.125    0.000    0.000 
#
# Total GULP energy -178354.944358 kJ/mol
# GULP energy per Si atom -5573.592011 kJ/mol
# Density = 1.626737 g / cm^3
# Si number density = 16.304480 Si / 1000 Ang^3
#
#
#
# Elastic Constant Matrix: (Units=GPa)
#
#
# Indices 1 2 3 4 5 6 
#
# 1 48.1082 2.4744 18.7922 0.0000 5.8495 0.0000
# 2 2.4744 29.2531 15.9095 0.0000 -3.7694 0.0000
# 3 18.7922 15.9095 119.0263 0.0000 7.3221 0.0000
# 4 0.0000 0.0000 0.0000 8.1385 0.0000 -1.9237
# 5 5.8495 -3.7694 7.3221 0.0000 23.6214 0.0000
# 6 0.0000 0.0000 0.0000 -1.9237 0.0000 6.4822
#
#
#
# Elastic Compliance Matrix: (Units=1/GPa)
#
#
# Indices 1 2 3 4 5 6 
#
# 1 0.022646 -0.000800 -0.003176 0.000000 -0.004751 0.000000
# 2 -0.000800 0.038264 -0.005480 0.000000 0.008003 0.000000
# 3 -0.003176 -0.005480 0.009828 0.000000 -0.003135 0.000000
# 4 0.000000 0.000000 0.000000 0.132143 0.000000 0.039215
# 5 -0.004751 0.008003 -0.003135 0.000000 0.045760 0.000000
# 6 0.000000 0.000000 0.000000 0.039215 0.000000 0.165905
#
#
# Mechanical properties :
#
#
# Convention : Reuss Voigt Hill
#
# Bulk Modulus (GPa) = 19.29598 30.08220 24.68909
# Shear Modulus (GPa) = 11.09300 18.26251 14.67776
#
# Velocity S-wave (km/s) = 2.61121 3.35041 3.00364
# Velocity P-wave (km/s) = 4.57730 5.78423 5.21579
#
# Compressibility (1/GPa) = 0.05182426
#
# Stress axis : x y z
#
# Youngs Moduli (GPa) = 44.15786 26.13433 101.74672
#
# Poissons Ratio (x) = 0.02092 0.32316
# Poissons Ratio (y) = 0.03534 0.55762
# Poissons Ratio (z) = 0.14025 0.14323
#
# Static dielectric constant tensor:
#      x y z
#    x 1.580240 0.000000 -0.071650 
#    y 0.000000 1.549430 0.000000 
#    z -0.071650 0.000000 1.657280 
# 
# From -- ./inp_files/67898.got.cif
#   From: 2010.05.17/outbox.cif.g08.bks.cpg/sg12_34_cif.got.tgz:67898.got - 2010.06.03 13:09:07.
