data_PCOD9191042
_publ_section_title
;
Structure prediction by ZEFSAII (Michael W. Deem and Ramdas Pophale) SiO2 
 PCOD9191042
Probable space group: C 2/M
;
_chemical_formula_sum "Si O2"
_cell_formula_units_Z 56
_cell_length_a 16.774686
_cell_length_b 24.516373
_cell_length_c 10.635380
_cell_angle_alpha 90.000000
_cell_angle_beta 44.889891
_cell_angle_gamma 90.000000
_cell_volume 3086.827893
_symmetry_space_group_name_H-M "C 2/M"
_symmetry_group_IT_number 12
_symmetry_cell_setting 'monoclinic'
loop_
_space_group_symop_operation_xyz
x,y,z
-x,y,-z
-x,-y,-z
x,-y,z
1/2+x,1/2+y,z
1/2-x,1/2+y,-z
1/2-x,1/2-y,-z
1/2+x,1/2-y,z
loop_
_atom_site_type_symbol
_atom_site_label
_atom_site_fract_x
_atom_site_fract_y
_atom_site_fract_z
Si Si1 0.190007 0.304827 0.009253
Si Si2 0.383465 0.362410 0.902457
Si Si3 0.561209 0.696896 0.556299
Si Si4 0.185467 0.718013 0.727837
Si Si5 0.219789 0.152585 0.703929
Si Si6 0.055511 0.939290 0.799057
Si Si7 0.552240 0.181865 0.634224
O O1 0.080914 0.327258 0.204383
O O2 0.250000 0.250000 0.000000
O O3 0.286485 0.350644 0.910468
O O4 0.154545 0.290174 0.907682
O O5 0.482401 0.319111 0.761083
O O6 0.453226 0.418395 0.825620
O O7 0.325951 0.353103 0.102324
O O8 0.500000 0.674122 0.500000
O O9 0.694038 0.686808 0.419397
O O10 0.559406 0.761847 0.550755
O O11 0.198000 0.783580 0.692117
O O12 0.101441 0.694055 0.718728
O O13 0.151063 0.107197 0.702434
O O14 0.354248 0.143736 0.535695
O O15 0.095487 0.000000 0.722524
O O16 0.000000 0.940980 0.000000
#
# Coordination Sequence:
#
# PCOD9191042 Si02
#       7
#     8   8   8   8   8   8   8
#     4  12  21  33  48  74 111 151 182 213 256 320
#     4  11  20  33  52  77 105 143 176 219 269 317
#     4  11  19  32  50  75 112 145 179 214 258 319
#     4  11  20  33  48  75 112 149 177 214 251 324
#     4  10  20  32  52  77 107 136 180 219 269 322
#     4   9  19  36  58  80 102 134 181 238 284 315
#     4  11  22  31  47  74 110 147 182 207 258 320
#
# _framework density 18.141601000000001
#
# number of rings (size 3 to 8) (size 9 to 14) (size 15 to 20)
#    0.000    1.286    4.286    3.857    2.000    1.143 
#    0.000    0.000    0.000    1.286    0.000    4.000 
#    0.000    3.714    0.000    0.000    0.000    0.000 
#
# Total GULP energy -155992.606239 kJ/mol
# GULP energy per Si atom -5571.164509 kJ/mol
# Density = 1.810031 g / cm^3
# Si number density = 18.141601 Si / 1000 Ang^3
#
#
#
# Elastic Constant Matrix: (Units=GPa)
#
#
# Indices 1 2 3 4 5 6 
#
# 1 87.0774 24.8255 29.9052 0.0000 -7.9634 0.0000
# 2 24.8255 67.5965 24.2069 0.0000 -13.2846 0.0000
# 3 29.9052 24.2069 117.2065 0.0000 -25.8284 0.0000
# 4 0.0000 0.0000 0.0000 12.0257 0.0000 -2.6397
# 5 -7.9634 -13.2846 -25.8284 0.0000 39.1809 0.0000
# 6 0.0000 0.0000 0.0000 -2.6397 0.0000 12.8185
#
#
#
# Elastic Compliance Matrix: (Units=1/GPa)
#
#
# Indices 1 2 3 4 5 6 
#
# 1 0.013539 -0.004086 -0.002702 0.000000 -0.000415 0.000000
# 2 -0.004086 0.017705 -0.001725 0.000000 0.004036 0.000000
# 3 -0.002702 -0.001725 0.010913 0.000000 0.006060 0.000000
# 4 0.000000 0.000000 0.000000 0.087092 0.000000 0.017935
# 5 -0.000415 0.004036 0.006060 0.000000 0.030801 0.000000
# 6 0.000000 0.000000 0.000000 0.017935 0.000000 0.081705
#
#
# Mechanical properties :
#
#
# Convention : Reuss Voigt Hill
#
# Bulk Modulus (GPa) = 39.79126 47.75065 43.77095
# Shear Modulus (GPa) = 18.71544 25.66787 22.19165
#
# Velocity S-wave (km/s) = 3.21539 3.76555 3.50129
# Velocity P-wave (km/s) = 5.98049 6.72934 6.36594
#
# Compressibility (1/GPa) = 0.02513115
#
# Stress axis : x y z
#
# Youngs Moduli (GPa) = 73.86062 56.48075 91.63397
#
# Poissons Ratio (x) = 0.23080 0.24759
# Poissons Ratio (y) = 0.30182 0.15805
# Poissons Ratio (z) = 0.19957 0.09742
#
# Static dielectric constant tensor:
#      x y z
#    x 1.698020 0.000000 0.002710 
#    y 0.000000 1.615830 0.000000 
#    z 0.002710 0.000000 1.724240 
# 
# From -- ./inp_files/160257.got.cif
#   From: 2010.05.17/outbox.cif.g08.bks.cpg/sg12_81_cif.got.tgz:160257.got - 2010.06.03 13:09:07.
