data_PCOD9191201
_publ_section_title
;
Structure prediction by ZEFSAII (Michael W. Deem and Ramdas Pophale) SiO2 
 PCOD9191201
Probable space group: C 2/M
;
_chemical_formula_sum "Si O2"
_cell_formula_units_Z 56
_cell_length_a 8.413171
_cell_length_b 20.923844
_cell_length_c 17.414357
_cell_angle_alpha 90.000000
_cell_angle_beta 65.003873
_cell_angle_gamma 90.000000
_cell_volume 2778.420871
_symmetry_space_group_name_H-M "C 2/M"
_symmetry_group_IT_number 12
_symmetry_cell_setting 'monoclinic'
loop_
_space_group_symop_operation_xyz
x,y,z
-x,y,-z
-x,-y,-z
x,-y,z
1/2+x,1/2+y,z
1/2-x,1/2+y,-z
1/2-x,1/2-y,-z
1/2+x,1/2-y,z
loop_
_atom_site_type_symbol
_atom_site_label
_atom_site_fract_x
_atom_site_fract_y
_atom_site_fract_z
Si Si1 0.344151 0.842745 0.836487
Si Si2 0.543677 0.306369 0.350144
Si Si3 0.502692 0.294199 0.178521
Si Si4 0.698045 0.823301 0.989942
Si Si5 0.339581 0.429315 0.592925
Si Si6 0.438389 0.926149 0.673136
Si Si7 0.332195 0.816495 0.587953
O O1 0.472792 0.782904 0.827757
O O2 0.422905 0.893982 0.761009
O O3 0.174315 0.813118 0.828840
O O4 0.288731 0.863463 0.933897
O O5 0.513280 0.307947 0.266013
O O6 0.640243 0.369676 0.355988
O O7 0.640561 0.243515 0.360367
O O8 0.345520 0.307394 0.423306
O O9 0.658369 0.333854 0.105250
O O10 0.500000 0.826305 0.000000
O O11 0.750000 0.750000 0.000000
O O12 0.500000 0.425543 0.500000
O O13 0.352078 0.500000 0.626825
O O14 0.140668 0.424547 0.602826
O O15 0.329597 0.881556 0.637690
O O16 0.382520 0.000000 0.686294
O O17 0.500000 0.817938 0.500000
#
# Coordination Sequence:
#
# PCOD9191201 Si02
#       7
#     8   8   8   8   8   8   8
#     4  11  21  38  59  90 126 153 199 249 305 360
#     4  12  22  37  61  92 122 156 199 251 307 361
#     4  11  20  35  58  92 120 157 192 246 305 360
#     4  10  20  32  58  91 122 154 190 245 301 364
#     4  10  23  42  62  85 119 164 208 252 302 361
#     4  11  24  41  62  86 120 168 209 252 311 367
#     4  12  24  39  60  90 123 159 203 258 308 361
#
# _framework density 20.155334
#
# number of rings (size 3 to 8) (size 9 to 14) (size 15 to 20)
#    0.000    1.000    2.857    6.429    4.000    0.857 
#    0.000    0.000    0.000    3.000    0.000    0.000 
#    0.000    0.000    0.000    0.000    0.000    0.000 
#
# Total GULP energy -156360.376348 kJ/mol
# GULP energy per Si atom -5584.299155 kJ/mol
# Density = 2.010946 g / cm^3
# Si number density = 20.155334 Si / 1000 Ang^3
#
#
#
# Elastic Constant Matrix: (Units=GPa)
#
#
# Indices 1 2 3 4 5 6 
#
# 1 80.7758 43.8221 -12.2879 0.0000 -2.1298 0.0000
# 2 43.8221 122.8553 25.4579 0.0000 7.3435 0.0000
# 3 -12.2879 25.4579 56.4348 0.0000 -2.9457 0.0000
# 4 0.0000 0.0000 0.0000 18.7149 0.0000 0.6264
# 5 -2.1298 7.3435 -2.9457 0.0000 32.3996 0.0000
# 6 0.0000 0.0000 0.0000 0.6264 0.0000 24.6142
#
#
#
# Elastic Compliance Matrix: (Units=1/GPa)
#
#
# Indices 1 2 3 4 5 6 
#
# 1 0.018237 -0.008381 0.007951 0.000000 0.003821 0.000000
# 2 -0.008381 0.013023 -0.007920 0.000000 -0.004223 0.000000
# 3 0.007951 -0.007920 0.023255 0.000000 0.004432 0.000000
# 4 0.000000 0.000000 0.000000 0.053479 0.000000 -0.001361
# 5 0.003821 -0.004223 0.004432 0.000000 0.032476 0.000000
# 6 0.000000 0.000000 0.000000 -0.001361 0.000000 0.040662
#
#
# Mechanical properties :
#
#
# Convention : Reuss Voigt Hill
#
# Bulk Modulus (GPa) = 26.44459 41.56112 34.00286
# Shear Modulus (GPa) = 23.76018 28.68399 26.22209
#
# Velocity S-wave (km/s) = 3.43717 3.77655 3.61085
# Velocity P-wave (km/s) = 5.37597 6.29934 5.85588
#
# Compressibility (1/GPa) = 0.03781492
#
# Stress axis : x y z
#
# Youngs Moduli (GPa) = 54.83296 76.78859 43.00176
#
# Poissons Ratio (x) = 0.64358 -0.34191
# Poissons Ratio (y) = 0.45957 0.34057
# Poissons Ratio (z) = -0.43599 0.60816
#
# Static dielectric constant tensor:
#      x y z
#    x 1.720270 0.000000 -0.053230 
#    y 0.000000 1.686220 0.000000 
#    z -0.053230 0.000000 1.841450 
# 
# From -- ./inp_files/257037.got.cif
#   From: 2010.05.17/outbox.cif.g08.bks.cpg/sg12_129_cif.got.tgz:257037.got - 2010.06.03 13:09:07.
