data_PCOD9191102
_publ_section_title
;
Structure prediction by ZEFSAII (Michael W. Deem and Ramdas Pophale) SiO2 
 PCOD9191102
Probable space group: C 2/M
;
_chemical_formula_sum "Si O2"
_cell_formula_units_Z 64
_cell_length_a 21.726704
_cell_length_b 17.105150
_cell_length_c 9.414924
_cell_angle_alpha 90.000000
_cell_angle_beta 122.384475
_cell_angle_gamma 90.000000
_cell_volume 2954.767849
_symmetry_space_group_name_H-M "C 2/M"
_symmetry_group_IT_number 12
_symmetry_cell_setting 'monoclinic'
loop_
_space_group_symop_operation_xyz
x,y,z
-x,y,-z
-x,-y,-z
x,-y,z
1/2+x,1/2+y,z
1/2-x,1/2+y,-z
1/2-x,1/2-y,-z
1/2+x,1/2-y,z
loop_
_atom_site_type_symbol
_atom_site_label
_atom_site_fract_x
_atom_site_fract_y
_atom_site_fract_z
Si Si1 0.009614 0.373384 0.169897
Si Si2 0.922005 0.770733 0.020207
Si Si3 0.657782 0.176684 0.327849
Si Si4 0.181788 0.168186 0.539988
Si Si5 0.766201 0.408152 0.193025
Si Si6 0.631385 0.408128 0.215789
Si Si7 0.927711 0.591361 0.341724
Si Si8 0.311939 0.687129 0.119824
O O1 0.949760 0.405366 0.203386
O O2 0.094939 0.380023 0.311476
O O3 0.993626 0.279677 0.141290
O O4 0.000000 0.405503 0.000000
O O5 0.873417 0.714233 0.857778
O O6 0.922779 0.852585 0.938368
O O7 0.882456 0.787082 0.119277
O O8 0.735050 0.140773 0.384199
O O9 0.671107 0.246931 0.454379
O O10 0.131475 0.112167 0.382292
O O11 0.172671 0.176086 0.696357
O O12 0.774059 0.500000 0.221127
O O13 0.711278 0.381779 0.250204
O O14 0.848297 0.374894 0.280535
O O15 0.721738 0.390012 0.994845
O O16 0.621678 0.500000 0.178329
O O17 0.926135 0.500000 0.382961
O O18 0.000000 0.629248 0.500000
O O19 0.250000 0.750000 0.000000
#
# Coordination Sequence:
#
# PCOD9191102 Si02
#       8
#     8   8   8   8   8   8   8   8
#     4  10  21  35  56  77 109 143 185 227 267 318
#     4   9  18  35  53  80 108 141 177 225 276 322
#     4   9  19  34  50  76 108 140 175 223 270 316
#     4  10  20  32  53  78 107 138 176 225 271 316
#     4   9  20  36  52  73 107 144 180 222 268 321
#     4   9  19  36  58  80 108 144 183 224 274 329
#     4  10  22  37  50  72 109 151 189 220 263 320
#     4  11  19  30  54  80 106 135 180 224 273 316
#
# _framework density 21.659907
#
# number of rings (size 3 to 8) (size 9 to 14) (size 15 to 20)
#    0.000    2.375    1.250    0.750    5.250    1.750 
#    0.000    0.000    0.000    9.375    0.000    0.000 
#    0.000   20.500    0.000    0.000    0.000    0.000 
#
# Total GULP energy -178500.555002 kJ/mol
# GULP energy per Si atom -5578.142344 kJ/mol
# Density = 2.161061 g / cm^3
# Si number density = 21.659907 Si / 1000 Ang^3
#
#
#
# Elastic Constant Matrix: (Units=GPa)
#
#
# Indices 1 2 3 4 5 6 
#
# 1 104.1827 1.7876 37.0918 0.0000 -3.2606 0.0000
# 2 1.7876 46.3240 -0.7023 0.0000 -0.3240 0.0000
# 3 37.0918 -0.7023 93.3755 0.0000 -33.9508 0.0000
# 4 0.0000 0.0000 0.0000 15.3910 0.0000 -1.5052
# 5 -3.2606 -0.3240 -33.9508 0.0000 32.2445 0.0000
# 6 0.0000 0.0000 0.0000 -1.5052 0.0000 18.2165
#
#
#
# Elastic Compliance Matrix: (Units=1/GPa)
#
#
# Indices 1 2 3 4 5 6 
#
# 1 0.011894 -0.000607 -0.006958 0.000000 -0.006130 0.000000
# 2 -0.000607 0.021628 0.000746 0.000000 0.000942 0.000000
# 3 -0.006958 0.000746 0.021430 0.000000 0.021868 0.000000
# 4 0.000000 0.000000 0.000000 0.065502 0.000000 0.005412
# 5 -0.006130 0.000942 0.021868 0.000000 0.053428 0.000000
# 6 0.000000 0.000000 0.000000 0.005412 0.000000 0.055343
#
#
# Mechanical properties :
#
#
# Convention : Reuss Voigt Hill
#
# Bulk Modulus (GPa) = 24.20442 35.58184 29.89313
# Shear Modulus (GPa) = 19.48286 26.88405 23.18345
#
# Velocity S-wave (km/s) = 3.00240 3.52687 3.27515
# Velocity P-wave (km/s) = 4.81853 5.74876 5.30408
#
# Compressibility (1/GPa) = 0.04131477
#
# Stress axis : x y z
#
# Youngs Moduli (GPa) = 84.07333 46.23541 46.66312
#
# Poissons Ratio (x) = 0.02808 0.32469
# Poissons Ratio (y) = 0.05106 -0.03483
# Poissons Ratio (z) = 0.58499 -0.03451
#
# Static dielectric constant tensor:
#      x y z
#    x 1.859870 0.000000 -0.003760 
#    y 0.000000 1.822220 0.000000 
#    z -0.003760 0.000000 1.829350 
# 
# From -- ./inp_files/89615.got.cif
#   From: 2010.05.17/outbox.cif.g08.bks.cpg/sg12_45_cif.got.tgz:89615.got - 2010.06.03 13:09:07.
