data_PCOD9191116
_publ_section_title
;
Structure prediction by ZEFSAII (Michael W. Deem and Ramdas Pophale) SiO2 
 PCOD9191116
Probable space group: C 2/M
;
_chemical_formula_sum "Si O2"
_cell_formula_units_Z 64
_cell_length_a 23.683544
_cell_length_b 17.734331
_cell_length_c 9.575418
_cell_angle_alpha 90.000000
_cell_angle_beta 41.542488
_cell_angle_gamma 90.000000
_cell_volume 2667.150714
_symmetry_space_group_name_H-M "C 2/M"
_symmetry_group_IT_number 12
_symmetry_cell_setting 'monoclinic'
loop_
_space_group_symop_operation_xyz
x,y,z
-x,y,-z
-x,-y,-z
x,-y,z
1/2+x,1/2+y,z
1/2-x,1/2+y,-z
1/2-x,1/2-y,-z
1/2+x,1/2-y,z
loop_
_atom_site_type_symbol
_atom_site_label
_atom_site_fract_x
_atom_site_fract_y
_atom_site_fract_z
Si Si1 0.397173 0.846610 0.568479
Si Si2 0.243889 0.083239 0.718423
Si Si3 0.426834 0.585495 0.776538
Si Si4 0.055366 0.782108 0.082703
Si Si5 0.863787 0.174414 0.630808
Si Si6 0.316821 0.319673 0.395843
Si Si7 0.163683 0.338033 0.023638
Si Si8 0.478925 0.881142 0.885360
O O1 0.309377 0.854880 0.648922
O O2 0.408688 0.756367 0.566272
O O3 0.379712 0.871917 0.758330
O O4 0.462904 0.897199 0.357409
O O5 0.222509 0.105575 0.600323
O O6 0.281388 0.000000 0.658822
O O7 0.161430 0.084811 0.970562
O O8 0.458837 0.500000 0.719887
O O9 0.407329 0.615119 0.656879
O O10 0.479665 0.646250 0.769851
O O11 0.103511 0.804308 0.853241
O O12 0.125640 0.744594 0.057295
O O13 0.999781 0.709055 0.151520
O O14 0.846647 0.166815 0.496782
O O15 0.763269 0.170505 0.862922
O O16 0.250000 0.250000 0.500000
O O17 0.120752 0.384274 0.973441
O O18 0.500000 0.911468 0.000000
#
# Coordination Sequence:
#
# PCOD9191116 Si02
#       8
#     8   8   8   8   8   8   8   8
#     4  12  20  34  61  83 113 148 192 241 279 339
#     4  10  22  35  53  82 118 153 184 225 292 349
#     4  10  20  36  56  83 119 153 182 235 296 345
#     4   9  19  35  52  82 114 145 191 230 287 340
#     4  12  19  31  58  88 110 138 195 243 285 327
#     4  11  18  30  55  84 112 148 185 236 285 331
#     4  10  20  32  53  85 111 138 185 245 276 327
#     4  10  22  35  54  85 116 145 188 242 287 331
#
# _framework density 23.995645
#
# number of rings (size 3 to 8) (size 9 to 14) (size 15 to 20)
#    0.750    0.750    5.000    2.250    1.750    0.500 
#    0.000    0.000    0.000    4.500    0.000    0.000 
#    0.000    0.000    0.000    0.000    0.000    0.000 
#
# Total GULP energy -178457.013149 kJ/mol
# GULP energy per Si atom -5576.781661 kJ/mol
# Density = 2.394103 g / cm^3
# Si number density = 23.995645 Si / 1000 Ang^3
#
#
#
# Elastic Constant Matrix: (Units=GPa)
#
#
# Indices 1 2 3 4 5 6 
#
# 1 108.9294 17.4077 24.5385 0.0000 22.1644 0.0000
# 2 17.4077 85.7381 12.3154 0.0000 9.9381 0.0000
# 3 24.5385 12.3154 123.0935 0.0000 29.7064 0.0000
# 4 0.0000 0.0000 0.0000 11.6956 0.0000 -2.5897
# 5 22.1644 9.9381 29.7064 0.0000 44.2639 0.0000
# 6 0.0000 0.0000 0.0000 -2.5897 0.0000 11.4308
#
#
#
# Elastic Compliance Matrix: (Units=1/GPa)
#
#
# Indices 1 2 3 4 5 6 
#
# 1 0.010502 -0.001502 -0.000902 0.000000 -0.004316 0.000000
# 2 -0.001502 0.012234 -0.000529 0.000000 -0.001640 0.000000
# 3 -0.000902 -0.000529 0.009807 0.000000 -0.006012 0.000000
# 4 0.000000 0.000000 0.000000 0.090018 0.000000 0.020394
# 5 -0.004316 -0.001640 -0.006012 0.000000 0.029156 0.000000
# 6 0.000000 0.000000 0.000000 0.020394 0.000000 0.092103
#
#
# Mechanical properties :
#
#
# Convention : Reuss Voigt Hill
#
# Bulk Modulus (GPa) = 37.48418 47.36492 42.42455
# Shear Modulus (GPa) = 19.33645 31.04469 25.19057
#
# Velocity S-wave (km/s) = 2.84180 3.60079 3.24357
# Velocity P-wave (km/s) = 5.14032 6.08847 5.63437
#
# Compressibility (1/GPa) = 0.02667792
#
# Stress axis : x y z
#
# Youngs Moduli (GPa) = 95.22294 81.73620 101.96422
#
# Poissons Ratio (x) = 0.12280 0.09193
# Poissons Ratio (y) = 0.14306 0.05392
# Poissons Ratio (z) = 0.08585 0.04323
#
# Static dielectric constant tensor:
#      x y z
#    x 1.942760 0.000000 -0.056960 
#    y 0.000000 1.919180 0.000000 
#    z -0.056960 0.000000 2.054040 
# 
# From -- ./inp_files/106389.got.cif
#   From: 2010.05.17/outbox.cif.g08.bks.cpg/sg12_54_cif.got.tgz:106389.got - 2010.06.03 13:09:07.
