data_PCOD9191892
_publ_section_title
;
Structure prediction by ZEFSAII (Michael W. Deem and Ramdas Pophale) SiO2 
 PCOD9191892
Probable space group: C 2/M
;
_chemical_formula_sum "Si O2"
_cell_formula_units_Z 64
_cell_length_a 29.533730
_cell_length_b 10.598233
_cell_length_c 11.695464
_cell_angle_alpha 90.000000
_cell_angle_beta 74.123697
_cell_angle_gamma 90.000000
_cell_volume 3521.102085
_symmetry_space_group_name_H-M "C 2/M"
_symmetry_group_IT_number 12
_symmetry_cell_setting 'monoclinic'
loop_
_space_group_symop_operation_xyz
x,y,z
-x,y,-z
-x,-y,-z
x,-y,z
1/2+x,1/2+y,z
1/2-x,1/2+y,-z
1/2-x,1/2-y,-z
1/2+x,1/2-y,z
loop_
_atom_site_type_symbol
_atom_site_label
_atom_site_fract_x
_atom_site_fract_y
_atom_site_fract_z
Si Si1 0.267150 0.778390 0.789219
Si Si2 0.608011 0.346844 0.689250
Si Si3 0.781905 0.850342 0.405916
Si Si4 0.296112 0.134408 0.017635
Si Si5 0.552364 0.650526 0.949672
Si Si6 0.050349 0.847112 0.509327
Si Si7 0.864079 0.861417 0.955060
Si Si8 0.642857 0.641856 0.312174
O O1 0.234393 0.838470 0.715745
O O2 0.277328 0.855102 0.899720
O O3 0.315363 0.738609 0.693822
O O4 0.245149 0.652177 0.861590
O O5 0.608639 0.500000 0.690325
O O6 0.662505 0.313485 0.627296
O O7 0.585800 0.302009 0.824329
O O8 0.571215 0.306029 0.616770
O O9 0.750000 0.750000 0.500000
O O10 0.776677 0.000000 0.443107
O O11 0.329860 0.251576 0.017576
O O12 0.319764 0.000000 0.014906
O O13 0.546820 0.500000 0.931549
O O14 0.500000 0.703696 0.000000
O O15 0.582927 0.663659 0.042632
O O16 0.092502 0.817744 0.393558
O O17 0.000000 0.799291 0.500000
O O18 0.046422 0.000000 0.517640
O O19 0.860427 0.865268 0.821931
O O20 0.850558 0.000000 0.011038
O O21 0.652705 0.500000 0.350855
#
# Coordination Sequence:
#
# PCOD9191892 Si02
#       8
#     8   8   8   8   8   8   8   8
#     4  10  20  33  52  76 107 140 181 222 267 313
#     4   9  18  31  46  70 102 135 170 212 261 311
#     4  11  23  38  57  79 111 149 184 223 269 323
#     4  10  20  33  53  79 107 142 182 221 265 322
#     4   9  17  28  47  72 102 137 173 214 263 321
#     4   9  17  27  43  65  95 130 163 205 259 314
#     4   9  18  31  48  73 105 138 173 216 264 312
#     4   9  17  29  46  70 102 135 170 214 263 312
#
# _framework density 18.176127000000001
#
# number of rings (size 3 to 8) (size 9 to 14) (size 15 to 20)
#    0.000    2.500    0.000    2.250    1.750    6.500 
#    0.000    0.000    0.000    0.375    0.000    0.000 
#    0.000    4.500    0.000    0.000    0.000    0.000 
#
# Total GULP energy -178183.596066 kJ/mol
# GULP energy per Si atom -5568.237377 kJ/mol
# Density = 1.813476 g / cm^3
# Si number density = 18.176127 Si / 1000 Ang^3
#
#
#
# Elastic Constant Matrix: (Units=GPa)
#
#
# Indices 1 2 3 4 5 6 
#
# 1 110.0430 19.4760 27.1666 0.0000 10.6909 0.0000
# 2 19.4760 56.3970 11.5237 0.0000 3.6145 0.0000
# 3 27.1666 11.5237 44.1137 0.0000 -2.1623 0.0000
# 4 0.0000 0.0000 0.0000 5.2164 0.0000 -2.6437
# 5 10.6909 3.6145 -2.1623 0.0000 20.4512 0.0000
# 6 0.0000 0.0000 0.0000 -2.6437 0.0000 15.8694
#
#
#
# Elastic Compliance Matrix: (Units=1/GPa)
#
#
# Indices 1 2 3 4 5 6 
#
# 1 0.011857 -0.002237 -0.007038 0.000000 -0.006547 0.000000
# 2 -0.002237 0.019459 -0.003837 0.000000 -0.002676 0.000000
# 3 -0.007038 -0.003837 0.028366 0.000000 0.007357 0.000000
# 4 0.000000 0.000000 0.000000 0.209382 0.000000 0.034881
# 5 -0.006547 -0.002676 0.007357 0.000000 0.053570 0.000000
# 6 0.000000 0.000000 0.000000 0.034881 0.000000 0.068825
#
#
# Mechanical properties :
#
#
# Convention : Reuss Voigt Hill
#
# Bulk Modulus (GPa) = 29.88831 36.32071 33.10451
# Shear Modulus (GPa) = 11.65944 18.46656 15.06300
#
# Velocity S-wave (km/s) = 2.53547 3.19090 2.88188
# Velocity P-wave (km/s) = 5.00509 5.79671 5.41538
#
# Compressibility (1/GPa) = 0.03345790
#
# Stress axis : x y z
#
# Youngs Moduli (GPa) = 84.33900 51.38908 35.25329
#
# Poissons Ratio (x) = 0.11495 0.24813
# Poissons Ratio (y) = 0.18865 0.13527
# Poissons Ratio (z) = 0.59362 0.19718
#
# Static dielectric constant tensor:
#      x y z
#    x 1.650020 0.000000 -0.004310 
#    y 0.000000 1.631740 0.000000 
#    z -0.004310 0.000000 1.675950 
# 
# From -- ./inp_files/182035.got.cif
#   From: 2010.05.17/outbox.cif.g08.bks.cpg/sg12_92_cif.got.tgz:182035.got - 2010.06.03 13:09:07.
