data_PCOD9191230
_publ_section_title
;
Structure prediction by ZEFSAII (Michael W. Deem and Ramdas Pophale) SiO2 
 PCOD9191230
Probable space group: C 2/M
;
_chemical_formula_sum "Si O2"
_cell_formula_units_Z 50
_cell_length_a 15.749928
_cell_length_b 21.538892
_cell_length_c 9.686012
_cell_angle_alpha 90.000000
_cell_angle_beta 124.518781
_cell_angle_gamma 90.000000
_cell_volume 2707.339847
_symmetry_space_group_name_H-M "C 2/M"
_symmetry_group_IT_number 12
_symmetry_cell_setting 'monoclinic'
loop_
_space_group_symop_operation_xyz
x,y,z
-x,y,-z
-x,-y,-z
x,-y,z
1/2+x,1/2+y,z
1/2-x,1/2+y,-z
1/2-x,1/2-y,-z
1/2+x,1/2-y,z
loop_
_atom_site_type_symbol
_atom_site_label
_atom_site_fract_x
_atom_site_fract_y
_atom_site_fract_z
Si Si1 0.500000 0.500000 0.000000
Si Si2 0.801076 0.925440 0.424669
Si Si3 0.900271 0.771456 0.184136
Si Si4 0.291718 0.150956 0.110510
Si Si5 0.000000 0.855216 0.500000
Si Si6 0.887271 0.574574 0.951975
Si Si7 0.500000 0.715795 0.000000
Si Si8 0.657630 0.389865 0.230536
O O1 0.580033 0.445986 0.128392
O O2 0.901149 0.897419 0.441127
O O3 0.699569 0.910881 0.242703
O O4 0.799309 0.897342 0.576338
O O5 0.810770 0.000000 0.442772
O O6 0.858248 0.710217 0.219349
O O7 0.976022 0.811460 0.347665
O O8 0.805551 0.817250 0.058187
O O9 0.950321 0.750400 0.084889
O O10 0.245953 0.113007 0.196056
O O11 0.354033 0.108890 0.061064
O O12 0.886031 0.500000 0.972854
O O13 0.000000 0.591856 0.000000
O O14 0.589568 0.672051 0.145554
#
# Coordination Sequence:
#
# PCOD9191230 Si02
#       8
#     2   8   8   8   4   8   4   8
#     4  10  20  32  64  94 130 168 182 254 330 378
#     4  11  22  38  62  96 129 162 199 261 322 378
#     4  10  21  38  60  88 125 159 207 247 314 375
#     4  10  22  40  60  86 120 168 209 251 303 371
#     4  12  21  40  60  98 131 156 198 268 320 384
#     4  10  23  43  63  85 118 168 221 258 306 371
#     4   9  18  35  58  84 123 166 193 246 300 386
#     4  10  20  36  57  93 130 155 202 243 317 385
#
# _framework density 18.468312999999998
#
# number of rings (size 3 to 8) (size 9 to 14) (size 15 to 20)
#    0.000    1.760    4.000    0.240    2.240    0.000 
#    5.760    0.800    0.000    2.880    0.000    0.000 
#    0.000    0.000    0.000    0.000    0.000    0.000 
#
# Total GULP energy -139261.301591 kJ/mol
# GULP energy per Si atom -5570.452064 kJ/mol
# Density = 1.842628 g / cm^3
# Si number density = 18.468313 Si / 1000 Ang^3
#
#
#
# Elastic Constant Matrix: (Units=GPa)
#
#
# Indices 1 2 3 4 5 6 
#
# 1 117.5617 12.5403 53.5363 0.0000 -1.5209 0.0000
# 2 12.5403 21.1426 27.3814 0.0000 2.0369 0.0000
# 3 53.5363 27.3814 75.4428 0.0000 -0.5540 0.0000
# 4 0.0000 0.0000 0.0000 8.3462 0.0000 6.8589
# 5 -1.5209 2.0369 -0.5540 0.0000 29.9357 0.0000
# 6 0.0000 0.0000 0.0000 6.8589 0.0000 -21.9351
#
#
#
# Elastic Compliance Matrix: (Units=1/GPa)
#
#
# Indices 1 2 3 4 5 6 
#
# 1 0.013275 0.008186 -0.012392 0.000000 -0.000112 0.000000
# 2 0.008186 0.095649 -0.040574 0.000000 -0.006843 0.000000
# 3 -0.012392 -0.040574 0.036795 0.000000 0.002812 0.000000
# 4 0.000000 0.000000 0.000000 0.095321 0.000000 0.029806
# 5 -0.000112 -0.006843 0.002812 0.000000 0.033917 0.000000
# 6 0.000000 0.000000 0.000000 0.029806 0.000000 -0.036269
#
#
# Mechanical properties :
#
#
# Convention : Reuss Voigt Hill
#
# Bulk Modulus (GPa) = 17.80678 44.56258 31.18468
# Shear Modulus (GPa) = 14.41055 11.31528 12.86291
#
# Velocity S-wave (km/s) = 2.79639 2.47794 2.64196
# Velocity P-wave (km/s) = 4.48209 5.68933 5.12141
#
# Compressibility (1/GPa) = 0.05615840
#
# Stress axis : x y z
#
# Youngs Moduli (GPa) = 75.33147 10.45489 27.17731
#
# Poissons Ratio (x) = -0.08558 0.33678
# Poissons Ratio (y) = -0.61663 1.10270
# Poissons Ratio (z) = 0.93349 0.42420
#
# Static dielectric constant tensor:
#      x y z
#    x 1.651110 0.000000 -0.006780 
#    y 0.000000 1.614380 0.000000 
#    z -0.006780 0.000000 1.619910 
# 
# From -- ./inp_files/65534.got.cif
#   From: 2010.05.17/outbox.cif.g08.bks.cpg/sg12_33_cif.got.tgz:65534.got - 2010.06.03 13:09:07.
