data_PCOD9191613
_publ_section_title
;
Structure prediction by ZEFSAII (Michael W. Deem and Ramdas Pophale) SiO2 
 PCOD9191613
Probable space group: C 2/M
;
_chemical_formula_sum "Si O2"
_cell_formula_units_Z 48
_cell_length_a 26.128356
_cell_length_b 8.529521
_cell_length_c 12.106190
_cell_angle_alpha 90.000000
_cell_angle_beta 89.829741
_cell_angle_gamma 90.000000
_cell_volume 2698.002176
_symmetry_space_group_name_H-M "C 2/M"
_symmetry_group_IT_number 12
_symmetry_cell_setting 'monoclinic'
loop_
_space_group_symop_operation_xyz
x,y,z
-x,y,-z
-x,-y,-z
x,-y,z
1/2+x,1/2+y,z
1/2-x,1/2+y,-z
1/2-x,1/2-y,-z
1/2+x,1/2-y,z
loop_
_atom_site_type_symbol
_atom_site_label
_atom_site_fract_x
_atom_site_fract_y
_atom_site_fract_z
Si Si1 0.096010 0.317961 0.726903
Si Si2 0.692553 0.313739 0.366904
Si Si3 0.560218 0.325689 0.510001
Si Si4 0.904804 0.687218 0.720862
Si Si5 0.194900 0.813713 0.624160
Si Si6 0.000394 0.691235 0.127152
O O1 0.105133 0.500000 0.752442
O O2 0.072276 0.296416 0.605413
O O3 0.150271 0.232464 0.709905
O O4 0.051414 0.256464 0.809006
O O5 0.685949 0.500000 0.360105
O O6 0.654948 0.233953 0.278014
O O7 0.751486 0.268097 0.348758
O O8 0.681358 0.266544 0.496294
O O9 0.500000 0.337968 0.500000
O O10 0.581105 0.500000 0.538569
O O11 0.578910 0.270471 0.392008
O O12 0.908591 0.500000 0.711560
O O13 0.946634 0.737461 0.812153
O O14 0.202623 0.000000 0.623386
O O15 0.999186 0.500000 0.130045
O O16 0.000000 0.741171 0.000000
#
# Coordination Sequence:
#
# PCOD9191613 Si02
#       6
#     8   8   8   8   8   8
#     4  11  20  32  54  79 106 141 178 218 261 317
#     4  10  20  33  50  76 111 147 175 212 259 314
#     4  11  21  31  46  73 110 143 171 212 264 318
#     4  11  20  32  54  79 106 141 178 218 261 317
#     4  10  20  33  50  76 111 147 175 212 259 314
#     4   9  20  37  55  78 106 139 180 223 268 313
#
# _framework density 17.790942999999999
#
# number of rings (size 3 to 8) (size 9 to 14) (size 15 to 20)
#    0.000    1.667    3.333    2.500    0.000    2.000 
#    0.000    0.000    0.000    9.000    0.000    0.000 
#    0.000    0.000    0.000    0.000    0.000    0.000 
#
# Total GULP energy -133763.177926 kJ/mol
# GULP energy per Si atom -5573.465747 kJ/mol
# Density = 1.775045 g / cm^3
# Si number density = 17.790943 Si / 1000 Ang^3
#
#
#
# Elastic Constant Matrix: (Units=GPa)
#
#
# Indices 1 2 3 4 5 6 
#
# 1 127.0707 13.7749 45.8509 0.0000 2.9187 0.0000
# 2 13.7749 31.5908 -0.1684 0.0000 -0.0055 0.0000
# 3 45.8509 -0.1684 80.7596 0.0000 0.4285 0.0000
# 4 0.0000 0.0000 0.0000 -6.7567 0.0000 -26.9468
# 5 2.9187 -0.0055 0.4285 0.0000 12.4994 0.0000
# 6 0.0000 0.0000 0.0000 -26.9468 0.0000 -8.3664
#
#
#
# Elastic Compliance Matrix: (Units=1/GPa)
#
#
# Indices 1 2 3 4 5 6 
#
# 1 0.010596 -0.004653 -0.006013 0.000000 -0.002270 0.000000
# 2 -0.004653 0.033698 0.002706 0.000000 0.001009 0.000000
# 3 -0.006013 0.002706 0.015798 0.000000 0.000864 0.000000
# 4 0.000000 0.000000 0.000000 0.012495 0.000000 -0.040243
# 5 -0.002270 0.001009 0.000864 0.000000 0.080505 0.000000
# 6 0.000000 0.000000 0.000000 -0.040243 0.000000 0.010091
#
#
# Mechanical properties :
#
#
# Convention : Reuss Voigt Hill
#
# Bulk Modulus (GPa) = 22.63865 39.81511 31.22688
# Shear Modulus (GPa) = 25.79639 11.47284 18.63462
#
# Velocity S-wave (km/s) = 3.81198 2.54218 3.23990
# Velocity P-wave (km/s) = 5.66810 5.57180 5.62016
#
# Compressibility (1/GPa) = 0.04417225
#
# Stress axis : x y z
#
# Youngs Moduli (GPa) = 94.37522 29.67524 63.30065
#
# Poissons Ratio (x) = 0.13807 0.38066
# Poissons Ratio (y) = 0.43910 -0.17132
# Poissons Ratio (z) = 0.56752 -0.08032
#
# Static dielectric constant tensor:
#      x y z
#    x 1.713660 0.000000 -0.002690 
#    y 0.000000 1.619860 0.000000 
#    z -0.002690 0.000000 1.577220 
# 
# From -- ./inp_files/179258.got.cif
#   From: 2010.05.17/outbox.cif.g08.bks.cpg/sg12_90_cif.got.tgz:179258.got - 2010.06.03 13:09:07.
