data_PCOD9191301
_publ_section_title
;
Structure prediction by ZEFSAII (Michael W. Deem and Ramdas Pophale) SiO2 
 PCOD9191301
Probable space group: C 2/M
;
_chemical_formula_sum "Si O2"
_cell_formula_units_Z 64
_cell_length_a 23.719167
_cell_length_b 7.619487
_cell_length_c 19.966784
_cell_angle_alpha 90.000000
_cell_angle_beta 60.375619
_cell_angle_gamma 90.000000
_cell_volume 3136.861204
_symmetry_space_group_name_H-M "C 2/M"
_symmetry_group_IT_number 12
_symmetry_cell_setting 'monoclinic'
loop_
_space_group_symop_operation_xyz
x,y,z
-x,y,-z
-x,-y,-z
x,-y,z
1/2+x,1/2+y,z
1/2-x,1/2+y,-z
1/2-x,1/2-y,-z
1/2+x,1/2-y,z
loop_
_atom_site_type_symbol
_atom_site_label
_atom_site_fract_x
_atom_site_fract_y
_atom_site_fract_z
Si Si1 0.534097 0.284076 0.749522
Si Si2 0.108352 0.209689 0.837664
Si Si3 0.232069 0.795874 0.116053
Si Si4 0.601894 0.704809 0.134977
Si Si5 0.741794 0.212878 0.258399
Si Si6 0.379338 0.208925 0.021357
Si Si7 0.216828 0.711061 0.418880
Si Si8 0.349839 0.290607 0.409690
O O1 0.532484 0.500000 0.750358
O O2 0.564102 0.226283 0.803167
O O3 0.460053 0.222117 0.789616
O O4 0.583982 0.226441 0.662732
O O5 0.182676 0.270253 0.783814
O O6 0.089721 0.252325 0.924731
O O7 0.109784 0.000000 0.831057
O O8 0.172692 0.716565 0.109075
O O9 0.214208 0.781996 0.204907
O O10 0.304652 0.720055 0.066477
O O11 0.238833 0.000000 0.093210
O O12 0.607054 0.500000 0.150326
O O13 0.588131 0.716291 0.063979
O O14 0.709204 0.270345 0.346928
O O15 0.740496 0.000000 0.255827
O O16 0.378091 0.000000 0.015140
O O17 0.221117 0.500000 0.414296
O O18 0.285750 0.777497 0.408310
O O19 0.162332 0.756261 0.505065
O O20 0.349533 0.500000 0.400295
#
# Coordination Sequence:
#
# PCOD9191301 Si02
#       8
#     8   8   8   8   8   8   8   8
#     4   9  17  31  51  70  93 124 159 193 225 273
#     4   9  16  30  50  70  92 122 156 189 229 277
#     4   9  19  33  49  70  94 118 154 201 239 270
#     4  10  20  34  51  69  89 122 162 196 231 274
#     4   9  16  28  49  72  95 122 153 190 231 275
#     4  10  20  33  48  69  96 121 150 196 242 278
#     4   9  16  27  45  72 100 122 149 185 227 275
#     4   9  16  28  46  70  98 124 150 185 227 273
#
# _framework density 20.402560000000001
#
# number of rings (size 3 to 8) (size 9 to 14) (size 15 to 20)
#    0.000    2.750    1.250    0.750    0.000    2.000 
#    0.000    4.375    0.000    0.750    0.000    5.250 
#    0.000    0.000    0.000    0.000    0.000    0.000 
#
# Total GULP energy -178467.025865 kJ/mol
# GULP energy per Si atom -5577.094558 kJ/mol
# Density = 2.035612 g / cm^3
# Si number density = 20.402560 Si / 1000 Ang^3
#
#
#
# Elastic Constant Matrix: (Units=GPa)
#
#
# Indices 1 2 3 4 5 6 
#
# 1 9.0192 0.3275 8.4919 0.0003 1.1599 0.0027
# 2 0.3275 38.8121 -11.8278 0.0000 -5.7500 0.0029
# 3 8.4919 -11.8278 114.0995 0.0006 -3.6917 0.0000
# 4 0.0003 0.0000 0.0006 19.4465 -0.0001 6.5105
# 5 1.1599 -5.7500 -3.6917 -0.0001 22.8411 0.0002
# 6 0.0027 0.0029 0.0000 6.5105 0.0002 5.4258
#
#
#
# Elastic Compliance Matrix: (Units=1/GPa)
#
#
# Indices 1 2 3 4 5 6 
#
# 1 0.121568 -0.005396 -0.009903 0.000029 -0.009132 -0.000092
# 2 -0.005396 0.028071 0.003568 0.000007 0.007917 -0.000021
# 3 -0.009903 0.003568 0.009969 -0.000002 0.003012 0.000005
# 4 0.000029 0.000007 -0.000002 0.085952 0.000001 -0.103136
# 5 -0.009132 0.007917 0.003012 0.000001 0.046724 -0.000003
# 6 -0.000092 -0.000021 0.000005 -0.103136 -0.000003 0.308058
#
#
# Mechanical properties :
#
#
# Convention : Reuss Voigt Hill
#
# Bulk Modulus (GPa) = 7.34510 17.32377 12.33444
# Shear Modulus (GPa) = 7.47175 20.53862 14.00519
#
# Velocity S-wave (km/s) = 1.91575 3.17625 2.62285
# Velocity P-wave (km/s) = 2.91571 4.68624 3.90270
#
# Compressibility (1/GPa) = 0.13614515
#
# Stress axis : x y z
#
# Youngs Moduli (GPa) = 8.22582 35.62407 100.31524
#
# Poissons Ratio (x) = 0.19224 0.99338
# Poissons Ratio (y) = 0.04439 -0.35789
# Poissons Ratio (z) = 0.08146 -0.12710
#
# Static dielectric constant tensor:
#      x y z
#    x 1.733420 0.000000 -0.008400 
#    y 0.000000 1.771910 0.000000 
#    z -0.008400 0.000000 1.741990 
# 
# From -- ./inp_files/319930.got.cif
#   From: 2010.05.17/outbox.cif.g08.bks.cpg/sg12_160_cif.got.tgz:319930.got - 2010.06.03 13:09:07.
