data_PCOD9191750
_publ_section_title
;
Structure prediction by ZEFSAII (Michael W. Deem and Ramdas Pophale) SiO2 
 PCOD9191750
Probable space group: C 2/M
;
_chemical_formula_sum "Si O2"
_cell_formula_units_Z 52
_cell_length_a 21.631461
_cell_length_b 10.328535
_cell_length_c 19.100322
_cell_angle_alpha 90.000000
_cell_angle_beta 135.246431
_cell_angle_gamma 90.000000
_cell_volume 3004.514454
_symmetry_space_group_name_H-M "C 2/M"
_symmetry_group_IT_number 12
_symmetry_cell_setting 'monoclinic'
loop_
_space_group_symop_operation_xyz
x,y,z
-x,y,-z
-x,-y,-z
x,-y,z
1/2+x,1/2+y,z
1/2-x,1/2+y,-z
1/2-x,1/2-y,-z
1/2+x,1/2-y,z
loop_
_atom_site_type_symbol
_atom_site_label
_atom_site_fract_x
_atom_site_fract_y
_atom_site_fract_z
Si Si1 0.052024 0.849179 0.280552
Si Si2 0.258922 0.350461 0.637846
Si Si3 0.500000 0.248740 0.500000
Si Si4 0.075658 0.646232 0.419085
Si Si5 0.372352 0.649562 0.064941
Si Si6 0.812298 0.851714 0.310263
Si Si7 0.249652 0.850667 0.896874
O O1 0.147158 0.831192 0.322309
O O2 0.043873 0.752906 0.339008
O O3 0.974223 0.825418 0.162711
O O4 0.044060 0.000000 0.296594
O O5 0.253734 0.500000 0.658650
O O6 0.179173 0.334632 0.518545
O O7 0.240532 0.249617 0.684721
O O8 0.528021 0.165306 0.455257
O O9 0.414795 0.330832 0.410069
O O10 0.061753 0.500000 0.382196
O O11 0.361436 0.500000 0.033369
O O12 0.322379 0.662988 0.099486
O O13 0.326402 0.749717 0.976013
O O14 0.793012 0.828141 0.213074
O O15 0.788051 0.000000 0.307103
O O16 0.280886 0.000000 0.924292
#
# Coordination Sequence:
#
# PCOD9191750 Si02
#       7
#     8   8   4   8   8   8   8
#     4  10  20  35  54  75 101 134 173 213 250 294
#     4   9  20  36  51  72 104 138 170 207 251 300
#     4  10  20  34  52  78 108 134 166 204 248 302
#     4  10  20  33  51  76 106 137 168 205 251 301
#     4   9  18  33  53  75  98 128 167 207 249 302
#     4  10  20  34  54  77 102 134 170 209 251 298
#     4   9  18  33  51  75 103 127 159 207 258 299
#
# _framework density 17.307289000000001
#
# number of rings (size 3 to 8) (size 9 to 14) (size 15 to 20)
#    0.000    2.462    0.000    1.846    0.000    6.769 
#    0.000    3.846    0.000    4.615    0.000    0.000 
#    0.000    0.000    0.000    0.000    0.000    0.000 
#
# Total GULP energy -145021.726161 kJ/mol
# GULP energy per Si atom -5577.758698 kJ/mol
# Density = 1.726790 g / cm^3
# Si number density = 17.307289 Si / 1000 Ang^3
#
#
#
# Elastic Constant Matrix: (Units=GPa)
#
#
# Indices 1 2 3 4 5 6 
#
# 1 43.3653 37.2787 33.7972 0.0000 5.9646 0.0000
# 2 37.2787 96.6003 66.5783 0.0000 -10.5712 0.0000
# 3 33.7972 66.5783 84.0051 0.0000 -4.4221 0.0000
# 4 0.0000 0.0000 0.0000 30.9194 0.0000 -3.6772
# 5 5.9646 -10.5712 -4.4221 0.0000 24.9383 0.0000
# 6 0.0000 0.0000 0.0000 -3.6772 0.0000 17.9463
#
#
#
# Elastic Compliance Matrix: (Units=1/GPa)
#
#
# Indices 1 2 3 4 5 6 
#
# 1 0.042592 -0.012945 -0.007774 0.000000 -0.017052 0.000000
# 2 -0.012945 0.027851 -0.016232 0.000000 0.012023 0.000000
# 3 -0.007774 -0.016232 0.027893 0.000000 -0.000075 0.000000
# 4 0.000000 0.000000 0.000000 0.033150 0.000000 0.006792
# 5 -0.017052 0.012023 -0.000075 0.000000 0.049261 0.000000
# 6 0.000000 0.000000 0.000000 0.006792 0.000000 0.057114
#
#
# Mechanical properties :
#
#
# Convention : Reuss Voigt Hill
#
# Bulk Modulus (GPa) = 40.92768 55.47546 48.20157
# Shear Modulus (GPa) = 15.62963 20.51524 18.07243
#
# Velocity S-wave (km/s) = 3.00837 3.44663 3.23493
# Velocity P-wave (km/s) = 5.98047 6.92545 6.47023
#
# Compressibility (1/GPa) = 0.02443334
#
# Stress axis : x y z
#
# Youngs Moduli (GPa) = 23.47864 35.90597 35.85186
#
# Poissons Ratio (x) = 0.46479 0.27872
# Poissons Ratio (y) = 0.30392 0.58195
# Poissons Ratio (z) = 0.18253 0.58283
#
# Static dielectric constant tensor:
#      x y z
#    x 1.573010 0.000000 0.012280 
#    y 0.000000 1.587840 0.000000 
#    z 0.012280 0.000000 1.566500 
# 
# From -- ./inp_files/324411.got.cif
#   From: 2010.05.17/outbox.cif.g08.bks.cpg/sg12_163_cif.got.tgz:324411.got - 2010.06.03 13:09:07.
