data_PCOD9191889
_publ_section_title
;
Structure prediction by ZEFSAII (Michael W. Deem and Ramdas Pophale) SiO2 
 PCOD9191889
Probable space group: C 2/M
;
_chemical_formula_sum "Si O2"
_cell_formula_units_Z 60
_cell_length_a 13.735923
_cell_length_b 11.316587
_cell_length_c 18.990466
_cell_angle_alpha 90.000000
_cell_angle_beta 56.944076
_cell_angle_gamma 90.000000
_cell_volume 2474.142801
_symmetry_space_group_name_H-M "C 2/M"
_symmetry_group_IT_number 12
_symmetry_cell_setting 'monoclinic'
loop_
_space_group_symop_operation_xyz
x,y,z
-x,y,-z
-x,-y,-z
x,-y,z
1/2+x,1/2+y,z
1/2-x,1/2+y,-z
1/2-x,1/2-y,-z
1/2+x,1/2-y,z
loop_
_atom_site_type_symbol
_atom_site_label
_atom_site_fract_x
_atom_site_fract_y
_atom_site_fract_z
Si Si1 0.690859 0.871764 0.570488
Si Si2 0.867583 0.132924 0.663883
Si Si3 0.876521 0.872542 0.379223
Si Si4 0.446170 0.131879 0.610695
Si Si5 0.610536 0.140771 0.829083
Si Si6 0.569604 0.865015 0.215228
Si Si7 0.000000 0.784032 0.000000
Si Si8 0.725943 0.630246 0.967896
O O1 0.810586 0.872696 0.481021
O O2 0.666125 0.757263 0.627826
O O3 0.586372 0.867739 0.553833
O O4 0.676217 0.000000 0.611240
O O5 0.893900 0.245648 0.603373
O O6 0.745621 0.152758 0.752219
O O7 0.984793 0.128031 0.665754
O O8 0.863922 0.000000 0.633477
O O9 0.846231 0.000000 0.357346
O O10 0.422742 0.146722 0.703867
O O11 0.408049 0.000000 0.603618
O O12 0.522590 0.191726 0.803106
O O13 0.572064 0.204967 0.915971
O O14 0.593911 0.000000 0.846855
O O15 0.696489 0.854340 0.132344
O O16 0.534617 0.000000 0.221764
O O17 0.091275 0.864252 0.004512
O O18 0.757373 0.500000 0.986082
O O19 0.750000 0.750000 0.000000
#
# Coordination Sequence:
#
# PCOD9191889 Si02
#       8
#     8   8   8   8   8   8   4   8
#     4   8  13  21  37  63  89 119 157 196 245 300
#     4   9  17  29  46  69  96 126 163 207 254 306
#     4   8  13  22  37  60  92 121 151 199 249 295
#     4   9  16  28  48  69  94 127 164 206 252 307
#     4  10  20  33  52  76 101 136 178 214 262 325
#     4   9  18  34  52  71 100 136 171 206 254 315
#     4  12  22  36  60  84 109 138 181 232 273 312
#     4  11  23  40  60  84 113 143 178 222 271 323
#
# _framework density 24.250824000000001
#
# number of rings (size 3 to 8) (size 9 to 14) (size 15 to 20)
#    0.000    2.667    1.333    1.200    0.000    0.533 
#    0.000    1.333    0.000    0.800    0.000    5.600 
#    0.000    0.000    0.000   43.200    0.000   20.267 
#
# Total GULP energy -167086.288777 kJ/mol
# GULP energy per Si atom -5569.542959 kJ/mol
# Density = 2.419563 g / cm^3
# Si number density = 24.250824 Si / 1000 Ang^3
#
#
#
# Elastic Constant Matrix: (Units=GPa)
#
#
# Indices 1 2 3 4 5 6 
#
# 1 89.7006 28.8506 16.9010 0.0000 -26.2362 0.0000
# 2 28.8506 215.4804 35.3654 0.0000 2.8294 0.0000
# 3 16.9010 35.3654 99.8184 0.0000 -11.0548 0.0000
# 4 0.0000 0.0000 0.0000 22.7840 0.0000 -18.8172
# 5 -26.2362 2.8294 -11.0548 0.0000 38.3056 0.0000
# 6 0.0000 0.0000 0.0000 -18.8172 0.0000 2.2191
#
#
#
# Elastic Compliance Matrix: (Units=1/GPa)
#
#
# Indices 1 2 3 4 5 6 
#
# 1 0.014895 -0.002015 -0.000683 0.000000 0.010153 0.000000
# 2 -0.002015 0.005230 -0.001764 0.000000 -0.002276 0.000000
# 3 -0.000683 -0.001764 0.011075 0.000000 0.002858 0.000000
# 4 0.000000 0.000000 0.000000 -0.007311 0.000000 -0.061995
# 5 0.010153 -0.002276 0.002858 0.000000 0.034053 0.000000
# 6 0.000000 0.000000 0.000000 -0.061995 0.000000 -0.075064
#
#
# Mechanical properties :
#
#
# Convention : Reuss Voigt Hill
#
# Bulk Modulus (GPa) = 44.89327 63.02596 53.95961
# Shear Modulus (GPa) = -6481.01427 34.25391 -3223.38018
#
# Velocity S-wave (km/s) = -51.75224 3.76238 -36.49752
# Velocity P-wave (km/s) = 59.60291 6.70221 41.87832
#
# Compressibility (1/GPa) = 0.02227505
#
# Stress axis : x y z
#
# Youngs Moduli (GPa) = 67.13688 191.20479 90.29042
#
# Poissons Ratio (x) = 0.38536 0.06171
# Poissons Ratio (y) = 0.13531 0.15925
# Poissons Ratio (z) = 0.04588 0.33724
#
# Static dielectric constant tensor:
#      x y z
#    x 2.005340 0.000000 -0.011880 
#    y 0.000000 2.073240 0.000000 
#    z -0.011880 0.000000 1.903540 
# 
# From -- ./inp_files/339571.got.cif
#   From: 2010.05.17/outbox.cif.g08.bks.cpg/sg12_170_cif.got.tgz:339571.got - 2010.06.03 13:09:07.
