data_PCOD9191450
_publ_section_title
;
Structure prediction by ZEFSAII (Michael W. Deem and Ramdas Pophale) SiO2 
 PCOD9191450
Probable space group: C 2/M
;
_chemical_formula_sum "Si O2"
_cell_formula_units_Z 42
_cell_length_a 13.283033
_cell_length_b 20.660997
_cell_length_c 8.274168
_cell_angle_alpha 90.000000
_cell_angle_beta 44.868995
_cell_angle_gamma 90.000000
_cell_volume 1602.000283
_symmetry_space_group_name_H-M "C 2/M"
_symmetry_group_IT_number 12
_symmetry_cell_setting 'monoclinic'
loop_
_space_group_symop_operation_xyz
x,y,z
-x,y,-z
-x,-y,-z
x,-y,z
1/2+x,1/2+y,z
1/2-x,1/2+y,-z
1/2-x,1/2-y,-z
1/2+x,1/2-y,z
loop_
_atom_site_type_symbol
_atom_site_label
_atom_site_fract_x
_atom_site_fract_y
_atom_site_fract_z
Si Si1 0.770697 0.396836 0.674739
Si Si2 0.500000 0.500000 0.000000
Si Si3 0.001087 0.831236 0.672239
Si Si4 0.687775 0.124334 0.714651
Si Si5 0.263850 0.929506 0.019560
Si Si6 0.668343 0.260226 0.917287
O O1 0.860469 0.397618 0.406930
O O2 0.735607 0.320851 0.746779
O O3 0.627427 0.442518 0.833666
O O4 0.842509 0.418993 0.761297
O O5 0.141678 0.873781 0.512258
O O6 0.000000 0.796024 0.500000
O O7 0.865598 0.878396 0.832348
O O8 0.984307 0.783064 0.838732
O O9 0.655006 0.079633 0.904781
O O10 0.663206 0.195612 0.817711
O O11 0.195347 0.000000 0.095535
O O12 0.750000 0.250000 0.000000
#
# Coordination Sequence:
#
# PCOD9191450 Si02
#       6
#     8   2   8   8   8   8
#     4  11  22  35  52  79 114 157 189 236 288 353
#     4  12  24  40  58  92 132 154 196 242 306 386
#     4   9  18  32  51  77 107 150 189 240 297 339
#     4  11  22  35  56  78 113 161 193 242 294 354
#     4  10  20  33  49  79 116 151 193 228 286 366
#     4  11  19  37  53  76 116 155 205 243 283 358
#
# _framework density 26.217222
#
# number of rings (size 3 to 8) (size 9 to 14) (size 15 to 20)
#    0.000    1.524    6.667    2.857    1.333    3.429 
#    0.000    0.000    0.000    0.000    0.000    0.000 
#    2.857    9.905    0.000    0.000    0.000    0.000 
#
# Total GULP energy -117046.021914 kJ/mol
# GULP energy per Si atom -5573.620091 kJ/mol
# Density = 2.615755 g / cm^3
# Si number density = 26.217222 Si / 1000 Ang^3
#
#
#
# Elastic Constant Matrix: (Units=GPa)
#
#
# Indices 1 2 3 4 5 6 
#
# 1 104.9394 20.3641 66.2537 0.0000 24.4492 0.0000
# 2 20.3641 161.3147 52.9223 0.0000 23.4226 0.0000
# 3 66.2537 52.9223 209.5641 0.0000 62.0200 0.0000
# 4 0.0000 0.0000 0.0000 7.7367 0.0000 2.3013
# 5 24.4492 23.4226 62.0200 0.0000 53.5896 0.0000
# 6 0.0000 0.0000 0.0000 2.3013 0.0000 24.9846
#
#
#
# Elastic Compliance Matrix: (Units=1/GPa)
#
#
# Indices 1 2 3 4 5 6 
#
# 1 0.012007 -0.000211 -0.003268 0.000000 -0.001603 0.000000
# 2 -0.000211 0.006842 -0.001224 0.000000 -0.001478 0.000000
# 3 -0.003268 -0.001224 0.008387 0.000000 -0.007681 0.000000
# 4 0.000000 0.000000 0.000000 0.132894 0.000000 -0.012241
# 5 -0.001603 -0.001478 -0.007681 0.000000 0.028927 0.000000
# 6 0.000000 0.000000 0.000000 -0.012241 0.000000 0.041152
#
#
# Mechanical properties :
#
#
# Convention : Reuss Voigt Hill
#
# Bulk Modulus (GPa) = 56.08352 83.87760 69.98056
# Shear Modulus (GPa) = 20.36175 39.68072 30.02124
#
# Velocity S-wave (km/s) = 2.78988 3.89464 3.38760
# Velocity P-wave (km/s) = 5.64058 7.23098 6.48472
#
# Compressibility (1/GPa) = 0.01783055
#
# Stress axis : x y z
#
# Youngs Moduli (GPa) = 83.28299 146.16174 119.22916
#
# Poissons Ratio (x) = 0.03080 0.38968
# Poissons Ratio (y) = 0.01755 0.14591
# Poissons Ratio (z) = 0.27220 0.17887
#
# Static dielectric constant tensor:
#      x y z
#    x 2.396220 0.000000 0.148650 
#    y 0.000000 2.051950 0.000000 
#    z 0.148650 0.000000 2.144280 
# 
# From -- ./inp_files/76666.got.cif
#   From: 2010.05.17/outbox.cif.g08.bks.cpg/sg12_39_cif.got.tgz:76666.got - 2010.06.03 13:09:07.
