data_PCOD9191193
_publ_section_title
;
Structure prediction by ZEFSAII (Michael W. Deem and Ramdas Pophale) SiO2 
 PCOD9191193
Probable space group: C 2/M
;
_chemical_formula_sum "Si O2"
_cell_formula_units_Z 56
_cell_length_a 23.790855
_cell_length_b 19.620526
_cell_length_c 20.343357
_cell_angle_alpha 90.000000
_cell_angle_beta 161.653192
_cell_angle_gamma 90.000000
_cell_volume 2989.054780
_symmetry_space_group_name_H-M "C 2/M"
_symmetry_group_IT_number 12
_symmetry_cell_setting 'monoclinic'
loop_
_space_group_symop_operation_xyz
x,y,z
-x,y,-z
-x,-y,-z
x,-y,z
1/2+x,1/2+y,z
1/2-x,1/2+y,-z
1/2-x,1/2-y,-z
1/2+x,1/2-y,z
loop_
_atom_site_type_symbol
_atom_site_label
_atom_site_fract_x
_atom_site_fract_y
_atom_site_fract_z
Si Si1 0.934909 0.666175 0.495956
Si Si2 0.697063 0.792053 0.190744
Si Si3 0.692535 0.924264 0.249779
Si Si4 0.511914 0.081434 0.701955
Si Si5 0.611114 0.654874 0.865584
Si Si6 0.233677 0.580879 0.448877
Si Si7 0.263692 0.269690 0.119137
O O1 0.785166 0.720745 0.309552
O O2 0.000000 0.632484 0.500000
O O3 0.905129 0.613496 0.521650
O O4 0.089649 0.715329 0.694779
O O5 0.788783 0.859056 0.324233
O O6 0.691428 0.800038 0.106220
O O7 0.500000 0.789807 0.000000
O O8 0.672188 0.910886 0.305010
O O9 0.775892 0.000000 0.334869
O O10 0.500000 0.927894 0.000000
O O11 0.413105 0.102893 0.660070
O O12 0.512738 0.000000 0.699530
O O13 0.715968 0.108434 0.926034
O O14 0.422379 0.618895 0.666378
O O15 0.644031 0.677167 0.827001
O O16 0.623846 0.724582 0.922172
O O17 0.262405 0.500000 0.490806
#
# Coordination Sequence:
#
# PCOD9191193 Si02
#       7
#     8   8   8   8   8   8   8
#     4   9  19  38  56  79 116 147 184 241 284 336
#     4  10  20  32  57  83 109 148 191 229 282 334
#     4   9  19  35  54  80 114 147 184 231 276 329
#     4  10  22  37  59  85 111 153 194 232 288 339
#     4  10  20  37  58  81 119 145 185 239 282 337
#     4  10  21  37  58  83 113 150 190 233 279 336
#     4   9  20  36  52  84 113 147 186 233 286 337
#
# _framework density 18.735019999999999
#
# number of rings (size 3 to 8) (size 9 to 14) (size 15 to 20)
#    0.000    2.429    0.000    1.286    6.000    0.286 
#    0.000    3.571    0.000    6.000    0.000    0.000 
#    0.000    0.000    0.000    0.000    0.000    0.000 
#
# Total GULP energy -156016.222765 kJ/mol
# GULP energy per Si atom -5572.007956 kJ/mol
# Density = 1.869238 g / cm^3
# Si number density = 18.735020 Si / 1000 Ang^3
#
#
#
# Elastic Constant Matrix: (Units=GPa)
#
#
# Indices 1 2 3 4 5 6 
#
# 1 125.3785 52.0391 18.6945 -0.0247 -14.8979 -0.0848
# 2 52.0391 72.2557 16.7338 -0.0125 -0.1927 -0.0366
# 3 18.6945 16.7338 55.0892 -0.0349 -0.8680 -0.1144
# 4 -0.0247 -0.0125 -0.0349 28.2060 -0.0077 11.3357
# 5 -14.8979 -0.1927 -0.8680 -0.0077 23.1961 -0.0384
# 6 -0.0848 -0.0366 -0.1144 11.3357 -0.0384 71.8006
#
#
#
# Elastic Compliance Matrix: (Units=1/GPa)
#
#
# Indices 1 2 3 4 5 6 
#
# 1 0.012857 -0.008882 -0.001537 0.000003 0.008126 0.000012
# 2 -0.008882 0.021023 -0.003461 -0.000001 -0.005660 -0.000008
# 3 -0.001537 -0.003461 0.019721 0.000011 -0.000278 0.000026
# 4 0.000003 -0.000001 0.000011 0.037855 0.000005 -0.005976
# 5 0.008126 -0.005660 -0.000278 0.000005 0.048273 0.000031
# 6 0.000012 -0.000008 0.000026 -0.005976 0.000031 0.014871
#
#
# Mechanical properties :
#
#
# Convention : Reuss Voigt Hill
#
# Bulk Modulus (GPa) = 38.69819 47.51757 43.10788
# Shear Modulus (GPa) = 26.18148 35.65760 30.91954
#
# Velocity S-wave (km/s) = 3.74232 4.36737 4.06687
# Velocity P-wave (km/s) = 6.27484 7.13091 6.71653
#
# Compressibility (1/GPa) = 0.02584100
#
# Stress axis : x y z
#
# Youngs Moduli (GPa) = 77.77696 47.56635 50.70753
#
# Poissons Ratio (x) = 0.42250 0.07794
# Poissons Ratio (y) = 0.69084 0.17550
# Poissons Ratio (z) = 0.11954 0.16463
#
# Static dielectric constant tensor:
#      x y z
#    x 1.668750 0.000000 -0.013400 
#    y 0.000000 1.701310 -0.000010 
#    z -0.013400 -0.000010 1.659150 
# 
# From -- ./inp_files/286106.got.cif
#   From: 2010.05.17/outbox.cif.g08.bks.cpg/sg12_144_cif.got.tgz:286106.got - 2010.06.03 13:09:07.
