data_PCOD9191536
_publ_section_title
;
Structure prediction by ZEFSAII (Michael W. Deem and Ramdas Pophale) SiO2 
 PCOD9191536
Probable space group: C 2/M
;
_chemical_formula_sum "Si O2"
_cell_formula_units_Z 64
_cell_length_a 21.338234
_cell_length_b 8.761958
_cell_length_c 23.042572
_cell_angle_alpha 90.000000
_cell_angle_beta 53.423342
_cell_angle_gamma 90.000000
_cell_volume 3459.702492
_symmetry_space_group_name_H-M "C 2/M"
_symmetry_group_IT_number 12
_symmetry_cell_setting 'monoclinic'
loop_
_space_group_symop_operation_xyz
x,y,z
-x,y,-z
-x,-y,-z
x,-y,z
1/2+x,1/2+y,z
1/2-x,1/2+y,-z
1/2-x,1/2-y,-z
1/2+x,1/2-y,z
loop_
_atom_site_type_symbol
_atom_site_label
_atom_site_fract_x
_atom_site_fract_y
_atom_site_fract_z
Si Si1 0.026174 0.175896 0.809846
Si Si2 0.981633 0.182627 0.310072
Si Si3 0.820172 0.330700 0.298974
Si Si4 0.056482 0.315688 0.916829
Si Si5 0.729119 0.171985 0.807723
Si Si6 0.385969 0.181173 0.684459
Si Si7 0.665627 0.181562 0.416440
Si Si8 0.162856 0.681053 0.545775
O O1 0.987287 0.232806 0.771298
O O2 0.115735 0.199582 0.740434
O O3 0.023395 0.262175 0.872686
O O4 0.006655 0.000000 0.830554
O O5 0.898040 0.251709 0.374622
O O6 0.043162 0.233659 0.324282
O O7 0.974935 0.000000 0.311790
O O8 0.849831 0.500000 0.299247
O O9 0.791345 0.343945 0.248816
O O10 0.745035 0.277946 0.374892
O O11 0.060012 0.500000 0.913335
O O12 0.146607 0.264791 0.877425
O O13 0.000000 0.267580 0.000000
O O14 0.806853 0.272440 0.762710
O O15 0.744368 0.000000 0.822452
O O16 0.376644 0.220950 0.620885
O O17 0.397672 0.000000 0.681350
O O18 0.627593 0.207541 0.500183
O O19 0.683570 0.000000 0.402617
O O20 0.169285 0.500000 0.550111
O O21 0.250000 0.750000 0.500000
#
# Coordination Sequence:
#
# PCOD9191536 Si02
#       8
#     8   8   8   8   8   8   8   8
#     4  10  20  33  50  73 104 139 172 211 259 308
#     4  11  24  39  53  73 103 139 180 224 267 312
#     4   9  16  27  48  75 100 131 171 212 256 307
#     4   9  18  33  56  87 117 141 167 204 253 308
#     4   8  15  29  49  75 107 137 164 201 249 300
#     4  10  20  35  55  76  99 135 182 224 263 308
#     4   9  19  34  51  73 103 135 170 219 272 317
#     4  11  23  38  55  77 106 138 174 219 273 328
#
# _framework density 18.498699999999999
#
# number of rings (size 3 to 8) (size 9 to 14) (size 15 to 20)
#    0.000    2.375    0.000    3.375    0.000   10.250 
#    0.000    2.500    0.000    0.750    0.000    0.000 
#    0.000    0.000    0.000    0.000    0.000    0.000 
#
# Total GULP energy -178179.314468 kJ/mol
# GULP energy per Si atom -5568.103577 kJ/mol
# Density = 1.845660 g / cm^3
# Si number density = 18.498700 Si / 1000 Ang^3
#
#
#
# Elastic Constant Matrix: (Units=GPa)
#
#
# Indices 1 2 3 4 5 6 
#
# 1 76.7238 22.8691 39.7771 0.0000 9.3875 0.0002
# 2 22.8691 33.8210 22.1108 0.0000 4.8577 0.0006
# 3 39.7771 22.1108 118.6570 0.0000 15.0254 0.0000
# 4 0.0000 0.0000 0.0000 20.6255 0.0000 -0.1374
# 5 9.3875 4.8577 15.0254 0.0000 21.0919 0.0000
# 6 0.0002 0.0006 0.0000 -0.1374 0.0000 27.5277
#
#
#
# Elastic Compliance Matrix: (Units=1/GPa)
#
#
# Indices 1 2 3 4 5 6 
#
# 1 0.018255 -0.009282 -0.003992 0.000000 -0.003143 0.000000
# 2 -0.009282 0.038641 -0.003831 0.000000 -0.002039 -0.000001
# 3 -0.003992 -0.003831 0.011149 0.000000 -0.005283 0.000000
# 4 0.000000 0.000000 0.000000 0.048485 0.000000 0.000242
# 5 -0.003143 -0.002039 -0.005283 0.000000 0.053044 0.000000
# 6 0.000000 -0.000001 0.000000 0.000242 0.000000 0.036328
#
#
# Mechanical properties :
#
#
# Convention : Reuss Voigt Hill
#
# Bulk Modulus (GPa) = 29.55506 44.30178 36.92842
# Shear Modulus (GPa) = 19.88945 23.47865 21.68405
#
# Velocity S-wave (km/s) = 3.28255 3.56646 3.42745
# Velocity P-wave (km/s) = 5.51166 6.40000 5.97237
#
# Compressibility (1/GPa) = 0.03383515
#
# Stress axis : x y z
#
# Youngs Moduli (GPa) = 54.78061 25.87912 89.69748
#
# Poissons Ratio (x) = 0.24022 0.35805
# Poissons Ratio (y) = 0.50849 0.34359
# Poissons Ratio (z) = 0.21867 0.09913
#
# Static dielectric constant tensor:
#      x y z
#    x 1.688960 0.000000 0.017820 
#    y 0.000000 1.641310 0.000000 
#    z 0.017820 0.000000 1.653650 
# 
# From -- ./inp_files/345924.got.cif
#   From: 2010.05.17/outbox.cif.g08.bks.cpg/sg12_173_cif.got.tgz:345924.got - 2010.06.03 13:09:07.
