data_PCOD9191885
_publ_section_title
;
Structure prediction by ZEFSAII (Michael W. Deem and Ramdas Pophale) SiO2 
 PCOD9191885
Probable space group: C 2/M
;
_chemical_formula_sum "Si O2"
_cell_formula_units_Z 56
_cell_length_a 11.049951
_cell_length_b 13.820502
_cell_length_c 18.219953
_cell_angle_alpha 90.000000
_cell_angle_beta 85.919500
_cell_angle_gamma 90.000000
_cell_volume 2775.422558
_symmetry_space_group_name_H-M "C 2/M"
_symmetry_group_IT_number 12
_symmetry_cell_setting 'monoclinic'
loop_
_space_group_symop_operation_xyz
x,y,z
-x,y,-z
-x,-y,-z
x,-y,z
1/2+x,1/2+y,z
1/2-x,1/2+y,-z
1/2-x,1/2-y,-z
1/2+x,1/2-y,z
loop_
_atom_site_type_symbol
_atom_site_label
_atom_site_fract_x
_atom_site_fract_y
_atom_site_fract_z
Si Si1 0.801754 0.887997 0.868056
Si Si2 0.089795 0.110979 0.822630
Si Si3 0.196449 0.892884 0.547323
Si Si4 0.362039 0.618009 0.019922
Si Si5 0.738455 0.243470 0.737504
Si Si6 0.604405 0.107070 0.333118
Si Si7 0.639340 0.185224 0.589821
O O1 0.783707 0.851478 0.952738
O O2 0.743389 0.828250 0.805434
O O3 0.947367 0.885499 0.847366
O O4 0.763516 0.000000 0.866042
O O5 0.128928 0.182171 0.757206
O O6 0.119140 0.000000 0.802385
O O7 0.163201 0.138832 0.893950
O O8 0.284645 0.895115 0.614177
O O9 0.283089 0.870917 0.474263
O O10 0.118001 0.795603 0.562238
O O11 0.139524 0.000000 0.543319
O O12 0.364981 0.500000 0.015720
O O13 0.500000 0.652160 0.000000
O O14 0.858423 0.310153 0.725899
O O15 0.716503 0.190996 0.661583
O O16 0.485977 0.135211 0.383962
O O17 0.590085 0.000000 0.301156
#
# Coordination Sequence:
#
# PCOD9191885 Si02
#       7
#     8   8   8   8   8   8   8
#     4   9  18  32  48  69  99 131 161 197 245 292
#     4   9  17  32  52  70  93 127 166 206 239 274
#     4   9  19  36  57  75  92 123 166 204 236 277
#     4   7  12  26  48  69  89 121 165 204 236 276
#     4  11  21  31  47  75 104 128 158 196 241 292
#     4  10  20  35  54  73  96 129 165 199 235 281
#     4  10  20  33  52  76 101 124 158 200 241 287
#
# _framework density 20.177108
#
# number of rings (size 3 to 8) (size 9 to 14) (size 15 to 20)
#    0.000    2.714    0.000    3.857    0.000    3.429 
#    0.000    0.714    0.000   12.000    0.000    0.000 
#    0.000   14.286    0.000    0.000    0.000    0.000 
#
# Total GULP energy -156082.079282 kJ/mol
# GULP energy per Si atom -5574.359974 kJ/mol
# Density = 2.013118 g / cm^3
# Si number density = 20.177108 Si / 1000 Ang^3
#
#
#
# Elastic Constant Matrix: (Units=GPa)
#
#
# Indices 1 2 3 4 5 6 
#
# 1 16.5880 4.2955 -9.3498 0.0000 -3.1701 0.0000
# 2 4.2955 70.5143 19.2987 0.0000 9.6890 0.0000
# 3 -9.3498 19.2987 39.6912 0.0000 5.4501 0.0000
# 4 0.0000 0.0000 0.0000 7.3778 0.0000 1.7434
# 5 -3.1701 9.6890 5.4501 0.0000 17.6021 0.0000
# 6 0.0000 0.0000 0.0000 1.7434 0.0000 16.5624
#
#
#
# Elastic Compliance Matrix: (Units=1/GPa)
#
#
# Indices 1 2 3 4 5 6 
#
# 1 0.079485 -0.013153 0.023143 0.000000 0.014389 0.000000
# 2 -0.013153 0.019361 -0.011200 0.000000 -0.009558 0.000000
# 3 0.023143 -0.011200 0.036213 0.000000 -0.000880 0.000000
# 4 0.000000 0.000000 0.000000 0.139000 0.000000 -0.014632
# 5 0.014389 -0.009558 -0.000880 0.000000 0.064937 0.000000
# 6 0.000000 0.000000 0.000000 -0.014632 0.000000 0.061918
#
#
# Mechanical properties :
#
#
# Convention : Reuss Voigt Hill
#
# Bulk Modulus (GPa) = 7.53922 17.25359 12.39641
# Shear Modulus (GPa) = 11.17205 15.81173 13.49189
#
# Velocity S-wave (km/s) = 2.35563 2.80241 2.58868
# Velocity P-wave (km/s) = 3.33816 4.36359 3.88486
#
# Compressibility (1/GPa) = 0.13263964
#
# Stress axis : x y z
#
# Youngs Moduli (GPa) = 12.58099 51.64923 27.61472
#
# Poissons Ratio (x) = 0.67935 -0.63909
# Poissons Ratio (y) = 0.16548 0.30928
# Poissons Ratio (z) = -0.29117 0.57846
#
# Static dielectric constant tensor:
#      x y z
#    x 1.705560 0.000000 0.020320 
#    y 0.000000 1.751810 0.000000 
#    z 0.020320 0.000000 1.734910 
# 
# From -- ./inp_files/204977.got.cif
#   From: 2010.05.17/outbox.cif.g08.bks.cpg/sg12_103_cif.got.tgz:204977.got - 2010.06.03 13:09:07.
