data_PCOD9191629
_publ_section_title
;
Structure prediction by ZEFSAII (Michael W. Deem and Ramdas Pophale) SiO2 
 PCOD9191629
Probable space group: C 2/M
;
_chemical_formula_sum "Si O2"
_cell_formula_units_Z 56
_cell_length_a 23.535217
_cell_length_b 7.406574
_cell_length_c 19.118153
_cell_angle_alpha 90.000000
_cell_angle_beta 43.065480
_cell_angle_gamma 90.000000
_cell_volume 2275.602885
_symmetry_space_group_name_H-M "C 2/M"
_symmetry_group_IT_number 12
_symmetry_cell_setting 'monoclinic'
loop_
_space_group_symop_operation_xyz
x,y,z
-x,y,-z
-x,-y,-z
x,-y,z
1/2+x,1/2+y,z
1/2-x,1/2+y,-z
1/2-x,1/2-y,-z
1/2+x,1/2-y,z
loop_
_atom_site_type_symbol
_atom_site_label
_atom_site_fract_x
_atom_site_fract_y
_atom_site_fract_z
Si Si1 0.373809 0.780977 0.308179
Si Si2 0.050022 0.701410 0.895182
Si Si3 0.712267 0.284847 0.826259
Si Si4 0.295537 0.715639 0.613123
Si Si5 0.519882 0.278604 0.560997
Si Si6 0.672315 0.714806 0.019777
Si Si7 0.470972 0.711520 0.748978
O O1 0.435310 0.711273 0.191546
O O2 0.281625 0.718611 0.367029
O O3 0.430265 0.728842 0.322742
O O4 0.371937 0.000000 0.307460
O O5 0.013680 0.500000 0.917522
O O6 0.140598 0.689475 0.846278
O O7 0.000000 0.799376 0.000000
O O8 0.699270 0.500000 0.837984
O O9 0.787360 0.253367 0.704217
O O10 0.699546 0.220258 0.917496
O O11 0.294167 0.500000 0.606959
O O12 0.385524 0.781473 0.509941
O O13 0.500000 0.222211 0.500000
O O14 0.517776 0.500000 0.563368
O O15 0.461824 0.217511 0.677810
O O16 0.659885 0.500000 0.022277
O O17 0.590954 0.787322 0.135198
O O18 0.750000 0.750000 0.000000
O O19 0.450903 0.500000 0.764362
#
# Coordination Sequence:
#
# PCOD9191629 Si02
#       7
#     8   8   8   8   8   8   8
#     4   9  18  32  51  80 115 146 181 224 273 331
#     4   9  17  30  50  76 106 145 189 224 261 322
#     4  10  20  33  50  78 113 144 179 225 274 326
#     4   9  19  36  59  85 111 147 192 231 272 330
#     4   9  19  36  60  85 107 139 189 242 280 323
#     4  10  23  38  54  80 112 146 187 230 276 333
#     4  10  21  37  57  84 112 142 186 233 279 333
#
# _framework density 24.608862999999999
#
# number of rings (size 3 to 8) (size 9 to 14) (size 15 to 20)
#    0.000    2.571    0.000    2.143    2.000    4.857 
#    0.000    0.714    0.000    0.857    0.000    0.000 
#    0.000    0.000    0.000    0.000    0.000    0.000 
#
# Total GULP energy -155975.736607 kJ/mol
# GULP energy per Si atom -5570.562022 kJ/mol
# Density = 2.455285 g / cm^3
# Si number density = 24.608863 Si / 1000 Ang^3
#
#
#
# Elastic Constant Matrix: (Units=GPa)
#
#
# Indices 1 2 3 4 5 6 
#
# 1 96.5697 -19.9078 44.9505 0.0028 17.6494 -0.0169
# 2 -19.9078 88.7046 -7.1170 -0.0008 -2.8503 -0.0117
# 3 44.9505 -7.1170 138.2406 0.0075 19.1644 -0.0148
# 4 0.0028 -0.0008 0.0075 -3.6152 -0.0045 2.4935
# 5 17.6494 -2.8503 19.1644 -0.0045 42.4613 0.0075
# 6 -0.0169 -0.0117 -0.0148 2.4935 0.0075 20.1602
#
#
#
# Elastic Compliance Matrix: (Units=1/GPa)
#
#
# Indices 1 2 3 4 5 6 
#
# 1 0.013266 0.002564 -0.003671 0.000013 -0.003685 0.000010
# 2 0.002564 0.011827 -0.000200 0.000005 -0.000182 0.000008
# 3 -0.003671 -0.000200 0.008755 0.000020 -0.002439 0.000002
# 4 0.000013 0.000005 0.000020 -0.254866 -0.000047 0.031523
# 5 -0.003685 -0.000182 -0.002439 -0.000047 0.026171 -0.000009
# 6 0.000010 0.000008 0.000002 0.031523 -0.000009 0.045704
#
#
# Mechanical properties :
#
#
# Convention : Reuss Voigt Hill
#
# Bulk Modulus (GPa) = 32.01429 39.92958 35.97193
# Shear Modulus (GPa) = -36.73257 32.17388 -2.27935
#
# Velocity S-wave (km/s) = -3.86768 3.61974 -0.96345
# Velocity P-wave (km/s) = 2.62827 5.80783 3.66218
#
# Compressibility (1/GPa) = 0.03123606
#
# Stress axis : x y z
#
# Youngs Moduli (GPa) = 75.38082 84.55222 114.21791
#
# Poissons Ratio (x) = -0.21682 0.41926
# Poissons Ratio (y) = -0.19330 0.02281
# Poissons Ratio (z) = 0.27670 0.01689
#
# Static dielectric constant tensor:
#      x y z
#    x 1.983220 0.000000 -0.050020 
#    y 0.000000 1.969010 -0.000030 
#    z -0.050020 -0.000030 1.837300 
# 
# From -- ./inp_files/288199.got.cif
#   From: 2010.05.17/outbox.cif.g08.bks.cpg/sg12_145_cif.got.tgz:288199.got - 2010.06.03 13:09:07.
