data_PCOD9191581
_publ_section_title
;
Structure prediction by ZEFSAII (Michael W. Deem and Ramdas Pophale) SiO2 
 PCOD9191581
Probable space group: C 2/M
;
_chemical_formula_sum "Si O2"
_cell_formula_units_Z 58
_cell_length_a 19.361698
_cell_length_b 7.365196
_cell_length_c 16.291788
_cell_angle_alpha 90.000000
_cell_angle_beta 114.703615
_cell_angle_gamma 90.000000
_cell_volume 2110.633063
_symmetry_space_group_name_H-M "C 2/M"
_symmetry_group_IT_number 12
_symmetry_cell_setting 'monoclinic'
loop_
_space_group_symop_operation_xyz
x,y,z
-x,y,-z
-x,-y,-z
x,-y,z
1/2+x,1/2+y,z
1/2-x,1/2+y,-z
1/2-x,1/2-y,-z
1/2+x,1/2-y,z
loop_
_atom_site_type_symbol
_atom_site_label
_atom_site_fract_x
_atom_site_fract_y
_atom_site_fract_z
Si Si1 0.870675 0.222596 0.576806
Si Si2 0.567127 0.719605 0.130906
Si Si3 0.000000 0.000000 0.500000
Si Si4 0.382835 0.794208 0.394032
Si Si5 0.843660 0.222650 0.973309
Si Si6 0.985926 0.214386 0.247666
Si Si7 0.781946 0.781360 0.689319
Si Si8 0.818899 0.704206 0.150813
O O1 0.865132 0.299009 0.483771
O O2 0.948709 0.283257 0.659707
O O3 0.805049 0.274721 0.608445
O O4 0.874237 0.000000 0.568300
O O5 0.558561 0.500000 0.120223
O O6 0.585201 0.779146 0.047258
O O7 0.504082 0.784125 0.164286
O O8 0.645925 0.760710 0.218496
O O9 0.952238 0.156859 0.426150
O O10 0.300809 0.722879 0.321186
O O11 0.400319 0.000000 0.377210
O O12 0.765272 0.286449 0.890776
O O13 0.843586 0.000000 0.977720
O O14 0.838568 0.288944 0.063286
O O15 0.898680 0.236680 0.229040
O O16 0.999814 0.000000 0.249883
O O17 0.778063 0.000000 0.685268
O O18 0.806644 0.500000 0.172987
#
# Coordination Sequence:
#
# PCOD9191581 Si02
#       8
#     8   8   2   8   8   8   8   8
#     4   9  17  35  59  85 116 145 183 241 288 338
#     4   8  15  32  56  82 106 136 182 234 275 327
#     4  12  26  44  56  78 132 152 198 246 284 346
#     4  11  22  39  62  85 114 161 198 235 290 342
#     4   9  18  34  55  73  97 139 188 227 270 333
#     4   9  18  33  56  81 109 142 178 224 280 332
#     4   8  16  32  59  88 112 141 187 238 291 343
#     4  10  20  33  50  74 108 142 179 229 277 329
#
# _framework density 27.479907999999998
#
# number of rings (size 3 to 8) (size 9 to 14) (size 15 to 20)
#    0.000    2.759    0.690    2.690    0.000    1.655 
#    3.724    3.448    3.034    0.000    0.000    0.000 
#    0.000    0.000    0.000    0.000    0.000    0.000 
#
# Total GULP energy -162034.019903 kJ/mol
# GULP energy per Si atom -5587.379997 kJ/mol
# Density = 2.741736 g / cm^3
# Si number density = 27.479908 Si / 1000 Ang^3
#
#
#
# Elastic Constant Matrix: (Units=GPa)
#
#
# Indices 1 2 3 4 5 6 
#
# 1 170.8180 3.1036 22.7137 0.0000 6.5768 0.0000
# 2 3.1036 123.5076 3.4874 0.0000 7.1552 0.0000
# 3 22.7137 3.4874 75.3945 0.0000 18.1173 0.0000
# 4 0.0000 0.0000 0.0000 12.8864 0.0000 0.6878
# 5 6.5768 7.1552 18.1173 0.0000 63.7088 0.0000
# 6 0.0000 0.0000 0.0000 0.6878 0.0000 17.4685
#
#
#
# Elastic Compliance Matrix: (Units=1/GPa)
#
#
# Indices 1 2 3 4 5 6 
#
# 1 0.006100 -0.000096 -0.001808 0.000000 -0.000105 0.000000
# 2 -0.000096 0.008153 -0.000140 0.000000 -0.000866 0.000000
# 3 -0.001808 -0.000140 0.014776 0.000000 -0.004000 0.000000
# 4 0.000000 0.000000 0.000000 0.077764 0.000000 -0.003062
# 5 -0.000105 -0.000866 -0.004000 0.000000 0.016942 0.000000
# 6 0.000000 0.000000 0.000000 -0.003062 0.000000 0.057366
#
#
# Mechanical properties :
#
#
# Convention : Reuss Voigt Hill
#
# Bulk Modulus (GPa) = 40.09532 47.59217 43.84375
# Shear Modulus (GPa) = 25.83918 41.50711 33.67314
#
# Velocity S-wave (km/s) = 3.06975 3.89067 3.50433
# Velocity P-wave (km/s) = 5.21411 6.12696 5.68887
#
# Compressibility (1/GPa) = 0.02494057
#
# Stress axis : x y z
#
# Youngs Moduli (GPa) = 163.92362 122.65116 67.67785
#
# Poissons Ratio (x) = 0.01180 0.12238
# Poissons Ratio (y) = 0.01576 0.00948
# Poissons Ratio (z) = 0.29641 0.01718
#
# Static dielectric constant tensor:
#      x y z
#    x 2.206190 0.000000 -0.036760 
#    y 0.000000 2.021890 0.000000 
#    z -0.036760 0.000000 2.201310 
# 
# From -- ./inp_files/314832.got.cif
#   From: 2010.05.17/outbox.cif.g08.bks.cpg/sg12_158_cif.got.tgz:314832.got - 2010.06.03 13:09:07.
