data_PCOD9191275
_publ_section_title
;
Structure prediction by ZEFSAII (Michael W. Deem and Ramdas Pophale) SiO2 
 PCOD9191275
Probable space group: C 2/M
;
_chemical_formula_sum "Si O2"
_cell_formula_units_Z 56
_cell_length_a 18.338089
_cell_length_b 7.377678
_cell_length_c 20.023553
_cell_angle_alpha 90.000000
_cell_angle_beta 102.771895
_cell_angle_gamma 90.000000
_cell_volume 2642.009632
_symmetry_space_group_name_H-M "C 2/M"
_symmetry_group_IT_number 12
_symmetry_cell_setting 'monoclinic'
loop_
_space_group_symop_operation_xyz
x,y,z
-x,y,-z
-x,-y,-z
x,-y,z
1/2+x,1/2+y,z
1/2-x,1/2+y,-z
1/2-x,1/2-y,-z
1/2+x,1/2-y,z
loop_
_atom_site_type_symbol
_atom_site_label
_atom_site_fract_x
_atom_site_fract_y
_atom_site_fract_z
Si Si1 0.693888 0.209642 0.648805
Si Si2 0.633783 0.779001 0.354245
Si Si3 0.917145 0.711695 0.793778
Si Si4 0.691222 0.783848 0.929548
Si Si5 0.754271 0.720270 0.203216
Si Si6 0.025724 0.277733 0.931757
Si Si7 0.336906 0.783368 0.498233
O O1 0.782073 0.217134 0.647041
O O2 0.695069 0.285300 0.724060
O O3 0.652888 0.288814 0.575037
O O4 0.670425 0.000000 0.649204
O O5 0.582738 0.716301 0.282241
O O6 0.618147 0.719819 0.427153
O O7 0.635087 0.000000 0.353998
O O8 0.936455 0.500000 0.791828
O O9 0.831568 0.726081 0.801345
O O10 0.971212 0.786176 0.861564
O O11 0.718647 0.715323 0.863307
O O12 0.609722 0.717628 0.933809
O O13 0.684834 0.000000 0.920865
O O14 0.750000 0.750000 0.000000
O O15 0.755716 0.500000 0.205008
O O16 0.023955 0.500000 0.931905
O O17 0.000000 0.220168 0.000000
O O18 0.250000 0.750000 0.500000
O O19 0.347119 0.000000 0.496307
#
# Coordination Sequence:
#
# PCOD9191275 Si02
#       7
#     8   8   8   8   8   8   8
#     4   8  13  21  33  50  75 106 132 155 192 238
#     4   8  13  20  32  53  77 100 130 166 198 226
#     4   9  16  27  44  63  83 109 139 170 203 238
#     4  10  20  33  48  65  84 106 134 168 204 243
#     4   9  17  28  42  62  86 109 134 166 204 244
#     4   9  17  29  45  63  81 104 135 167 200 242
#     4   8  12  18  29  47  73 102 129 158 192 229
#
# _framework density 21.195986999999999
#
# number of rings (size 3 to 8) (size 9 to 14) (size 15 to 20)
#    0.000    3.286    0.000    0.857    0.000    1.714 
#    0.000    0.714    0.000    2.571    0.000    1.000 
#    0.000    8.000    0.000    0.000    0.000  273.857 
#
# Total GULP energy -155945.038646 kJ/mol
# GULP energy per Si atom -5569.465666 kJ/mol
# Density = 2.114774 g / cm^3
# Si number density = 21.195987 Si / 1000 Ang^3
#
#
#
# Elastic Constant Matrix: (Units=GPa)
#
#
# Indices 1 2 3 4 5 6 
#
# 1 55.1484 -6.6144 76.8163 0.0000 9.6969 0.0000
# 2 -6.6144 77.5461 2.0423 0.0000 2.9152 0.0000
# 3 76.8163 2.0423 295.1893 0.0000 15.7185 0.0000
# 4 0.0000 0.0000 0.0000 131.6270 0.0000 111.8804
# 5 9.6969 2.9152 15.7185 0.0000 20.9177 0.0000
# 6 0.0000 0.0000 0.0000 111.8804 0.0000 101.2729
#
#
#
# Elastic Compliance Matrix: (Units=1/GPa)
#
#
# Indices 1 2 3 4 5 6 
#
# 1 0.030508 0.003136 -0.007484 0.000000 -0.008956 0.000000
# 2 0.003136 0.013286 -0.000763 0.000000 -0.002732 0.000000
# 3 -0.007484 -0.000763 0.005365 0.000000 -0.000456 0.000000
# 4 0.000000 0.000000 0.000000 0.124564 0.000000 -0.137611
# 5 -0.008956 -0.002732 -0.000456 0.000000 0.052682 0.000000
# 6 0.000000 0.000000 0.000000 -0.137611 0.000000 0.161899
#
#
# Mechanical properties :
#
#
# Convention : Reuss Voigt Hill
#
# Bulk Modulus (GPa) = 25.68186 63.59688 44.63937
# Shear Modulus (GPa) = 12.15060 74.47282 43.31171
#
# Velocity S-wave (km/s) = 2.39686 5.93394 4.52529
# Velocity P-wave (km/s) = 4.45001 8.77600 6.95776
#
# Compressibility (1/GPa) = 0.03893799
#
# Stress axis : x y z
#
# Youngs Moduli (GPa) = 32.77827 75.26805 186.40407
#
# Poissons Ratio (x) = -0.23604 1.39501
# Poissons Ratio (y) = -0.10279 0.14213
# Poissons Ratio (z) = 0.24531 0.05739
#
# Static dielectric constant tensor:
#      x y z
#    x 1.703310 0.000000 0.012080 
#    y 0.000000 1.824800 0.000000 
#    z 0.012080 0.000000 1.844220 
# 
# From -- ./inp_files/280388.got.cif
#   From: 2010.05.17/outbox.cif.g08.bks.cpg/sg12_141_cif.got.tgz:280388.got - 2010.06.03 13:09:07.
