data_PCOD9191025
_publ_section_title
;
Structure prediction by ZEFSAII (Michael W. Deem and Ramdas Pophale) SiO2 
 PCOD9191025
Probable space group: C 2/M
;
_chemical_formula_sum "Si O2"
_cell_formula_units_Z 64
_cell_length_a 30.467195
_cell_length_b 14.252968
_cell_length_c 12.617984
_cell_angle_alpha 90.000000
_cell_angle_beta 150.823312
_cell_angle_gamma 90.000000
_cell_volume 2671.199598
_symmetry_space_group_name_H-M "C 2/M"
_symmetry_group_IT_number 12
_symmetry_cell_setting 'monoclinic'
loop_
_space_group_symop_operation_xyz
x,y,z
-x,y,-z
-x,-y,-z
x,-y,z
1/2+x,1/2+y,z
1/2-x,1/2+y,-z
1/2-x,1/2-y,-z
1/2+x,1/2-y,z
loop_
_atom_site_type_symbol
_atom_site_label
_atom_site_fract_x
_atom_site_fract_y
_atom_site_fract_z
Si Si1 0.352919 0.609280 0.321567
Si Si2 0.392095 0.104216 0.675853
Si Si3 0.790143 0.603609 0.239892
Si Si4 0.863248 0.602871 0.176329
Si Si5 0.391270 0.697765 0.180979
Si Si6 0.097044 0.804737 0.352823
Si Si7 0.923423 0.891920 0.029854
Si Si8 0.219960 0.888968 0.443137
O O1 0.379577 0.500000 0.397966
O O2 0.400051 0.648264 0.314086
O O3 0.373878 0.676197 0.464916
O O4 0.244437 0.607689 0.075142
O O5 0.329641 0.102253 0.439390
O O6 0.441670 0.202189 0.759814
O O7 0.324459 0.116590 0.632173
O O8 0.435077 0.000000 0.771665
O O9 0.747263 0.500000 0.129939
O O10 0.865129 0.612413 0.307718
O O11 0.715082 0.681185 0.066099
O O12 0.896213 0.500000 0.213568
O O13 0.910573 0.692447 0.227787
O O14 0.434692 0.654181 0.168499
O O15 0.183348 0.830036 0.463980
O O16 0.015534 0.876071 0.161474
O O17 0.905349 0.000000 0.010727
O O18 0.840428 0.856726 0.784420
O O19 0.201207 0.000000 0.422007
#
# Coordination Sequence:
#
# PCOD9191025 Si02
#       8
#     8   8   8   8   8   8   8   8
#     4  10  20  32  51  82 117 145 174 225 288 337
#     4  10  20  36  60  86 108 141 191 237 269 315
#     4   9  15  29  54  81 107 138 185 234 268 312
#     4   9  18  30  49  79 111 146 186 227 269 322
#     4  11  18  32  54  78 109 149 187 222 269 328
#     4  12  23  37  55  84 118 149 174 222 292 336
#     4  11  23  38  59  83 110 147 188 227 270 332
#     4  10  21  39  62  84 106 140 190 235 270 322
#
# _framework density 23.959273
#
# number of rings (size 3 to 8) (size 9 to 14) (size 15 to 20)
#    0.000    1.750    1.250    6.750    0.000    1.500 
#    0.000    1.875    0.000    1.500    0.000    4.375 
#    0.000    0.000    0.000    0.000    0.000    0.000 
#
# Total GULP energy -178869.569099 kJ/mol
# GULP energy per Si atom -5589.674034 kJ/mol
# Density = 2.390474 g / cm^3
# Si number density = 23.959273 Si / 1000 Ang^3
#
#
#
# Elastic Constant Matrix: (Units=GPa)
#
#
# Indices 1 2 3 4 5 6 
#
# 1 77.1166 46.4635 17.1497 0.0000 -28.1422 0.0000
# 2 46.4635 136.0425 3.1329 0.0000 -8.7772 0.0000
# 3 17.1497 3.1329 50.3205 0.0000 -13.5282 0.0000
# 4 0.0000 0.0000 0.0000 0.5200 0.0000 -2.8395
# 5 -28.1422 -8.7772 -13.5282 0.0000 21.9286 0.0000
# 6 0.0000 0.0000 0.0000 -2.8395 0.0000 27.0028
#
#
#
# Elastic Compliance Matrix: (Units=1/GPa)
#
#
# Indices 1 2 3 4 5 6 
#
# 1 0.031598 -0.008397 -0.000297 0.000000 0.037007 0.000000
# 2 -0.008397 0.009784 0.000490 0.000000 -0.006559 0.000000
# 3 -0.000297 0.000490 0.023849 0.000000 0.014528 0.000000
# 4 0.000000 0.000000 0.000000 4.516346 0.000000 0.474922
# 5 0.037007 -0.006559 0.014528 0.000000 0.099433 0.000000
# 6 0.000000 0.000000 0.000000 0.474922 0.000000 0.086974
#
#
# Mechanical properties :
#
#
# Convention : Reuss Voigt Hill
#
# Bulk Modulus (GPa) = 20.48286 44.10799 32.29542
# Shear Modulus (GPa) = 1.04152 23.00586 12.02369
#
# Velocity S-wave (km/s) = 0.66004 3.10208 2.24261
# Velocity P-wave (km/s) = 3.02464 5.59286 4.49603
#
# Compressibility (1/GPa) = 0.04882132
#
# Stress axis : x y z
#
# Youngs Moduli (GPa) = 31.64765 102.20512 41.93048
#
# Poissons Ratio (x) = 0.85826 0.01246
# Poissons Ratio (y) = 0.26576 -0.02053
# Poissons Ratio (z) = 0.00940 -0.05003
#
# Static dielectric constant tensor:
#      x y z
#    x 1.894070 0.000000 0.003250 
#    y 0.000000 1.952470 0.000000 
#    z 0.003250 0.000000 1.952670 
# 
# From -- ./inp_files/183770.got.cif
#   From: 2010.05.17/outbox.cif.g08.bks.cpg/sg12_92_cif.got.tgz:183770.got - 2010.06.03 13:09:07.
