data_PCOD9191887
_publ_section_title
;
Structure prediction by ZEFSAII (Michael W. Deem and Ramdas Pophale) SiO2 
 PCOD9191887
Probable space group: C 2/M
;
_chemical_formula_sum "Si O2"
_cell_formula_units_Z 48
_cell_length_a 28.054839
_cell_length_b 9.257700
_cell_length_c 9.014372
_cell_angle_alpha 90.000000
_cell_angle_beta 82.601583
_cell_angle_gamma 90.000000
_cell_volume 2321.750794
_symmetry_space_group_name_H-M "C 2/M"
_symmetry_group_IT_number 12
_symmetry_cell_setting 'monoclinic'
loop_
_space_group_symop_operation_xyz
x,y,z
-x,y,-z
-x,-y,-z
x,-y,z
1/2+x,1/2+y,z
1/2-x,1/2+y,-z
1/2-x,1/2-y,-z
1/2+x,1/2-y,z
loop_
_atom_site_type_symbol
_atom_site_label
_atom_site_fract_x
_atom_site_fract_y
_atom_site_fract_z
Si Si1 0.079906 0.167237 0.834883
Si Si2 0.724884 0.159519 0.881275
Si Si3 0.877718 0.337369 0.924278
Si Si4 0.864977 0.826267 0.627057
Si Si5 0.951095 0.667662 0.427186
Si Si6 0.686906 0.665215 0.639495
O O1 0.046955 0.256346 0.734121
O O2 0.133535 0.166552 0.737896
O O3 0.065478 0.000000 0.855840
O O4 0.085178 0.247831 0.989717
O O5 0.721177 0.236974 0.724833
O O6 0.746745 0.000000 0.860941
O O7 0.750000 0.250000 0.000000
O O8 0.669962 0.147080 0.957658
O O9 0.894640 0.500000 0.878948
O O10 0.861657 0.248068 0.787092
O O11 0.912763 0.759541 0.535425
O O12 0.823194 0.789836 0.525382
O O13 0.867807 0.000000 0.635616
O O14 0.935680 0.500000 0.415998
O O15 0.000000 0.669977 0.500000
O O16 0.703823 0.500000 0.636499
#
# Coordination Sequence:
#
# PCOD9191887 Si02
#       6
#     8   8   8   8   8   8
#     4   9  17  31  52  75 100 133 171 209 249 299
#     4  10  20  33  52  76 101 132 168 207 251 299
#     4  10  20  34  53  77 104 134 169 210 255 303
#     4  10  20  34  54  78 103 134 170 210 254 300
#     4  10  20  34  53  77 105 136 169 208 253 300
#     4   8  16  31  50  72  98 129 166 205 246 297
#
# _framework density 20.674054000000002
#
# number of rings (size 3 to 8) (size 9 to 14) (size 15 to 20)
#    0.000    2.500    0.000    3.500    0.000    8.000 
#    0.000    1.667    0.000    5.000    0.000    0.000 
#    0.000    0.000    0.000    0.000    0.000    0.000 
#
# Total GULP energy -133947.430786 kJ/mol
# GULP energy per Si atom -5581.142949 kJ/mol
# Density = 2.062700 g / cm^3
# Si number density = 20.674054 Si / 1000 Ang^3
#
#
#
# Elastic Constant Matrix: (Units=GPa)
#
#
# Indices 1 2 3 4 5 6 
#
# 1 32.3123 37.8306 29.1893 0.0000 20.2670 0.0000
# 2 37.8306 162.1000 91.1721 0.0000 39.2325 0.0000
# 3 29.1893 91.1721 148.7419 0.0000 43.1471 0.0000
# 4 0.0000 0.0000 0.0000 36.9276 0.0000 9.9958
# 5 20.2670 39.2325 43.1471 0.0000 33.6818 0.0000
# 6 0.0000 0.0000 0.0000 9.9958 0.0000 21.8970
#
#
#
# Elastic Compliance Matrix: (Units=1/GPa)
#
#
# Indices 1 2 3 4 5 6 
#
# 1 0.054527 -0.007092 0.001222 0.000000 -0.026114 0.000000
# 2 -0.007092 0.011076 -0.004603 0.000000 -0.002736 0.000000
# 3 0.001222 -0.004603 0.012671 0.000000 -0.011606 0.000000
# 4 0.000000 0.000000 0.000000 0.030898 0.000000 -0.014105
# 5 -0.026114 -0.002736 -0.011606 0.000000 0.063458 0.000000
# 6 0.000000 0.000000 0.000000 -0.014105 0.000000 0.052107
#
#
# Mechanical properties :
#
#
# Convention : Reuss Voigt Hill
#
# Bulk Modulus (GPa) = 17.44382 73.28200 45.36291
# Shear Modulus (GPa) = 18.88269 30.83211 24.85740
#
# Velocity S-wave (km/s) = 3.02545 3.86598 3.47125
# Velocity P-wave (km/s) = 4.54536 7.44655 6.16893
#
# Compressibility (1/GPa) = 0.05732688
#
# Stress axis : x y z
#
# Youngs Moduli (GPa) = 18.33953 90.28879 78.91745
#
# Poissons Ratio (x) = 0.64037 -0.09645
# Poissons Ratio (y) = 0.13007 0.36328
# Poissons Ratio (z) = -0.02241 0.41562
#
# Static dielectric constant tensor:
#      x y z
#    x 1.752730 0.000000 -0.028440 
#    y 0.000000 1.730370 0.000000 
#    z -0.028440 0.000000 1.747790 
# 
# From -- ./inp_files/108669.got.cif
#   From: 2010.05.17/outbox.cif.g08.bks.cpg/sg12_55_cif.got.tgz:108669.got - 2010.06.03 13:09:07.
