data_PCOD9191756
_publ_section_title
;
Structure prediction by ZEFSAII (Michael W. Deem and Ramdas Pophale) SiO2 
 PCOD9191756
Probable space group: C 2/M
;
_chemical_formula_sum "Si O2"
_cell_formula_units_Z 44
_cell_length_a 30.830067
_cell_length_b 8.096348
_cell_length_c 11.403643
_cell_angle_alpha 90.000000
_cell_angle_beta 39.472884
_cell_angle_gamma 90.000000
_cell_volume 1809.540546
_symmetry_space_group_name_H-M "C 2/M"
_symmetry_group_IT_number 12
_symmetry_cell_setting 'monoclinic'
loop_
_space_group_symop_operation_xyz
x,y,z
-x,y,-z
-x,-y,-z
x,-y,z
1/2+x,1/2+y,z
1/2-x,1/2+y,-z
1/2-x,1/2-y,-z
1/2+x,1/2-y,z
loop_
_atom_site_type_symbol
_atom_site_label
_atom_site_fract_x
_atom_site_fract_y
_atom_site_fract_z
Si Si1 0.236503 0.700027 0.837365
Si Si2 0.000000 0.247255 0.500000
Si Si3 0.932504 0.182060 0.225173
Si Si4 0.477288 0.182224 0.778581
Si Si5 0.642659 0.304320 0.250519
Si Si6 0.340986 0.190940 0.220442
O O1 0.227698 0.500000 0.856112
O O2 0.311157 0.735066 0.732836
O O3 0.216688 0.757763 0.747813
O O4 0.186657 0.772522 0.041257
O O5 0.022398 0.184279 0.324825
O O6 0.075027 0.304329 0.384113
O O7 0.866445 0.222724 0.285653
O O8 0.957486 0.302379 0.274280
O O9 0.924341 0.000000 0.293269
O O10 0.000000 0.179327 0.000000
O O11 0.474649 0.000000 0.727725
O O12 0.409397 0.195885 0.997397
O O13 0.624617 0.500000 0.293136
O O14 0.325669 0.000000 0.279861
#
# Coordination Sequence:
#
# PCOD9191756 Si02
#       6
#     8   4   8   8   8   8
#     4   9  18  35  55  77 104 140 185 225 262 311
#     4  12  22  34  52  82 114 146 178 216 266 324
#     4   9  18  31  49  76 107 136 171 220 272 319
#     4  10  20  33  51  76 106 143 181 219 262 314
#     4  10  21  34  51  76 110 146 179 219 267 319
#     4   9  16  31  54  77 101 134 178 224 265 309
#
# _framework density 24.315566
#
# number of rings (size 3 to 8) (size 9 to 14) (size 15 to 20)
#    0.000    2.364    1.818    1.091    0.000    5.091 
#    0.000    0.000    0.000    1.091    0.000    0.000 
#    0.000    0.000    0.000    0.000    0.000    0.000 
#
# Total GULP energy -122567.189545 kJ/mol
# GULP energy per Si atom -5571.235888 kJ/mol
# Density = 2.426022 g / cm^3
# Si number density = 24.315566 Si / 1000 Ang^3
#
#
#
# Elastic Constant Matrix: (Units=GPa)
#
#
# Indices 1 2 3 4 5 6 
#
# 1 231.4917 38.0994 13.2159 0.0000 -16.6291 0.0000
# 2 38.0994 68.3251 9.6592 0.0000 -1.5710 0.0000
# 3 13.2159 9.6592 45.4414 0.0000 -18.8399 0.0000
# 4 0.0000 0.0000 0.0000 -2.7123 0.0000 -5.0636
# 5 -16.6291 -1.5710 -18.8399 0.0000 34.7727 0.0000
# 6 0.0000 0.0000 0.0000 -5.0636 0.0000 11.2438
#
#
#
# Elastic Compliance Matrix: (Units=1/GPa)
#
#
# Indices 1 2 3 4 5 6 
#
# 1 0.004924 -0.002706 0.000089 0.000000 0.002280 0.000000
# 2 -0.002706 0.016626 -0.003833 0.000000 -0.002620 0.000000
# 3 0.000089 -0.003833 0.029330 0.000000 0.015760 0.000000
# 4 0.000000 0.000000 0.000000 -0.200294 0.000000 -0.090201
# 5 0.002280 -0.002620 0.015760 0.000000 0.038269 0.000000
# 6 0.000000 0.000000 0.000000 -0.090201 0.000000 0.048316
#
#
# Mechanical properties :
#
#
# Convention : Reuss Voigt Hill
#
# Bulk Modulus (GPa) = 26.33055 51.91191 39.12123
# Shear Modulus (GPa) = -134.16482 27.61307 -53.27588
#
# Velocity S-wave (km/s) = -7.43615 3.37354 -4.68591
# Velocity P-wave (km/s) = 7.92945 6.04731 3.62672
#
# Compressibility (1/GPa) = 0.03797869
#
# Stress axis : x y z
#
# Youngs Moduli (GPa) = 203.09160 60.14532 34.09536
#
# Poissons Ratio (x) = 0.16274 -0.00302
# Poissons Ratio (y) = 0.54951 0.13070
# Poissons Ratio (z) = -0.01799 0.23056
#
# Static dielectric constant tensor:
#      x y z
#    x 1.928800 0.000000 -0.004510 
#    y 0.000000 2.223820 0.000000 
#    z -0.004510 0.000000 1.934360 
# 
# From -- ./inp_files/186254.got.cif
#   From: 2010.05.17/outbox.cif.g08.bks.cpg/sg12_94_cif.got.tgz:186254.got - 2010.06.03 13:09:07.
