data_PCOD9191415
_publ_section_title
;
Structure prediction by ZEFSAII (Michael W. Deem and Ramdas Pophale) SiO2 
 PCOD9191415
Probable space group: C 2/M
;
_chemical_formula_sum "Si O2"
_cell_formula_units_Z 56
_cell_length_a 22.472888
_cell_length_b 8.431708
_cell_length_c 20.737292
_cell_angle_alpha 90.000000
_cell_angle_beta 51.276751
_cell_angle_gamma 90.000000
_cell_volume 3065.627826
_symmetry_space_group_name_H-M "C 2/M"
_symmetry_group_IT_number 12
_symmetry_cell_setting 'monoclinic'
loop_
_space_group_symop_operation_xyz
x,y,z
-x,y,-z
-x,-y,-z
x,-y,z
1/2+x,1/2+y,z
1/2-x,1/2+y,-z
1/2-x,1/2-y,-z
1/2+x,1/2-y,z
loop_
_atom_site_type_symbol
_atom_site_label
_atom_site_fract_x
_atom_site_fract_y
_atom_site_fract_z
Si Si1 0.981519 0.191632 0.585944
Si Si2 0.713563 0.691265 0.619520
Si Si3 0.728517 0.809823 0.943040
Si Si4 0.329689 0.183289 0.757351
Si Si5 0.861620 0.190964 0.461833
Si Si6 0.583408 0.184874 0.960942
Si Si7 0.175719 0.185229 0.784493
O O1 0.904664 0.246220 0.673161
O O2 0.000000 0.244869 0.500000
O O3 0.054240 0.245030 0.578271
O O4 0.979451 0.000000 0.585561
O O5 0.716624 0.500000 0.616613
O O6 0.799356 0.754137 0.555854
O O7 0.668679 0.748020 0.586796
O O8 0.673207 0.737810 0.712638
O O9 0.792757 0.761578 0.846528
O O10 0.645193 0.750888 0.971984
O O11 0.724814 0.000000 0.946942
O O12 0.750000 0.750000 0.000000
O O13 0.262620 0.190980 0.749795
O O14 0.344204 0.000000 0.763370
O O15 0.861665 0.000000 0.460853
O O16 0.628558 0.205158 0.863759
O O17 0.571375 0.000000 0.985828
O O18 0.500000 0.255519 0.000000
O O19 0.151030 0.000000 0.807114
#
# Coordination Sequence:
#
# PCOD9191415 Si02
#       7
#     8   8   8   8   8   8   8
#     4  10  20  33  49  72 104 140 176 216 262 311
#     4   9  17  31  49  69  96 128 165 208 253 300
#     4  10  20  37  60  82 109 144 179 219 270 324
#     4  10  20  34  53  77 104 135 176 219 259 314
#     4   9  18  31  47  68  98 131 167 209 251 301
#     4   9  19  36  56  79 107 135 169 216 262 312
#     4   9  18  32  51  74  99 129 167 209 254 306
#
# _framework density 18.267059
#
# number of rings (size 3 to 8) (size 9 to 14) (size 15 to 20)
#    0.000    2.571    0.000    1.714    0.000    2.857 
#    2.571    0.000    0.000    0.000    0.000    0.000 
#    0.000    0.000    0.000    0.000    0.000    0.000 
#
# Total GULP energy -155945.442028 kJ/mol
# GULP energy per Si atom -5569.480072 kJ/mol
# Density = 1.822548 g / cm^3
# Si number density = 18.267059 Si / 1000 Ang^3
#
#
#
# Elastic Constant Matrix: (Units=GPa)
#
#
# Indices 1 2 3 4 5 6 
#
# 1 96.5731 20.1787 68.8495 0.0001 -10.4483 0.0001
# 2 20.1787 17.3117 13.8464 0.0003 -0.3700 -0.0002
# 3 68.8495 13.8464 91.5618 0.0002 -2.3248 -0.0003
# 4 0.0001 0.0003 0.0002 27.5339 -0.0001 0.0999
# 5 -10.4483 -0.3700 -2.3248 -0.0001 35.8951 0.0001
# 6 0.0001 -0.0002 -0.0003 0.0999 0.0001 13.5869
#
#
#
# Elastic Compliance Matrix: (Units=1/GPa)
#
#
# Indices 1 2 3 4 5 6 
#
# 1 0.027452 -0.017611 -0.017810 0.000000 0.006656 -0.000001
# 2 -0.017611 0.077011 0.001489 -0.000001 -0.004236 0.000001
# 3 -0.017810 0.001489 0.023997 0.000000 -0.003615 0.000001
# 4 0.000000 -0.000001 0.000000 0.036320 0.000000 -0.000267
# 5 0.006656 -0.004236 -0.003615 0.000000 0.029519 0.000000
# 6 -0.000001 0.000001 0.000001 -0.000267 0.000000 0.073603
#
#
# Mechanical properties :
#
#
# Convention : Reuss Voigt Hill
#
# Bulk Modulus (GPa) = 16.50298 45.68843 31.09571
# Shear Modulus (GPa) = 14.04638 22.24129 18.14384
#
# Velocity S-wave (km/s) = 2.77600 3.49314 3.15501
# Velocity P-wave (km/s) = 4.39645 6.42924 5.50744
#
# Compressibility (1/GPa) = 0.06059512
#
# Stress axis : x y z
#
# Youngs Moduli (GPa) = 36.42697 12.98524 41.67186
#
# Poissons Ratio (x) = 0.22868 0.74219
# Poissons Ratio (y) = 0.64152 -0.06206
# Poissons Ratio (z) = 0.64878 -0.01934
#
# Static dielectric constant tensor:
#      x y z
#    x 1.663810 0.000000 -0.001390 
#    y 0.000000 1.642180 0.000000 
#    z -0.001390 0.000000 1.606530 
# 
# From -- ./inp_files/319694.got.cif
#   From: 2010.05.17/outbox.cif.g08.bks.cpg/sg12_160_cif.got.tgz:319694.got - 2010.06.03 13:09:07.
