data_PCOD9191515
_publ_section_title
;
Structure prediction by ZEFSAII (Michael W. Deem and Ramdas Pophale) SiO2 
 PCOD9191515
Probable space group: C 2/M
;
_chemical_formula_sum "Si O2"
_cell_formula_units_Z 64
_cell_length_a 20.024061
_cell_length_b 19.352593
_cell_length_c 22.014244
_cell_angle_alpha 90.000000
_cell_angle_beta 26.304510
_cell_angle_gamma 90.000000
_cell_volume 3780.400158
_symmetry_space_group_name_H-M "C 2/M"
_symmetry_group_IT_number 12
_symmetry_cell_setting 'monoclinic'
loop_
_space_group_symop_operation_xyz
x,y,z
-x,y,-z
-x,-y,-z
x,-y,z
1/2+x,1/2+y,z
1/2-x,1/2+y,-z
1/2-x,1/2-y,-z
1/2+x,1/2-y,z
loop_
_atom_site_type_symbol
_atom_site_label
_atom_site_fract_x
_atom_site_fract_y
_atom_site_fract_z
Si Si1 0.980462 0.349677 0.947218
Si Si2 0.539575 0.381500 0.030589
Si Si3 0.273957 0.689464 0.397135
Si Si4 0.720385 0.733869 0.738678
Si Si5 0.721329 0.234295 0.176220
Si Si6 0.880455 0.581213 0.908458
Si Si7 0.466478 0.576985 0.830409
Si Si8 0.957261 0.690599 0.311636
O O1 0.942106 0.402725 0.925507
O O2 0.129511 0.305923 0.807815
O O3 0.844106 0.293748 0.062878
O O4 0.000000 0.377328 0.000000
O O5 0.411113 0.322156 0.139996
O O6 0.537859 0.424353 0.092877
O O7 0.500000 0.418348 0.000000
O O8 0.695414 0.339274 0.900723
O O9 0.214316 0.707659 0.378258
O O10 0.405227 0.632193 0.289098
O O11 0.146118 0.665811 0.548128
O O12 0.352930 0.759643 0.356352
O O13 0.819387 0.738408 0.719023
O O14 0.586468 0.236064 0.238822
O O15 0.896490 0.500000 0.880356
O O16 0.967299 0.631014 0.790456
O O17 0.701585 0.597874 0.052962
O O18 0.498996 0.500000 0.780288
#
# Coordination Sequence:
#
# PCOD9191515 Si02
#       8
#     8   8   8   8   8   8   8   8
#     4   9  17  31  53  78 106 132 164 213 266 313
#     4   8  14  26  46  73  97 125 162 198 243 294
#     4  10  21  34  51  74 102 135 175 209 258 310
#     4   8  15  29  49  75 102 129 165 207 253 306
#     4   9  16  28  51  78 102 130 161 208 263 296
#     4  11  22  34  52  78 105 137 175 216 259 303
#     4  10  20  33  50  73 100 134 173 211 250 301
#     4  11  21  33  52  76 103 136 170 214 260 304
#
# _framework density 16.929424999999998
#
# number of rings (size 3 to 8) (size 9 to 14) (size 15 to 20)
#    0.000    2.500    2.500    2.250    0.000    2.500 
#    0.000    0.000    0.000    0.000    0.000    3.500 
#    0.000    8.000    0.000    0.000    0.000    0.000 
#
# Total GULP energy -178189.185977 kJ/mol
# GULP energy per Si atom -5568.412062 kJ/mol
# Density = 1.689089 g / cm^3
# Si number density = 16.929425 Si / 1000 Ang^3
#
#
#
# Elastic Constant Matrix: (Units=GPa)
#
#
# Indices 1 2 3 4 5 6 
#
# 1 74.5336 -1.3444 10.8351 -0.0035 13.8158 -0.0010
# 2 -1.3444 34.2857 12.2664 -0.0077 8.8108 0.0113
# 3 10.8351 12.2664 53.0429 -0.0078 16.8357 0.0100
# 4 -0.0035 -0.0077 -0.0078 13.0963 -0.0035 -5.3728
# 5 13.8158 8.8108 16.8357 -0.0035 22.1788 0.0025
# 6 -0.0010 0.0113 0.0100 -5.3728 0.0025 -22.9102
#
#
#
# Elastic Compliance Matrix: (Units=1/GPa)
#
#
# Indices 1 2 3 4 5 6 
#
# 1 0.015541 0.003563 -0.000628 0.000003 -0.010620 -0.000001
# 2 0.003563 0.034136 -0.004760 0.000019 -0.012167 0.000009
# 3 -0.000628 -0.004760 0.025502 0.000010 -0.017076 0.000005
# 4 0.000003 0.000019 0.000010 0.069656 -0.000004 -0.016335
# 5 -0.010620 -0.012167 -0.017076 -0.000004 0.069499 -0.000004
# 6 -0.000001 0.000009 0.000005 -0.016335 -0.000004 -0.039818
#
#
# Mechanical properties :
#
#
# Convention : Reuss Voigt Hill
#
# Bulk Modulus (GPa) = 13.98044 22.81962 18.40003
# Shear Modulus (GPa) = 24.75145 11.81332 18.28239
#
# Velocity S-wave (km/s) = 3.82781 2.64445 3.28978
# Velocity P-wave (km/s) = 5.27372 4.77836 5.03214
#
# Compressibility (1/GPa) = 0.07152850
#
# Stress axis : x y z
#
# Youngs Moduli (GPa) = 64.34679 29.29445 39.21337
#
# Poissons Ratio (x) = -0.10438 0.02462
# Poissons Ratio (y) = -0.22927 0.18666
# Poissons Ratio (z) = 0.04040 0.13945
#
# Static dielectric constant tensor:
#      x y z
#    x 1.609980 0.000000 0.016040 
#    y 0.000000 1.552070 0.000000 
#    z 0.016040 0.000000 1.573910 
# 
# From -- ./inp_files/317809.got.cif
#   From: 2010.05.17/outbox.cif.g08.bks.cpg/sg12_159_cif.got.tgz:317809.got - 2010.06.03 13:09:07.
