data_PCOD9191834
_publ_section_title
;
Structure prediction by ZEFSAII (Michael W. Deem and Ramdas Pophale) SiO2 
 PCOD9191834
Probable space group: C 2/M
;
_chemical_formula_sum "Si O2"
_cell_formula_units_Z 64
_cell_length_a 16.736888
_cell_length_b 8.004169
_cell_length_c 33.630144
_cell_angle_alpha 90.000000
_cell_angle_beta 137.733563
_cell_angle_gamma 90.000000
_cell_volume 3030.142661
_symmetry_space_group_name_H-M "C 2/M"
_symmetry_group_IT_number 12
_symmetry_cell_setting 'monoclinic'
loop_
_space_group_symop_operation_xyz
x,y,z
-x,y,-z
-x,-y,-z
x,-y,z
1/2+x,1/2+y,z
1/2-x,1/2+y,-z
1/2-x,1/2-y,-z
1/2+x,1/2-y,z
loop_
_atom_site_type_symbol
_atom_site_label
_atom_site_fract_x
_atom_site_fract_y
_atom_site_fract_z
Si Si1 0.537673 0.697857 0.635167
Si Si2 0.658098 0.701526 0.999939
Si Si3 0.031442 0.295932 0.248234
Si Si4 0.595149 0.298596 0.125080
Si Si5 0.098242 0.698731 0.567372
Si Si6 0.857186 0.698346 0.631123
Si Si7 0.222159 0.295802 0.874550
Si Si8 0.211791 0.299471 0.249246
O O1 0.531836 0.500000 0.638132
O O2 0.568173 0.731524 0.600172
O O3 0.416342 0.763674 0.610282
O O4 0.653619 0.766275 0.701690
O O5 0.649674 0.500000 0.999906
O O6 0.529139 0.763852 0.938672
O O7 0.750000 0.750000 0.000000
O O8 0.711545 0.762861 0.061320
O O9 0.027651 0.500000 0.246590
O O10 0.050856 0.241728 0.300665
O O11 0.144648 0.241852 0.264212
O O12 0.911809 0.238379 0.182454
O O13 0.590096 0.500000 0.123151
O O14 0.699845 0.245980 0.134333
O O15 0.630067 0.243985 0.181854
O O16 0.086408 0.500000 0.566597
O O17 0.228151 0.734696 0.596596
O O18 0.000000 0.762261 0.500000
O O19 0.847208 0.500000 0.630695
O O20 0.219867 0.500000 0.875505
O O21 0.219051 0.500000 0.253915
#
# Coordination Sequence:
#
# PCOD9191834 Si02
#       8
#     8   8   8   8   8   8   8   8
#     4  11  23  41  65  95 130 168 212 260 312 372
#     4  10  20  34  52  73 102 141 186 237 294 356
#     4   9  17  32  55  83 114 152 196 240 296 364
#     4  10  20  33  51  79 107 140 192 246 294 354
#     4  11  25  45  68  96 130 169 212 255 306 370
#     4  11  22  40  66  96 130 168 211 261 314 370
#     4   9  17  31  52  75 105 144 186 234 289 352
#     4  10  20  36  57  84 119 156 194 241 302 363
#
# _framework density 21.121117999999999
#
# number of rings (size 3 to 8) (size 9 to 14) (size 15 to 20)
#    0.000    1.875    1.250    3.000    0.000    6.500 
#    0.000    0.625    0.000    6.000    0.000    0.000 
#    0.000    0.000    0.000    0.000    0.000    0.000 
#
# Total GULP energy -178637.006809 kJ/mol
# GULP energy per Si atom -5582.406463 kJ/mol
# Density = 2.107305 g / cm^3
# Si number density = 21.121118 Si / 1000 Ang^3
#
#
#
# Elastic Constant Matrix: (Units=GPa)
#
#
# Indices 1 2 3 4 5 6 
#
# 1 114.8512 -10.9876 30.8746 0.0000 5.1758 0.0000
# 2 -10.9876 11.1029 -6.1010 0.0000 2.2564 0.0000
# 3 30.8746 -6.1010 107.0626 0.0000 10.4467 0.0000
# 4 0.0000 0.0000 0.0000 20.0445 0.0000 -2.0257
# 5 5.1758 2.2564 10.4467 0.0000 21.7737 0.0000
# 6 0.0000 0.0000 0.0000 -2.0257 0.0000 26.8888
#
#
#
# Elastic Compliance Matrix: (Units=1/GPa)
#
#
# Indices 1 2 3 4 5 6 
#
# 1 0.010313 0.009479 -0.002202 0.000000 -0.002377 0.000000
# 2 0.009479 0.105206 0.004769 0.000000 -0.015443 0.000000
# 3 -0.002202 0.004769 0.010747 0.000000 -0.005127 0.000000
# 4 0.000000 0.000000 0.000000 0.050272 0.000000 0.003787
# 5 -0.002377 -0.015443 -0.005127 0.000000 0.050552 0.000000
# 6 0.000000 0.000000 0.000000 0.003787 0.000000 0.037475
#
#
# Mechanical properties :
#
#
# Convention : Reuss Voigt Hill
#
# Bulk Modulus (GPa) = 6.65083 28.95430 17.80256
# Shear Modulus (GPa) = 17.20617 28.35678 22.78148
#
# Velocity S-wave (km/s) = 2.85729 3.66810 3.28778
# Velocity P-wave (km/s) = 3.74716 5.62835 4.78119
#
# Compressibility (1/GPa) = 0.15035719
#
# Stress axis : x y z
#
# Youngs Moduli (GPa) = 96.96684 9.50518 93.04639
#
# Poissons Ratio (x) = -0.09010 0.20488
# Poissons Ratio (y) = -0.91914 -0.44370
# Poissons Ratio (z) = 0.21351 -0.04533
#
# Static dielectric constant tensor:
#      x y z
#    x 1.746440 0.000000 0.008080 
#    y 0.000000 1.754580 0.000000 
#    z 0.008080 0.000000 1.815420 
# 
# From -- ./inp_files/375557.got.cif
#   From: 2010.05.17/outbox.cif.g08.bks.cpg/sg12_188_cif.got.tgz:375557.got - 2010.06.03 13:09:07.
