data_PCOD9191095
_publ_section_title
;
Structure prediction by ZEFSAII (Michael W. Deem and Ramdas Pophale) SiO2 
 PCOD9191095
Probable space group: C 2/M
;
_chemical_formula_sum "Si O2"
_cell_formula_units_Z 58
_cell_length_a 26.915371
_cell_length_b 9.128446
_cell_length_c 14.000251
_cell_angle_alpha 90.000000
_cell_angle_beta 67.503443
_cell_angle_gamma 90.000000
_cell_volume 3178.038822
_symmetry_space_group_name_H-M "C 2/M"
_symmetry_group_IT_number 12
_symmetry_cell_setting 'monoclinic'
loop_
_space_group_symop_operation_xyz
x,y,z
-x,y,-z
-x,-y,-z
x,-y,z
1/2+x,1/2+y,z
1/2-x,1/2+y,-z
1/2-x,1/2-y,-z
1/2+x,1/2-y,z
loop_
_atom_site_type_symbol
_atom_site_label
_atom_site_fract_x
_atom_site_fract_y
_atom_site_fract_z
Si Si1 0.934954 0.673504 0.378649
Si Si2 0.336349 0.324244 0.097463
Si Si3 0.134230 0.829407 0.420312
Si Si4 0.500000 0.500000 0.000000
Si Si5 0.455554 0.671101 0.679394
Si Si6 0.712160 0.173772 0.223048
Si Si7 0.420390 0.661364 0.196669
Si Si8 0.375475 0.173985 0.876985
O O1 0.936630 0.500000 0.385812
O O2 0.885137 0.739088 0.474283
O O3 0.932305 0.726429 0.271307
O O4 0.989469 0.744733 0.379829
O O5 0.341342 0.500000 0.076099
O O6 0.273776 0.287885 0.156819
O O7 0.370425 0.293666 0.167318
O O8 0.361236 0.239782 0.989767
O O9 0.085879 0.818182 0.377951
O O10 0.185729 0.762483 0.329033
O O11 0.141787 0.000000 0.437086
O O12 0.530620 0.625516 0.911330
O O13 0.466802 0.500000 0.689461
O O14 0.425466 0.743205 0.791793
O O15 0.675211 0.199679 0.156812
O O16 0.709422 0.000000 0.245907
O O17 0.408006 0.500000 0.250189
O O18 0.385277 0.000000 0.873690
#
# Coordination Sequence:
#
# PCOD9191095 Si02
#       8
#     8   8   8   2   8   8   8   8
#     4  12  24  37  57  84 115 146 181 231 285 338
#     4  10  20  35  57  81 110 152 194 232 279 334
#     4  10  21  38  59  84 109 147 189 229 279 334
#     4   8  20  40  62  80 110 152 190 240 266 316
#     4  10  21  36  57  82 113 147 187 227 274 340
#     4   9  19  36  55  81 116 148 185 234 283 332
#     4   9  21  38  59  80 108 147 193 226 272 320
#     4  10  20  32  52  84 118 149 182 228 284 335
#
# _framework density 18.250247999999999
#
# number of rings (size 3 to 8) (size 9 to 14) (size 15 to 20)
#    0.414    1.655    0.000    3.310    1.931    4.966 
#    0.000    1.034    0.000    0.000    0.000    0.000 
#    0.000    0.000    0.000    0.000    0.000    0.000 
#
# Total GULP energy -161617.365978 kJ/mol
# GULP energy per Si atom -5573.012620 kJ/mol
# Density = 1.820871 g / cm^3
# Si number density = 18.250248 Si / 1000 Ang^3
#
#
#
# Elastic Constant Matrix: (Units=GPa)
#
#
# Indices 1 2 3 4 5 6 
#
# 1 15.2850 15.0982 7.9690 0.0000 2.6044 0.0000
# 2 15.0982 83.1315 45.0822 0.0000 2.5102 0.0000
# 3 7.9690 45.0822 81.2860 0.0000 -5.9735 0.0000
# 4 0.0000 0.0000 0.0000 34.2759 0.0000 -1.8717
# 5 2.6044 2.5102 -5.9735 0.0000 9.8657 0.0000
# 6 0.0000 0.0000 0.0000 -1.8717 0.0000 21.4429
#
#
#
# Elastic Compliance Matrix: (Units=1/GPa)
#
#
# Indices 1 2 3 4 5 6 
#
# 1 0.083100 -0.013270 -0.002251 0.000000 -0.019924 0.000000
# 2 -0.013270 0.020457 -0.010644 0.000000 -0.008146 0.000000
# 3 -0.002251 -0.010644 0.019538 0.000000 0.015132 0.000000
# 4 0.000000 0.000000 0.000000 0.029315 0.000000 0.002559
# 5 -0.019924 -0.008146 0.015132 0.000000 0.117856 0.000000
# 6 0.000000 0.000000 0.000000 0.002559 0.000000 0.046859
#
#
# Mechanical properties :
#
#
# Convention : Reuss Voigt Hill
#
# Bulk Modulus (GPa) = 14.13115 35.11127 24.62121
# Shear Modulus (GPa) = 12.72123 20.55375 16.63749
#
# Velocity S-wave (km/s) = 2.64302 3.35956 3.02260
# Velocity P-wave (km/s) = 4.13206 5.85913 5.06968
#
# Compressibility (1/GPa) = 0.07076565
#
# Stress axis : x y z
#
# Youngs Moduli (GPa) = 12.03368 48.88252 51.18226
#
# Poissons Ratio (x) = 0.64867 0.11522
# Poissons Ratio (y) = 0.15969 0.54476
# Poissons Ratio (z) = 0.02709 0.52028
#
# Static dielectric constant tensor:
#      x y z
#    x 1.634110 0.000000 0.006220 
#    y 0.000000 1.611140 0.000000 
#    z 0.006220 0.000000 1.604270 
# 
# From -- ./inp_files/243718.got.cif
#   From: 2010.05.17/outbox.cif.g08.bks.cpg/sg12_122_cif.got.tgz:243718.got - 2010.06.03 13:09:07.
