data_PCOD9191724
_publ_section_title
;
Structure prediction by ZEFSAII (Michael W. Deem and Ramdas Pophale) SiO2 
 PCOD9191724
Probable space group: C 2/M
;
_chemical_formula_sum "Si O2"
_cell_formula_units_Z 56
_cell_length_a 14.977365
_cell_length_b 8.509468
_cell_length_c 29.630721
_cell_angle_alpha 90.000000
_cell_angle_beta 50.876256
_cell_angle_gamma 90.000000
_cell_volume 2929.688256
_symmetry_space_group_name_H-M "C 2/M"
_symmetry_group_IT_number 12
_symmetry_cell_setting 'monoclinic'
loop_
_space_group_symop_operation_xyz
x,y,z
-x,y,-z
-x,-y,-z
x,-y,z
1/2+x,1/2+y,z
1/2-x,1/2+y,-z
1/2-x,1/2-y,-z
1/2+x,1/2-y,z
loop_
_atom_site_type_symbol
_atom_site_label
_atom_site_fract_x
_atom_site_fract_y
_atom_site_fract_z
Si Si1 0.614448 0.308378 0.408394
Si Si2 0.215744 0.308079 0.724470
Si Si3 0.454888 0.190786 0.813308
Si Si4 0.351413 0.310292 0.499768
Si Si5 0.096498 0.178320 0.936819
Si Si6 0.246627 0.187425 0.185663
Si Si7 0.190862 0.675284 0.062029
O O1 0.614585 0.500000 0.408235
O O2 0.698363 0.253608 0.341969
O O3 0.481119 0.260900 0.444159
O O4 0.657225 0.261140 0.444756
O O5 0.217798 0.500000 0.723303
O O6 0.250868 0.257852 0.763541
O O7 0.083385 0.260129 0.760080
O O8 0.362887 0.244908 0.805826
O O9 0.413236 0.250222 0.876131
O O10 0.451396 0.000000 0.816848
O O11 0.348244 0.500000 0.499743
O O12 0.250000 0.250000 0.500000
O O13 0.139042 0.263499 0.878450
O O14 0.208849 0.167807 0.932468
O O15 0.058035 0.000000 0.937848
O O16 0.000000 0.252504 0.000000
O O17 0.240055 0.000000 0.187192
O O18 0.155217 0.500000 0.059898
O O19 0.250000 0.750000 0.000000
#
# Coordination Sequence:
#
# PCOD9191724 Si02
#       7
#     8   8   8   8   8   8   8
#     4   8  16  32  51  75 106 141 178 207 245 309
#     4   9  18  33  54  75 101 139 175 210 254 304
#     4   9  19  36  52  68  97 134 168 203 253 316
#     4   9  17  31  54  80 107 140 176 212 250 295
#     4   9  19  35  51  68  94 128 161 199 256 317
#     4  10  20  33  51  76 100 125 166 217 258 298
#     4   9  18  30  46  67  90 117 153 198 247 300
#
# _framework density 19.114661000000002
#
# number of rings (size 3 to 8) (size 9 to 14) (size 15 to 20)
#    0.000    3.000    0.000    2.143    2.000    3.714 
#    0.000    2.857    0.000    3.429    0.000    0.000 
#    0.000    0.000    0.000    0.000    0.000    0.000 
#
# Total GULP energy -155996.831510 kJ/mol
# GULP energy per Si atom -5571.315411 kJ/mol
# Density = 1.907115 g / cm^3
# Si number density = 19.114661 Si / 1000 Ang^3
#
#
#
# Elastic Constant Matrix: (Units=GPa)
#
#
# Indices 1 2 3 4 5 6 
#
# 1 126.8204 14.5443 95.9611 0.0000 -2.5422 -0.0001
# 2 14.5443 10.7999 24.9662 0.0000 0.1319 -0.0001
# 3 95.9611 24.9662 221.5523 0.0000 -13.0218 0.0000
# 4 0.0000 0.0000 0.0000 15.1943 0.0000 -0.2324
# 5 -2.5422 0.1319 -13.0218 0.0000 22.1006 0.0000
# 6 -0.0001 -0.0001 0.0000 -0.2324 0.0000 21.0725
#
#
#
# Elastic Compliance Matrix: (Units=1/GPa)
#
#
# Indices 1 2 3 4 5 6 
#
# 1 0.012012 -0.005342 -0.004680 0.000000 -0.001344 0.000000
# 2 -0.005342 0.129494 -0.012804 0.000000 -0.008931 0.000001
# 3 -0.004680 -0.012804 0.008242 0.000000 0.004394 0.000000
# 4 0.000000 0.000000 0.000000 0.065825 0.000000 0.000726
# 5 -0.001344 -0.008931 0.004394 0.000000 0.047735 0.000000
# 6 0.000000 0.000001 0.000000 0.000726 0.000000 0.047463
#
#
# Mechanical properties :
#
#
# Convention : Reuss Voigt Hill
#
# Bulk Modulus (GPa) = 9.60639 70.01288 39.80964
# Shear Modulus (GPa) = 12.78376 26.58689 19.68533
#
# Velocity S-wave (km/s) = 2.58891 3.73355 3.21262
# Velocity P-wave (km/s) = 3.73807 7.43594 5.88500
#
# Compressibility (1/GPa) = 0.10409736
#
# Stress axis : x y z
#
# Youngs Moduli (GPa) = 83.25112 7.72234 121.33546
#
# Poissons Ratio (x) = 0.04125 0.56781
# Poissons Ratio (y) = 0.44472 1.55354
# Poissons Ratio (z) = 0.38959 0.09887
#
# Static dielectric constant tensor:
#      x y z
#    x 1.660400 0.000000 -0.012820 
#    y 0.000000 1.686870 0.000000 
#    z -0.012820 0.000000 1.688290 
# 
# From -- ./inp_files/359656.got.cif
#   From: 2010.05.17/outbox.cif.g08.bks.cpg/sg12_180_cif.got.tgz:359656.got - 2010.06.03 13:09:07.
