data_PCOD9191996
_publ_section_title
;
Structure prediction by ZEFSAII (Michael W. Deem and Ramdas Pophale) SiO2 
 PCOD9191996
Probable space group: C 2/M
;
_chemical_formula_sum "Si O2"
_cell_formula_units_Z 64
_cell_length_a 16.346386
_cell_length_b 7.947457
_cell_length_c 28.954577
_cell_angle_alpha 90.000000
_cell_angle_beta 137.210804
_cell_angle_gamma 90.000000
_cell_volume 2555.233857
_symmetry_space_group_name_H-M "C 2/M"
_symmetry_group_IT_number 12
_symmetry_cell_setting 'monoclinic'
loop_
_space_group_symop_operation_xyz
x,y,z
-x,y,-z
-x,-y,-z
x,-y,z
1/2+x,1/2+y,z
1/2-x,1/2+y,-z
1/2-x,1/2-y,-z
1/2+x,1/2-y,z
loop_
_atom_site_type_symbol
_atom_site_label
_atom_site_fract_x
_atom_site_fract_y
_atom_site_fract_z
Si Si1 0.608418 0.687553 0.218628
Si Si2 0.954838 0.306213 0.709653
Si Si3 0.210655 0.303047 0.835544
Si Si4 0.695901 0.295223 0.586831
Si Si5 0.634935 0.701948 0.667656
Si Si6 0.967721 0.696174 0.907519
Si Si7 0.384501 0.297562 0.542105
Si Si8 0.779855 0.299744 0.960087
O O1 0.594982 0.500000 0.231407
O O2 0.576295 0.805630 0.248129
O O3 0.747480 0.717454 0.261159
O O4 0.530801 0.710710 0.140834
O O5 0.962944 0.500000 0.698110
O O6 0.833297 0.229700 0.637817
O O7 0.088664 0.230486 0.762010
O O8 0.219051 0.500000 0.827577
O O9 0.335858 0.218210 0.873998
O O10 0.203543 0.284818 0.888096
O O11 0.701125 0.500000 0.586843
O O12 0.653783 0.258237 0.620896
O O13 0.612343 0.240516 0.510171
O O14 0.643050 0.500000 0.677654
O O15 0.498406 0.763296 0.619304
O O16 0.986330 0.500000 0.905212
O O17 0.078764 0.749115 0.985454
O O18 0.394834 0.500000 0.546918
O O19 0.250000 0.250000 0.500000
O O20 0.766815 0.500000 0.948862
O O21 0.750000 0.250000 0.000000
#
# Coordination Sequence:
#
# PCOD9191996 Si02
#       8
#     8   8   8   8   8   8   8   8
#     4  11  22  36  58  86 112 143 187 234 279 331
#     4   9  19  37  59  83 112 146 183 226 279 334
#     4  11  23  38  59  88 119 151 188 230 278 334
#     4   8  15  32  57  78 100 137 185 226 260 315
#     4   9  18  35  57  78 104 143 188 230 276 330
#     4  11  24  41  59  82 116 153 187 228 282 338
#     4  10  20  33  52  79 109 143 182 227 280 334
#     4  11  24  41  62  86 113 150 192 235 283 333
#
# _framework density 25.046631000000001
#
# number of rings (size 3 to 8) (size 9 to 14) (size 15 to 20)
#    0.000    2.000    0.000    4.500    0.000   10.500 
#    0.000    3.750    0.000    3.750    0.000    0.000 
#    0.000    0.000    0.000    0.000    0.000    0.000 
#
# Total GULP energy -178939.567415 kJ/mol
# GULP energy per Si atom -5591.861482 kJ/mol
# Density = 2.498962 g / cm^3
# Si number density = 25.046631 Si / 1000 Ang^3
#
#
#
# Elastic Constant Matrix: (Units=GPa)
#
#
# Indices 1 2 3 4 5 6 
#
# 1 69.7510 -5.7608 1.2829 0.0000 17.0780 0.0000
# 2 -5.7608 54.9000 13.4599 0.0000 3.6966 0.0000
# 3 1.2829 13.4599 133.5298 0.0000 25.6545 0.0000
# 4 0.0000 0.0000 0.0000 17.0503 0.0000 1.5638
# 5 17.0780 3.6966 25.6545 0.0000 48.0323 0.0000
# 6 0.0000 0.0000 0.0000 1.5638 0.0000 25.9492
#
#
#
# Elastic Compliance Matrix: (Units=1/GPa)
#
#
# Indices 1 2 3 4 5 6 
#
# 1 0.016021 0.001893 0.000867 0.000000 -0.006305 0.000000
# 2 0.001893 0.018910 -0.001689 0.000000 -0.001226 0.000000
# 3 0.000867 -0.001689 0.008564 0.000000 -0.004752 0.000000
# 4 0.000000 0.000000 0.000000 0.058976 0.000000 -0.003554
# 5 -0.006305 -0.001226 -0.004752 0.000000 0.025694 0.000000
# 6 0.000000 0.000000 0.000000 -0.003554 0.000000 0.038751
#
#
# Mechanical properties :
#
#
# Convention : Reuss Voigt Hill
#
# Bulk Modulus (GPa) = 21.91212 30.68278 26.29745
# Shear Modulus (GPa) = 27.78000 34.81962 31.29981
#
# Velocity S-wave (km/s) = 3.33398 3.73257 3.53889
# Velocity P-wave (km/s) = 4.85675 5.55455 5.21733
#
# Compressibility (1/GPa) = 0.04563685
#
# Stress axis : x y z
#
# Youngs Moduli (GPa) = 62.41891 52.88154 116.76952
#
# Poissons Ratio (x) = -0.10011 -0.10119
# Poissons Ratio (y) = -0.11817 0.19719
# Poissons Ratio (z) = -0.05409 0.08930
#
# Static dielectric constant tensor:
#      x y z
#    x 2.074860 0.000000 0.035830 
#    y 0.000000 1.895360 0.000000 
#    z 0.035830 0.000000 1.991930 
# 
# From -- ./inp_files/378332.got.cif
#   From: 2010.05.17/outbox.cif.g08.bks.cpg/sg12_190_cif.got.tgz:378332.got - 2010.06.03 13:09:07.
