data_PCOD9191872
_publ_section_title
;
Structure prediction by ZEFSAII (Michael W. Deem and Ramdas Pophale) SiO2 
 PCOD9191872
Probable space group: C 2/M
;
_chemical_formula_sum "Si O2"
_cell_formula_units_Z 60
_cell_length_a 15.758524
_cell_length_b 22.089470
_cell_length_c 9.309324
_cell_angle_alpha 90.000000
_cell_angle_beta 47.671005
_cell_angle_gamma 90.000000
_cell_volume 2395.708951
_symmetry_space_group_name_H-M "C 2/M"
_symmetry_group_IT_number 12
_symmetry_cell_setting 'monoclinic'
loop_
_space_group_symop_operation_xyz
x,y,z
-x,y,-z
-x,-y,-z
x,-y,z
1/2+x,1/2+y,z
1/2-x,1/2+y,-z
1/2-x,1/2-y,-z
1/2+x,1/2-y,z
loop_
_atom_site_type_symbol
_atom_site_label
_atom_site_fract_x
_atom_site_fract_y
_atom_site_fract_z
Si Si1 0.818042 0.723766 0.622282
Si Si2 0.936813 0.245909 0.210560
Si Si3 0.632076 0.357906 0.374944
Si Si4 0.368185 0.500000 0.951111
Si Si5 0.246950 0.600447 0.250239
Si Si6 0.160485 0.427266 0.933567
Si Si7 0.050086 0.111394 0.760701
Si Si8 0.921114 0.572223 0.294621
O O1 0.912310 0.717778 0.385695
O O2 0.692406 0.730834 0.693649
O O3 0.846769 0.786872 0.663141
O O4 0.799620 0.665870 0.742184
O O5 0.997824 0.180813 0.174999
O O6 0.000000 0.273441 0.000000
O O7 0.500000 0.371499 0.500000
O O8 0.719646 0.394616 0.180752
O O9 0.642089 0.380013 0.527754
O O10 0.269917 0.551565 0.104557
O O11 0.468298 0.554402 0.823304
O O12 0.372321 0.601018 0.187076
O O13 0.158229 0.584185 0.478721
O O14 0.178772 0.500000 0.915492
O O15 0.124909 0.408634 0.809951
O O16 0.053722 0.408198 0.152943
O O17 0.927613 0.500000 0.273347
#
# Coordination Sequence:
#
# PCOD9191872 Si02
#       8
#     8   8   8   4   8   8   8   8
#     4   9  21  34  51  85 116 149 200 238 284 362
#     4   9  17  33  54  80 120 152 185 245 296 347
#     4  11  23  40  59  82 120 163 199 246 295 351
#     4  12  23  32  61  93 129 160 182 247 313 368
#     4  11  18  33  57  88 122 153 186 242 307 353
#     4   9  19  34  54  86 119 151 189 243 294 352
#     4  10  20  33  51  90 126 152 195 235 298 371
#     4   9  17  31  54  86 122 146 179 234 304 363
#
# _framework density 25.044778999999998
#
# number of rings (size 3 to 8) (size 9 to 14) (size 15 to 20)
#    0.000    2.133    2.000    4.400    0.933    1.333 
#    0.000    0.000    0.000   12.800    0.000    1.400 
#    0.000    0.000    0.000    0.000    0.000    0.000 
#
# Total GULP energy -167072.940525 kJ/mol
# GULP energy per Si atom -5569.098018 kJ/mol
# Density = 2.498778 g / cm^3
# Si number density = 25.044779 Si / 1000 Ang^3
#
#
#
# Elastic Constant Matrix: (Units=GPa)
#
#
# Indices 1 2 3 4 5 6 
#
# 1 47.3396 34.8608 21.5955 0.0000 -9.0389 0.0000
# 2 34.8608 136.1875 88.3304 0.0000 -11.8442 0.0000
# 3 21.5955 88.3304 167.2603 0.0000 -21.0442 0.0000
# 4 0.0000 0.0000 0.0000 8.3409 0.0000 -75.8509
# 5 -9.0389 -11.8442 -21.0442 0.0000 38.3748 0.0000
# 6 0.0000 0.0000 0.0000 -75.8509 0.0000 -105.4376
#
#
#
# Elastic Compliance Matrix: (Units=1/GPa)
#
#
# Indices 1 2 3 4 5 6 
#
# 1 0.026770 -0.006975 0.000805 0.000000 0.004594 0.000000
# 2 -0.006975 0.012988 -0.006080 0.000000 -0.000969 0.000000
# 3 0.000805 -0.006080 0.009531 0.000000 0.003540 0.000000
# 4 0.000000 0.000000 0.000000 0.015896 0.000000 -0.011436
# 5 0.004594 -0.000969 0.003540 0.000000 0.028783 0.000000
# 6 0.000000 0.000000 0.000000 -0.011436 0.000000 -0.001258
#
#
# Mechanical properties :
#
#
# Convention : Reuss Voigt Hill
#
# Bulk Modulus (GPa) = 40.34069 71.15120 55.74594
# Shear Modulus (GPa) = 39.84889 1.98900 20.91894
#
# Velocity S-wave (km/s) = 3.99319 0.89213 2.89322
# Velocity P-wave (km/s) = 6.11581 5.43438 5.78514
#
# Compressibility (1/GPa) = 0.02478887
#
# Stress axis : x y z
#
# Youngs Moduli (GPa) = 37.35460 76.99669 104.92140
#
# Poissons Ratio (x) = 0.53708 -0.08450
# Poissons Ratio (y) = 0.26056 0.63792
# Poissons Ratio (z) = -0.03008 0.46814
#
# Static dielectric constant tensor:
#      x y z
#    x 2.151040 0.000000 0.087190 
#    y 0.000000 1.992130 0.000000 
#    z 0.087190 0.000000 2.034490 
# 
# From -- ./inp_files/160484.got.cif
#   From: 2010.05.17/outbox.cif.g08.bks.cpg/sg12_81_cif.got.tgz:160484.got - 2010.06.03 13:09:07.
