data_PCOD9191016
_publ_section_title
;
Structure prediction by ZEFSAII (Michael W. Deem and Ramdas Pophale) SiO2 
 PCOD9191016
Probable space group: C 2/M
;
_chemical_formula_sum "Si O2"
_cell_formula_units_Z 48
_cell_length_a 11.671198
_cell_length_b 17.873329
_cell_length_c 11.676517
_cell_angle_alpha 90.000000
_cell_angle_beta 96.348053
_cell_angle_gamma 90.000000
_cell_volume 2420.823690
_symmetry_space_group_name_H-M "C 2/M"
_symmetry_group_IT_number 12
_symmetry_cell_setting 'monoclinic'
loop_
_space_group_symop_operation_xyz
x,y,z
-x,y,-z
-x,-y,-z
x,-y,z
1/2+x,1/2+y,z
1/2-x,1/2+y,-z
1/2-x,1/2-y,-z
1/2+x,1/2-y,z
loop_
_atom_site_type_symbol
_atom_site_label
_atom_site_fract_x
_atom_site_fract_y
_atom_site_fract_z
Si Si1 0.080628 0.808572 0.285495
Si Si2 0.687407 0.587461 0.485597
Si Si3 0.873922 0.416848 0.829219
Si Si4 0.393550 0.417975 0.274520
Si Si5 0.370036 0.761489 0.943315
Si Si6 0.575595 0.849822 0.399712
O O1 0.143007 0.871418 0.368111
O O2 0.146637 0.779147 0.181483
O O3 0.058774 0.736460 0.362594
O O4 0.962776 0.848396 0.233941
O O5 0.715870 0.500000 0.468753
O O6 0.604145 0.588151 0.587205
O O7 0.795904 0.634058 0.543359
O O8 0.904217 0.500000 0.872089
O O9 0.738922 0.417033 0.778165
O O10 0.884577 0.349793 0.918989
O O11 0.941375 0.396319 0.719300
O O12 0.441607 0.500000 0.248271
O O13 0.500000 0.737848 0.000000
O O14 0.250000 0.750000 0.000000
O O15 0.500000 0.871069 0.500000
#
# Coordination Sequence:
#
# PCOD9191016 Si02
#       6
#     8   8   8   8   8   8
#     4  11  21  34  57  82 110 147 191 235 289 350
#     4  10  20  33  52  82 118 150 180 221 280 354
#     4   9  20  38  60  84 113 153 192 231 288 352
#     4   9  17  33  57  87 122 150 177 224 288 357
#     4  11  25  44  63  84 113 151 201 259 302 334
#     4  10  20  32  51  81 117 150 181 222 275 344
#
# _framework density 19.827963
#
# number of rings (size 3 to 8) (size 9 to 14) (size 15 to 20)
#    0.000    2.000    0.000    5.000    0.000    8.333 
#    0.000    1.667    0.000    4.500    0.000    0.000 
#    0.000    0.000    0.000    0.000    0.000    0.000 
#
# Total GULP energy -133789.784418 kJ/mol
# GULP energy per Si atom -5574.574351 kJ/mol
# Density = 1.978283 g / cm^3
# Si number density = 19.827963 Si / 1000 Ang^3
#
#
#
# Elastic Constant Matrix: (Units=GPa)
#
#
# Indices 1 2 3 4 5 6 
#
# 1 67.0301 30.7829 26.3860 0.0000 -17.0077 0.0000
# 2 30.7829 130.0909 26.8287 0.0000 -11.9423 0.0000
# 3 26.3860 26.8287 60.8165 0.0000 -10.9748 0.0000
# 4 0.0000 0.0000 0.0000 25.2096 0.0000 5.4227
# 5 -17.0077 -11.9423 -10.9748 0.0000 34.7102 0.0000
# 6 0.0000 0.0000 0.0000 5.4227 0.0000 25.9785
#
#
#
# Elastic Compliance Matrix: (Units=1/GPa)
#
#
# Indices 1 2 3 4 5 6 
#
# 1 0.020546 -0.002902 -0.006360 0.000000 0.007058 0.000000
# 2 -0.002902 0.008978 -0.002546 0.000000 0.000862 0.000000
# 3 -0.006360 -0.002546 0.020791 0.000000 0.002582 0.000000
# 4 0.000000 0.000000 0.000000 0.041532 0.000000 -0.008669
# 5 0.007058 0.000862 0.002582 0.000000 0.033381 0.000000
# 6 0.000000 0.000000 0.000000 -0.008669 0.000000 0.040303
#
#
# Mechanical properties :
#
#
# Convention : Reuss Voigt Hill
#
# Bulk Modulus (GPa) = 37.45503 47.32585 42.39044
# Shear Modulus (GPa) = 25.24653 28.77566 27.01110
#
# Velocity S-wave (km/s) = 3.57217 3.81368 3.69490
# Velocity P-wave (km/s) = 5.99541 6.58121 6.29513
#
# Compressibility (1/GPa) = 0.02669868
#
# Stress axis : x y z
#
# Youngs Moduli (GPa) = 48.67154 111.38582 48.09707
#
# Poissons Ratio (x) = 0.32325 0.30591
# Poissons Ratio (y) = 0.14125 0.12245
# Poissons Ratio (z) = 0.30956 0.28357
#
# Static dielectric constant tensor:
#      x y z
#    x 1.774120 0.000000 0.011710 
#    y 0.000000 1.697780 0.000000 
#    z 0.011710 0.000000 1.709620 
# 
# From -- ./inp_files/131247.got.cif
#   From: 2010.05.17/outbox.cif.g08.bks.cpg/sg12_66_cif.got.tgz:131247.got - 2010.06.03 13:09:07.
