data_PCOD9191424
_publ_section_title
;
Structure prediction by ZEFSAII (Michael W. Deem and Ramdas Pophale) SiO2 
 PCOD9191424
Probable space group: C 2/M
;
_chemical_formula_sum "Si O2"
_cell_formula_units_Z 56
_cell_length_a 14.974019
_cell_length_b 7.398177
_cell_length_c 27.953982
_cell_angle_alpha 90.000000
_cell_angle_beta 127.280690
_cell_angle_gamma 90.000000
_cell_volume 2464.018405
_symmetry_space_group_name_H-M "C 2/M"
_symmetry_group_IT_number 12
_symmetry_cell_setting 'monoclinic'
loop_
_space_group_symop_operation_xyz
x,y,z
-x,y,-z
-x,-y,-z
x,-y,z
1/2+x,1/2+y,z
1/2-x,1/2+y,-z
1/2-x,1/2-y,-z
1/2+x,1/2-y,z
loop_
_atom_site_type_symbol
_atom_site_label
_atom_site_fract_x
_atom_site_fract_y
_atom_site_fract_z
Si Si1 0.907796 0.779464 0.075347
Si Si2 0.397195 0.286335 0.498325
Si Si3 0.670641 0.706718 0.047832
Si Si4 0.379425 0.282790 0.792749
Si Si5 0.721813 0.221145 0.823094
Si Si6 0.857685 0.718542 0.593638
Si Si7 0.475952 0.209997 0.726552
O O1 0.794088 0.710142 0.063029
O O2 0.012934 0.722995 0.141210
O O3 0.903016 0.000000 0.073410
O O4 0.908351 0.719000 0.019948
O O5 0.500000 0.212780 0.500000
O O6 0.392033 0.500000 0.486486
O O7 0.271497 0.214524 0.447188
O O8 0.411853 0.263882 0.560067
O O9 0.634432 0.500000 0.044039
O O10 0.697289 0.787886 0.108176
O O11 0.382475 0.500000 0.792685
O O12 0.271346 0.228942 0.787882
O O13 0.388946 0.219838 0.741762
O O14 0.593903 0.285364 0.784370
O O15 0.723789 0.000000 0.828080
O O16 0.853291 0.500000 0.594692
O O17 0.926814 0.786599 0.661689
O O18 0.499600 0.000000 0.724160
#
# Coordination Sequence:
#
# PCOD9191424 Si02
#       7
#     8   8   8   8   8   8   8
#     4   9  17  28  46  71  94 118 158 210 251 290
#     4   9  18  34  55  79 107 134 162 201 245 286
#     4   9  16  29  49  68  90 125 162 198 250 304
#     4  10  20  33  49  72  99 127 165 210 251 291
#     4   9  18  32  50  70  95 130 166 201 247 301
#     4   9  19  34  53  77 103 134 169 202 238 286
#     4  10  20  36  53  71 101 136 168 201 241 293
#
# _framework density 22.727104000000001
#
# number of rings (size 3 to 8) (size 9 to 14) (size 15 to 20)
#    0.000    2.714    1.429    0.000    0.000    2.571 
#    0.000    4.286    0.000    0.000    0.000    5.000 
#    0.000    0.000    0.000    0.000    0.000    0.000 
#
# Total GULP energy -156301.734676 kJ/mol
# GULP energy per Si atom -5582.204810 kJ/mol
# Density = 2.267538 g / cm^3
# Si number density = 22.727104 Si / 1000 Ang^3
#
#
#
# Elastic Constant Matrix: (Units=GPa)
#
#
# Indices 1 2 3 4 5 6 
#
# 1 108.4396 -2.7630 46.7183 0.0000 -25.2548 0.0000
# 2 -2.7630 78.1220 -4.5359 0.0000 6.6610 0.0000
# 3 46.7183 -4.5359 128.8700 0.0000 -25.4355 0.0000
# 4 0.0000 0.0000 0.0000 -6.0808 0.0000 -6.2519
# 5 -25.2548 6.6610 -25.4355 0.0000 19.1664 0.0000
# 6 0.0000 0.0000 0.0000 -6.2519 0.0000 11.2265
#
#
#
# Elastic Compliance Matrix: (Units=1/GPa)
#
#
# Indices 1 2 3 4 5 6 
#
# 1 0.013710 -0.000982 -0.001859 0.000000 0.015939 0.000000
# 2 -0.000982 0.013296 -0.000465 0.000000 -0.006532 0.000000
# 3 -0.001859 -0.000465 0.010793 0.000000 0.012036 0.000000
# 4 0.000000 0.000000 0.000000 -0.104576 0.000000 -0.058237
# 5 0.015939 -0.006532 0.012036 0.000000 0.091420 0.000000
# 6 0.000000 0.000000 0.000000 -0.058237 0.000000 0.056643
#
#
# Mechanical properties :
#
#
# Convention : Reuss Voigt Hill
#
# Bulk Modulus (GPa) = 32.06568 43.80782 37.93675
# Shear Modulus (GPa) = 50.86858 23.26323 37.06591
#
# Velocity S-wave (km/s) = 4.73613 3.20283 4.04284
# Velocity P-wave (km/s) = 6.63683 5.74412 6.20655
#
# Compressibility (1/GPa) = 0.03118599
#
# Stress axis : x y z
#
# Youngs Moduli (GPa) = 72.94159 75.21215 92.65564
#
# Poissons Ratio (x) = 0.07387 0.17221
# Poissons Ratio (y) = 0.07164 0.04311
# Poissons Ratio (z) = 0.13557 0.03500
#
# Static dielectric constant tensor:
#      x y z
#    x 1.829910 0.000000 0.005150 
#    y 0.000000 1.004860 0.000000 
#    z 0.005150 0.000000 1.838330 
# 
# From -- ./inp_files/339001.got.cif
#   From: 2010.05.17/outbox.cif.g08.bks.cpg/sg12_170_cif.got.tgz:339001.got - 2010.06.03 13:09:07.
