data_PCOD9191059
_publ_section_title
;
Structure prediction by ZEFSAII (Michael W. Deem and Ramdas Pophale) SiO2 
 PCOD9191059
Probable space group: C 2/M
;
_chemical_formula_sum "Si O2"
_cell_formula_units_Z 56
_cell_length_a 19.202010
_cell_length_b 7.536138
_cell_length_c 18.558723
_cell_angle_alpha 90.000000
_cell_angle_beta 111.843503
_cell_angle_gamma 90.000000
_cell_volume 2492.796739
_symmetry_space_group_name_H-M "C 2/M"
_symmetry_group_IT_number 12
_symmetry_cell_setting 'monoclinic'
loop_
_space_group_symop_operation_xyz
x,y,z
-x,y,-z
-x,-y,-z
x,-y,z
1/2+x,1/2+y,z
1/2-x,1/2+y,-z
1/2-x,1/2-y,-z
1/2+x,1/2-y,z
loop_
_atom_site_type_symbol
_atom_site_label
_atom_site_fract_x
_atom_site_fract_y
_atom_site_fract_z
Si Si1 0.815728 0.197034 0.969814
Si Si2 0.232644 0.716360 0.703056
Si Si3 0.873793 0.215499 0.841349
Si Si4 0.091406 0.283507 0.738014
Si Si5 0.476767 0.215845 0.571807
Si Si6 0.817294 0.711822 0.473406
Si Si7 0.547847 0.208817 0.880885
O O1 0.835909 0.284813 0.900970
O O2 0.792184 0.000000 0.939618
O O3 0.750000 0.250000 0.000000
O O4 0.894654 0.200636 0.042334
O O5 0.232542 0.500000 0.701003
O O6 0.317011 0.770527 0.755705
O O7 0.173840 0.769084 0.742611
O O8 0.201132 0.779166 0.613926
O O9 0.960024 0.270641 0.864815
O O10 0.875816 0.000000 0.844004
O O11 0.090165 0.500000 0.738166
O O12 0.067157 0.225945 0.807907
O O13 0.032103 0.221534 0.655097
O O14 0.500000 0.264200 0.500000
O O15 0.391639 0.278462 0.541737
O O16 0.479742 0.000000 0.577009
O O17 0.827670 0.500000 0.468909
O O18 0.750000 0.750000 0.500000
O O19 0.565969 0.000000 0.891453
#
# Coordination Sequence:
#
# PCOD9191059 Si02
#       7
#     8   8   8   8   8   8   8
#     4  11  23  41  65  89 115 149 187 229 278 334
#     4   9  17  33  54  77 106 144 187 228 277 336
#     4  10  22  39  58  81 114 153 189 229 281 338
#     4   9  17  31  52  79 110 142 185 236 280 326
#     4   9  15  28  51  79 105 137 187 237 275 319
#     4  10  20  32  52  79 108 143 181 228 281 334
#     4  11  23  37  58  88 118 149 186 233 282 331
#
# _framework density 22.464727
#
# number of rings (size 3 to 8) (size 9 to 14) (size 15 to 20)
#    0.000    2.143    1.429    2.143    2.000    5.143 
#    0.000    0.000    0.000    2.143    0.000    0.000 
#    0.000    0.000    0.000    0.000    0.000    0.000 
#
# Total GULP energy -156333.851908 kJ/mol
# GULP energy per Si atom -5583.351854 kJ/mol
# Density = 2.241360 g / cm^3
# Si number density = 22.464727 Si / 1000 Ang^3
#
#
#
# Elastic Constant Matrix: (Units=GPa)
#
#
# Indices 1 2 3 4 5 6 
#
# 1 122.2210 -11.7523 11.5251 0.0000 10.2657 0.0000
# 2 -11.7523 53.6176 -8.8867 0.0000 -3.4055 0.0000
# 3 11.5251 -8.8867 85.0059 0.0000 7.2636 0.0000
# 4 0.0000 0.0000 0.0000 2.3018 0.0000 -5.6026
# 5 10.2657 -3.4055 7.2636 0.0000 43.1595 0.0000
# 6 0.0000 0.0000 0.0000 -5.6026 0.0000 19.3689
#
#
#
# Elastic Compliance Matrix: (Units=1/GPa)
#
#
# Indices 1 2 3 4 5 6 
#
# 1 0.008566 0.001626 -0.000840 0.000000 -0.001768 0.000000
# 2 0.001626 0.019348 0.001730 0.000000 0.000849 0.000000
# 3 -0.000840 0.001730 0.012205 0.000000 -0.001718 0.000000
# 4 0.000000 0.000000 0.000000 1.467943 0.000000 0.424613
# 5 -0.001768 0.000849 -0.001718 0.000000 0.023946 0.000000
# 6 0.000000 0.000000 0.000000 0.424613 0.000000 0.174452
#
#
# Mechanical properties :
#
#
# Convention : Reuss Voigt Hill
#
# Bulk Modulus (GPa) = 22.14860 26.95741 24.55301
# Shear Modulus (GPa) = 2.91294 30.96326 16.93810
#
# Velocity S-wave (km/s) = 1.13995 3.71658 2.74886
# Velocity P-wave (km/s) = 3.40783 5.51754 4.58566
#
# Compressibility (1/GPa) = 0.04514958
#
# Stress axis : x y z
#
# Youngs Moduli (GPa) = 116.74102 51.68609 81.93078
#
# Poissons Ratio (x) = -0.08404 0.06885
# Poissons Ratio (y) = -0.18982 -0.14171
# Poissons Ratio (z) = 0.09810 -0.08940
#
# Static dielectric constant tensor:
#      x y z
#    x -0.371850 0.000000 -0.995850 
#    y 0.000000 1.929990 0.000000 
#    z -0.995850 0.000000 1.346550 
# 
# From -- ./inp_files/275612.got.cif
#   From: 2010.05.17/outbox.cif.g08.bks.cpg/sg12_138_cif.got.tgz:275612.got - 2010.06.03 13:09:07.
