data_PCOD9191990
_publ_section_title
;
Structure prediction by ZEFSAII (Michael W. Deem and Ramdas Pophale) SiO2 
 PCOD9191990
Probable space group: C 2/M
;
_chemical_formula_sum "Si O2"
_cell_formula_units_Z 64
_cell_length_a 31.759329
_cell_length_b 7.497256
_cell_length_c 19.305881
_cell_angle_alpha 90.000000
_cell_angle_beta 141.204707
_cell_angle_gamma 90.000000
_cell_volume 2880.128979
_symmetry_space_group_name_H-M "C 2/M"
_symmetry_group_IT_number 12
_symmetry_cell_setting 'monoclinic'
loop_
_space_group_symop_operation_xyz
x,y,z
-x,y,-z
-x,-y,-z
x,-y,z
1/2+x,1/2+y,z
1/2-x,1/2+y,-z
1/2-x,1/2-y,-z
1/2+x,1/2-y,z
loop_
_atom_site_type_symbol
_atom_site_label
_atom_site_fract_x
_atom_site_fract_y
_atom_site_fract_z
Si Si1 0.749889 0.287327 0.082008
Si Si2 0.103676 0.217964 0.940231
Si Si3 0.215057 0.290968 0.548792
Si Si4 0.998709 0.218174 0.918266
Si Si5 0.107062 0.204383 0.676548
Si Si6 0.356112 0.293388 0.680370
Si Si7 0.475833 0.718200 0.298640
Si Si8 0.115451 0.784780 0.533091
O O1 0.754303 0.500000 0.096786
O O2 0.816012 0.205718 0.200420
O O3 0.750000 0.250000 0.000000
O O4 0.680371 0.224208 0.027308
O O5 0.061012 0.275058 0.818262
O O6 0.063349 0.275445 0.956601
O O7 0.104981 0.000000 0.941650
O O8 0.218271 0.500000 0.536370
O O9 0.290012 0.216092 0.633683
O O10 0.164157 0.212452 0.426390
O O11 0.184375 0.268773 0.585065
O O12 0.929198 0.279724 0.792972
O O13 0.999974 0.000000 0.918310
O O14 0.000000 0.272456 0.000000
O O15 0.063611 0.281733 0.683537
O O16 0.104027 0.283902 0.596100
O O17 0.083177 0.000000 0.638989
O O18 0.359987 0.500000 0.706890
O O19 0.473529 0.500000 0.295105
O O20 0.552903 0.772104 0.405477
O O21 0.115532 0.000000 0.535967
#
# Coordination Sequence:
#
# PCOD9191990 Si02
#       8
#     8   8   8   8   8   8   8   8
#     4  11  21  35  55  78 106 141 179 222 270 320
#     4   9  17  29  51  78 102 134 176 221 263 308
#     4  10  20  33  52  79 109 138 170 217 269 322
#     4   9  17  30  51  80 107 131 171 225 268 305
#     4  10  20  35  54  78 106 139 180 224 266 313
#     4   9  18  34  56  77 101 138 180 219 263 316
#     4   9  16  31  54  77 101 134 182 228 260 303
#     4  10  20  33  54  80 106 139 178 219 266 321
#
# _framework density 22.221226000000001
#
# number of rings (size 3 to 8) (size 9 to 14) (size 15 to 20)
#    0.000    2.375    1.250    1.875    0.000    5.500 
#    0.000    3.125    0.000    2.625    0.000    0.000 
#    0.000    0.000    0.000    0.000    0.000    0.000 
#
# Total GULP energy -178718.861449 kJ/mol
# GULP energy per Si atom -5584.964420 kJ/mol
# Density = 2.217065 g / cm^3
# Si number density = 22.221226 Si / 1000 Ang^3
#
#
#
# Elastic Constant Matrix: (Units=GPa)
#
#
# Indices 1 2 3 4 5 6 
#
# 1 174.2315 -1.7057 25.7954 0.0000 10.3792 0.0000
# 2 -1.7057 62.3318 -4.0685 0.0000 2.7146 0.0000
# 3 25.7954 -4.0685 45.0691 0.0000 21.0143 0.0000
# 4 0.0000 0.0000 0.0000 8.2470 0.0000 2.3827
# 5 10.3792 2.7146 21.0143 0.0000 30.0394 0.0000
# 6 0.0000 0.0000 0.0000 2.3827 0.0000 10.5738
#
#
#
# Elastic Compliance Matrix: (Units=1/GPa)
#
#
# Indices 1 2 3 4 5 6 
#
# 1 0.006277 -0.000103 -0.003851 0.000000 0.000535 0.000000
# 2 -0.000103 0.016418 0.003289 0.000000 -0.003749 0.000000
# 3 -0.003851 0.003289 0.035926 0.000000 -0.024099 0.000000
# 4 0.000000 0.000000 0.000000 0.129701 0.000000 -0.029227
# 5 0.000535 -0.003749 -0.024099 0.000000 0.050302 0.000000
# 6 0.000000 0.000000 0.000000 -0.029227 0.000000 0.101159
#
#
# Mechanical properties :
#
#
# Convention : Reuss Voigt Hill
#
# Bulk Modulus (GPa) = 17.45477 35.74165 26.59821
# Shear Modulus (GPa) = 13.88079 27.21277 20.54678
#
# Velocity S-wave (km/s) = 2.50204 3.50327 3.04410
# Velocity P-wave (km/s) = 4.02728 5.69941 4.93468
#
# Compressibility (1/GPa) = 0.05729094
#
# Stress axis : x y z
#
# Youngs Moduli (GPa) = 159.31682 60.90765 27.83522
#
# Poissons Ratio (x) = 0.00627 0.10720
# Poissons Ratio (y) = 0.01639 -0.09155
# Poissons Ratio (z) = 0.61354 -0.20033
#
# Static dielectric constant tensor:
#      x y z
#    x 1.823510 0.000000 0.017140 
#    y 0.000000 1.864380 0.000000 
#    z 0.017140 0.000000 1.776750 
# 
# From -- ./inp_files/295742.got.cif
#   From: 2010.05.17/outbox.cif.g08.bks.cpg/sg12_148_cif.got.tgz:295742.got - 2010.06.03 13:09:07.
