data_PCOD9191946
_publ_section_title
;
Structure prediction by ZEFSAII (Michael W. Deem and Ramdas Pophale) SiO2 
 PCOD9191946
Probable space group: C 2/M
;
_chemical_formula_sum "Si O2"
_cell_formula_units_Z 48
_cell_length_a 9.297377
_cell_length_b 13.519310
_cell_length_c 26.270644
_cell_angle_alpha 90.000000
_cell_angle_beta 142.675873
_cell_angle_gamma 90.000000
_cell_volume 2002.119324
_symmetry_space_group_name_H-M "C 2/M"
_symmetry_group_IT_number 12
_symmetry_cell_setting 'monoclinic'
loop_
_space_group_symop_operation_xyz
x,y,z
-x,y,-z
-x,-y,-z
x,-y,z
1/2+x,1/2+y,z
1/2-x,1/2+y,-z
1/2-x,1/2-y,-z
1/2+x,1/2-y,z
loop_
_atom_site_type_symbol
_atom_site_label
_atom_site_fract_x
_atom_site_fract_y
_atom_site_fract_z
Si Si1 0.298002 0.118474 0.650260
Si Si2 0.755960 0.803465 0.836244
Si Si3 0.484076 0.120564 0.390561
Si Si4 0.518772 0.615658 0.739292
Si Si5 0.172851 0.119787 0.427789
Si Si6 0.247087 0.210000 0.941177
O O1 0.520777 0.145551 0.748273
O O2 0.341137 0.152735 0.604926
O O3 0.052592 0.155897 0.603369
O O4 0.281242 0.000000 0.643974
O O5 0.729665 0.688344 0.811751
O O6 0.747623 0.792603 0.895681
O O7 0.992196 0.844452 0.874569
O O8 0.219309 0.145600 0.297401
O O9 0.592711 0.150177 0.475424
O O10 0.476067 0.000000 0.389835
O O11 0.575882 0.500000 0.760730
O O12 0.412656 0.635888 0.653569
O O13 0.185027 0.000000 0.433389
O O14 0.500000 0.157078 0.000000
O O15 0.250000 0.250000 0.000000
#
# Coordination Sequence:
#
# PCOD9191946 Si02
#       6
#     8   8   8   8   8   8
#     4  10  20  33  52  78 105 138 178 217 257 296
#     4  11  20  36  59  80 105 132 167 212 259 310
#     4   9  17  31  49  70 104 147 184 218 255 294
#     4  10  20  33  52  78 105 138 178 217 257 296
#     4   9  17  31  49  70 104 147 184 218 255 294
#     4   9  20  38  62  82 102 136 164 196 258 326
#
# _framework density 23.974595000000001
#
# number of rings (size 3 to 8) (size 9 to 14) (size 15 to 20)
#    0.000    2.333    0.000    3.000    0.000    4.000 
#    0.000    5.000    0.000   20.000    0.000    0.000 
#    0.000    0.000    0.000    0.000    0.000    0.000 
#
# Total GULP energy -133852.333650 kJ/mol
# GULP energy per Si atom -5577.180569 kJ/mol
# Density = 2.392003 g / cm^3
# Si number density = 23.974595 Si / 1000 Ang^3
#
#
#
# Elastic Constant Matrix: (Units=GPa)
#
#
# Indices 1 2 3 4 5 6 
#
# 1 110.2995 -16.1685 34.8303 0.0000 -5.8417 0.0000
# 2 -16.1685 72.8169 -0.2526 0.0000 4.5356 0.0000
# 3 34.8303 -0.2526 101.9094 0.0000 -15.5945 0.0000
# 4 0.0000 0.0000 0.0000 17.3884 0.0000 -4.5363
# 5 -5.8417 4.5356 -15.5945 0.0000 38.8901 0.0000
# 6 0.0000 0.0000 0.0000 -4.5363 0.0000 7.0451
#
#
#
# Elastic Compliance Matrix: (Units=1/GPa)
#
#
# Indices 1 2 3 4 5 6 
#
# 1 0.010544 0.002337 -0.003619 0.000000 -0.000140 0.000000
# 2 0.002337 0.014357 -0.001029 0.000000 -0.001736 0.000000
# 3 -0.003619 -0.001029 0.011700 0.000000 0.004268 0.000000
# 4 0.000000 0.000000 0.000000 0.069121 0.000000 0.044507
# 5 -0.000140 -0.001736 0.004268 0.000000 0.027606 0.000000
# 6 0.000000 0.000000 0.000000 0.044507 0.000000 0.170601
#
#
# Mechanical properties :
#
#
# Convention : Reuss Voigt Hill
#
# Bulk Modulus (GPa) = 31.27009 35.76046 33.51527
# Shear Modulus (GPa) = 15.66364 30.43915 23.05140
#
# Velocity S-wave (km/s) = 2.55883 3.56707 3.10416
# Velocity P-wave (km/s) = 4.66921 5.64922 5.18243
#
# Compressibility (1/GPa) = 0.03197944
#
# Stress axis : x y z
#
# Youngs Moduli (GPa) = 94.83703 69.65415 85.46824
#
# Poissons Ratio (x) = -0.16282 0.30935
# Poissons Ratio (y) = -0.22168 0.08794
# Poissons Ratio (z) = 0.34326 0.07167
#
# Static dielectric constant tensor:
#      x y z
#    x 2.029470 0.000000 0.017620 
#    y 0.000000 1.941860 0.000000 
#    z 0.017620 0.000000 1.916450 
# 
# From -- ./inp_files/356283.got.cif
#   From: 2010.05.17/outbox.cif.g08.bks.cpg/sg12_179_cif.got.tgz:356283.got - 2010.06.03 13:09:07.
