data_PCOD9191881
_publ_section_title
;
Structure prediction by ZEFSAII (Michael W. Deem and Ramdas Pophale) SiO2 
 PCOD9191881
Probable space group: C 2/M
;
_chemical_formula_sum "Si O2"
_cell_formula_units_Z 56
_cell_length_a 9.801122
_cell_length_b 14.281881
_cell_length_c 31.521733
_cell_angle_alpha 90.000000
_cell_angle_beta 33.111904
_cell_angle_gamma 90.000000
_cell_volume 2410.368314
_symmetry_space_group_name_H-M "C 2/M"
_symmetry_group_IT_number 12
_symmetry_cell_setting 'monoclinic'
loop_
_space_group_symop_operation_xyz
x,y,z
-x,y,-z
-x,-y,-z
x,-y,z
1/2+x,1/2+y,z
1/2-x,1/2+y,-z
1/2-x,1/2-y,-z
1/2+x,1/2-y,z
loop_
_atom_site_type_symbol
_atom_site_label
_atom_site_fract_x
_atom_site_fract_y
_atom_site_fract_z
Si Si1 0.552879 0.647178 0.939378
Si Si2 0.414380 0.113992 0.659116
Si Si3 0.808680 0.114693 0.627208
Si Si4 0.123018 0.387220 0.768055
Si Si5 0.045781 0.630774 0.034864
Si Si6 0.875721 0.893088 0.786394
Si Si7 0.885264 0.614156 0.484684
O O1 0.832023 0.631183 0.851866
O O2 0.499866 0.757716 0.953907
O O3 0.500000 0.610518 0.000000
O O4 0.331612 0.607367 0.969166
O O5 0.627294 0.147954 0.636418
O O6 0.463931 0.139260 0.597101
O O7 0.128125 0.144451 0.742486
O O8 0.430890 0.000000 0.658028
O O9 0.706176 0.143862 0.699916
O O10 0.098878 0.142955 0.550539
O O11 0.808254 0.000000 0.625760
O O12 0.153117 0.500000 0.760473
O O13 0.281736 0.348504 0.766723
O O14 0.855258 0.602021 0.121223
O O15 0.000000 0.596565 0.000000
O O16 0.943289 0.000000 0.757671
O O17 0.886207 0.500000 0.486639
O O18 0.000000 0.646669 0.500000
#
# Coordination Sequence:
#
# PCOD9191881 Si02
#       7
#     8   8   8   8   8   8   8
#     4  10  20  38  55  73  98 131 173 211 251 302
#     4   9  17  28  43  67 101 133 164 205 250 296
#     4   9  17  28  43  68  99 132 167 205 249 295
#     4  10  20  33  52  75 102 133 169 210 253 301
#     4  10  22  36  54  74  99 132 169 212 254 303
#     4  10  20  34  50  74 105 134 166 208 256 303
#     4   9  15  25  43  65  94 134 172 202 241 294
#
# _framework density 23.232963000000002
#
# number of rings (size 3 to 8) (size 9 to 14) (size 15 to 20)
#    0.000    2.429    1.429    1.286    2.000    6.286 
#    0.000    0.000    0.000    0.000    0.000    1.000 
#    0.000    0.000    0.000    0.000    0.000    0.000 
#
# Total GULP energy -156391.158566 kJ/mol
# GULP energy per Si atom -5585.398520 kJ/mol
# Density = 2.318008 g / cm^3
# Si number density = 23.232963 Si / 1000 Ang^3
#
#
#
# Elastic Constant Matrix: (Units=GPa)
#
#
# Indices 1 2 3 4 5 6 
#
# 1 198.2543 -3.8084 50.0800 0.0187 -20.3240 -0.0040
# 2 -3.8084 63.0145 -20.1646 0.0118 -1.2454 -0.0046
# 3 50.0800 -20.1646 108.0050 0.1359 -15.4881 -0.0105
# 4 0.0187 0.0118 0.1359 37.6124 0.0129 -8.6190
# 5 -20.3240 -1.2454 -15.4881 0.0129 39.6687 -0.0032
# 6 -0.0040 -0.0046 -0.0105 -8.6190 -0.0032 15.8213
#
#
#
# Elastic Compliance Matrix: (Units=1/GPa)
#
#
# Indices 1 2 3 4 5 6 
#
# 1 0.005878 -0.000409 -0.002512 0.000006 0.002018 0.000004
# 2 -0.000409 0.017037 0.003620 -0.000020 0.001739 -0.000003
# 3 -0.002512 0.003620 0.011580 -0.000047 0.003348 -0.000017
# 4 0.000006 -0.000020 -0.000047 0.030380 -0.000024 0.016550
# 5 0.002018 0.001739 0.003348 -0.000024 0.027604 -0.000004
# 6 0.000004 -0.000003 -0.000017 0.016550 -0.000004 0.072222
#
#
# Mechanical properties :
#
#
# Convention : Reuss Voigt Hill
#
# Bulk Modulus (GPa) = 27.86141 46.83198 37.34670
# Shear Modulus (GPa) = 28.52788 41.49826 35.01307
#
# Velocity S-wave (km/s) = 3.50795 4.23091 3.88628
# Velocity P-wave (km/s) = 5.33159 6.63843 6.02057
#
# Compressibility (1/GPa) = 0.03589194
#
# Stress axis : x y z
#
# Youngs Moduli (GPa) = 170.13624 58.69449 86.35799
#
# Poissons Ratio (x) = 0.02400 0.21696
# Poissons Ratio (y) = 0.06956 -0.31260
# Poissons Ratio (z) = 0.42745 -0.21246
#
# Static dielectric constant tensor:
#      x y z
#    x 1.809580 0.000000 0.010640 
#    y 0.000000 1.954870 -0.000010 
#    z 0.010640 -0.000010 1.794320 
# 
# From -- ./inp_files/197558.got.cif
#   From: 2010.05.17/outbox.cif.g08.bks.cpg/sg12_99_cif.got.tgz:197558.got - 2010.06.03 13:09:07.
