data_PCOD9191129
_publ_section_title
;
Structure prediction by ZEFSAII (Michael W. Deem and Ramdas Pophale) SiO2 
 PCOD9191129
Probable space group: C 2/M
;
_chemical_formula_sum "Si O2"
_cell_formula_units_Z 32
_cell_length_a 26.932100
_cell_length_b 10.851313
_cell_length_c 5.154121
_cell_angle_alpha 90.000000
_cell_angle_beta 101.705404
_cell_angle_gamma 90.000000
_cell_volume 1474.959705
_symmetry_space_group_name_H-M "C 2/M"
_symmetry_group_IT_number 12
_symmetry_cell_setting 'monoclinic'
loop_
_space_group_symop_operation_xyz
x,y,z
-x,y,-z
-x,-y,-z
x,-y,z
1/2+x,1/2+y,z
1/2-x,1/2+y,-z
1/2-x,1/2-y,-z
1/2+x,1/2-y,z
loop_
_atom_site_type_symbol
_atom_site_label
_atom_site_fract_x
_atom_site_fract_y
_atom_site_fract_z
Si Si1 0.036630 0.000000 0.790504
Si Si2 0.535804 0.000000 0.792091
Si Si3 0.059650 0.749908 0.633265
Si Si4 0.137990 0.358078 0.367546
Si Si5 0.291859 0.856950 0.050774
O O1 0.068902 0.875422 0.797395
O O2 0.000000 0.000000 0.500000
O O3 0.000000 0.000000 0.000000
O O4 0.500000 0.000000 0.500000
O O5 0.567148 0.125599 0.807077
O O6 0.500000 0.000000 0.000000
O O7 0.092931 0.731483 0.411725
O O8 0.000000 0.751258 0.500000
O O9 0.118528 0.500000 0.338374
O O10 0.168875 0.331972 0.140973
O O11 0.178303 0.351931 0.646349
O O12 0.273468 0.000000 0.998310
O O13 0.250000 0.750000 0.000000
#
# Coordination Sequence:
#
# PCOD9191129 Si02
#       5
#     4   4   8   8   8
#     4  10  22  38  54  76 115 162 199 238 284 326
#     4  10  20  32  54  80 107 152 197 228 268 332
#     4  10  21  39  58  87 123 161 196 237 287 348
#     4  10  21  38  62  92 120 153 195 244 294 347
#     4  10  22  42  64  88 119 151 193 250 302 350
#
# _framework density 21.695506000000002
#
# number of rings (size 3 to 8) (size 9 to 14) (size 15 to 20)
#    0.000    2.000    1.250    1.500    0.000    8.000 
#    4.500    0.000    0.000    0.000    0.000    0.000 
#    0.000    0.000    0.000    0.000    0.000    0.000 
#
# Total GULP energy -89455.387131 kJ/mol
# GULP energy per Si atom -5590.961696 kJ/mol
# Density = 2.164613 g / cm^3
# Si number density = 21.695506 Si / 1000 Ang^3
#
#
#
# Elastic Constant Matrix: (Units=GPa)
#
#
# Indices 1 2 3 4 5 6 
#
# 1 121.5097 68.6322 43.4642 0.0000 -20.3345 0.0000
# 2 68.6322 195.6112 36.0668 0.0000 -25.1702 0.0000
# 3 43.4642 36.0668 134.1571 0.0000 -27.6654 0.0000
# 4 0.0000 0.0000 0.0000 23.3634 0.0000 -9.3540
# 5 -20.3345 -25.1702 -27.6654 0.0000 38.4359 0.0000
# 6 0.0000 0.0000 0.0000 -9.3540 0.0000 32.8912
#
#
#
# Elastic Compliance Matrix: (Units=1/GPa)
#
#
# Indices 1 2 3 4 5 6 
#
# 1 0.011255 -0.003242 -0.002331 0.000000 0.002154 0.000000
# 2 -0.003242 0.006606 -0.000220 0.000000 0.002452 0.000000
# 3 -0.002331 -0.000220 0.009376 0.000000 0.005372 0.000000
# 4 0.000000 0.000000 0.000000 0.048302 0.000000 0.013737
# 5 0.002154 0.002452 0.005372 0.000000 0.032629 0.000000
# 6 0.000000 0.000000 0.000000 0.013737 0.000000 0.034310
#
#
# Mechanical properties :
#
#
# Convention : Reuss Voigt Hill
#
# Bulk Modulus (GPa) = 63.89110 83.06712 73.47911
# Shear Modulus (GPa) = 31.39127 39.14577 35.26852
#
# Velocity S-wave (km/s) = 3.80794 4.25234 4.03626
# Velocity P-wave (km/s) = 6.98905 7.90448 7.46082
#
# Compressibility (1/GPa) = 0.01565163
#
# Stress axis : x y z
#
# Youngs Moduli (GPa) = 88.84808 151.38207 106.65717
#
# Poissons Ratio (x) = 0.49080 0.24858
# Poissons Ratio (y) = 0.28806 0.02344
# Poissons Ratio (z) = 0.20708 0.03327
#
# Static dielectric constant tensor:
#      x y z
#    x 1.624660 0.000000 -0.183530 
#    y 0.000000 1.898640 0.000000 
#    z -0.183530 0.000000 1.509850 
# 
# From -- ./inp_files/23432.got.cif
#   From: 2010.05.17/outbox.cif.g08.bks.cpg/sg12_12_cif.got.tgz:23432.got - 2010.06.03 13:09:07.
