data_PCOD9191273
_publ_section_title
;
Structure prediction by ZEFSAII (Michael W. Deem and Ramdas Pophale) SiO2 
 PCOD9191273
Probable space group: C 2/M
;
_chemical_formula_sum "Si O2"
_cell_formula_units_Z 64
_cell_length_a 24.946190
_cell_length_b 8.688063
_cell_length_c 21.863660
_cell_angle_alpha 90.000000
_cell_angle_beta 47.748627
_cell_angle_gamma 90.000000
_cell_volume 3507.521287
_symmetry_space_group_name_H-M "C 2/M"
_symmetry_group_IT_number 12
_symmetry_cell_setting 'monoclinic'
loop_
_space_group_symop_operation_xyz
x,y,z
-x,y,-z
-x,-y,-z
x,-y,z
1/2+x,1/2+y,z
1/2-x,1/2+y,-z
1/2-x,1/2-y,-z
1/2+x,1/2-y,z
loop_
_atom_site_type_symbol
_atom_site_label
_atom_site_fract_x
_atom_site_fract_y
_atom_site_fract_z
Si Si1 0.394704 0.180742 0.763891
Si Si2 0.969369 0.183027 0.285904
Si Si3 0.810912 0.684486 0.408922
Si Si4 0.391988 0.675504 0.017163
Si Si5 0.748471 0.184717 0.197181
Si Si6 0.827490 0.823904 0.931069
Si Si7 0.691587 0.184194 0.731092
Si Si8 0.024928 0.683610 0.855109
O O1 0.472363 0.262525 0.708305
O O2 0.327925 0.238658 0.772953
O O3 0.366083 0.212872 0.854004
O O4 0.404881 0.000000 0.744601
O O5 0.889716 0.245526 0.362158
O O6 0.987030 0.245152 0.203571
O O7 0.970282 0.000000 0.281789
O O8 0.815009 0.500000 0.410504
O O9 0.750000 0.750000 0.500000
O O10 0.794448 0.722199 0.350460
O O11 0.405327 0.500000 0.028304
O O12 0.364304 0.669647 0.968542
O O13 0.467594 0.763366 0.950216
O O14 0.322812 0.742038 0.107125
O O15 0.757232 0.230648 0.260614
O O16 0.749127 0.000000 0.188068
O O17 0.824858 0.000000 0.909212
O O18 0.750000 0.750000 0.000000
O O19 0.607503 0.225676 0.808831
O O20 0.698639 0.000000 0.733193
O O21 0.020919 0.500000 0.851347
#
# Coordination Sequence:
#
# PCOD9191273 Si02
#       8
#     8   8   8   8   8   8   8   8
#     4  11  21  35  52  75 109 146 188 235 278 324
#     4  11  21  34  55  86 116 144 180 224 276 329
#     4  10  21  40  66  95 119 141 170 213 268 326
#     4  10  20  33  47  71 104 142 193 241 281 326
#     4  10  22  37  52  73 106 150 194 231 273 325
#     4  11  20  31  47  70 102 141 189 240 286 324
#     4   9  21  39  56  79 111 142 179 222 269 328
#     4  10  20  34  52  75 105 144 187 237 287 326
#
# _framework density 18.246504000000002
#
# number of rings (size 3 to 8) (size 9 to 14) (size 15 to 20)
#    0.000    1.750    2.500    3.375    0.000    5.500 
#    0.000    2.500    0.000    0.750    0.000    5.250 
#    0.000    0.000    0.000    0.000    0.000    0.000 
#
# Total GULP energy -178489.773149 kJ/mol
# GULP energy per Si atom -5577.805411 kJ/mol
# Density = 1.820497 g / cm^3
# Si number density = 18.246504 Si / 1000 Ang^3
#
#
#
# Elastic Constant Matrix: (Units=GPa)
#
#
# Indices 1 2 3 4 5 6 
#
# 1 115.2347 32.5203 56.9466 0.0004 -6.6879 -0.0015
# 2 32.5203 53.3715 26.2159 0.0005 -5.1900 -0.0026
# 3 56.9466 26.2159 89.8006 -0.0005 -19.9822 0.0006
# 4 0.0004 0.0005 -0.0005 26.1460 0.0000 -1.7932
# 5 -6.6879 -5.1900 -19.9822 0.0000 15.7097 0.0004
# 6 -0.0015 -0.0026 0.0006 -1.7932 0.0004 23.0733
#
#
#
# Elastic Compliance Matrix: (Units=1/GPa)
#
#
# Indices 1 2 3 4 5 6 
#
# 1 0.014155 -0.004819 -0.009181 0.000000 -0.007244 0.000001
# 2 -0.004819 0.023532 -0.003543 0.000000 0.001216 0.000002
# 3 -0.009181 -0.003543 0.023519 0.000000 0.024836 -0.000002
# 4 0.000000 0.000000 0.000000 0.038452 0.000000 0.002988
# 5 -0.007244 0.001216 0.024836 0.000000 0.092563 -0.000003
# 6 0.000001 0.000002 -0.000002 0.002988 -0.000003 0.043572
#
#
# Mechanical properties :
#
#
# Convention : Reuss Voigt Hill
#
# Bulk Modulus (GPa) = 38.28777 54.41917 46.35347
# Shear Modulus (GPa) = 17.88362 22.50073 20.19217
#
# Velocity S-wave (km/s) = 3.13407 3.51544 3.33022
# Velocity P-wave (km/s) = 5.84172 6.80933 6.34400
#
# Compressibility (1/GPa) = 0.02611800
#
# Stress axis : x y z
#
# Youngs Moduli (GPa) = 70.64757 42.49591 42.51930
#
# Poissons Ratio (x) = 0.20481 0.39038
# Poissons Ratio (y) = 0.34048 0.15064
# Poissons Ratio (z) = 0.64863 0.15056
#
# Static dielectric constant tensor:
#      x y z
#    x 1.651240 0.000000 -0.024030 
#    y 0.000000 1.632650 0.000000 
#    z -0.024030 0.000000 1.621000 
# 
# From -- ./inp_files/324285.got.cif
#   From: 2010.05.17/outbox.cif.g08.bks.cpg/sg12_163_cif.got.tgz:324285.got - 2010.06.03 13:09:07.
