data_PCOD9191334
_publ_section_title
;
Structure prediction by ZEFSAII (Michael W. Deem and Ramdas Pophale) SiO2 
 PCOD9191334
Probable space group: C 2/M
;
_chemical_formula_sum "Si O2"
_cell_formula_units_Z 48
_cell_length_a 24.928357
_cell_length_b 8.097717
_cell_length_c 21.422035
_cell_angle_alpha 90.000000
_cell_angle_beta 38.326722
_cell_angle_gamma 90.000000
_cell_volume 2681.700069
_symmetry_space_group_name_H-M "C 2/M"
_symmetry_group_IT_number 12
_symmetry_cell_setting 'monoclinic'
loop_
_space_group_symop_operation_xyz
x,y,z
-x,y,-z
-x,-y,-z
x,-y,z
1/2+x,1/2+y,z
1/2-x,1/2+y,-z
1/2-x,1/2-y,-z
1/2+x,1/2-y,z
loop_
_atom_site_type_symbol
_atom_site_label
_atom_site_fract_x
_atom_site_fract_y
_atom_site_fract_z
Si Si1 0.286337 0.308521 0.151258
Si Si2 0.341058 0.700604 0.229627
Si Si3 0.174280 0.198083 0.615040
Si Si4 0.463102 0.190734 0.941463
Si Si5 0.305858 0.198239 0.888348
Si Si6 0.520639 0.697670 0.213272
O O1 0.260161 0.500000 0.179382
O O2 0.283413 0.238514 0.224174
O O3 0.234980 0.235650 0.139124
O O4 0.387229 0.296959 0.040715
O O5 0.340147 0.500000 0.229974
O O6 0.314870 0.756951 0.323093
O O7 0.440220 0.755692 0.129420
O O8 0.250000 0.250000 0.500000
O O9 0.077717 0.247938 0.681040
O O10 0.174331 0.000000 0.617350
O O11 0.456967 0.216110 0.872642
O O12 0.449238 0.000000 0.970536
O O13 0.404029 0.256720 0.807919
O O14 0.303069 0.000000 0.889346
O O15 0.250000 0.250000 0.000000
O O16 0.521636 0.500000 0.201830
#
# Coordination Sequence:
#
# PCOD9191334 Si02
#       6
#     8   8   8   8   8   8
#     4  10  20  33  49  68 100 142 174 201 245 301
#     4   9  19  35  51  70  99 135 169 204 253 310
#     4   9  19  35  57  79  98 124 163 214 267 311
#     4  11  20  29  46  73 103 134 170 211 251 295
#     4  11  21  32  50  75 104 141 178 212 245 293
#     4  10  20  35  52  73 103 138 174 210 252 303
#
# _framework density 17.899093000000001
#
# number of rings (size 3 to 8) (size 9 to 14) (size 15 to 20)
#    0.000    2.000    1.667    4.000    0.000    6.667 
#    0.000    0.000    0.000    1.000    0.000    7.000 
#    0.000    0.000    0.000    0.000    0.000    0.000 
#
# Total GULP energy -133854.427643 kJ/mol
# GULP energy per Si atom -5577.267818 kJ/mol
# Density = 1.785835 g / cm^3
# Si number density = 17.899093 Si / 1000 Ang^3
#
#
#
# Elastic Constant Matrix: (Units=GPa)
#
#
# Indices 1 2 3 4 5 6 
#
# 1 178.8452 8.4958 64.8617 -0.0032 11.5241 0.0021
# 2 8.4958 29.4546 -1.0985 -0.0054 -0.5387 0.0058
# 3 64.8617 -1.0985 91.0750 -0.0053 -2.5322 0.0057
# 4 -0.0032 -0.0054 -0.0053 22.3554 0.0018 -3.0445
# 5 11.5241 -0.5387 -2.5322 0.0018 9.9181 -0.0017
# 6 0.0021 0.0058 0.0057 -3.0445 -0.0017 20.4076
#
#
#
# Elastic Compliance Matrix: (Units=1/GPa)
#
#
# Indices 1 2 3 4 5 6 
#
# 1 0.008994 -0.003073 -0.006786 0.000000 -0.012350 0.000001
# 2 -0.003073 0.035054 0.002783 0.000007 0.006185 -0.000009
# 3 -0.006786 0.002783 0.016185 0.000002 0.012168 -0.000003
# 4 0.000000 0.000007 0.000002 0.045660 -0.000006 0.006812
# 5 -0.012350 0.006185 0.012168 -0.000006 0.118618 0.000005
# 6 0.000001 -0.000009 -0.000003 0.006812 0.000005 0.050018
#
#
# Mechanical properties :
#
#
# Convention : Reuss Voigt Hill
#
# Bulk Modulus (GPa) = 21.70076 49.32143 35.51109
# Shear Modulus (GPa) = 16.44521 25.67729 21.06125
#
# Velocity S-wave (km/s) = 3.03442 3.79166 3.43398
# Velocity P-wave (km/s) = 4.94238 6.83989 5.96704
#
# Compressibility (1/GPa) = 0.04608134
#
# Stress axis : x y z
#
# Youngs Moduli (GPa) = 111.18183 28.52752 61.78686
#
# Poissons Ratio (x) = 0.08767 0.41928
# Poissons Ratio (y) = 0.34169 -0.17198
# Poissons Ratio (z) = 0.75448 -0.07941
#
# Static dielectric constant tensor:
#      x y z
#    x 1.672590 0.000000 0.022980 
#    y 0.000000 1.639690 0.000000 
#    z 0.022980 0.000000 1.595030 
# 
# From -- ./inp_files/236616.got.cif
#   From: 2010.05.17/outbox.cif.g08.bks.cpg/sg12_119_cif.got.tgz:236616.got - 2010.06.03 13:09:07.
