data_PCOD9191730
_publ_section_title
;
Structure prediction by ZEFSAII (Michael W. Deem and Ramdas Pophale) SiO2 
 PCOD9191730
Probable space group: C 2/M
;
_chemical_formula_sum "Si O2"
_cell_formula_units_Z 64
_cell_length_a 23.399283
_cell_length_b 7.458349
_cell_length_c 22.315512
_cell_angle_alpha 90.000000
_cell_angle_beta 129.466110
_cell_angle_gamma 90.000000
_cell_volume 3006.559424
_symmetry_space_group_name_H-M "C 2/M"
_symmetry_group_IT_number 12
_symmetry_cell_setting 'monoclinic'
loop_
_space_group_symop_operation_xyz
x,y,z
-x,y,-z
-x,-y,-z
x,-y,z
1/2+x,1/2+y,z
1/2-x,1/2+y,-z
1/2-x,1/2-y,-z
1/2+x,1/2-y,z
loop_
_atom_site_type_symbol
_atom_site_label
_atom_site_fract_x
_atom_site_fract_y
_atom_site_fract_z
Si Si1 0.341367 0.210896 0.258562
Si Si2 0.154918 0.296751 0.869197
Si Si3 0.362982 0.716512 0.547039
Si Si4 0.008270 0.216945 0.573986
Si Si5 0.673155 0.780789 0.008557
Si Si6 0.202147 0.211268 0.240856
Si Si7 0.290977 0.712460 0.620075
Si Si8 0.083190 0.716293 0.065376
O O1 0.360039 0.289174 0.205289
O O2 0.412923 0.227541 0.347402
O O3 0.268975 0.286081 0.244000
O O4 0.325833 0.000000 0.237102
O O5 0.125391 0.500000 0.848564
O O6 0.244322 0.295050 0.932571
O O7 0.134460 0.220694 0.920761
O O8 0.365981 0.500000 0.551577
O O9 0.439750 0.779513 0.569394
O O10 0.342261 0.783505 0.599972
O O11 0.293410 0.762989 0.458308
O O12 0.000000 0.277661 0.500000
O O13 0.006354 0.000000 0.572519
O O14 0.630614 0.726766 0.039568
O O15 0.678304 0.000000 0.010304
O O16 0.199320 0.286031 0.306413
O O17 0.126054 0.229404 0.153889
O O18 0.218896 0.000000 0.258645
O O19 0.306075 0.500000 0.632936
O O20 0.081611 0.500000 0.064530
O O21 0.000000 0.780740 0.000000
#
# Coordination Sequence:
#
# PCOD9191730 Si02
#       8
#     8   8   8   8   8   8   8   8
#     4  10  20  33  51  76 103 131 166 210 252 296
#     4   9  17  31  51  74  99 127 163 206 248 292
#     4   9  18  34  53  75 105 135 169 208 247 296
#     4  10  21  35  51  74 105 138 168 203 249 299
#     4   9  17  31  52  73  97 129 163 202 249 297
#     4  10  20  35  54  76 101 130 169 211 253 300
#     4   9  18  33  55  78 101 133 170 210 251 293
#     4  10  21  36  52  74 103 133 168 210 253 299
#
# _framework density 21.28679
#
# number of rings (size 3 to 8) (size 9 to 14) (size 15 to 20)
#    0.000    2.500    1.250    0.750    0.000    2.500 
#    2.250    0.000    0.000    0.000    0.000    0.000 
#    0.000    0.000    0.000    0.000    0.000    0.000 
#
# Total GULP energy -178533.362164 kJ/mol
# GULP energy per Si atom -5579.167568 kJ/mol
# Density = 2.123834 g / cm^3
# Si number density = 21.286790 Si / 1000 Ang^3
#
#
#
# Elastic Constant Matrix: (Units=GPa)
#
#
# Indices 1 2 3 4 5 6 
#
# 1 74.2966 -1.2540 50.0551 0.0000 -8.5011 0.0000
# 2 -1.2540 64.5896 -8.9521 -0.0001 -10.1469 0.0002
# 3 50.0551 -8.9521 159.8905 0.0000 -32.9629 0.0000
# 4 0.0000 -0.0001 0.0000 0.0299 0.0000 30.4889
# 5 -8.5011 -10.1469 -32.9629 0.0000 34.7161 0.0000
# 6 0.0000 0.0002 0.0000 30.4889 0.0000 -30.5963
#
#
#
# Elastic Compliance Matrix: (Units=1/GPa)
#
#
# Indices 1 2 3 4 5 6 
#
# 1 0.017119 -0.000677 -0.005687 0.000000 -0.001405 0.000000
# 2 -0.000677 0.016994 0.002677 0.000000 0.007343 0.000000
# 3 -0.005687 0.002677 0.010020 0.000000 0.008904 0.000000
# 4 0.000000 0.000000 0.000000 0.032882 0.000000 0.032767
# 5 -0.001405 0.007343 0.008904 0.000000 0.039062 0.000000
# 6 0.000000 0.000000 0.000000 0.032767 0.000000 -0.000032
#
#
# Mechanical properties :
#
#
# Convention : Reuss Voigt Hill
#
# Bulk Modulus (GPa) = 27.20327 42.05274 34.62801
# Shear Modulus (GPa) = 36.85417 18.09178 27.47298
#
# Velocity S-wave (km/s) = 4.16542 2.91848 3.59641
# Velocity P-wave (km/s) = 5.99512 5.58166 5.79208
#
# Compressibility (1/GPa) = 0.03676029
#
# Stress axis : x y z
#
# Youngs Moduli (GPa) = 58.41589 58.84464 99.79929
#
# Poissons Ratio (x) = 0.03982 0.56753
# Poissons Ratio (y) = 0.03952 -0.26718
# Poissons Ratio (z) = 0.33220 -0.15754
#
# Static dielectric constant tensor:
#      x y z
#    x 1.774930 0.000000 -0.061770 
#    y 0.000000 1.830640 0.000000 
#    z -0.061770 0.000000 1.754120 
# 
# From -- ./inp_files/324304.got.cif
#   From: 2010.05.17/outbox.cif.g08.bks.cpg/sg12_163_cif.got.tgz:324304.got - 2010.06.03 13:09:07.
