data_PCOD9191695
_publ_section_title
;
Structure prediction by ZEFSAII (Michael W. Deem and Ramdas Pophale) SiO2 
 PCOD9191695
Probable space group: C 2/M
;
_chemical_formula_sum "Si O2"
_cell_formula_units_Z 56
_cell_length_a 21.139716
_cell_length_b 20.961445
_cell_length_c 5.053168
_cell_angle_alpha 90.000000
_cell_angle_beta 101.198906
_cell_angle_gamma 90.000000
_cell_volume 2196.518672
_symmetry_space_group_name_H-M "C 2/M"
_symmetry_group_IT_number 12
_symmetry_cell_setting 'monoclinic'
loop_
_space_group_symop_operation_xyz
x,y,z
-x,y,-z
-x,-y,-z
x,-y,z
1/2+x,1/2+y,z
1/2-x,1/2+y,-z
1/2-x,1/2-y,-z
1/2+x,1/2-y,z
loop_
_atom_site_type_symbol
_atom_site_label
_atom_site_fract_x
_atom_site_fract_y
_atom_site_fract_z
Si Si1 0.680854 0.387201 0.805515
Si Si2 0.260218 0.119224 0.396436
Si Si3 0.312511 0.755833 0.243534
Si Si4 0.618564 0.925609 0.807173
Si Si5 0.544282 0.248358 0.796549
Si Si6 0.941756 0.423513 0.750976
Si Si7 0.542178 0.599552 0.792671
O O1 0.733657 0.412513 0.641639
O O2 0.672422 0.316782 0.661288
O O3 0.613857 0.423414 0.781732
O O4 0.705553 0.377706 0.123736
O O5 0.291530 0.190665 0.438191
O O6 0.315011 0.079831 0.290753
O O7 0.381880 0.776240 0.174214
O O8 0.250000 0.750000 0.000000
O O9 0.567978 0.897549 0.551522
O O10 0.602963 0.000000 0.829423
O O11 0.616836 0.901531 0.106062
O O12 0.500000 0.241797 0.500000
O O13 0.552271 0.324533 0.854644
O O14 0.500000 0.223171 0.000000
O O15 0.941965 0.500000 0.707833
O O16 0.000000 0.411592 0.000000
O O17 0.500000 0.592363 0.500000
O O18 0.500000 0.573735 0.000000
#
# Coordination Sequence:
#
# PCOD9191695 Si02
#       7
#     8   8   8   8   8   8   8
#     4  10  20  33  51  75 102 131 167 207 245 293
#     4  11  21  34  50  73 102 133 170 206 246 299
#     4   9  20  35  53  73 100 138 175 210 251 303
#     4  10  20  34  52  74 101 131 165 212 262 304
#     4   9  18  31  47  67  95 129 165 204 249 293
#     4   9  17  32  54  75  95 126 170 217 262 302
#     4   9  16  28  47  70  96 126 157 195 241 285
#
# _framework density 25.494889000000001
#
# number of rings (size 3 to 8) (size 9 to 14) (size 15 to 20)
#    0.000    2.429    0.000    2.571    0.000   10.857 
#    0.000    2.143    0.000    0.000    0.000    0.000 
#    0.000   11.429    0.000    0.000    0.000    0.000 
#
# Total GULP energy -156260.714720 kJ/mol
# GULP energy per Si atom -5580.739811 kJ/mol
# Density = 2.543686 g / cm^3
# Si number density = 25.494889 Si / 1000 Ang^3
#
#
#
# Elastic Constant Matrix: (Units=GPa)
#
#
# Indices 1 2 3 4 5 6 
#
# 1 197.1612 -2.1592 35.5007 0.0000 -4.3605 0.0000
# 2 -2.1592 67.9130 3.0217 0.0000 3.2639 0.0000
# 3 35.5007 3.0217 85.6356 0.0000 -16.4849 0.0000
# 4 0.0000 0.0000 0.0000 -0.2799 0.0000 -6.3188
# 5 -4.3605 3.2639 -16.4849 0.0000 45.2614 0.0000
# 6 0.0000 0.0000 0.0000 -6.3188 0.0000 9.6805
#
#
#
# Elastic Compliance Matrix: (Units=1/GPa)
#
#
# Indices 1 2 3 4 5 6 
#
# 1 0.005491 0.000296 -0.002354 0.000000 -0.000350 0.000000
# 2 0.000296 0.014841 -0.000911 0.000000 -0.001373 0.000000
# 3 -0.002354 -0.000911 0.013609 0.000000 0.004795 0.000000
# 4 0.000000 0.000000 0.000000 -0.227044 0.000000 -0.148199
# 5 -0.000350 -0.001373 0.004795 0.000000 0.023906 0.000000
# 6 0.000000 0.000000 0.000000 -0.148199 0.000000 0.006566
#
#
# Mechanical properties :
#
#
# Convention : Reuss Voigt Hill
#
# Bulk Modulus (GPa) = 35.71067 47.04845 41.37956
# Shear Modulus (GPa) = -33.93056 31.88883 -1.02086
#
# Velocity S-wave (km/s) = -3.65208 3.54049 -0.63347
# Velocity P-wave (km/s) = 1.93550 5.93360 3.96620
#
# Compressibility (1/GPa) = 0.02800284
#
# Stress axis : x y z
#
# Youngs Moduli (GPa) = 182.10267 67.38237 73.48287
#
# Poissons Ratio (x) = -0.01996 0.17300
# Poissons Ratio (y) = -0.05393 0.06693
# Poissons Ratio (z) = 0.42872 0.06137
#
# Static dielectric constant tensor:
#      x y z
#    x 2.243180 0.000000 -0.000780 
#    y 0.000000 2.059740 0.000000 
#    z -0.000780 0.000000 1.977340 
# 
# From -- ./inp_files/21940.got.cif
#   From: 2010.05.17/outbox.cif.g08.bks.cpg/sg12_11_cif.got.tgz:21940.got - 2010.06.03 13:09:07.
