data_PCOD9191641
_publ_section_title
;
Structure prediction by ZEFSAII (Michael W. Deem and Ramdas Pophale) SiO2 
 PCOD9191641
Probable space group: C 2/M
;
_chemical_formula_sum "Si O2"
_cell_formula_units_Z 52
_cell_length_a 21.244692
_cell_length_b 7.722502
_cell_length_c 12.968991
_cell_angle_alpha 90.000000
_cell_angle_beta 63.246994
_cell_angle_gamma 90.000000
_cell_volume 1899.959705
_symmetry_space_group_name_H-M "C 2/M"
_symmetry_group_IT_number 12
_symmetry_cell_setting 'monoclinic'
loop_
_space_group_symop_operation_xyz
x,y,z
-x,y,-z
-x,-y,-z
x,-y,z
1/2+x,1/2+y,z
1/2-x,1/2+y,-z
1/2-x,1/2-y,-z
1/2+x,1/2-y,z
loop_
_atom_site_type_symbol
_atom_site_label
_atom_site_fract_x
_atom_site_fract_y
_atom_site_fract_z
Si Si1 0.542149 0.199967 0.204328
Si Si2 0.548578 0.500000 0.615944
Si Si3 0.416417 0.814546 0.541547
Si Si4 0.717570 0.707064 0.633371
Si Si5 0.421485 0.293989 0.161267
Si Si6 0.695976 0.700149 0.228587
Si Si7 0.332546 0.207947 0.024069
O O1 0.503025 0.346797 0.298568
O O2 0.493804 0.202040 0.135098
O O3 0.539404 0.000000 0.242185
O O4 0.620986 0.253340 0.110145
O O5 0.594733 0.650039 0.521332
O O6 0.500000 0.815550 0.500000
O O7 0.374969 0.792233 0.680063
O O8 0.394943 0.000000 0.512493
O O9 0.719900 0.500000 0.647093
O O10 0.750000 0.750000 0.500000
O O11 0.635813 0.755427 0.709086
O O12 0.759747 0.791738 0.696012
O O13 0.434402 0.500000 0.160335
O O14 0.381046 0.261191 0.085286
O O15 0.682139 0.500000 0.215644
O O16 0.754056 0.778104 0.106259
O O17 0.327059 0.000000 0.028881
#
# Coordination Sequence:
#
# PCOD9191641 Si02
#       7
#     8   4   8   8   8   8   8
#     4  11  23  38  59  90 128 176 213 260 310 364
#     4  12  25  42  65  98 130 158 206 256 325 382
#     4  11  25  46  72 100 123 155 200 259 322 385
#     4  10  21  32  47  76 121 163 204 252 307 361
#     4  10  20  33  50  79 121 174 226 262 299 355
#     4  10  20  38  63  91 122 160 207 257 307 367
#     4   9  20  37  57  87 125 172 223 265 301 359
#
# _framework density 27.369001999999998
#
# number of rings (size 3 to 8) (size 9 to 14) (size 15 to 20)
#    0.000    1.692    1.538    2.538    3.231    4.308 
#    0.000    0.000    0.000    0.923    0.000    0.000 
#    0.000    0.000    0.000    0.000    0.000    0.000 
#
# Total GULP energy -145218.274000 kJ/mol
# GULP energy per Si atom -5585.318231 kJ/mol
# Density = 2.730671 g / cm^3
# Si number density = 27.369002 Si / 1000 Ang^3
#
#
#
# Elastic Constant Matrix: (Units=GPa)
#
#
# Indices 1 2 3 4 5 6 
#
# 1 80.3148 27.5145 38.8533 0.0000 -27.7291 0.0000
# 2 27.5145 185.2122 63.7553 0.0000 -4.7769 0.0000
# 3 38.8533 63.7553 254.6929 0.0000 -21.8112 0.0000
# 4 0.0000 0.0000 0.0000 38.2155 0.0000 12.6355
# 5 -27.7291 -4.7769 -21.8112 0.0000 55.1263 0.0000
# 6 0.0000 0.0000 0.0000 12.6355 0.0000 33.3396
#
#
#
# Elastic Compliance Matrix: (Units=1/GPa)
#
#
# Indices 1 2 3 4 5 6 
#
# 1 0.016321 -0.001746 -0.001410 0.000000 0.007500 0.000000
# 2 -0.001746 0.006095 -0.001335 0.000000 -0.000878 0.000000
# 3 -0.001410 -0.001335 0.004559 0.000000 0.000979 0.000000
# 4 0.000000 0.000000 0.000000 0.029916 0.000000 -0.011338
# 5 0.007500 -0.000878 0.000979 0.000000 0.022224 0.000000
# 6 0.000000 0.000000 0.000000 -0.011338 0.000000 0.034291
#
#
# Mechanical properties :
#
#
# Convention : Reuss Voigt Hill
#
# Bulk Modulus (GPa) = 55.57400 86.71845 71.14623
# Shear Modulus (GPa) = 38.94481 51.34273 45.14377
#
# Velocity S-wave (km/s) = 3.77630 4.33592 4.06575
# Velocity P-wave (km/s) = 6.27403 7.53794 6.93484
#
# Compressibility (1/GPa) = 0.01799402
#
# Stress axis : x y z
#
# Youngs Moduli (GPa) = 61.27135 164.06012 219.32749
#
# Poissons Ratio (x) = 0.28638 0.30936
# Poissons Ratio (y) = 0.10696 0.29273
# Poissons Ratio (z) = 0.08642 0.21897
#
# Static dielectric constant tensor:
#      x y z
#    x 2.314980 0.000000 0.036190 
#    y 0.000000 1.989400 0.000000 
#    z 0.036190 0.000000 2.187930 
# 
# From -- ./inp_files/292117.got.cif
#   From: 2010.05.17/outbox.cif.g08.bks.cpg/sg12_147_cif.got.tgz:292117.got - 2010.06.03 13:09:07.
