data_PCOD9191676
_publ_section_title
;
Structure prediction by ZEFSAII (Michael W. Deem and Ramdas Pophale) SiO2 
 PCOD9191676
Probable space group: C 2/M
;
_chemical_formula_sum "Si O2"
_cell_formula_units_Z 64
_cell_length_a 31.089781
_cell_length_b 8.444510
_cell_length_c 15.273256
_cell_angle_alpha 90.000000
_cell_angle_beta 79.393045
_cell_angle_gamma 90.000000
_cell_volume 3941.294007
_symmetry_space_group_name_H-M "C 2/M"
_symmetry_group_IT_number 12
_symmetry_cell_setting 'monoclinic'
loop_
_space_group_symop_operation_xyz
x,y,z
-x,y,-z
-x,-y,-z
x,-y,z
1/2+x,1/2+y,z
1/2-x,1/2+y,-z
1/2-x,1/2-y,-z
1/2+x,1/2-y,z
loop_
_atom_site_type_symbol
_atom_site_label
_atom_site_fract_x
_atom_site_fract_y
_atom_site_fract_z
Si Si1 0.719003 0.684827 0.192135
Si Si2 0.780428 0.688539 0.617237
Si Si3 0.186461 0.186634 0.885722
Si Si4 0.054936 0.307087 0.067884
Si Si5 0.685998 0.689268 0.572668
Si Si6 0.128365 0.690447 0.746053
Si Si7 0.541796 0.807308 0.871165
Si Si8 0.850110 0.688693 0.918370
O O1 0.729416 0.500000 0.180600
O O2 0.708534 0.727618 0.296288
O O3 0.762306 0.780676 0.148219
O O4 0.679343 0.728814 0.143383
O O5 0.780981 0.500000 0.629967
O O6 0.731114 0.735339 0.605982
O O7 0.810977 0.735479 0.524444
O O8 0.160123 0.248655 0.811299
O O9 0.178996 0.000000 0.898481
O O10 0.169819 0.274416 0.978691
O O11 0.055305 0.500000 0.068233
O O12 0.099387 0.255616 0.097656
O O13 0.008264 0.255365 0.124518
O O14 0.055051 0.260081 0.965264
O O15 0.685986 0.500000 0.564693
O O16 0.646376 0.745547 0.647819
O O17 0.129856 0.500000 0.744866
O O18 0.079327 0.743190 0.790234
O O19 0.541481 0.000000 0.870822
O O20 0.849148 0.500000 0.904253
#
# Coordination Sequence:
#
# PCOD9191676 Si02
#       8
#     8   8   8   8   8   8   8   8
#     4  12  24  37  52  71  99 135 172 210 250 295
#     4  10  20  35  53  74  99 130 167 208 247 294
#     4  12  23  35  48  69 102 137 174 211 245 292
#     4   8  14  27  48  73  99 128 165 209 248 290
#     4  10  20  33  51  74 103 133 163 204 250 299
#     4  11  19  30  51  77 103 135 169 205 248 298
#     4   8  14  26  47  75 101 127 164 206 249 293
#     4  11  21  35  53  73  98 134 175 212 249 292
#
# _framework density 16.238322
#
# number of rings (size 3 to 8) (size 9 to 14) (size 15 to 20)
#    0.000    1.750    2.500    4.875    0.000    1.000 
#    0.000    0.000    0.000    3.750    0.000    0.875 
#    0.000    7.000    0.000    0.000    0.000    0.000 
#
# Total GULP energy -178629.227158 kJ/mol
# GULP energy per Si atom -5582.163349 kJ/mol
# Density = 1.620136 g / cm^3
# Si number density = 16.238322 Si / 1000 Ang^3
#
#
#
# Elastic Constant Matrix: (Units=GPa)
#
#
# Indices 1 2 3 4 5 6 
#
# 1 87.8067 -7.9812 40.8513 0.0000 -15.6716 0.0000
# 2 -7.9812 21.5046 -9.2491 0.0000 -0.3045 0.0000
# 3 40.8513 -9.2491 52.1473 0.0000 -16.2867 0.0000
# 4 0.0000 0.0000 0.0000 24.3306 0.0000 1.2199
# 5 -15.6716 -0.3045 -16.2867 0.0000 25.6784 0.0000
# 6 0.0000 0.0000 0.0000 1.2199 0.0000 15.0808
#
#
#
# Elastic Compliance Matrix: (Units=1/GPa)
#
#
# Indices 1 2 3 4 5 6 
#
# 1 0.018077 0.001108 -0.013112 0.000000 0.002729 0.000000
# 2 0.001108 0.051697 0.010854 0.000000 0.008173 0.000000
# 3 -0.013112 0.010854 0.036057 0.000000 0.014995 0.000000
# 4 0.000000 0.000000 0.000000 0.041268 0.000000 -0.003338
# 5 0.002729 0.008173 0.014995 0.000000 0.050217 0.000000
# 6 0.000000 0.000000 0.000000 -0.003338 0.000000 0.066580
#
#
# Mechanical properties :
#
#
# Convention : Reuss Voigt Hill
#
# Bulk Modulus (GPa) = 9.65905 23.18895 16.42400
# Shear Modulus (GPa) = 16.62759 22.20713 19.41736
#
# Velocity S-wave (km/s) = 3.20343 3.70209 3.46175
# Velocity P-wave (km/s) = 4.43213 5.70835 5.11024
#
# Compressibility (1/GPa) = 0.10352990
#
# Stress axis : x y z
#
# Youngs Moduli (GPa) = 55.31961 19.34355 27.73403
#
# Poissons Ratio (x) = -0.02143 0.36365
# Poissons Ratio (y) = -0.06130 -0.30102
# Poissons Ratio (z) = 0.72536 -0.20995
#
# Static dielectric constant tensor:
#      x y z
#    x 1.549350 0.000000 -0.018550 
#    y 0.000000 1.551380 0.000000 
#    z -0.018550 0.000000 1.524100 
# 
# From -- ./inp_files/243956.got.cif
#   From: 2010.05.17/outbox.cif.g08.bks.cpg/sg12_122_cif.got.tgz:243956.got - 2010.06.03 13:09:07.
