data_PCOD9191125
_publ_section_title
;
Structure prediction by ZEFSAII (Michael W. Deem and Ramdas Pophale) SiO2 
 PCOD9191125
Probable space group: C 2/M
;
_chemical_formula_sum "Si O2"
_cell_formula_units_Z 52
_cell_length_a 24.921148
_cell_length_b 22.049912
_cell_length_c 5.145811
_cell_angle_alpha 90.000000
_cell_angle_beta 104.126180
_cell_angle_gamma 90.000000
_cell_volume 2742.163029
_symmetry_space_group_name_H-M "C 2/M"
_symmetry_group_IT_number 12
_symmetry_cell_setting 'monoclinic'
loop_
_space_group_symop_operation_xyz
x,y,z
-x,y,-z
-x,-y,-z
x,-y,z
1/2+x,1/2+y,z
1/2-x,1/2+y,-z
1/2-x,1/2-y,-z
1/2+x,1/2-y,z
loop_
_atom_site_type_symbol
_atom_site_label
_atom_site_fract_x
_atom_site_fract_y
_atom_site_fract_z
Si Si1 0.221574 0.629300 0.348616
Si Si2 0.780505 0.500000 0.587519
Si Si3 0.705704 0.500000 0.006916
Si Si4 0.500000 0.707825 0.000000
Si Si5 0.297869 0.793864 0.167413
Si Si6 0.158972 0.106565 0.277878
Si Si7 0.054868 0.112392 0.459790
Si Si8 0.608290 0.290704 0.903221
O O1 0.191164 0.564944 0.350124
O O2 0.208163 0.679548 0.551230
O O3 0.286732 0.615180 0.479906
O O4 0.207358 0.651798 0.045597
O O5 0.756190 0.500000 0.269705
O O6 0.731465 0.500000 0.751182
O O7 0.673060 0.560497 0.059058
O O8 0.527642 0.662925 0.241136
O O9 0.447215 0.741292 0.056027
O O10 0.353711 0.755363 0.205864
O O11 0.250000 0.750000 0.000000
O O12 0.104708 0.081294 0.362349
O O13 0.144083 0.174292 0.162917
O O14 0.085685 0.152059 0.713445
O O15 0.000000 0.078097 0.500000
#
# Coordination Sequence:
#
# PCOD9191125 Si02
#       8
#     8   4   4   4   8   8   8   8
#     4  11  23  37  54  81 110 149 184 215 275 318
#     4  10  22  40  56  72 108 150 194 225 246 333
#     4  10  22  34  55  77  97 145 200 228 267 303
#     4   8  18  34  50  73  98 149 180 212 270 330
#     4  12  23  33  53  86 118 142 172 227 278 330
#     4  10  20  33  52  73 105 143 187 229 264 323
#     4   9  18  33  52  72  98 142 181 224 277 326
#     4  10  20  32  54  74 112 141 178 222 276 328
#
# _framework density 18.963132999999999
#
# number of rings (size 3 to 8) (size 9 to 14) (size 15 to 20)
#    0.000    1.846    1.538    3.231    8.615    0.000 
#    0.000    0.385    0.000   15.692    0.000    0.000 
#    0.000    3.692    0.000    0.000    0.000    0.000 
#
# Total GULP energy -144891.600506 kJ/mol
# GULP energy per Si atom -5572.753866 kJ/mol
# Density = 1.891997 g / cm^3
# Si number density = 18.963133 Si / 1000 Ang^3
#
#
#
# Elastic Constant Matrix: (Units=GPa)
#
#
# Indices 1 2 3 4 5 6 
#
# 1 90.9270 12.3113 -5.9644 0.0000 -12.7610 0.0000
# 2 12.3113 49.1323 -14.2375 0.0000 0.5565 0.0000
# 3 -5.9644 -14.2375 41.3965 0.0000 2.4110 0.0000
# 4 0.0000 0.0000 0.0000 -8.7771 0.0000 -13.3123
# 5 -12.7610 0.5565 2.4110 0.0000 21.0416 0.0000
# 6 0.0000 0.0000 0.0000 -13.3123 0.0000 10.8708
#
#
#
# Elastic Compliance Matrix: (Units=1/GPa)
#
#
# Indices 1 2 3 4 5 6 
#
# 1 0.012514 -0.003142 0.000277 0.000000 0.007640 0.000000
# 2 -0.003142 0.023442 0.007809 0.000000 -0.003420 0.000000
# 3 0.000277 0.007809 0.027065 0.000000 -0.003139 0.000000
# 4 0.000000 0.000000 0.000000 -0.039874 0.000000 -0.048829
# 5 0.007640 -0.003420 -0.003139 0.000000 0.052609 0.000000
# 6 0.000000 0.000000 0.000000 -0.048829 0.000000 0.032194
#
#
# Mechanical properties :
#
#
# Convention : Reuss Voigt Hill
#
# Bulk Modulus (GPa) = 13.71548 18.40826 16.06187
# Shear Modulus (GPa) = 40.86171 17.25017 29.05594
#
# Velocity S-wave (km/s) = 4.64702 3.01934 3.91862
# Velocity P-wave (km/s) = 6.00345 4.67800 5.38169
#
# Compressibility (1/GPa) = 0.07291034
#
# Stress axis : x y z
#
# Youngs Moduli (GPa) = 79.91246 42.65833 36.94783
#
# Poissons Ratio (x) = 0.13402 -0.01025
# Poissons Ratio (y) = 0.25106 -0.28852
# Poissons Ratio (z) = -0.02217 -0.33312
#
# Static dielectric constant tensor:
#      x y z
#    x 1.767700 0.000000 0.024220 
#    y 0.000000 1.702820 0.000000 
#    z 0.024220 0.000000 1.872420 
# 
# From -- ./inp_files/25967.got.cif
#   From: 2010.05.17/outbox.cif.g08.bks.cpg/sg12_13_cif.got.tgz:25967.got - 2010.06.03 13:09:07.
