data_PCOD9191550
_publ_section_title
;
Structure prediction by ZEFSAII (Michael W. Deem and Ramdas Pophale) SiO2 
 PCOD9191550
Probable space group: C 2/M
;
_chemical_formula_sum "Si O2"
_cell_formula_units_Z 56
_cell_length_a 29.773501
_cell_length_b 7.635263
_cell_length_c 13.755633
_cell_angle_alpha 90.000000
_cell_angle_beta 122.595446
_cell_angle_gamma 90.000000
_cell_volume 2634.522614
_symmetry_space_group_name_H-M "C 2/M"
_symmetry_group_IT_number 12
_symmetry_cell_setting 'monoclinic'
loop_
_space_group_symop_operation_xyz
x,y,z
-x,y,-z
-x,-y,-z
x,-y,z
1/2+x,1/2+y,z
1/2-x,1/2+y,-z
1/2-x,1/2-y,-z
1/2+x,1/2-y,z
loop_
_atom_site_type_symbol
_atom_site_label
_atom_site_fract_x
_atom_site_fract_y
_atom_site_fract_z
Si Si1 0.876743 0.208256 0.208090
Si Si2 0.589275 0.214484 0.278000
Si Si3 0.701148 0.207269 0.726354
Si Si4 0.025208 0.290468 0.802548
Si Si5 0.402054 0.212227 0.934294
Si Si6 0.198329 0.710765 0.503945
Si Si7 0.304352 0.705928 0.948340
O O1 0.855200 0.270583 0.286170
O O2 0.936163 0.251815 0.242528
O O3 0.872781 0.000000 0.202508
O O4 0.836316 0.282230 0.077759
O O5 0.535435 0.272735 0.269272
O O6 0.586367 0.268051 0.161676
O O7 0.644079 0.275262 0.390285
O O8 0.590253 0.000000 0.279840
O O9 0.703387 0.278852 0.620035
O O10 0.747561 0.281993 0.850546
O O11 0.711986 0.000000 0.731551
O O12 0.022868 0.500000 0.808550
O O13 0.055586 0.225774 0.935418
O O14 0.344460 0.273237 0.904494
O O15 0.402334 0.000000 0.935955
O O16 0.193843 0.500000 0.504253
O O17 0.250000 0.750000 0.500000
O O18 0.297245 0.500000 0.960734
#
# Coordination Sequence:
#
# PCOD9191550 Si02
#       7
#     8   8   8   8   8   8   8
#     4  10  20  33  50  73  99 126 160 204 249 290
#     4   9  17  31  51  74  99 129 166 202 236 282
#     4  10  20  34  51  71  97 131 167 199 237 288
#     4   9  17  31  51  73  99 130 162 199 242 287
#     4   9  16  27  48  76 101 127 161 199 240 287
#     4  10  21  36  54  76 101 129 162 199 238 284
#     4   9  18  31  47  71 102 130 158 197 245 294
#
# _framework density 21.256222999999999
#
# number of rings (size 3 to 8) (size 9 to 14) (size 15 to 20)
#    0.000    2.571    0.000    2.143    0.000    3.429 
#    0.000    2.143    0.000    7.714    0.000    0.000 
#    0.000    0.000    0.000    0.000    0.000    0.000 
#
# Total GULP energy -156299.609871 kJ/mol
# GULP energy per Si atom -5582.128924 kJ/mol
# Density = 2.120784 g / cm^3
# Si number density = 21.256223 Si / 1000 Ang^3
#
#
#
# Elastic Constant Matrix: (Units=GPa)
#
#
# Indices 1 2 3 4 5 6 
#
# 1 176.7174 -11.9564 73.9460 0.0000 -2.3946 0.0000
# 2 -11.9564 38.4443 1.5589 0.0000 4.4961 0.0000
# 3 73.9460 1.5589 51.5603 0.0000 -4.0162 0.0000
# 4 0.0000 0.0000 0.0000 1.8276 0.0000 -2.4866
# 5 -2.3946 4.4961 -4.0162 0.0000 35.9069 0.0000
# 6 0.0000 0.0000 0.0000 -2.4866 0.0000 24.6120
#
#
#
# Elastic Compliance Matrix: (Units=1/GPa)
#
#
# Indices 1 2 3 4 5 6 
#
# 1 0.015459 0.005983 -0.022526 0.000000 -0.002238 0.000000
# 2 0.005983 0.028772 -0.009785 0.000000 -0.004298 0.000000
# 3 -0.022526 -0.009785 0.052432 0.000000 0.005588 0.000000
# 4 0.000000 0.000000 0.000000 0.634382 0.000000 0.064092
# 5 -0.002238 -0.004298 0.005588 0.000000 0.028864 0.000000
# 6 0.000000 0.000000 0.000000 0.064092 0.000000 0.047106
#
#
# Mechanical properties :
#
#
# Convention : Reuss Voigt Hill
#
# Bulk Modulus (GPa) = 22.72411 43.75767 33.24089
# Shear Modulus (GPa) = 5.71860 26.01421 15.86640
#
# Velocity S-wave (km/s) = 1.64200 3.50214 2.73506
# Velocity P-wave (km/s) = 3.78268 6.08143 5.06421
#
# Compressibility (1/GPa) = 0.04400611
#
# Stress axis : x y z
#
# Youngs Moduli (GPa) = 64.68690 34.75617 19.07234
#
# Poissons Ratio (x) = -0.20795 0.42962
# Poissons Ratio (y) = -0.38702 0.18663
# Poissons Ratio (z) = 1.45714 0.34010
#
# Static dielectric constant tensor:
#      x y z
#    x 1.758770 0.000000 0.007530 
#    y 0.000000 1.789930 0.000000 
#    z 0.007530 0.000000 1.769950 
# 
# From -- ./inp_files/181110.got.cif
#   From: 2010.05.17/outbox.cif.g08.bks.cpg/sg12_91_cif.got.tgz:181110.got - 2010.06.03 13:09:07.
