data_PCOD9191177
_publ_section_title
;
Structure prediction by ZEFSAII (Michael W. Deem and Ramdas Pophale) SiO2 
 PCOD9191177
Probable space group: C 2/M
;
_chemical_formula_sum "Si O2"
_cell_formula_units_Z 40
_cell_length_a 9.701935
_cell_length_b 20.139437
_cell_length_c 15.816832
_cell_angle_alpha 90.000000
_cell_angle_beta 147.014260
_cell_angle_gamma 90.000000
_cell_volume 1682.548009
_symmetry_space_group_name_H-M "C 2/M"
_symmetry_group_IT_number 12
_symmetry_cell_setting 'monoclinic'
loop_
_space_group_symop_operation_xyz
x,y,z
-x,y,-z
-x,-y,-z
x,-y,z
1/2+x,1/2+y,z
1/2-x,1/2+y,-z
1/2-x,1/2-y,-z
1/2+x,1/2-y,z
loop_
_atom_site_type_symbol
_atom_site_label
_atom_site_fract_x
_atom_site_fract_y
_atom_site_fract_z
Si Si1 0.257350 0.575573 0.672898
Si Si2 0.857154 0.742282 0.827318
Si Si3 0.220856 0.138816 0.973181
Si Si4 0.967970 0.426207 0.258071
Si Si5 0.346992 0.782418 0.635365
O O1 0.271073 0.500000 0.647759
O O2 0.533255 0.608118 0.806253
O O3 0.203256 0.574770 0.745563
O O4 0.000000 0.605948 0.500000
O O5 0.638478 0.757019 0.781049
O O6 0.745488 0.739057 0.674318
O O7 0.044860 0.804292 0.922600
O O8 0.022020 0.675918 0.921606
O O9 0.306224 0.087884 0.090320
O O10 0.083658 0.500000 0.313129
O O11 0.150642 0.362607 0.364088
O O12 0.250000 0.750000 0.500000
#
# Coordination Sequence:
#
# PCOD9191177 Si02
#       5
#     8   8   8   8   8
#     4  10  20  32  55  90 127 163 211 277 335 379
#     4  10  23  37  61  93 127 175 216 264 323 399
#     4  10  20  35  59  84 130 159 210 264 322 385
#     4  10  21  37  62  93 123 167 222 273 323 381
#     4  11  23  40  65  96 136 171 217 274 336 393
#
# _framework density 23.773468000000001
#
# number of rings (size 3 to 8) (size 9 to 14) (size 15 to 20)
#    0.000    1.800    2.000    1.800    5.600    4.000 
#    0.000    0.000    0.000   10.800    0.000   12.600 
#    0.000    0.000    0.000    0.000    0.000    0.000 
#
# Total GULP energy -111733.113472 kJ/mol
# GULP energy per Si atom -5586.655674 kJ/mol
# Density = 2.371936 g / cm^3
# Si number density = 23.773468 Si / 1000 Ang^3
#
#
#
# Elastic Constant Matrix: (Units=GPa)
#
#
# Indices 1 2 3 4 5 6 
#
# 1 67.0591 12.5341 1.7297 0.0139 -8.1945 0.0032
# 2 12.5341 142.1957 54.3668 0.0024 -9.5279 -0.0016
# 3 1.7297 54.3668 153.4014 0.0700 -21.5072 0.0311
# 4 0.0139 0.0024 0.0700 32.0695 0.0173 -11.8251
# 5 -8.1945 -9.5279 -21.5072 0.0173 31.0704 0.0059
# 6 0.0032 -0.0016 0.0311 -11.8251 0.0059 9.1305
#
#
#
# Elastic Compliance Matrix: (Units=1/GPa)
#
#
# Indices 1 2 3 4 5 6 
#
# 1 0.015691 -0.001454 0.000948 -0.000030 0.004349 -0.000050
# 2 -0.001454 0.008278 -0.002896 0.000020 0.000150 0.000038
# 3 0.000948 -0.002896 0.008245 -0.000063 0.005070 -0.000114
# 4 -0.000030 0.000020 -0.000063 0.059686 -0.000093 0.077301
# 5 0.004349 0.000150 0.005070 -0.000093 0.036887 -0.000163
# 6 -0.000050 0.000038 -0.000114 0.077301 -0.000163 0.209637
#
#
# Mechanical properties :
#
#
# Convention : Reuss Voigt Hill
#
# Bulk Modulus (GPa) = 39.35508 55.54640 47.45074
# Shear Modulus (GPa) = 14.13629 34.05578 24.09603
#
# Velocity S-wave (km/s) = 2.44114 3.78896 3.18711
# Velocity P-wave (km/s) = 4.95335 6.52359 5.79193
#
# Compressibility (1/GPa) = 0.02540968
#
# Stress axis : x y z
#
# Youngs Moduli (GPa) = 63.73085 120.79877 121.27840
#
# Poissons Ratio (x) = 0.17567 -0.11500
# Poissons Ratio (y) = 0.09268 0.35128
# Poissons Ratio (z) = -0.06043 0.34989
#
# Static dielectric constant tensor:
#      x y z
#    x 1.879890 0.000000 -0.014900 
#    y 0.000000 1.955330 -0.000030 
#    z -0.014900 -0.000030 2.096220 
# 
# From -- ./inp_files/265170.got.cif
#   From: 2010.05.17/outbox.cif.g08.bks.cpg/sg12_133_cif.got.tgz:265170.got - 2010.06.03 13:09:07.
