data_PCOD9191367
_publ_section_title
;
Structure prediction by ZEFSAII (Michael W. Deem and Ramdas Pophale) SiO2 
 PCOD9191367
Probable space group: C 2/M
;
_chemical_formula_sum "Si O2"
_cell_formula_units_Z 56
_cell_length_a 28.130614
_cell_length_b 9.092610
_cell_length_c 14.106212
_cell_angle_alpha 90.000000
_cell_angle_beta 120.096248
_cell_angle_gamma 90.000000
_cell_volume 3121.668569
_symmetry_space_group_name_H-M "C 2/M"
_symmetry_group_IT_number 12
_symmetry_cell_setting 'monoclinic'
loop_
_space_group_symop_operation_xyz
x,y,z
-x,y,-z
-x,-y,-z
x,-y,z
1/2+x,1/2+y,z
1/2-x,1/2+y,-z
1/2-x,1/2-y,-z
1/2+x,1/2-y,z
loop_
_atom_site_type_symbol
_atom_site_label
_atom_site_fract_x
_atom_site_fract_y
_atom_site_fract_z
Si Si1 0.267766 0.325022 0.376750
Si Si2 0.662840 0.173395 0.936615
Si Si3 0.732234 0.325022 0.841217
Si Si4 0.935744 0.175091 0.238978
Si Si5 0.662840 0.826605 0.389066
Si Si6 0.933459 0.332679 0.433459
Si Si7 0.935744 0.175091 0.632509
O O1 0.279105 0.500000 0.400764
O O2 0.277910 0.286362 0.277910
O O3 0.303818 0.233573 0.486459
O O4 0.204134 0.302037 0.342705
O O5 0.696182 0.233573 0.878822
O O6 0.605407 0.258360 0.879180
O O7 0.653060 0.000000 0.917414
O O8 0.704134 0.197963 0.065564
O O9 0.720895 0.500000 0.842553
O O10 0.919210 0.246312 0.323604
O O11 0.000000 0.209793 0.286247
O O12 0.930155 0.000000 0.239473
O O13 0.605407 0.741640 0.331635
O O14 0.653060 0.000000 0.388707
O O15 0.912314 0.500000 0.412314
O O16 0.919210 0.246312 0.514815
O O17 0.000000 0.339718 0.500000
O O18 0.930155 0.000000 0.620837
#
# Coordination Sequence:
#
# PCOD9191367 Si02
#       7
#     8   8   8   8   8   8   8
#     4   9  19  36  55  74 100 134 169 208 255 304
#     4  10  20  33  52  78 103 130 169 212 252 297
#     4   9  19  36  55  74 100 134 169 208 255 304
#     4  10  20  33  49  70 100 137 170 202 248 304
#     4  10  20  33  52  78 103 130 169 212 252 297
#     4   9  17  29  45  67  95 127 165 205 242 285
#     4  10  20  33  49  70 100 137 170 202 248 304
#
# _framework density 17.939125000000001
#
# number of rings (size 3 to 8) (size 9 to 14) (size 15 to 20)
#    0.000    2.429    0.000    2.143    2.000    5.143 
#    0.000    0.000    0.000    0.857    0.000    6.000 
#    0.000    0.000    0.000    0.000    0.000    0.000 
#
# Total GULP energy -156251.056636 kJ/mol
# GULP energy per Si atom -5580.394880 kJ/mol
# Density = 1.789829 g / cm^3
# Si number density = 17.939125 Si / 1000 Ang^3
#
#
#
# Elastic Constant Matrix: (Units=GPa)
#
#
# Indices 1 2 3 4 5 6 
#
# 1 58.4315 21.8234 0.8494 0.0000 12.6945 0.0000
# 2 21.8234 57.7024 9.9678 0.0000 11.8832 0.0000
# 3 0.8494 9.9678 37.3052 0.0000 8.4809 0.0000
# 4 0.0000 0.0000 0.0000 23.1632 0.0000 6.2314
# 5 12.6945 11.8832 8.4809 0.0000 26.6819 0.0000
# 6 0.0000 0.0000 0.0000 6.2314 0.0000 29.3802
#
#
#
# Elastic Compliance Matrix: (Units=1/GPa)
#
#
# Indices 1 2 3 4 5 6 
#
# 1 0.021442 -0.006996 0.003225 0.000000 -0.008111 0.000000
# 2 -0.006996 0.021775 -0.004539 0.000000 -0.004926 0.000000
# 3 0.003225 -0.004539 0.030003 0.000000 -0.009049 0.000000
# 4 0.000000 0.000000 0.000000 0.045784 0.000000 -0.009711
# 5 -0.008111 -0.004926 -0.009049 0.000000 0.046408 0.000000
# 6 0.000000 0.000000 0.000000 -0.009711 0.000000 0.036096
#
#
# Mechanical properties :
#
#
# Convention : Reuss Voigt Hill
#
# Bulk Modulus (GPa) = 17.66804 24.30226 20.98515
# Shear Modulus (GPa) = 21.09750 23.89830 22.49790
#
# Velocity S-wave (km/s) = 3.43309 3.65388 3.54520
# Velocity P-wave (km/s) = 5.05817 5.60157 5.33679
#
# Compressibility (1/GPa) = 0.05659937
#
# Stress axis : x y z
#
# Youngs Moduli (GPa) = 46.63665 45.92424 33.33055
#
# Poissons Ratio (x) = 0.32130 -0.10749
# Poissons Ratio (y) = 0.32629 0.15128
# Poissons Ratio (z) = -0.15041 0.20845
#
# Static dielectric constant tensor:
#      x y z
#    x 1.640140 0.000000 0.033600 
#    y 0.000000 1.602740 0.000000 
#    z 0.033600 0.000000 1.606620 
# 
# From -- ./inp_files/78689.got.cif
#   From: 2010.05.17/outbox.cif.g08.bks.cpg/sg12_40_cif.got.tgz:78689.got - 2010.06.03 13:09:07.
