data_PCOD9191828
_publ_section_title
;
Structure prediction by ZEFSAII (Michael W. Deem and Ramdas Pophale) SiO2 
 PCOD9191828
Probable space group: C 2/M
;
_chemical_formula_sum "Si O2"
_cell_formula_units_Z 56
_cell_length_a 19.080010
_cell_length_b 8.594228
_cell_length_c 30.049588
_cell_angle_alpha 90.000000
_cell_angle_beta 142.325725
_cell_angle_gamma 90.000000
_cell_volume 3011.530381
_symmetry_space_group_name_H-M "C 2/M"
_symmetry_group_IT_number 12
_symmetry_cell_setting 'monoclinic'
loop_
_space_group_symop_operation_xyz
x,y,z
-x,y,-z
-x,-y,-z
x,-y,z
1/2+x,1/2+y,z
1/2-x,1/2+y,-z
1/2-x,1/2-y,-z
1/2+x,1/2-y,z
loop_
_atom_site_type_symbol
_atom_site_label
_atom_site_fract_x
_atom_site_fract_y
_atom_site_fract_z
Si Si1 0.698609 0.811533 0.297284
Si Si2 0.962899 0.811998 0.431335
Si Si3 0.841426 0.313485 0.139672
Si Si4 0.878788 0.685264 0.567743
Si Si5 0.005924 0.688590 0.867246
Si Si6 0.586866 0.188413 0.004571
Si Si7 0.455239 0.314578 0.700601
O O1 0.830331 0.765167 0.357827
O O2 0.615835 0.762558 0.214962
O O3 0.641399 0.746329 0.313460
O O4 0.694590 0.000000 0.298250
O O5 0.000000 0.768659 0.500000
O O6 0.046328 0.741420 0.436466
O O7 0.969409 0.000000 0.431270
O O8 0.846642 0.500000 0.145559
O O9 0.712300 0.255252 0.076477
O O10 0.898119 0.267203 0.120779
O O11 0.923712 0.241677 0.218459
O O12 0.874674 0.500000 0.566446
O O13 0.750000 0.750000 0.500000
O O14 0.933311 0.746797 0.640930
O O15 0.003464 0.500000 0.867735
O O16 0.038266 0.743596 0.932488
O O17 0.594765 0.000000 0.007440
O O18 0.500000 0.231947 0.000000
O O19 0.451651 0.500000 0.697278
#
# Coordination Sequence:
#
# PCOD9191828 Si02
#       7
#     8   8   8   8   8   8   8
#     4   9  18  35  58  83 115 152 190 235 287 342
#     4  10  21  37  59  87 119 155 192 232 281 335
#     4  10  20  36  57  79 107 145 188 233 283 339
#     4  12  25  41  61  86 118 153 192 235 281 336
#     4   8  16  32  53  77 106 144 186 227 275 331
#     4  10  20  33  51  78 111 146 186 233 284 340
#     4  11  22  38  61  87 115 147 188 236 287 342
#
# _framework density 18.595196000000001
#
# number of rings (size 3 to 8) (size 9 to 14) (size 15 to 20)
#    0.000    2.000    0.000    5.143    0.000    3.429 
#    0.000    5.714    0.000    0.000    0.000    0.000 
#    0.000    0.000    0.000    0.000    0.000    0.000 
#
# Total GULP energy -156409.099418 kJ/mol
# GULP energy per Si atom -5586.039265 kJ/mol
# Density = 1.855287 g / cm^3
# Si number density = 18.595196 Si / 1000 Ang^3
#
#
#
# Elastic Constant Matrix: (Units=GPa)
#
#
# Indices 1 2 3 4 5 6 
#
# 1 164.5446 58.2415 140.1482 0.0000 6.6943 0.0000
# 2 58.2415 59.2056 55.8739 0.0001 1.3263 -0.0002
# 3 140.1482 55.8739 176.5363 0.0000 1.3559 0.0000
# 4 0.0000 0.0001 0.0000 22.8452 0.0000 2.7539
# 5 6.6943 1.3263 1.3559 0.0000 39.0060 0.0000
# 6 0.0000 -0.0002 0.0000 2.7539 0.0000 25.0266
#
#
#
# Elastic Compliance Matrix: (Units=1/GPa)
#
#
# Indices 1 2 3 4 5 6 
#
# 1 0.020870 -0.006917 -0.014357 0.000000 -0.002848 0.000000
# 2 -0.006917 0.026389 -0.002864 0.000000 0.000389 0.000000
# 3 -0.014357 -0.002864 0.017954 0.000000 0.001937 0.000000
# 4 0.000000 0.000000 0.000000 0.044361 0.000000 -0.004882
# 5 -0.002848 0.000389 0.001937 0.000000 0.026045 0.000000
# 6 0.000000 0.000000 0.000000 -0.004882 0.000000 0.040495
#
#
# Mechanical properties :
#
#
# Convention : Reuss Voigt Hill
#
# Bulk Modulus (GPa) = 59.04359 100.97930 80.01145
# Shear Modulus (GPa) = 21.73585 27.11041 24.42313
#
# Velocity S-wave (km/s) = 3.42262 3.82242 3.62803
# Velocity P-wave (km/s) = 6.88768 8.59669 7.78920
#
# Compressibility (1/GPa) = 0.01693664
#
# Stress axis : x y z
#
# Youngs Moduli (GPa) = 47.91571 37.89511 55.69881
#
# Poissons Ratio (x) = 0.26213 0.79967
# Poissons Ratio (y) = 0.33145 0.15950
# Poissons Ratio (z) = 0.68793 0.10852
#
# Static dielectric constant tensor:
#      x y z
#    x 1.607770 0.000000 -0.003770 
#    y 0.000000 1.626860 0.000000 
#    z -0.003770 0.000000 1.632220 
# 
# From -- ./inp_files/363117.got.cif
#   From: 2010.05.17/outbox.cif.g08.bks.cpg/sg12_182_cif.got.tgz:363117.got - 2010.06.03 13:09:07.
