data_PCOD9191757
_publ_section_title
;
Structure prediction by ZEFSAII (Michael W. Deem and Ramdas Pophale) SiO2 
 PCOD9191757
Probable space group: C 2/M
;
_chemical_formula_sum "Si O2"
_cell_formula_units_Z 64
_cell_length_a 33.552509
_cell_length_b 19.844703
_cell_length_c 16.517575
_cell_angle_alpha 90.000000
_cell_angle_beta 162.137395
_cell_angle_gamma 90.000000
_cell_volume 3373.493712
_symmetry_space_group_name_H-M "C 2/M"
_symmetry_group_IT_number 12
_symmetry_cell_setting 'monoclinic'
loop_
_space_group_symop_operation_xyz
x,y,z
-x,y,-z
-x,-y,-z
x,-y,z
1/2+x,1/2+y,z
1/2-x,1/2+y,-z
1/2-x,1/2-y,-z
1/2+x,1/2-y,z
loop_
_atom_site_type_symbol
_atom_site_label
_atom_site_fract_x
_atom_site_fract_y
_atom_site_fract_z
Si Si1 0.959107 0.201264 0.013534
Si Si2 0.225734 0.581161 0.920691
Si Si3 0.801476 0.244604 0.422679
Si Si4 0.349832 0.368400 0.398374
Si Si5 0.419590 0.423018 0.053933
Si Si6 0.599882 0.075091 0.847104
Si Si7 0.841638 0.630565 0.386832
Si Si8 0.638725 0.298615 0.749473
O O1 0.067226 0.243523 0.271512
O O2 0.947799 0.128654 0.035745
O O3 0.000000 0.195117 0.000000
O O4 0.820747 0.236733 0.758971
O O5 0.247346 0.500000 0.955029
O O6 0.127538 0.591776 0.806491
O O7 0.176894 0.614525 0.743756
O O8 0.347421 0.628030 0.180773
O O9 0.793913 0.171886 0.366733
O O10 0.808248 0.298052 0.362179
O O11 0.488596 0.398154 0.693866
O O12 0.356733 0.316456 0.336519
O O13 0.241628 0.421325 0.161372
O O14 0.451942 0.500000 0.097929
O O15 0.267531 0.416689 0.782988
O O16 0.495726 0.119389 0.693316
O O17 0.545223 0.000000 0.742957
O O18 0.500000 0.267238 0.500000
O O19 0.750000 0.250000 0.000000
#
# Coordination Sequence:
#
# PCOD9191757 Si02
#       8
#     8   8   8   8   8   8   8   8
#     4  10  21  38  60  83 108 136 168 213 266 330
#     4  10  21  35  53  78 109 148 193 236 274 313
#     4  10  21  36  56  82 107 136 175 214 266 322
#     4  10  21  36  54  75 107 145 182 225 265 313
#     4  10  21  36  56  82 109 140 175 216 270 325
#     4  10  20  33  51  76 106 145 188 226 265 305
#     4  11  20  33  54  78 109 142 179 228 268 309
#     4  11  24  38  54  78 110 151 194 235 279 318
#
# _framework density 18.971430000000002
#
# number of rings (size 3 to 8) (size 9 to 14) (size 15 to 20)
#    0.000    1.750    0.000    4.500    0.000    8.000 
#    0.000    0.000    0.000    0.000    0.000    0.000 
#    0.000   20.500    0.000    0.000    0.000    0.000 
#
# Total GULP energy -178436.254461 kJ/mol
# GULP energy per Si atom -5576.132952 kJ/mol
# Density = 1.892825 g / cm^3
# Si number density = 18.971430 Si / 1000 Ang^3
#
#
#
# Elastic Constant Matrix: (Units=GPa)
#
#
# Indices 1 2 3 4 5 6 
#
# 1 79.2295 29.8347 19.0679 0.0000 12.3372 0.0000
# 2 29.8347 69.3641 26.4353 0.0000 5.4802 0.0000
# 3 19.0679 26.4353 80.0696 0.0000 17.5695 0.0000
# 4 0.0000 0.0000 0.0000 16.7305 0.0000 -0.7902
# 5 12.3372 5.4802 17.5695 0.0000 23.8115 0.0000
# 6 0.0000 0.0000 0.0000 -0.7902 0.0000 9.4830
#
#
#
# Elastic Compliance Matrix: (Units=1/GPa)
#
#
# Indices 1 2 3 4 5 6 
#
# 1 0.016099 -0.006285 -0.000293 0.000000 -0.006678 0.000000
# 2 -0.006285 0.018947 -0.005389 0.000000 0.002872 0.000000
# 3 -0.000293 -0.005389 0.016744 0.000000 -0.010962 0.000000
# 4 0.000000 0.000000 0.000000 0.060007 0.000000 0.005000
# 5 -0.006678 0.002872 -0.010962 0.000000 0.052884 0.000000
# 6 0.000000 0.000000 0.000000 0.005000 0.000000 0.105869
#
#
# Mechanical properties :
#
#
# Convention : Reuss Voigt Hill
#
# Bulk Modulus (GPa) = 35.90059 42.14877 39.02468
# Shear Modulus (GPa) = 16.45989 20.22667 18.34328
#
# Velocity S-wave (km/s) = 2.94873 3.26876 3.11286
# Velocity P-wave (km/s) = 5.52792 6.04248 5.79092
#
# Compressibility (1/GPa) = 0.02785470
#
# Stress axis : x y z
#
# Youngs Moduli (GPa) = 62.11675 52.77943 59.72450
#
# Poissons Ratio (x) = 0.33171 0.01752
# Poissons Ratio (y) = 0.39040 0.32185
# Poissons Ratio (z) = 0.01823 0.28442
#
# Static dielectric constant tensor:
#      x y z
#    x 1.638700 0.000000 0.002710 
#    y 0.000000 1.675970 0.000000 
#    z 0.002710 0.000000 1.713120 
# 
# From -- ./inp_files/251932.got.cif
#   From: 2010.05.17/outbox.cif.g08.bks.cpg/sg12_126_cif.got.tgz:251932.got - 2010.06.03 13:09:07.
