data_PCOD9191492
_publ_section_title
;
Structure prediction by ZEFSAII (Michael W. Deem and Ramdas Pophale) SiO2 
 PCOD9191492
Probable space group: C 2/M
;
_chemical_formula_sum "Si O2"
_cell_formula_units_Z 64
_cell_length_a 23.348690
_cell_length_b 7.528022
_cell_length_c 17.800635
_cell_angle_alpha 90.000000
_cell_angle_beta 103.023911
_cell_angle_gamma 90.000000
_cell_volume 3048.322725
_symmetry_space_group_name_H-M "C 2/M"
_symmetry_group_IT_number 12
_symmetry_cell_setting 'monoclinic'
loop_
_space_group_symop_operation_xyz
x,y,z
-x,y,-z
-x,-y,-z
x,-y,z
1/2+x,1/2+y,z
1/2-x,1/2+y,-z
1/2-x,1/2-y,-z
1/2+x,1/2-y,z
loop_
_atom_site_type_symbol
_atom_site_label
_atom_site_fract_x
_atom_site_fract_y
_atom_site_fract_z
Si Si1 0.819029 0.712998 0.013698
Si Si2 0.647745 0.213329 0.677213
Si Si3 0.139367 0.285895 0.135642
Si Si4 0.532981 0.786789 0.204556
Si Si5 0.114958 0.787306 0.368634
Si Si6 0.399316 0.781997 0.175187
Si Si7 0.220678 0.212049 0.299997
Si Si8 0.433681 0.712846 0.488672
O O1 0.825635 0.500000 0.014559
O O2 0.844705 0.781048 0.942232
O O3 0.750000 0.750000 0.000000
O O4 0.855718 0.777171 0.096312
O O5 0.623282 0.277195 0.749955
O O6 0.713249 0.282657 0.679633
O O7 0.603895 0.252629 0.596515
O O8 0.652125 0.000000 0.684873
O O9 0.135616 0.500000 0.130829
O O10 0.078352 0.220336 0.154395
O O11 0.190382 0.242350 0.210379
O O12 0.563070 0.746417 0.293460
O O13 0.466257 0.722737 0.181093
O O14 0.530958 0.000000 0.196832
O O15 0.174914 0.716643 0.348554
O O16 0.097833 0.717662 0.445359
O O17 0.121635 0.000000 0.376325
O O18 0.399571 0.000000 0.175635
O O19 0.224005 0.000000 0.312190
O O20 0.500000 0.782098 0.500000
O O21 0.437967 0.500000 0.499022
#
# Coordination Sequence:
#
# PCOD9191492 Si02
#       8
#     8   8   8   8   8   8   8   8
#     4  10  20  34  51  72  99 130 163 199 239 283
#     4  10  20  33  50  72  95 124 164 201 235 283
#     4   9  18  31  50  76 100 124 160 201 237 279
#     4   9  17  31  51  74  98 125 159 198 239 282
#     4   9  18  33  51  71  97 129 161 193 237 291
#     4   9  18  32  50  71  97 128 160 197 241 287
#     4   9  18  33  52  72  98 131 161 192 236 289
#     4  10  21  35  50  70  97 127 159 199 246 289
#
# _framework density 20.995152999999998
#
# number of rings (size 3 to 8) (size 9 to 14) (size 15 to 20)
#    0.000    2.625    0.000    1.500    0.000    3.750 
#    0.000    3.750    0.000    0.000    0.000    4.375 
#    0.000    0.000    0.000    0.000    0.000    0.000 
#
# Total GULP energy -178689.342010 kJ/mol
# GULP energy per Si atom -5584.041938 kJ/mol
# Density = 2.094737 g / cm^3
# Si number density = 20.995153 Si / 1000 Ang^3
#
#
#
# Elastic Constant Matrix: (Units=GPa)
#
#
# Indices 1 2 3 4 5 6 
#
# 1 213.3683 5.9437 154.7279 0.0000 4.9858 0.0000
# 2 5.9437 53.0549 -4.8303 0.0000 -3.0634 0.0000
# 3 154.7279 -4.8303 190.8228 0.0000 -8.4531 0.0000
# 4 0.0000 0.0000 0.0000 26.3047 0.0000 12.7625
# 5 4.9858 -3.0634 -8.4531 0.0000 25.6965 0.0000
# 6 0.0000 0.0000 0.0000 12.7625 0.0000 5.6515
#
#
#
# Elastic Compliance Matrix: (Units=1/GPa)
#
#
# Indices 1 2 3 4 5 6 
#
# 1 0.012516 -0.002716 -0.010492 0.000000 -0.006203 0.000000
# 2 -0.002716 0.019634 0.002868 0.000000 0.003811 0.000000
# 3 -0.010492 0.002868 0.014132 0.000000 0.007026 0.000000
# 4 0.000000 0.000000 0.000000 -0.397411 0.000000 0.897458
# 5 -0.006203 0.003811 0.007026 0.000000 0.042885 0.000000
# 6 0.000000 0.000000 0.000000 0.897458 0.000000 -1.849750
#
#
# Mechanical properties :
#
#
# Convention : Reuss Voigt Hill
#
# Bulk Modulus (GPa) = 39.06001 85.43651 62.24826
# Shear Modulus (GPa) = -2.34876 31.62419 14.63771
#
# Velocity S-wave (km/s) = -1.05884 3.88527 2.64331
# Velocity P-wave (km/s) = 4.14124 7.80441 6.24735
#
# Compressibility (1/GPa) = 0.02560163
#
# Stress axis : x y z
#
# Youngs Moduli (GPa) = 79.89998 50.93270 70.76375
#
# Poissons Ratio (x) = 0.13831 0.74244
# Poissons Ratio (y) = 0.21697 -0.20293
# Poissons Ratio (z) = 0.83829 -0.14606
#
# Static dielectric constant tensor:
#      x y z
#    x 1.751920 0.000000 -0.027370 
#    y 0.000000 1.789680 0.000000 
#    z -0.027370 0.000000 1.702630 
# 
# From -- ./inp_files/232521.got.cif
#   From: 2010.05.17/outbox.cif.g08.bks.cpg/sg12_117_cif.got.tgz:232521.got - 2010.06.03 13:09:07.
