data_PCOD9191485
_publ_section_title
;
Structure prediction by ZEFSAII (Michael W. Deem and Ramdas Pophale) SiO2 
 PCOD9191485
Probable space group: C 2/M
;
_chemical_formula_sum "Si O2"
_cell_formula_units_Z 56
_cell_length_a 29.711504
_cell_length_b 7.523032
_cell_length_c 22.490745
_cell_angle_alpha 90.000000
_cell_angle_beta 148.911046
_cell_angle_gamma 90.000000
_cell_volume 2595.857869
_symmetry_space_group_name_H-M "C 2/M"
_symmetry_group_IT_number 12
_symmetry_cell_setting 'monoclinic'
loop_
_space_group_symop_operation_xyz
x,y,z
-x,y,-z
-x,-y,-z
x,-y,z
1/2+x,1/2+y,z
1/2-x,1/2+y,-z
1/2-x,1/2-y,-z
1/2+x,1/2-y,z
loop_
_atom_site_type_symbol
_atom_site_label
_atom_site_fract_x
_atom_site_fract_y
_atom_site_fract_z
Si Si1 0.163133 0.715284 0.637648
Si Si2 0.548508 0.203536 0.401212
Si Si3 0.522468 0.713918 0.119099
Si Si4 0.984688 0.710147 0.205914
Si Si5 0.377817 0.709210 0.278101
Si Si6 0.361566 0.716773 0.860105
Si Si7 0.788515 0.712450 0.978412
O O1 0.163085 0.500000 0.635501
O O2 0.115520 0.783300 0.524572
O O3 0.114103 0.766049 0.642512
O O4 0.262918 0.777762 0.754889
O O5 0.532556 0.285036 0.318223
O O6 0.455116 0.203443 0.328504
O O7 0.577951 0.000000 0.425304
O O8 0.521810 0.500000 0.117078
O O9 0.534200 0.769868 0.199942
O O10 0.594669 0.771108 0.152931
O O11 0.428470 0.774923 0.987258
O O12 0.973809 0.500000 0.205730
O O13 0.886729 0.784636 0.086527
O O14 0.382174 0.500000 0.269173
O O15 0.283221 0.779011 0.149711
O O16 0.360672 0.500000 0.860085
O O17 0.793935 0.500000 0.975942
O O18 0.750000 0.750000 0.000000
#
# Coordination Sequence:
#
# PCOD9191485 Si02
#       7
#     8   8   8   8   8   8   8
#     4  10  20  35  55  74  96 135 179 211 246 299
#     4  10  21  36  52  70  99 141 179 206 242 302
#     4   9  17  32  56  80 101 128 162 205 259 307
#     4  10  20  34  50  73 105 134 165 207 250 297
#     4  11  22  34  51  77 104 132 168 215 262 297
#     4   8  16  33  55  79 102 125 164 213 251 296
#     4  10  20  33  50  72 101 133 165 203 248 296
#
# _framework density 21.572831000000001
#
# number of rings (size 3 to 8) (size 9 to 14) (size 15 to 20)
#    0.000    2.286    1.429    2.571    0.000    4.000 
#    0.000    2.857    0.000    0.000    0.000    0.000 
#    0.000    0.000    0.000    0.000    0.000    0.000 
#
# Total GULP energy -156389.852644 kJ/mol
# GULP energy per Si atom -5585.351880 kJ/mol
# Density = 2.152373 g / cm^3
# Si number density = 21.572831 Si / 1000 Ang^3
#
#
#
# Elastic Constant Matrix: (Units=GPa)
#
#
# Indices 1 2 3 4 5 6 
#
# 1 100.3703 -14.2668 42.2708 0.0000 -35.8633 0.0000
# 2 -14.2668 56.1891 -1.3092 0.0000 3.6003 0.0000
# 3 42.2708 -1.3092 91.0274 0.0000 -31.6030 0.0000
# 4 0.0000 0.0000 0.0000 9.0319 0.0000 -6.4692
# 5 -35.8633 3.6003 -31.6030 0.0000 28.8943 0.0000
# 6 0.0000 0.0000 0.0000 -6.4692 0.0000 19.6284
#
#
#
# Elastic Compliance Matrix: (Units=1/GPa)
#
#
# Indices 1 2 3 4 5 6 
#
# 1 0.018547 0.003315 -0.001155 0.000000 0.021345 0.000000
# 2 0.003315 0.018572 -0.001043 0.000000 0.000659 0.000000
# 3 -0.001155 -0.001043 0.017822 0.000000 0.018189 0.000000
# 4 0.000000 0.000000 0.000000 0.144933 0.000000 0.047767
# 5 0.021345 0.000659 0.018189 0.000000 0.080914 0.000000
# 6 0.000000 0.000000 0.000000 0.047767 0.000000 0.066690
#
#
# Mechanical properties :
#
#
# Convention : Reuss Voigt Hill
#
# Bulk Modulus (GPa) = 17.49035 33.44182 25.46608
# Shear Modulus (GPa) = 13.72485 26.23705 19.98095
#
# Velocity S-wave (km/s) = 2.52506 3.49120 3.04667
# Velocity P-wave (km/s) = 4.07755 5.63798 4.92002
#
# Compressibility (1/GPa) = 0.05717439
#
# Stress axis : x y z
#
# Youngs Moduli (GPa) = 53.91638 53.84407 56.11063
#
# Poissons Ratio (x) = -0.17848 0.06479
# Poissons Ratio (y) = -0.17872 0.05855
# Poissons Ratio (z) = 0.06226 0.05618
#
# Static dielectric constant tensor:
#      x y z
#    x 1.713240 0.000000 -0.014830 
#    y 0.000000 1.862150 0.000000 
#    z -0.014830 0.000000 1.806080 
# 
# From -- ./inp_files/237786.got.cif
#   From: 2010.05.17/outbox.cif.g08.bks.cpg/sg12_119_cif.got.tgz:237786.got - 2010.06.03 13:09:07.
