data_PCOD9191877
_publ_section_title
;
Structure prediction by ZEFSAII (Michael W. Deem and Ramdas Pophale) SiO2 
 PCOD9191877
Probable space group: C 2/M
;
_chemical_formula_sum "Si O2"
_cell_formula_units_Z 56
_cell_length_a 11.333657
_cell_length_b 16.956460
_cell_length_c 16.742221
_cell_angle_alpha 90.000000
_cell_angle_beta 132.049063
_cell_angle_gamma 90.000000
_cell_volume 2389.222757
_symmetry_space_group_name_H-M "C 2/M"
_symmetry_group_IT_number 12
_symmetry_cell_setting 'monoclinic'
loop_
_space_group_symop_operation_xyz
x,y,z
-x,y,-z
-x,-y,-z
x,-y,z
1/2+x,1/2+y,z
1/2-x,1/2+y,-z
1/2-x,1/2-y,-z
1/2+x,1/2-y,z
loop_
_atom_site_type_symbol
_atom_site_label
_atom_site_fract_x
_atom_site_fract_y
_atom_site_fract_z
Si Si1 0.695929 0.408904 0.447741
Si Si2 0.851878 0.410780 0.683911
Si Si3 0.120824 0.910193 0.166436
Si Si4 0.723701 0.593832 0.027820
Si Si5 0.638805 0.667585 0.710801
Si Si6 0.722004 0.198831 0.648052
Si Si7 0.931907 0.717638 0.191089
O O1 0.731478 0.500000 0.442086
O O2 0.724458 0.402595 0.555350
O O3 0.514395 0.386462 0.345788
O O4 0.794897 0.342109 0.445187
O O5 0.905457 0.500000 0.712530
O O6 0.776153 0.385471 0.734248
O O7 0.998424 0.356432 0.727674
O O8 0.169766 0.905797 0.096154
O O9 0.254053 0.872157 0.280697
O O10 0.109124 0.000000 0.184762
O O11 0.937505 0.881660 0.091230
O O12 0.765140 0.500000 0.028184
O O13 0.847816 0.667489 0.081875
O O14 0.606552 0.733882 0.627767
O O15 0.673160 0.721852 0.804227
O O16 0.897977 0.238580 0.740307
#
# Coordination Sequence:
#
# PCOD9191877 Si02
#       7
#     8   8   8   8   8   8   8
#     4  10  21  36  53  74 102 139 179 213 250 304
#     4  10  21  36  53  74 102 139 179 213 250 304
#     4   9  17  31  53  76  99 132 169 204 251 311
#     4   9  17  31  53  76  99 132 169 204 251 311
#     4  10  20  33  52  74 102 137 169 211 258 300
#     4  10  20  33  52  78 105 131 170 216 260 302
#     4  10  20  33  52  78 105 131 170 216 260 302
#
# _framework density 23.438585
#
# number of rings (size 3 to 8) (size 9 to 14) (size 15 to 20)
#    0.000    2.286    1.429    2.571    0.000    8.000 
#    0.000    0.000    0.000    1.714    0.000    0.000 
#    0.000   18.286    0.000    0.000    0.000    0.000 
#
# Total GULP energy -155896.857568 kJ/mol
# GULP energy per Si atom -5567.744913 kJ/mol
# Density = 2.338524 g / cm^3
# Si number density = 23.438585 Si / 1000 Ang^3
#
#
#
# Elastic Constant Matrix: (Units=GPa)
#
#
# Indices 1 2 3 4 5 6 
#
# 1 28.8160 -7.4374 -7.9445 0.0000 -4.8557 0.0000
# 2 -7.4374 63.9467 15.6579 0.0000 -3.6325 0.0000
# 3 -7.9445 15.6579 38.1064 0.0000 3.4870 0.0000
# 4 0.0000 0.0000 0.0000 25.7662 0.0000 11.4011
# 5 -4.8557 -3.6325 3.4870 0.0000 19.6606 0.0000
# 6 0.0000 0.0000 0.0000 11.4011 0.0000 20.0355
#
#
#
# Elastic Compliance Matrix: (Units=1/GPa)
#
#
# Indices 1 2 3 4 5 6 
#
# 1 0.038779 0.003626 0.005750 0.000000 0.009228 0.000000
# 2 0.003626 0.018137 -0.007202 0.000000 0.005524 0.000000
# 3 0.005750 -0.007202 0.030894 0.000000 -0.005390 0.000000
# 4 0.000000 0.000000 0.000000 0.051871 0.000000 -0.029517
# 5 0.009228 0.005524 -0.005390 0.000000 0.055119 0.000000
# 6 0.000000 0.000000 0.000000 -0.029517 0.000000 0.066708
#
#
# Mechanical properties :
#
#
# Convention : Reuss Voigt Hill
#
# Bulk Modulus (GPa) = 10.85075 14.60233 12.72654
# Shear Modulus (GPa) = 17.36847 21.79868 19.58358
#
# Velocity S-wave (km/s) = 2.72512 3.05295 2.89368
# Velocity P-wave (km/s) = 3.81329 4.32099 4.07506
#
# Compressibility (1/GPa) = 0.09215956
#
# Stress axis : x y z
#
# Youngs Moduli (GPa) = 25.78697 55.13579 32.36920
#
# Poissons Ratio (x) = -0.19995 -0.18613
# Poissons Ratio (y) = -0.09352 0.23312
# Poissons Ratio (z) = -0.14828 0.39708
#
# Static dielectric constant tensor:
#      x y z
#    x 1.966200 0.000000 0.043600 
#    y 0.000000 1.951000 0.000000 
#    z 0.043600 0.000000 1.922270 
# 
# From -- ./inp_files/264303.got.cif
#   From: 2010.05.17/outbox.cif.g08.bks.cpg/sg12_133_cif.got.tgz:264303.got - 2010.06.03 13:09:07.
