data_PCOD9191404
_publ_section_title
;
Structure prediction by ZEFSAII (Michael W. Deem and Ramdas Pophale) SiO2 
 PCOD9191404
Probable space group: C 2/M
;
_chemical_formula_sum "Si O2"
_cell_formula_units_Z 48
_cell_length_a 16.651248
_cell_length_b 7.410418
_cell_length_c 15.040169
_cell_angle_alpha 90.000000
_cell_angle_beta 77.354427
_cell_angle_gamma 90.000000
_cell_volume 1810.829788
_symmetry_space_group_name_H-M "C 2/M"
_symmetry_group_IT_number 12
_symmetry_cell_setting 'monoclinic'
loop_
_space_group_symop_operation_xyz
x,y,z
-x,y,-z
-x,-y,-z
x,-y,z
1/2+x,1/2+y,z
1/2-x,1/2+y,-z
1/2-x,1/2-y,-z
1/2+x,1/2-y,z
loop_
_atom_site_type_symbol
_atom_site_label
_atom_site_fract_x
_atom_site_fract_y
_atom_site_fract_z
Si Si1 0.568325 0.219694 0.306517
Si Si2 0.193591 0.281895 0.132613
Si Si3 0.189292 0.792606 0.644416
Si Si4 0.443183 0.206945 0.191310
Si Si5 0.866748 0.280983 0.530027
Si Si6 0.377616 0.208715 0.029491
O O1 0.654740 0.261779 0.236829
O O2 0.501865 0.289053 0.252150
O O3 0.570586 0.278079 0.408184
O O4 0.559918 0.000000 0.311998
O O5 0.197675 0.500000 0.125858
O O6 0.284079 0.213405 0.089503
O O7 0.132822 0.218253 0.067603
O O8 0.144974 0.703794 0.738101
O O9 0.130243 0.781426 0.571979
O O10 0.276805 0.722325 0.588647
O O11 0.202390 0.000000 0.666333
O O12 0.432671 0.287901 0.095676
O O13 0.470725 0.000000 0.172697
O O14 0.868927 0.500000 0.525265
O O15 0.401621 0.000000 0.015031
#
# Coordination Sequence:
#
# PCOD9191404 Si02
#       6
#     8   8   8   8   8   8
#     4   9  18  32  51  73  97 130 167 199 237 287
#     4   9  17  32  53  74  98 129 165 202 238 283
#     4  10  20  34  53  75  97 125 162 203 246 289
#     4  10  20  33  49  72 102 132 162 198 241 289
#     4   9  18  34  54  73  94 125 165 204 241 285
#     4   9  18  31  50  76 101 127 161 202 245 284
#
# _framework density 26.507183999999999
#
# number of rings (size 3 to 8) (size 9 to 14) (size 15 to 20)
#    0.000    2.667    0.000    1.500    0.000    4.000 
#    0.000    9.167    0.000    0.000    0.000    5.833 
#    0.000    0.000    0.000    0.000    0.000    0.000 
#
# Total GULP energy -134199.782301 kJ/mol
# GULP energy per Si atom -5591.657596 kJ/mol
# Density = 2.644685 g / cm^3
# Si number density = 26.507184 Si / 1000 Ang^3
#
#
#
# Elastic Constant Matrix: (Units=GPa)
#
#
# Indices 1 2 3 4 5 6 
#
# 1 75.0630 -1.9502 36.1789 0.0000 18.0422 0.0000
# 2 -1.9502 89.6986 -0.2200 0.0000 -2.9172 0.0000
# 3 36.1789 -0.2200 193.9458 0.0000 25.8361 0.0000
# 4 0.0000 0.0000 0.0000 4.2113 0.0000 -4.2860
# 5 18.0422 -2.9172 25.8361 0.0000 56.0929 0.0000
# 6 0.0000 0.0000 0.0000 -4.2860 0.0000 -9.3922
#
#
#
# Elastic Compliance Matrix: (Units=1/GPa)
#
#
# Indices 1 2 3 4 5 6 
#
# 1 0.015390 0.000203 -0.002357 0.000000 -0.003854 0.000000
# 2 0.000203 0.011171 -0.000100 0.000000 0.000562 0.000000
# 3 -0.002357 -0.000100 0.005855 0.000000 -0.001944 0.000000
# 4 0.000000 0.000000 0.000000 0.162148 0.000000 -0.073994
# 5 -0.003854 0.000562 -0.001944 0.000000 0.019992 0.000000
# 6 0.000000 0.000000 0.000000 -0.073994 0.000000 -0.072705
#
#
# Mechanical properties :
#
#
# Convention : Reuss Voigt Hill
#
# Bulk Modulus (GPa) = 35.83247 47.41387 41.62317
# Shear Modulus (GPa) = 32.12125 31.82898 31.97512
#
# Velocity S-wave (km/s) = 3.48486 3.46897 3.47692
# Velocity P-wave (km/s) = 5.45341 5.82847 5.64405
#
# Compressibility (1/GPa) = 0.02790765
#
# Stress axis : x y z
#
# Youngs Moduli (GPa) = 64.97779 89.51841 170.80585
#
# Poissons Ratio (x) = -0.01822 0.40263
# Poissons Ratio (y) = -0.01322 0.01710
# Poissons Ratio (z) = 0.15317 0.00896
#
# Static dielectric constant tensor:
#      x y z
#    x 2.142040 0.000000 0.046320 
#    y 0.000000 2.351410 0.000000 
#    z 0.046320 0.000000 2.016450 
# 
# From -- ./inp_files/221627.got.cif
#   From: 2010.05.17/outbox.cif.g08.bks.cpg/sg12_111_cif.got.tgz:221627.got - 2010.06.03 13:09:07.
