data_PCOD9191943
_publ_section_title
;
Structure prediction by ZEFSAII (Michael W. Deem and Ramdas Pophale) SiO2 
 PCOD9191943
Probable space group: C 2/M
;
_chemical_formula_sum "Si O2"
_cell_formula_units_Z 56
_cell_length_a 14.617674
_cell_length_b 8.590287
_cell_length_c 28.753499
_cell_angle_alpha 90.000000
_cell_angle_beta 58.130421
_cell_angle_gamma 90.000000
_cell_volume 3066.290499
_symmetry_space_group_name_H-M "C 2/M"
_symmetry_group_IT_number 12
_symmetry_cell_setting 'monoclinic'
loop_
_space_group_symop_operation_xyz
x,y,z
-x,y,-z
-x,-y,-z
x,-y,z
1/2+x,1/2+y,z
1/2-x,1/2+y,-z
1/2-x,1/2-y,-z
1/2+x,1/2-y,z
loop_
_atom_site_type_symbol
_atom_site_label
_atom_site_fract_x
_atom_site_fract_y
_atom_site_fract_z
Si Si1 0.236605 0.687932 0.269032
Si Si2 0.297477 0.813678 0.352029
Si Si3 0.998241 0.813671 0.646353
Si Si4 0.436661 0.813143 0.564180
Si Si5 0.652697 0.312499 0.856118
Si Si6 0.780954 0.812575 0.062330
Si Si7 0.578479 0.813921 0.054119
O O1 0.235193 0.500000 0.271549
O O2 0.294262 0.752273 0.299799
O O3 0.296758 0.740153 0.206017
O O4 0.113913 0.748612 0.302752
O O5 0.399111 0.749119 0.353137
O O6 0.184247 0.754388 0.403710
O O7 0.299287 0.000000 0.351576
O O8 0.996112 0.755637 0.593490
O O9 0.996824 0.000000 0.647779
O O10 0.500000 0.776399 0.500000
O O11 0.430272 0.000000 0.570955
O O12 0.651971 0.500000 0.855104
O O13 0.719099 0.263613 0.884090
O O14 0.532791 0.254679 0.898247
O O15 0.673482 0.764927 0.064029
O O16 0.788269 0.000000 0.058390
O O17 0.881689 0.744970 0.006778
O O18 0.572020 0.000000 0.054947
#
# Coordination Sequence:
#
# PCOD9191943 Si02
#       7
#     8   8   8   8   8   8   8
#     4  10  21  38  57  81 111 142 185 234 279 329
#     4  11  22  38  60  83 112 151 189 227 276 328
#     4  11  22  38  60  84 113 150 189 229 276 326
#     4  10  21  38  60  88 120 150 185 230 275 323
#     4  10  21  36  55  77 104 140 175 215 270 328
#     4   9  19  36  53  72 103 140 174 211 266 328
#     4  10  20  33  52  78 105 135 175 221 264 315
#
# _framework density 18.263109
#
# number of rings (size 3 to 8) (size 9 to 14) (size 15 to 20)
#    0.000    1.857    0.000    6.000    0.000    6.857 
#    0.000    1.429    0.000    0.000    0.000    0.000 
#    0.000    0.000    0.000    0.000    0.000    0.000 
#
# Total GULP energy -156383.084682 kJ/mol
# GULP energy per Si atom -5585.110167 kJ/mol
# Density = 1.822154 g / cm^3
# Si number density = 18.263109 Si / 1000 Ang^3
#
#
#
# Elastic Constant Matrix: (Units=GPa)
#
#
# Indices 1 2 3 4 5 6 
#
# 1 119.2646 29.0596 36.3264 0.0000 12.5079 0.0000
# 2 29.0596 69.0859 27.7436 0.0000 8.9817 0.0000
# 3 36.3264 27.7436 106.5789 0.0000 26.5040 0.0000
# 4 0.0000 0.0000 0.0000 27.6634 0.0000 -3.6204
# 5 12.5079 8.9817 26.5040 0.0000 10.4997 0.0000
# 6 0.0000 0.0000 0.0000 -3.6204 0.0000 32.2613
#
#
#
# Elastic Compliance Matrix: (Units=1/GPa)
#
#
# Indices 1 2 3 4 5 6 
#
# 1 0.010141 -0.002963 -0.000836 0.000000 -0.007435 0.000000
# 2 -0.002963 0.017326 -0.001860 0.000000 -0.006597 0.000000
# 3 -0.000836 -0.001860 0.025542 0.000000 -0.061888 0.000000
# 4 0.000000 0.000000 0.000000 0.036688 0.000000 0.004117
# 5 -0.007435 -0.006597 -0.061888 0.000000 0.265962 0.000000
# 6 0.000000 0.000000 0.000000 0.004117 0.000000 0.031459
#
#
# Mechanical properties :
#
#
# Convention : Reuss Voigt Hill
#
# Bulk Modulus (GPa) = 23.98610 53.46540 38.72575
# Shear Modulus (GPa) = 12.12613 27.53821 19.83217
#
# Velocity S-wave (km/s) = 2.57955 3.88733 3.29890
# Velocity P-wave (km/s) = 4.69407 7.03471 5.98002
#
# Compressibility (1/GPa) = 0.04169081
#
# Stress axis : x y z
#
# Youngs Moduli (GPa) = 98.60777 57.71824 39.15113
#
# Poissons Ratio (x) = 0.17103 0.03274
# Poissons Ratio (y) = 0.29220 0.07280
# Poissons Ratio (z) = 0.08245 0.10733
#
# Static dielectric constant tensor:
#      x y z
#    x 1.620300 0.000000 0.016410 
#    y 0.000000 1.614500 0.000000 
#    z 0.016410 0.000000 1.609680 
# 
# From -- ./inp_files/374956.got.cif
#   From: 2010.05.17/outbox.cif.g08.bks.cpg/sg12_188_cif.got.tgz:374956.got - 2010.06.03 13:09:07.
