data_PCOD9191310
_publ_section_title
;
Structure prediction by ZEFSAII (Michael W. Deem and Ramdas Pophale) SiO2 
 PCOD9191310
Probable space group: C 2/M
;
_chemical_formula_sum "Si O2"
_cell_formula_units_Z 56
_cell_length_a 28.530937
_cell_length_b 13.819600
_cell_length_c 15.739660
_cell_angle_alpha 90.000000
_cell_angle_beta 34.379938
_cell_angle_gamma 90.000000
_cell_volume 3504.352347
_symmetry_space_group_name_H-M "C 2/M"
_symmetry_group_IT_number 12
_symmetry_cell_setting 'monoclinic'
loop_
_space_group_symop_operation_xyz
x,y,z
-x,y,-z
-x,-y,-z
x,-y,z
1/2+x,1/2+y,z
1/2-x,1/2+y,-z
1/2-x,1/2-y,-z
1/2+x,1/2-y,z
loop_
_atom_site_type_symbol
_atom_site_label
_atom_site_fract_x
_atom_site_fract_y
_atom_site_fract_z
Si Si1 0.629774 0.759938 0.671805
Si Si2 0.097565 0.390853 0.878391
Si Si3 0.190061 0.113702 0.870697
Si Si4 0.439897 0.773807 0.901226
Si Si5 0.870904 0.383065 0.658569
Si Si6 0.764518 0.113009 0.393598
Si Si7 0.533088 0.883092 0.314094
O O1 0.636810 0.823624 0.747613
O O2 0.534219 0.751731 0.789155
O O3 0.682461 0.820972 0.524774
O O4 0.672500 0.658644 0.631826
O O5 0.130710 0.500000 0.827673
O O6 0.100305 0.342546 0.966426
O O7 0.000000 0.395681 0.000000
O O8 0.278493 0.149548 0.775126
O O9 0.196903 0.121206 0.758100
O O10 0.180059 0.000000 0.906175
O O11 0.115320 0.177777 0.017116
O O12 0.444170 0.829133 0.805834
O O13 0.869287 0.500000 0.656597
O O14 0.904340 0.358951 0.702257
O O15 0.941557 0.354231 0.485166
O O16 0.745604 0.000000 0.436819
O O17 0.533723 0.000000 0.301185
#
# Coordination Sequence:
#
# PCOD9191310 Si02
#       7
#     8   8   8   8   8   8   8
#     4  10  20  33  48  70  96 128 170 205 239 288
#     4   9  17  29  44  65  96 127 155 194 240 283
#     4  10  20  33  49  71 100 132 164 201 243 288
#     4  11  20  30  47  74 101 129 162 196 245 300
#     4   8  16  32  52  75  99 123 158 202 244 290
#     4  10  20  34  52  70  94 131 170 207 242 281
#     4   9  17  31  53  77  99 124 157 200 248 293
#
# _framework density 15.980128000000001
#
# number of rings (size 3 to 8) (size 9 to 14) (size 15 to 20)
#    0.000    2.429    1.429    2.571    0.000    4.000 
#    0.000    1.429    0.000    0.000    0.000    2.000 
#    0.000    0.000    0.000    0.000    0.000    0.000 
#
# Total GULP energy -156055.040196 kJ/mol
# GULP energy per Si atom -5573.394293 kJ/mol
# Density = 1.594376 g / cm^3
# Si number density = 15.980128 Si / 1000 Ang^3
#
#
#
# Elastic Constant Matrix: (Units=GPa)
#
#
# Indices 1 2 3 4 5 6 
#
# 1 67.9575 47.9186 42.9697 0.0000 5.4899 0.0000
# 2 47.9186 67.7624 43.6844 0.0000 -8.5135 0.0000
# 3 42.9697 43.6844 80.3195 0.0000 3.2037 0.0000
# 4 0.0000 0.0000 0.0000 30.3231 0.0000 2.3184
# 5 5.4899 -8.5135 3.2037 0.0000 25.8849 0.0000
# 6 0.0000 0.0000 0.0000 2.3184 0.0000 16.9235
#
#
#
# Elastic Compliance Matrix: (Units=1/GPa)
#
#
# Indices 1 2 3 4 5 6 
#
# 1 0.036477 -0.023805 -0.005976 0.000000 -0.014826 0.000000
# 2 -0.023805 0.040586 -0.010122 0.000000 0.019650 0.000000
# 3 -0.005976 -0.010122 0.021340 0.000000 -0.004703 0.000000
# 4 0.000000 0.000000 0.000000 0.033327 0.000000 -0.004566
# 5 -0.014826 0.019650 -0.004703 0.000000 0.048822 0.000000
# 6 0.000000 0.000000 0.000000 -0.004566 0.000000 0.059715
#
#
# Mechanical properties :
#
#
# Convention : Reuss Voigt Hill
#
# Bulk Modulus (GPa) = 53.77469 53.90941 53.84205
# Shear Modulus (GPa) = 15.32459 20.05743 17.69101
#
# Velocity S-wave (km/s) = 3.10010 3.54665 3.33087
# Velocity P-wave (km/s) = 6.82189 7.11197 6.96844
#
# Compressibility (1/GPa) = 0.01859611
#
# Stress axis : x y z
#
# Youngs Moduli (GPa) = 27.41441 24.63920 46.85956
#
# Poissons Ratio (x) = 0.58654 0.28004
# Poissons Ratio (y) = 0.65260 0.47433
# Poissons Ratio (z) = 0.16383 0.24941
#
# Static dielectric constant tensor:
#      x y z
#    x 1.536130 0.000000 -0.005290 
#    y 0.000000 1.529910 0.000000 
#    z -0.005290 0.000000 1.535870 
# 
# From -- ./inp_files/240395.got.cif
#   From: 2010.05.17/outbox.cif.g08.bks.cpg/sg12_121_cif.got.tgz:240395.got - 2010.06.03 13:09:07.
