data_PCOD9191498
_publ_section_title
;
Structure prediction by ZEFSAII (Michael W. Deem and Ramdas Pophale) SiO2 
 PCOD9191498
Probable space group: C 2/M
;
_chemical_formula_sum "Si O2"
_cell_formula_units_Z 48
_cell_length_a 19.124856
_cell_length_b 7.538428
_cell_length_c 33.022513
_cell_angle_alpha 90.000000
_cell_angle_beta 150.936813
_cell_angle_gamma 90.000000
_cell_volume 2312.720974
_symmetry_space_group_name_H-M "C 2/M"
_symmetry_group_IT_number 12
_symmetry_cell_setting 'monoclinic'
loop_
_space_group_symop_operation_xyz
x,y,z
-x,y,-z
-x,-y,-z
x,-y,z
1/2+x,1/2+y,z
1/2-x,1/2+y,-z
1/2-x,1/2-y,-z
1/2+x,1/2-y,z
loop_
_atom_site_type_symbol
_atom_site_label
_atom_site_fract_x
_atom_site_fract_y
_atom_site_fract_z
Si Si1 0.671005 0.712470 0.917922
Si Si2 0.665950 0.782313 0.079975
Si Si3 0.584242 0.711729 0.423963
Si Si4 0.920818 0.295236 0.421293
Si Si5 0.653835 0.715257 0.235964
Si Si6 0.677974 0.709637 0.760461
O O1 0.662117 0.500000 0.909198
O O2 0.761245 0.777127 0.925012
O O3 0.506959 0.778816 0.836864
O O4 0.750000 0.750000 0.000000
O O5 0.757144 0.719952 0.165002
O O6 0.665534 0.000000 0.079904
O O7 0.500000 0.727262 0.000000
O O8 0.565089 0.500000 0.417306
O O9 0.750000 0.750000 0.500000
O O10 0.529018 0.790600 0.438170
O O11 0.474970 0.778445 0.333711
O O12 0.888241 0.500000 0.415628
O O13 0.771845 0.219208 0.328245
O O14 0.000000 0.212978 0.500000
O O15 0.655348 0.500000 0.237879
O O16 0.710440 0.765968 0.220075
O O17 0.658755 0.500000 0.757271
#
# Coordination Sequence:
#
# PCOD9191498 Si02
#       6
#     8   8   8   8   8   8
#     4  10  20  33  50  72  98 128 162 200 242 289
#     4   9  17  30  50  74  97 124 160 200 239 283
#     4  10  20  33  51  75 103 134 168 207 249 296
#     4   9  18  33  53  75 100 132 168 207 254 304
#     4   9  18  32  50  73 100 128 159 201 250 293
#     4   9  18  33  53  74  96 127 165 202 241 289
#
# _framework density 20.754773
#
# number of rings (size 3 to 8) (size 9 to 14) (size 15 to 20)
#    0.000    2.667    0.000    1.500    0.000    4.333 
#    0.000    5.833    0.000    5.000    0.000    0.000 
#    0.000    0.000    0.000    0.000    0.000    0.000 
#
# Total GULP energy -133942.908325 kJ/mol
# GULP energy per Si atom -5580.954514 kJ/mol
# Density = 2.070753 g / cm^3
# Si number density = 20.754773 Si / 1000 Ang^3
#
#
#
# Elastic Constant Matrix: (Units=GPa)
#
#
# Indices 1 2 3 4 5 6 
#
# 1 143.5689 -10.7794 143.7383 0.0000 -2.3932 0.0000
# 2 -10.7794 50.2364 -2.7944 -0.0004 -3.9427 0.0002
# 3 143.7383 -2.7944 219.4546 -0.0004 -7.2548 0.0005
# 4 0.0000 -0.0004 -0.0004 -0.5074 0.0001 -2.4600
# 5 -2.3932 -3.9427 -7.2548 0.0001 48.2861 0.0000
# 6 0.0000 0.0002 0.0005 -2.4600 0.0000 15.3472
#
#
#
# Elastic Compliance Matrix: (Units=1/GPa)
#
#
# Indices 1 2 3 4 5 6 
#
# 1 0.020933 0.003674 -0.013688 0.000003 -0.000719 0.000001
# 2 0.003674 0.020700 -0.002091 -0.000008 0.001558 -0.000002
# 3 -0.013688 -0.002091 0.013534 -0.000003 0.001184 -0.000001
# 4 0.000003 -0.000008 -0.000003 -1.108975 0.000001 -0.177759
# 5 -0.000719 0.001558 0.001184 0.000001 0.020979 0.000000
# 6 0.000001 -0.000002 -0.000001 -0.177759 0.000000 0.036665
#
#
# Mechanical properties :
#
#
# Convention : Reuss Voigt Hill
#
# Bulk Modulus (GPa) = 32.30235 74.84320 53.57277
# Shear Modulus (GPa) = -5.19948 31.49820 13.14936
#
# Velocity S-wave (km/s) = -1.58450 3.89991 2.51979
# Velocity P-wave (km/s) = 3.50001 7.51120 5.85953
#
# Compressibility (1/GPa) = 0.03095750
#
# Stress axis : x y z
#
# Youngs Moduli (GPa) = 47.77157 48.30884 73.88578
#
# Poissons Ratio (x) = -0.17748 1.01132
# Poissons Ratio (y) = -0.17551 0.15451
# Poissons Ratio (z) = 0.65388 0.10102
#
# Static dielectric constant tensor:
#      x y z
#    x 1.684490 0.000000 -0.006900 
#    y 0.000000 1.808690 0.000000 
#    z -0.006900 0.000000 1.749550 
# 
# From -- ./inp_files/274092.got.cif
#   From: 2010.05.17/outbox.cif.g08.bks.cpg/sg12_138_cif.got.tgz:274092.got - 2010.06.03 13:09:07.
