data_PCOD9191340
_publ_section_title
;
Structure prediction by ZEFSAII (Michael W. Deem and Ramdas Pophale) SiO2 
 PCOD9191340
Probable space group: C 2/M
;
_chemical_formula_sum "Si O2"
_cell_formula_units_Z 56
_cell_length_a 28.467797
_cell_length_b 8.914132
_cell_length_c 14.140251
_cell_angle_alpha 90.000000
_cell_angle_beta 97.725184
_cell_angle_gamma 90.000000
_cell_volume 3555.743946
_symmetry_space_group_name_H-M "C 2/M"
_symmetry_group_IT_number 12
_symmetry_cell_setting 'monoclinic'
loop_
_space_group_symop_operation_xyz
x,y,z
-x,y,-z
-x,-y,-z
x,-y,z
1/2+x,1/2+y,z
1/2-x,1/2+y,-z
1/2-x,1/2-y,-z
1/2+x,1/2-y,z
loop_
_atom_site_type_symbol
_atom_site_label
_atom_site_fract_x
_atom_site_fract_y
_atom_site_fract_z
Si Si1 0.956951 0.820782 0.916125
Si Si2 0.264752 0.679789 0.903399
Si Si3 0.360303 0.820569 0.966063
Si Si4 0.514179 0.819152 0.275370
Si Si5 0.162871 0.321294 0.819476
Si Si6 0.582854 0.322538 0.673282
Si Si7 0.945099 0.672089 0.519571
O O1 0.908985 0.750636 0.944348
O O2 0.969441 0.747861 0.819055
O O3 0.952045 0.000000 0.905288
O O4 0.000000 0.790522 0.000000
O O5 0.268796 0.500000 0.912790
O O6 0.315663 0.751646 0.897242
O O7 0.219031 0.712046 0.825979
O O8 0.250000 0.750000 0.000000
O O9 0.360766 0.000000 0.955746
O O10 0.352374 0.787800 0.075879
O O11 0.462508 0.756181 0.289514
O O12 0.550386 0.778607 0.370484
O O13 0.511596 0.000000 0.271400
O O14 0.156253 0.500000 0.804074
O O15 0.129644 0.232360 0.739453
O O16 0.577291 0.500000 0.679005
O O17 0.582228 0.271825 0.563537
O O18 0.928123 0.500000 0.510116
O O19 0.000000 0.671410 0.500000
#
# Coordination Sequence:
#
# PCOD9191340 Si02
#       7
#     8   8   8   8   8   8   8
#     4  11  23  35  48  69  96 126 160 196 230 267
#     4   9  17  30  48  68  91 121 156 194 235 277
#     4  10  20  33  49  68  93 127 161 193 231 276
#     4  10  20  34  50  66  90 126 162 194 230 275
#     4   9  18  31  47  68  95 126 156 189 232 278
#     4  11  20  28  45  72  98 123 152 192 237 277
#     4   8  16  31  48  65  88 120 155 190 231 279
#
# _framework density 15.749165
#
# number of rings (size 3 to 8) (size 9 to 14) (size 15 to 20)
#    0.000    2.286    0.000    5.571    0.000   10.000 
#    0.000    0.000    0.000    0.000    0.000    1.000 
#    0.000    0.000    0.000    0.000    0.000    0.000 
#
# Total GULP energy -156109.988537 kJ/mol
# GULP energy per Si atom -5575.356733 kJ/mol
# Density = 1.571332 g / cm^3
# Si number density = 15.749165 Si / 1000 Ang^3
#
#
#
# Elastic Constant Matrix: (Units=GPa)
#
#
# Indices 1 2 3 4 5 6 
#
# 1 106.8528 58.3163 59.6683 0.0000 19.9343 0.0000
# 2 58.3163 83.3138 68.4080 0.0000 16.4157 0.0000
# 3 59.6683 68.4080 116.9931 0.0000 13.3134 0.0000
# 4 0.0000 0.0000 0.0000 20.9955 0.0000 2.1022
# 5 19.9343 16.4157 13.3134 0.0000 22.7534 0.0000
# 6 0.0000 0.0000 0.0000 2.1022 0.0000 26.2205
#
#
#
# Elastic Compliance Matrix: (Units=1/GPa)
#
#
# Indices 1 2 3 4 5 6 
#
# 1 0.016647 -0.007563 -0.003245 0.000000 -0.007229 0.000000
# 2 -0.007563 0.028558 -0.012053 0.000000 -0.006925 0.000000
# 3 -0.003245 -0.012053 0.017074 0.000000 0.001549 0.000000
# 4 0.000000 0.000000 0.000000 0.048015 0.000000 -0.003850
# 5 -0.007229 -0.006925 0.001549 0.000000 0.054373 0.000000
# 6 0.000000 0.000000 0.000000 -0.003850 0.000000 0.038447
#
#
# Mechanical properties :
#
#
# Convention : Reuss Voigt Hill
#
# Bulk Modulus (GPa) = 60.40087 75.54945 67.97516
# Shear Modulus (GPa) = 19.65758 22.04501 20.85130
#
# Velocity S-wave (km/s) = 3.53677 3.74539 3.64258
# Velocity P-wave (km/s) = 7.42384 8.17181 7.80679
#
# Compressibility (1/GPa) = 0.01655605
#
# Stress axis : x y z
#
# Youngs Moduli (GPa) = 60.06939 35.01692 58.56898
#
# Poissons Ratio (x) = 0.26485 0.19007
# Poissons Ratio (y) = 0.45433 0.70591
# Poissons Ratio (z) = 0.19494 0.42205
#
# Static dielectric constant tensor:
#      x y z
#    x 1.548330 0.000000 0.001130 
#    y 0.000000 1.521260 0.000000 
#    z 0.001130 0.000000 1.538100 
# 
# From -- ./inp_files/243259.got.cif
#   From: 2010.05.17/outbox.cif.g08.bks.cpg/sg12_122_cif.got.tgz:243259.got - 2010.06.03 13:09:07.
