data_PCOD9191794
_publ_section_title
;
Structure prediction by ZEFSAII (Michael W. Deem and Ramdas Pophale) SiO2 
 PCOD9191794
Probable space group: C 2/M
;
_chemical_formula_sum "Si O2"
_cell_formula_units_Z 64
_cell_length_a 19.127017
_cell_length_b 8.891907
_cell_length_c 25.837814
_cell_angle_alpha 90.000000
_cell_angle_beta 124.433784
_cell_angle_gamma 90.000000
_cell_volume 3624.400350
_symmetry_space_group_name_H-M "C 2/M"
_symmetry_group_IT_number 12
_symmetry_cell_setting 'monoclinic'
loop_
_space_group_symop_operation_xyz
x,y,z
-x,y,-z
-x,-y,-z
x,-y,z
1/2+x,1/2+y,z
1/2-x,1/2+y,-z
1/2-x,1/2-y,-z
1/2+x,1/2-y,z
loop_
_atom_site_type_symbol
_atom_site_label
_atom_site_fract_x
_atom_site_fract_y
_atom_site_fract_z
Si Si1 0.116532 0.826775 0.931920
Si Si2 0.975395 0.677349 0.198754
Si Si3 0.803096 0.322300 0.192089
Si Si4 0.352166 0.320405 0.690895
Si Si5 0.253368 0.180438 0.558068
Si Si6 0.589136 0.681602 0.558137
Si Si7 0.203499 0.181207 0.697929
Si Si8 0.707875 0.826660 0.060875
O O1 0.051340 0.735083 0.869262
O O2 0.205263 0.824936 0.936858
O O3 0.090420 0.000000 0.926266
O O4 0.138056 0.753415 0.996026
O O5 0.994478 0.500000 0.205438
O O6 0.893257 0.700129 0.200975
O O7 0.054757 0.768121 0.253678
O O8 0.790850 0.500000 0.194291
O O9 0.802773 0.239107 0.246584
O O10 0.731815 0.257882 0.123540
O O11 0.345443 0.500000 0.687255
O O12 0.325932 0.252606 0.624274
O O13 0.284970 0.251083 0.703418
O O14 0.250000 0.250000 0.500000
O O15 0.165053 0.215645 0.550355
O O16 0.263076 0.000000 0.560462
O O17 0.500000 0.742121 0.500000
O O18 0.582105 0.500000 0.557239
O O19 0.622508 0.728080 0.628737
O O20 0.209883 0.000000 0.699200
O O21 0.686046 0.000000 0.061428
#
# Coordination Sequence:
#
# PCOD9191794 Si02
#       8
#     8   8   8   8   8   8   8   8
#     4   9  16  27  45  71 102 135 172 213 260 311
#     4  10  20  34  52  77 108 138 174 221 267 310
#     4  10  20  33  51  77 107 137 173 219 265 310
#     4  11  22  37  56  76 103 141 181 218 261 313
#     4  10  20  35  55  79 106 136 171 213 261 311
#     4   8  16  32  53  76 100 129 167 208 250 300
#     4  10  20  35  55  77 105 140 175 213 260 315
#     4   9  16  27  45  70 101 136 172 212 260 309
#
# _framework density 17.658093999999998
#
# number of rings (size 3 to 8) (size 9 to 14) (size 15 to 20)
#    0.000    2.375    0.000    4.125    0.000    5.500 
#    0.000    1.250    0.000   13.500    0.000    5.250 
#    0.000    0.000    0.000    0.000    0.000    0.000 
#
# Total GULP energy -178509.765425 kJ/mol
# GULP energy per Si atom -5578.430170 kJ/mol
# Density = 1.761790 g / cm^3
# Si number density = 17.658094 Si / 1000 Ang^3
#
#
#
# Elastic Constant Matrix: (Units=GPa)
#
#
# Indices 1 2 3 4 5 6 
#
# 1 22.8268 39.2965 55.3976 0.0000 -5.9962 0.0000
# 2 39.2965 120.4045 81.3689 0.0000 -6.0968 0.0000
# 3 55.3976 81.3689 187.2914 0.0000 -13.8926 0.0000
# 4 0.0000 0.0000 0.0000 34.4291 0.0000 -4.5065
# 5 -5.9962 -6.0968 -13.8926 0.0000 19.6809 0.0000
# 6 0.0000 0.0000 0.0000 -4.5065 0.0000 21.2748
#
#
#
# Elastic Compliance Matrix: (Units=1/GPa)
#
#
# Indices 1 2 3 4 5 6 
#
# 1 0.283636 -0.050765 -0.059723 0.000000 0.028532 0.000000
# 2 -0.050765 0.020843 0.005584 0.000000 -0.005068 0.000000
# 3 -0.059723 0.005584 0.020427 0.000000 -0.002047 0.000000
# 4 0.000000 0.000000 0.000000 0.029873 0.000000 0.006328
# 5 0.028532 -0.005068 -0.002047 0.000000 0.056488 0.000000
# 6 0.000000 0.000000 0.000000 0.006328 0.000000 0.048344
#
#
# Mechanical properties :
#
#
# Convention : Reuss Voigt Hill
#
# Bulk Modulus (GPa) = 8.68831 75.84986 42.26909
# Shear Modulus (GPa) = 7.06429 25.37428 16.21929
#
# Velocity S-wave (km/s) = 2.00232 3.79486 3.03399
# Velocity P-wave (km/s) = 3.20573 7.88982 6.02188
#
# Compressibility (1/GPa) = 0.11509724
#
# Stress axis : x y z
#
# Youngs Moduli (GPa) = 3.52565 47.97747 48.95592
#
# Poissons Ratio (x) = 2.43556 2.92381
# Poissons Ratio (y) = 0.17898 -0.27337
# Poissons Ratio (z) = 0.21056 -0.26791
#
# Static dielectric constant tensor:
#      x y z
#    x 1.585970 0.000000 0.008060 
#    y 0.000000 1.588740 0.000000 
#    z 0.008060 0.000000 1.597110 
# 
# From -- ./inp_files/346159.got.cif
#   From: 2010.05.17/outbox.cif.g08.bks.cpg/sg12_174_cif.got.tgz:346159.got - 2010.06.03 13:09:07.
