data_PCOD9191242
_publ_section_title
;
Structure prediction by ZEFSAII (Michael W. Deem and Ramdas Pophale) SiO2 
 PCOD9191242
Probable space group: C 2/M
;
_chemical_formula_sum "Si O2"
_cell_formula_units_Z 48
_cell_length_a 28.320226
_cell_length_b 7.389174
_cell_length_c 21.934997
_cell_angle_alpha 90.000000
_cell_angle_beta 154.125151
_cell_angle_gamma 90.000000
_cell_volume 2003.188257
_symmetry_space_group_name_H-M "C 2/M"
_symmetry_group_IT_number 12
_symmetry_cell_setting 'monoclinic'
loop_
_space_group_symop_operation_xyz
x,y,z
-x,y,-z
-x,-y,-z
x,-y,z
1/2+x,1/2+y,z
1/2-x,1/2+y,-z
1/2-x,1/2-y,-z
1/2+x,1/2-y,z
loop_
_atom_site_type_symbol
_atom_site_label
_atom_site_fract_x
_atom_site_fract_y
_atom_site_fract_z
Si Si1 0.835927 0.721171 0.338738
Si Si2 0.063130 0.280427 0.664795
Si Si3 0.522133 0.778471 0.311492
Si Si4 0.893219 0.204760 0.903644
Si Si5 0.996690 0.708214 0.143542
Si Si6 0.760872 0.213501 0.584838
O O1 0.830799 0.500000 0.333724
O O2 0.850003 0.778895 0.284517
O O3 0.725353 0.786078 0.240725
O O4 0.946036 0.769760 0.500852
O O5 0.067307 0.500000 0.670050
O O6 0.061162 0.222087 0.732741
O O7 0.498720 0.718887 0.215158
O O8 0.644162 0.721497 0.472596
O O9 0.524970 0.000000 0.312694
O O10 0.888658 0.000000 0.873065
O O11 0.000000 0.294351 0.000000
O O12 0.918949 0.196943 0.005492
O O13 0.963295 0.500000 0.107549
O O14 0.120486 0.714367 0.262038
O O15 0.750000 0.250000 0.500000
O O16 0.765336 0.000000 0.601437
#
# Coordination Sequence:
#
# PCOD9191242 Si02
#       6
#     8   8   8   8   8   8
#     4   8  15  27  45  72  99 122 156 203 247 286
#     4   8  13  25  47  72  97 121 154 203 247 285
#     4   8  15  26  45  70  96 126 159 197 243 288
#     4  10  21  34  50  72  98 129 163 201 248 300
#     4  10  20  33  46  68 100 134 168 200 242 295
#     4   9  16  27  45  70 100 132 162 199 243 286
#
# _framework density 23.961803
#
# number of rings (size 3 to 8) (size 9 to 14) (size 15 to 20)
#    0.000    3.167    0.000    3.000    2.333    0.333 
#    0.000    0.833    0.000    0.000    0.000    8.167 
#    0.000    0.000    0.000    0.000    0.000    0.000 
#
# Total GULP energy -133907.483723 kJ/mol
# GULP energy per Si atom -5579.478488 kJ/mol
# Density = 2.390727 g / cm^3
# Si number density = 23.961803 Si / 1000 Ang^3
#
#
#
# Elastic Constant Matrix: (Units=GPa)
#
#
# Indices 1 2 3 4 5 6 
#
# 1 132.1336 -0.4793 10.3523 0.0000 10.7777 0.0000
# 2 -0.4793 87.1505 -0.2112 0.0000 -1.8317 0.0000
# 3 10.3523 -0.2112 61.4971 0.0000 1.6709 0.0000
# 4 0.0000 0.0000 0.0000 5.0511 0.0000 -3.4964
# 5 10.7777 -1.8317 1.6709 0.0000 42.4411 0.0000
# 6 0.0000 0.0000 0.0000 -3.4964 0.0000 0.5210
#
#
#
# Elastic Compliance Matrix: (Units=1/GPa)
#
#
# Indices 1 2 3 4 5 6 
#
# 1 0.007825 -0.000001 -0.001265 0.000000 -0.001937 0.000000
# 2 -0.000001 0.011485 0.000026 0.000000 0.000495 0.000000
# 3 -0.001265 0.000026 0.016483 0.000000 -0.000327 0.000000
# 4 0.000000 0.000000 0.000000 -0.054316 0.000000 -0.364476
# 5 -0.001937 0.000495 -0.000327 0.000000 0.024088 0.000000
# 6 0.000000 0.000000 0.000000 -0.364476 0.000000 -0.526541
#
#
# Mechanical properties :
#
#
# Convention : Reuss Voigt Hill
#
# Bulk Modulus (GPa) = 30.01713 33.34498 31.68106
# Shear Modulus (GPa) = -9.85431 27.67727 8.91148
#
# Velocity S-wave (km/s) = -2.03013 3.40230 1.93057
# Velocity P-wave (km/s) = 2.65688 5.42036 4.26845
#
# Compressibility (1/GPa) = 0.03331431
#
# Stress axis : x y z
#
# Youngs Moduli (GPa) = 127.79218 87.07118 60.66933
#
# Poissons Ratio (x) = 0.00007 0.07672
# Poissons Ratio (y) = 0.00010 -0.00158
# Poissons Ratio (z) = 0.16161 -0.00227
#
# Static dielectric constant tensor:
#      x y z
#    x 1.960820 0.000000 -0.005350 
#    y 0.000000 1.936170 0.000000 
#    z -0.005350 0.000000 1.884010 
# 
# From -- ./inp_files/327350.got.cif
#   From: 2010.05.17/outbox.cif.g08.bks.cpg/sg12_164_cif.got.tgz:327350.got - 2010.06.03 13:09:07.
