data_PCOD9191159
_publ_section_title
;
Structure prediction by ZEFSAII (Michael W. Deem and Ramdas Pophale) SiO2 
 PCOD9191159
Probable space group: C 2/M
;
_chemical_formula_sum "Si O2"
_cell_formula_units_Z 64
_cell_length_a 8.976713
_cell_length_b 22.322096
_cell_length_c 21.768839
_cell_angle_alpha 90.000000
_cell_angle_beta 56.568019
_cell_angle_gamma 90.000000
_cell_volume 3640.281604
_symmetry_space_group_name_H-M "C 2/M"
_symmetry_group_IT_number 12
_symmetry_cell_setting 'monoclinic'
loop_
_space_group_symop_operation_xyz
x,y,z
-x,y,-z
-x,-y,-z
x,-y,z
1/2+x,1/2+y,z
1/2-x,1/2+y,-z
1/2-x,1/2-y,-z
1/2+x,1/2-y,z
loop_
_atom_site_type_symbol
_atom_site_label
_atom_site_fract_x
_atom_site_fract_y
_atom_site_fract_z
Si Si1 0.818236 0.431569 0.824866
Si Si2 0.331195 0.769118 0.578736
Si Si3 0.630222 0.153560 0.750585
Si Si4 0.440682 0.735062 0.831115
Si Si5 0.824017 0.568011 0.675043
Si Si6 0.447440 0.820540 0.371765
Si Si7 0.973837 0.151523 0.306551
Si Si8 0.406819 0.319064 0.086707
O O1 0.798614 0.500000 0.849877
O O2 0.806902 0.430952 0.753012
O O3 0.675975 0.384873 0.883724
O O4 0.010917 0.402933 0.796962
O O5 0.500000 0.787395 0.500000
O O6 0.407939 0.775304 0.630824
O O7 0.248876 0.706966 0.572461
O O8 0.163067 0.813218 0.618148
O O9 0.587798 0.211802 0.800318
O O10 0.555137 0.174295 0.701115
O O11 0.838015 0.138520 0.704429
O O12 0.483420 0.693365 0.762554
O O13 0.460227 0.696012 0.887832
O O14 0.256343 0.771703 0.871640
O O15 0.858124 0.500000 0.647889
O O16 0.640880 0.594766 0.689789
O O17 0.983334 0.614625 0.621842
O O18 0.500000 0.314410 0.000000
#
# Coordination Sequence:
#
# PCOD9191159 Si02
#       8
#     8   8   8   8   8   8   8   8
#     4   9  19  35  54  78 108 142 182 225 271 318
#     4  11  22  33  51  85 121 144 177 221 279 338
#     4  10  20  32  55  82 106 142 180 232 267 317
#     4  11  20  34  53  80 109 138 179 219 269 326
#     4   9  19  35  55  79 103 139 189 232 266 317
#     4  10  20  33  53  78 113 144 177 221 275 322
#     4  11  20  33  58  79 109 145 180 225 274 324
#     4  11  22  35  54  80 112 144 176 222 274 328
#
# _framework density 17.581057999999999
#
# number of rings (size 3 to 8) (size 9 to 14) (size 15 to 20)
#    0.000    1.750    3.750    1.500    3.500    0.750 
#    0.000    0.000    0.000    6.375    0.000    6.125 
#    0.000    0.000    0.000    0.000    0.000    0.000 
#
# Total GULP energy -178244.397597 kJ/mol
# GULP energy per Si atom -5570.137425 kJ/mol
# Density = 1.754104 g / cm^3
# Si number density = 17.581058 Si / 1000 Ang^3
#
#
#
# Elastic Constant Matrix: (Units=GPa)
#
#
# Indices 1 2 3 4 5 6 
#
# 1 90.0281 56.0102 10.8925 0.0000 -12.3555 0.0000
# 2 56.0102 113.4383 26.7857 0.0000 -7.7362 0.0000
# 3 10.8925 26.7857 51.8013 0.0000 -7.2229 0.0000
# 4 0.0000 0.0000 0.0000 13.6678 0.0000 -1.1165
# 5 -12.3555 -7.7362 -7.2229 0.0000 14.5669 0.0000
# 6 0.0000 0.0000 0.0000 -1.1165 0.0000 18.4753
#
#
#
# Elastic Compliance Matrix: (Units=1/GPa)
#
#
# Indices 1 2 3 4 5 6 
#
# 1 0.017713 -0.008492 0.002291 0.000000 0.011650 0.000000
# 2 -0.008492 0.014233 -0.005935 0.000000 -0.002587 0.000000
# 3 0.002291 -0.005935 0.023337 0.000000 0.010363 0.000000
# 4 0.000000 0.000000 0.000000 0.073527 0.000000 0.004443
# 5 0.011650 -0.002587 0.010363 0.000000 0.082295 0.000000
# 6 0.000000 0.000000 0.000000 0.004443 0.000000 0.054395
#
#
# Mechanical properties :
#
#
# Convention : Reuss Voigt Hill
#
# Bulk Modulus (GPa) = 32.24708 49.18271 40.71490
# Shear Modulus (GPa) = 16.66069 20.11397 18.38733
#
# Velocity S-wave (km/s) = 3.08173 3.38608 3.23748
# Velocity P-wave (km/s) = 5.57176 6.58202 6.09785
#
# Compressibility (1/GPa) = 0.03101056
#
# Stress axis : x y z
#
# Youngs Moduli (GPa) = 56.45729 70.25795 42.85128
#
# Poissons Ratio (x) = 0.59663 -0.09817
# Poissons Ratio (y) = 0.47944 0.25431
# Poissons Ratio (z) = -0.12934 0.41697
#
# Static dielectric constant tensor:
#      x y z
#    x 1.631710 0.000000 0.013480 
#    y 0.000000 1.614810 0.000000 
#    z 0.013480 0.000000 1.609110 
# 
# From -- ./inp_files/333720.got.cif
#   From: 2010.05.17/outbox.cif.g08.bks.cpg/sg12_167_cif.got.tgz:333720.got - 2010.06.03 13:09:07.
