data_PCOD9191930
_publ_section_title
;
Structure prediction by ZEFSAII (Michael W. Deem and Ramdas Pophale) SiO2 
 PCOD9191930
Probable space group: C 2/M
;
_chemical_formula_sum "Si O2"
_cell_formula_units_Z 64
_cell_length_a 16.150774
_cell_length_b 9.471440
_cell_length_c 18.885836
_cell_angle_alpha 90.000000
_cell_angle_beta 90.833574
_cell_angle_gamma 90.000000
_cell_volume 2888.681121
_symmetry_space_group_name_H-M "C 2/M"
_symmetry_group_IT_number 12
_symmetry_cell_setting 'monoclinic'
loop_
_space_group_symop_operation_xyz
x,y,z
-x,y,-z
-x,-y,-z
x,-y,z
1/2+x,1/2+y,z
1/2-x,1/2+y,-z
1/2-x,1/2-y,-z
1/2+x,1/2-y,z
loop_
_atom_site_type_symbol
_atom_site_label
_atom_site_fract_x
_atom_site_fract_y
_atom_site_fract_z
Si Si1 0.622311 0.662042 0.014909
Si Si2 0.534466 0.332857 0.640757
Si Si3 0.226683 0.662179 0.398538
Si Si4 0.893380 0.333583 0.723344
Si Si5 0.705948 0.838315 0.895854
Si Si6 0.627064 0.162888 0.534638
Si Si7 0.139458 0.839221 0.777207
Si Si8 0.040760 0.164181 0.151555
O O1 0.612145 0.500000 0.989766
O O2 0.703832 0.667194 0.066867
O O3 0.549348 0.698351 0.068819
O O4 0.644917 0.761055 0.950287
O O5 0.518517 0.500000 0.635923
O O6 0.459666 0.252154 0.677212
O O7 0.557750 0.262783 0.566889
O O8 0.612285 0.313089 0.696019
O O9 0.259629 0.500000 0.407005
O O10 0.193055 0.681110 0.319140
O O11 0.289606 0.779676 0.426407
O O12 0.148755 0.670651 0.451972
O O13 0.913134 0.500000 0.725401
O O14 0.902595 0.265685 0.800433
O O15 0.699567 0.763035 0.820167
O O16 0.681544 0.000000 0.887496
O O17 0.609507 0.000000 0.551954
O O18 0.051394 0.827688 0.818051
O O19 0.169296 0.000000 0.783608
O O20 0.067085 0.000000 0.159999
#
# Coordination Sequence:
#
# PCOD9191930 Si02
#       8
#     8   8   8   8   8   8   8   8
#     4   9  19  36  54  72 100 136 170 206 251 304
#     4  10  21  37  55  77 107 140 176 216 260 313
#     4   9  20  37  54  77 109 141 174 215 265 316
#     4  10  20  35  55  78 106 138 173 216 264 312
#     4  10  20  33  52  78 104 130 166 212 254 299
#     4  10  20  35  56  79 105 139 178 219 261 309
#     4   9  19  35  53  72  99 135 168 205 254 306
#     4   9  19  36  55  75 100 134 176 214 252 303
#
# _framework density 22.155441
#
# number of rings (size 3 to 8) (size 9 to 14) (size 15 to 20)
#    0.000    2.500    0.000    2.250    0.000    7.000 
#    0.000    7.500    0.000    0.000    0.000    0.000 
#    0.000    0.000    0.000    0.000    0.000    0.000 
#
# Total GULP energy -178862.411822 kJ/mol
# GULP energy per Si atom -5589.450369 kJ/mol
# Density = 2.210501 g / cm^3
# Si number density = 22.155441 Si / 1000 Ang^3
#
#
#
# Elastic Constant Matrix: (Units=GPa)
#
#
# Indices 1 2 3 4 5 6 
#
# 1 39.7878 22.8625 11.1127 0.0000 -3.0529 0.0000
# 2 22.8625 104.1350 61.1481 0.0000 13.7908 0.0000
# 3 11.1127 61.1481 108.3426 0.0000 1.2336 0.0000
# 4 0.0000 0.0000 0.0000 36.6927 0.0000 -4.0070
# 5 -3.0529 13.7908 1.2336 0.0000 41.7478 0.0000
# 6 0.0000 0.0000 0.0000 -4.0070 0.0000 21.0055
#
#
#
# Elastic Compliance Matrix: (Units=1/GPa)
#
#
# Indices 1 2 3 4 5 6 
#
# 1 0.029688 -0.007970 0.001399 0.000000 0.004762 0.000000
# 2 -0.007970 0.017403 -0.008936 0.000000 -0.006068 0.000000
# 3 0.001399 -0.008936 0.014100 0.000000 0.002638 0.000000
# 4 0.000000 0.000000 0.000000 0.027833 0.000000 0.005310
# 5 0.004762 -0.006068 0.002638 0.000000 0.026228 0.000000
# 6 0.000000 0.000000 0.000000 0.005310 0.000000 0.048619
#
#
# Mechanical properties :
#
#
# Convention : Reuss Voigt Hill
#
# Bulk Modulus (GPa) = 33.13770 49.16801 41.15285
# Shear Modulus (GPa) = 24.39686 30.36535 27.38110
#
# Velocity S-wave (km/s) = 3.32199 3.70612 3.51930
# Velocity P-wave (km/s) = 5.45009 6.36822 5.92696
#
# Compressibility (1/GPa) = 0.03017711
#
# Stress axis : x y z
#
# Youngs Moduli (GPa) = 33.68401 57.46001 70.92294
#
# Poissons Ratio (x) = 0.45796 -0.09922
# Poissons Ratio (y) = 0.26846 0.63376
# Poissons Ratio (z) = -0.04712 0.51345
#
# Static dielectric constant tensor:
#      x y z
#    x 1.899080 0.000000 -0.013170 
#    y 0.000000 1.737300 0.000000 
#    z -0.013170 0.000000 1.813440 
# 
# From -- ./inp_files/314193.got.cif
#   From: 2010.05.17/outbox.cif.g08.bks.cpg/sg12_158_cif.got.tgz:314193.got - 2010.06.03 13:09:07.
