data_PCOD9191634
_publ_section_title
;
Structure prediction by ZEFSAII (Michael W. Deem and Ramdas Pophale) SiO2 
 PCOD9191634
Probable space group: C 2/M
;
_chemical_formula_sum "Si O2"
_cell_formula_units_Z 56
_cell_length_a 18.388710
_cell_length_b 21.056235
_cell_length_c 14.957043
_cell_angle_alpha 90.000000
_cell_angle_beta 148.270388
_cell_angle_gamma 90.000000
_cell_volume 3045.721786
_symmetry_space_group_name_H-M "C 2/M"
_symmetry_group_IT_number 12
_symmetry_cell_setting 'monoclinic'
loop_
_space_group_symop_operation_xyz
x,y,z
-x,y,-z
-x,-y,-z
x,-y,z
1/2+x,1/2+y,z
1/2-x,1/2+y,-z
1/2-x,1/2-y,-z
1/2+x,1/2-y,z
loop_
_atom_site_type_symbol
_atom_site_label
_atom_site_fract_x
_atom_site_fract_y
_atom_site_fract_z
Si Si1 0.653148 0.071504 0.697055
Si Si2 0.567743 0.428524 0.298664
Si Si3 0.364595 0.353222 0.802503
Si Si4 0.346784 0.788420 0.832475
Si Si5 0.755293 0.572198 0.014559
Si Si6 0.432449 0.646960 0.523840
Si Si7 0.287152 0.296572 0.120311
O O1 0.500000 0.070714 0.500000
O O2 0.738822 0.121426 0.729817
O O3 0.652642 0.084972 0.802171
O O4 0.713515 0.000000 0.749716
O O5 0.618048 0.500000 0.338420
O O6 0.633252 0.383244 0.293239
O O7 0.585710 0.405634 0.419009
O O8 0.401879 0.427105 0.112847
O O9 0.365434 0.277387 0.799545
O O10 0.500000 0.373366 0.000000
O O11 0.218960 0.825785 0.655434
O O12 0.293499 0.773497 0.876714
O O13 0.500000 0.818859 0.000000
O O14 0.780950 0.500000 0.007162
O O15 0.761482 0.631174 0.953478
O O16 0.500000 0.625199 0.500000
O O17 0.548646 0.696089 0.685081
O O18 0.250000 0.250000 0.000000
#
# Coordination Sequence:
#
# PCOD9191634 Si02
#       7
#     8   8   8   8   8   8   8
#     4  10  20  33  50  78 117 152 185 228 284 348
#     4  10  20  35  61  89 111 146 193 237 286 343
#     4  11  21  34  57  83 118 152 188 229 286 348
#     4  10  23  39  56  83 118 151 190 242 292 338
#     4   9  18  34  56  82 111 147 195 242 285 339
#     4   9  21  41  60  84 114 148 195 241 286 339
#     4  10  20  36  62  85 113 151 199 239 287 347
#
# _framework density 18.386445999999999
#
# number of rings (size 3 to 8) (size 9 to 14) (size 15 to 20)
#    0.000    2.143    1.429    1.286    6.000    4.286 
#    2.571    2.143    0.000    0.857    0.000    0.000 
#    0.000    0.000    0.000    0.000    0.000    0.000 
#
# Total GULP energy -156074.727219 kJ/mol
# GULP energy per Si atom -5574.097401 kJ/mol
# Density = 1.834460 g / cm^3
# Si number density = 18.386446 Si / 1000 Ang^3
#
#
#
# Elastic Constant Matrix: (Units=GPa)
#
#
# Indices 1 2 3 4 5 6 
#
# 1 58.8448 38.3584 28.0763 0.0000 -13.3266 0.0000
# 2 38.3584 70.4727 25.6135 0.0000 -9.3328 0.0000
# 3 28.0763 25.6135 113.6712 0.0000 -6.3396 0.0000
# 4 0.0000 0.0000 0.0000 53.7768 0.0000 -12.2084
# 5 -13.3266 -9.3328 -6.3396 0.0000 28.9479 0.0000
# 6 0.0000 0.0000 0.0000 -12.2084 0.0000 33.2575
#
#
#
# Elastic Compliance Matrix: (Units=1/GPa)
#
#
# Indices 1 2 3 4 5 6 
#
# 1 0.029566 -0.013611 -0.003767 0.000000 0.008398 0.000000
# 2 -0.013611 0.022262 -0.001623 0.000000 0.000556 0.000000
# 3 -0.003767 -0.001623 0.010091 0.000000 -0.000048 0.000000
# 4 0.000000 0.000000 0.000000 0.020286 0.000000 0.007447
# 5 0.008398 0.000556 -0.000048 0.000000 0.038580 0.000000
# 6 0.000000 0.000000 0.000000 0.007447 0.000000 0.032802
#
#
# Mechanical properties :
#
#
# Convention : Reuss Voigt Hill
#
# Bulk Modulus (GPa) = 41.81487 47.45390 44.63438
# Shear Modulus (GPa) = 25.05488 33.25915 29.15701
#
# Velocity S-wave (km/s) = 3.69546 4.25772 3.98652
# Velocity P-wave (km/s) = 6.40313 7.07362 6.74671
#
# Compressibility (1/GPa) = 0.02391494
#
# Stress axis : x y z
#
# Youngs Moduli (GPa) = 33.82289 44.91928 99.09894
#
# Poissons Ratio (x) = 0.61141 0.37333
# Poissons Ratio (y) = 0.46037 0.16088
# Poissons Ratio (z) = 0.12742 0.07292
#
# Static dielectric constant tensor:
#      x y z
#    x 1.614380 0.000000 -0.010500 
#    y 0.000000 1.655930 0.000000 
#    z -0.010500 0.000000 1.653900 
# 
# From -- ./inp_files/77613.got.cif
#   From: 2010.05.17/outbox.cif.g08.bks.cpg/sg12_39_cif.got.tgz:77613.got - 2010.06.03 13:09:07.
