data_PCOD9191026
_publ_section_title
;
Structure prediction by ZEFSAII (Michael W. Deem and Ramdas Pophale) SiO2 
 PCOD9191026
Probable space group: C 2/M
;
_chemical_formula_sum "Si O2"
_cell_formula_units_Z 64
_cell_length_a 16.138360
_cell_length_b 18.041556
_cell_length_c 18.646223
_cell_angle_alpha 90.000000
_cell_angle_beta 40.647042
_cell_angle_gamma 90.000000
_cell_volume 3536.472429
_symmetry_space_group_name_H-M "C 2/M"
_symmetry_group_IT_number 12
_symmetry_cell_setting 'monoclinic'
loop_
_space_group_symop_operation_xyz
x,y,z
-x,y,-z
-x,-y,-z
x,-y,z
1/2+x,1/2+y,z
1/2-x,1/2+y,-z
1/2-x,1/2-y,-z
1/2+x,1/2-y,z
loop_
_atom_site_type_symbol
_atom_site_label
_atom_site_fract_x
_atom_site_fract_y
_atom_site_fract_z
Si Si1 0.712042 0.218126 0.143605
Si Si2 0.928894 0.580413 0.121926
Si Si3 0.477315 0.320251 0.346568
Si Si4 0.142191 0.915509 0.338145
Si Si5 0.620825 0.669474 0.745844
Si Si6 0.636327 0.271832 0.439400
Si Si7 0.083569 0.288788 0.077398
Si Si8 0.357867 0.414304 0.126641
O O1 0.593996 0.262341 0.255950
O O2 0.666422 0.195294 0.093713
O O3 0.766557 0.148210 0.151242
O O4 0.827530 0.274559 0.049848
O O5 0.951681 0.500000 0.141317
O O6 0.779083 0.588154 0.210467
O O7 0.986203 0.645198 0.130793
O O8 0.000000 0.581788 0.000000
O O9 0.537095 0.388369 0.351187
O O10 0.416718 0.345721 0.311746
O O11 0.378475 0.281557 0.465677
O O12 0.147872 0.853563 0.396413
O O13 0.123160 0.000000 0.374887
O O14 0.746458 0.721115 0.661004
O O15 0.501174 0.716232 0.854359
O O16 0.639046 0.603571 0.790367
O O17 0.500000 0.242433 0.500000
O O18 0.319679 0.500000 0.138807
O O19 0.500000 0.405096 0.000000
#
# Coordination Sequence:
#
# PCOD9191026 Si02
#       8
#     8   8   8   8   8   8   8   8
#     4  10  21  37  56  85 109 144 189 235 277 331
#     4  10  20  32  51  82 117 149 179 219 277 341
#     4  10  22  35  58  87 116 146 192 232 281 326
#     4  10  20  35  55  83 117 151 184 224 281 340
#     4  11  21  38  59  85 111 149 187 239 277 332
#     4  10  20  36  59  86 111 150 189 236 278 334
#     4  10  20  34  59  82 111 144 185 227 283 330
#     4  11  23  38  57  82 113 152 191 232 287 341
#
# _framework density 18.097128999999999
#
# number of rings (size 3 to 8) (size 9 to 14) (size 15 to 20)
#    0.000    1.750    2.500    2.625    1.750    3.250 
#    0.000    0.000    0.000    3.375    0.000    0.000 
#    0.000    0.000    0.000    0.000    0.000    0.000 
#
# Total GULP energy -178478.382865 kJ/mol
# GULP energy per Si atom -5577.449465 kJ/mol
# Density = 1.805594 g / cm^3
# Si number density = 18.097129 Si / 1000 Ang^3
#
#
#
# Elastic Constant Matrix: (Units=GPa)
#
#
# Indices 1 2 3 4 5 6 
#
# 1 66.7438 28.8362 21.4511 -0.0001 0.3296 0.0001
# 2 28.8362 62.4832 18.4437 -0.0001 0.5439 0.0000
# 3 21.4511 18.4437 99.9482 -0.0002 4.3610 0.0002
# 4 -0.0001 -0.0001 -0.0002 -9.7706 0.0001 25.6741
# 5 0.3296 0.5439 4.3610 0.0001 27.5913 -0.0001
# 6 0.0001 0.0000 0.0002 25.6741 -0.0001 -34.9593
#
#
#
# Elastic Compliance Matrix: (Units=1/GPa)
#
#
# Indices 1 2 3 4 5 6 
#
# 1 0.019359 -0.008150 -0.002666 0.000000 0.000351 0.000000
# 2 -0.008150 0.020358 -0.002008 0.000000 0.000013 0.000000
# 3 -0.002666 -0.002008 0.011021 0.000000 -0.001671 0.000000
# 4 0.000000 0.000000 0.000000 0.110078 0.000000 0.080841
# 5 0.000351 0.000013 -0.001671 0.000000 0.036503 0.000000
# 6 0.000000 0.000000 0.000000 0.080841 0.000000 0.030765
#
#
# Mechanical properties :
#
#
# Convention : Reuss Voigt Hill
#
# Bulk Modulus (GPa) = 39.85809 40.73746 40.29778
# Shear Modulus (GPa) = 19.07691 7.26858 13.17274
#
# Velocity S-wave (km/s) = 3.25027 2.00628 2.70087
# Velocity P-wave (km/s) = 6.01316 5.28452 5.66058
#
# Compressibility (1/GPa) = 0.02508901
#
# Stress axis : x y z
#
# Youngs Moduli (GPa) = 51.65529 49.11996 90.73701
#
# Poissons Ratio (x) = 0.40034 0.24192
# Poissons Ratio (y) = 0.42101 0.18221
# Poissons Ratio (z) = 0.13772 0.09864
#
# Static dielectric constant tensor:
#      x y z
#    x 1.629790 0.000000 0.001460 
#    y 0.000000 1.612780 0.000000 
#    z 0.001460 0.000000 1.647620 
# 
# From -- ./inp_files/271688.got.cif
#   From: 2010.05.17/outbox.cif.g08.bks.cpg/sg12_136_cif.got.tgz:271688.got - 2010.06.03 13:09:07.
