data_PCOD9191686
_publ_section_title
;
Structure prediction by ZEFSAII (Michael W. Deem and Ramdas Pophale) SiO2 
 PCOD9191686
Probable space group: C 2/M
;
_chemical_formula_sum "Si O2"
_cell_formula_units_Z 64
_cell_length_a 14.492181
_cell_length_b 8.705989
_cell_length_c 29.570835
_cell_angle_alpha 90.000000
_cell_angle_beta 77.951135
_cell_angle_gamma 90.000000
_cell_volume 3648.723482
_symmetry_space_group_name_H-M "C 2/M"
_symmetry_group_IT_number 12
_symmetry_cell_setting 'monoclinic'
loop_
_space_group_symop_operation_xyz
x,y,z
-x,y,-z
-x,-y,-z
x,-y,z
1/2+x,1/2+y,z
1/2-x,1/2+y,-z
1/2-x,1/2-y,-z
1/2+x,1/2-y,z
loop_
_atom_site_type_symbol
_atom_site_label
_atom_site_fract_x
_atom_site_fract_y
_atom_site_fract_z
Si Si1 0.926827 0.685315 0.869191
Si Si2 0.048445 0.315293 0.621180
Si Si3 0.662073 0.816110 0.699334
Si Si4 0.599819 0.683370 0.800903
Si Si5 0.842361 0.815117 0.622704
Si Si6 0.211947 0.185402 0.879103
Si Si7 0.461018 0.814648 0.052421
Si Si8 0.774031 0.183961 0.448495
O O1 0.928626 0.500000 0.866637
O O2 0.819402 0.736901 0.874160
O O3 0.997737 0.749601 0.824314
O O4 0.969422 0.730937 0.913613
O O5 0.049153 0.500000 0.616805
O O6 0.087869 0.276283 0.667185
O O7 0.124343 0.244790 0.578770
O O8 0.944796 0.250130 0.623420
O O9 0.636577 0.739496 0.749046
O O10 0.765115 0.774553 0.669109
O O11 0.659745 0.000000 0.705194
O O12 0.594815 0.500000 0.801793
O O13 0.669362 0.732237 0.834758
O O14 0.801014 0.746191 0.580549
O O15 0.844915 0.000000 0.618804
O O16 0.141100 0.249779 0.924038
O O17 0.210171 0.000000 0.881437
O O18 0.455966 0.000000 0.052487
O O19 0.500000 0.763104 0.000000
O O20 0.750000 0.250000 0.500000
O O21 0.773237 0.000000 0.449095
#
# Coordination Sequence:
#
# PCOD9191686 Si02
#       8
#     8   8   8   8   8   8   8   8
#     4   9  18  34  52  69  98 135 166 203 256 309
#     4  10  21  38  58  82 110 142 180 222 267 319
#     4   9  20  37  55  76 107 141 173 211 261 316
#     4  10  20  33  51  75 101 129 170 215 252 299
#     4  10  21  38  58  83 112 143 180 222 268 320
#     4   9  19  34  50  71  98 131 168 206 250 302
#     4   9  18  32  50  73  99 128 164 206 252 304
#     4  11  22  38  59  83 112 146 183 225 270 318
#
# _framework density 17.540379999999999
#
# number of rings (size 3 to 8) (size 9 to 14) (size 15 to 20)
#    0.000    2.375    0.000    3.000    0.000    6.250 
#    0.000    6.250    0.000    0.000    0.000    0.000 
#    0.000    0.000    0.000    0.000    0.000    0.000 
#
# Total GULP energy -178589.581947 kJ/mol
# GULP energy per Si atom -5580.924436 kJ/mol
# Density = 1.750046 g / cm^3
# Si number density = 17.540380 Si / 1000 Ang^3
#
#
#
# Elastic Constant Matrix: (Units=GPa)
#
#
# Indices 1 2 3 4 5 6 
#
# 1 173.9496 46.8230 76.5422 0.0000 -13.9733 0.0000
# 2 46.8230 52.2354 47.5491 0.0000 -5.5476 0.0000
# 3 76.5422 47.5491 154.1875 0.0000 -19.8222 0.0000
# 4 0.0000 0.0000 0.0000 28.2278 0.0000 -4.5758
# 5 -13.9733 -5.5476 -19.8222 0.0000 9.2888 0.0000
# 6 0.0000 0.0000 0.0000 -4.5758 0.0000 28.5960
#
#
#
# Elastic Compliance Matrix: (Units=1/GPa)
#
#
# Indices 1 2 3 4 5 6 
#
# 1 0.008430 -0.005294 -0.001831 0.000000 0.005613 0.000000
# 2 -0.005294 0.029974 -0.007356 0.000000 -0.005760 0.000000
# 3 -0.001831 -0.007356 0.012050 0.000000 0.018567 0.000000
# 4 0.000000 0.000000 0.000000 0.036369 0.000000 0.005820
# 5 0.005613 -0.005760 0.018567 0.000000 0.152283 0.000000
# 6 0.000000 0.000000 0.000000 0.005820 0.000000 0.035901
#
#
# Mechanical properties :
#
#
# Convention : Reuss Voigt Hill
#
# Bulk Modulus (GPa) = 46.52777 80.24458 63.38618
# Shear Modulus (GPa) = 16.07027 27.18640 21.62834
#
# Velocity S-wave (km/s) = 3.03014 3.94119 3.51530
# Velocity P-wave (km/s) = 6.23105 8.15833 7.25894
#
# Compressibility (1/GPa) = 0.02149254
#
# Stress axis : x y z
#
# Youngs Moduli (GPa) = 118.61923 33.36233 82.98875
#
# Poissons Ratio (x) = 0.17663 0.15193
# Poissons Ratio (y) = 0.62799 0.61045
# Poissons Ratio (z) = 0.21716 0.24541
#
# Static dielectric constant tensor:
#      x y z
#    x 1.580210 0.000000 0.009150 
#    y 0.000000 1.587940 0.000000 
#    z 0.009150 0.000000 1.573830 
# 
# From -- ./inp_files/359809.got.cif
#   From: 2010.05.17/outbox.cif.g08.bks.cpg/sg12_180_cif.got.tgz:359809.got - 2010.06.03 13:09:07.
