data_PCOD9191057
_publ_section_title
;
Structure prediction by ZEFSAII (Michael W. Deem and Ramdas Pophale) SiO2 
 PCOD9191057
Probable space group: C 2/M
;
_chemical_formula_sum "Si O2"
_cell_formula_units_Z 56
_cell_length_a 28.771770
_cell_length_b 7.812692
_cell_length_c 19.776747
_cell_angle_alpha 90.000000
_cell_angle_beta 35.585769
_cell_angle_gamma 90.000000
_cell_volume 2586.938881
_symmetry_space_group_name_H-M "C 2/M"
_symmetry_group_IT_number 12
_symmetry_cell_setting 'monoclinic'
loop_
_space_group_symop_operation_xyz
x,y,z
-x,y,-z
-x,-y,-z
x,-y,z
1/2+x,1/2+y,z
1/2-x,1/2+y,-z
1/2-x,1/2-y,-z
1/2+x,1/2-y,z
loop_
_atom_site_type_symbol
_atom_site_label
_atom_site_fract_x
_atom_site_fract_y
_atom_site_fract_z
Si Si1 0.378894 0.706841 0.029952
Si Si2 0.239966 0.710276 0.291910
Si Si3 0.551573 0.203076 0.786069
Si Si4 0.994138 0.700880 0.309205
Si Si5 0.934437 0.709618 0.523710
Si Si6 0.165413 0.796044 0.068557
Si Si7 0.774408 0.806209 0.396452
O O1 0.380350 0.500000 0.029615
O O2 0.318865 0.767159 0.158963
O O3 0.470277 0.767238 0.923481
O O4 0.343919 0.761508 0.998295
O O5 0.242710 0.500000 0.289613
O O6 0.157121 0.757706 0.353906
O O7 0.239533 0.775735 0.369671
O O8 0.535418 0.269695 0.728395
O O9 0.630025 0.291478 0.721852
O O10 0.567328 0.000000 0.764800
O O11 0.974541 0.500000 0.330760
O O12 0.089709 0.720174 0.197455
O O13 0.956839 0.770887 0.421869
O O14 0.937566 0.500000 0.519626
O O15 0.000000 0.768129 0.500000
O O16 0.156580 0.000000 0.079832
O O17 0.250000 0.750000 0.000000
O O18 0.750000 0.750000 0.500000
O O19 0.746527 0.000000 0.426434
#
# Coordination Sequence:
#
# PCOD9191057 Si02
#       7
#     8   8   8   8   8   8   8
#     4   9  19  36  57  80 110 147 189 231 275 328
#     4   9  19  35  54  81 113 145 184 233 277 325
#     4  10  20  36  57  82 114 146 184 230 282 335
#     4   9  18  33  53  78 106 139 179 227 276 323
#     4   9  17  29  52  81 106 136 179 228 275 320
#     4  10  20  32  52  79 106 141 183 227 273 327
#     4  11  22  37  59  84 113 147 188 231 278 332
#
# _framework density 21.647205
#
# number of rings (size 3 to 8) (size 9 to 14) (size 15 to 20)
#    0.000    2.429    0.000    2.143    2.000    4.000 
#    0.000    4.286    0.000    1.286    0.000    0.000 
#    0.000    0.000    0.000    0.000    0.000    0.000 
#
# Total GULP energy -156319.470032 kJ/mol
# GULP energy per Si atom -5582.838215 kJ/mol
# Density = 2.159793 g / cm^3
# Si number density = 21.647205 Si / 1000 Ang^3
#
#
#
# Elastic Constant Matrix: (Units=GPa)
#
#
# Indices 1 2 3 4 5 6 
#
# 1 83.8242 -6.9387 37.0364 0.0024 -17.4236 0.0002
# 2 -6.9387 25.8967 0.2719 -0.0259 9.4255 0.0105
# 3 37.0364 0.2719 113.3383 -0.0104 6.9036 0.0056
# 4 0.0024 -0.0259 -0.0104 20.4766 0.0021 -2.5399
# 5 -17.4236 9.4255 6.9036 0.0021 26.0052 0.0029
# 6 0.0002 0.0105 0.0056 -2.5399 0.0029 11.4682
#
#
#
# Elastic Compliance Matrix: (Units=1/GPa)
#
#
# Indices 1 2 3 4 5 6 
#
# 1 0.017673 -0.000165 -0.006607 -0.000007 0.013655 -0.000002
# 2 -0.000165 0.044573 0.000953 0.000055 -0.016519 -0.000025
# 3 -0.006607 0.000953 0.011456 0.000008 -0.007813 -0.000003
# 4 -0.000007 0.000055 0.000008 0.050216 -0.000033 0.011121
# 5 0.013655 -0.016519 -0.007813 -0.000033 0.055664 -0.000002
# 6 -0.000002 -0.000025 -0.000003 0.011121 -0.000002 0.089661
#
#
# Mechanical properties :
#
#
# Convention : Reuss Voigt Hill
#
# Bulk Modulus (GPa) = 16.11212 31.53316 23.82264
# Shear Modulus (GPa) = 16.57999 24.43598 20.50799
#
# Velocity S-wave (km/s) = 2.77053 3.36345 3.08128
# Velocity P-wave (km/s) = 4.20638 5.44814 4.86702
#
# Compressibility (1/GPa) = 0.06206506
#
# Stress axis : x y z
#
# Youngs Moduli (GPa) = 56.58220 22.43502 87.29310
#
# Poissons Ratio (x) = 0.00371 0.57671
# Poissons Ratio (y) = 0.00935 -0.08321
# Poissons Ratio (z) = 0.37382 -0.02139
#
# Static dielectric constant tensor:
#      x y z
#    x 1.792340 -0.000030 0.012650 
#    y -0.000030 1.702510 0.000010 
#    z 0.012650 0.000010 1.788770 
# 
# From -- ./inp_files/292439.got.cif
#   From: 2010.05.17/outbox.cif.g08.bks.cpg/sg12_147_cif.got.tgz:292439.got - 2010.06.03 13:09:07.
