data_PCOD9191105
_publ_section_title
;
Structure prediction by ZEFSAII (Michael W. Deem and Ramdas Pophale) SiO2 
 PCOD9191105
Probable space group: C 2/M
;
_chemical_formula_sum "Si O2"
_cell_formula_units_Z 56
_cell_length_a 34.667060
_cell_length_b 8.270326
_cell_length_c 15.557132
_cell_angle_alpha 90.000000
_cell_angle_beta 134.515735
_cell_angle_gamma 90.000000
_cell_volume 3180.489702
_symmetry_space_group_name_H-M "C 2/M"
_symmetry_group_IT_number 12
_symmetry_cell_setting 'monoclinic'
loop_
_space_group_symop_operation_xyz
x,y,z
-x,y,-z
-x,-y,-z
x,-y,z
1/2+x,1/2+y,z
1/2-x,1/2+y,-z
1/2-x,1/2-y,-z
1/2+x,1/2-y,z
loop_
_atom_site_type_symbol
_atom_site_label
_atom_site_fract_x
_atom_site_fract_y
_atom_site_fract_z
Si Si1 0.367410 0.308573 0.157546
Si Si2 0.194320 0.691047 0.102563
Si Si3 0.673441 0.804817 0.444441
Si Si4 0.988680 0.194651 0.385160
Si Si5 0.812906 0.691382 0.242748
Si Si6 0.401617 0.195013 0.522296
Si Si7 0.291967 0.804330 0.685410
O O1 0.365978 0.500000 0.173296
O O2 0.429442 0.251171 0.262466
O O3 0.331914 0.223568 0.175552
O O4 0.342553 0.275887 0.025718
O O5 0.183287 0.500000 0.082178
O O6 0.256984 0.721033 0.176479
O O7 0.186951 0.750332 0.189039
O O8 0.624914 0.748517 0.429635
O O9 0.675350 0.749729 0.348256
O O10 0.730343 0.752710 0.575314
O O11 0.672323 0.000000 0.442118
O O12 0.000000 0.253849 0.500000
O O13 0.038360 0.246600 0.403523
O O14 0.988028 0.000000 0.386433
O O15 0.804483 0.500000 0.242807
O O16 0.860846 0.746151 0.381866
O O17 0.402154 0.000000 0.523055
O O18 0.291538 0.000000 0.685543
#
# Coordination Sequence:
#
# PCOD9191105 Si02
#       7
#     8   8   8   8   8   8   8
#     4  11  23  38  54  73 101 140 177 215 258 305
#     4  11  22  35  52  77 107 141 175 211 253 305
#     4   9  17  32  51  77 107 134 167 208 256 305
#     4  10  21  37  55  74  99 133 174 217 259 302
#     4  11  21  34  52  78 108 140 171 207 255 308
#     4  10  20  32  53  80 107 135 166 210 258 303
#     4   9  18  31  51  76 105 137 169 207 253 304
#
# _framework density 17.607351999999999
#
# number of rings (size 3 to 8) (size 9 to 14) (size 15 to 20)
#    0.000    1.857    2.857    1.714    0.000    3.143 
#    0.000    0.000    0.000    0.857    0.000    6.000 
#    0.000    0.000    0.000    0.000    0.000    0.000 
#
# Total GULP energy -156297.406656 kJ/mol
# GULP energy per Si atom -5582.050238 kJ/mol
# Density = 1.756728 g / cm^3
# Si number density = 17.607352 Si / 1000 Ang^3
#
#
#
# Elastic Constant Matrix: (Units=GPa)
#
#
# Indices 1 2 3 4 5 6 
#
# 1 116.9455 -2.0561 39.7762 0.0000 -21.0528 0.0000
# 2 -2.0561 8.6823 -1.9557 0.0000 0.1228 0.0000
# 3 39.7762 -1.9557 83.6802 0.0000 -12.2054 0.0000
# 4 0.0000 0.0000 0.0000 17.9113 0.0000 7.2572
# 5 -21.0528 0.1228 -12.2054 0.0000 24.5350 0.0000
# 6 0.0000 0.0000 0.0000 7.2572 0.0000 17.1631
#
#
#
# Elastic Compliance Matrix: (Units=1/GPa)
#
#
# Indices 1 2 3 4 5 6 
#
# 1 0.011410 0.001632 -0.004268 0.000000 0.007659 0.000000
# 2 0.001632 0.116035 0.002216 0.000000 0.001922 0.000000
# 3 -0.004268 0.002216 0.014551 0.000000 0.003565 0.000000
# 4 0.000000 0.000000 0.000000 0.067373 0.000000 -0.028488
# 5 0.007659 0.001922 0.003565 0.000000 0.049094 0.000000
# 6 0.000000 0.000000 0.000000 -0.028488 0.000000 0.070311
#
#
# Mechanical properties :
#
#
# Convention : Reuss Voigt Hill
#
# Bulk Modulus (GPa) = 7.08434 31.20410 19.14422
# Shear Modulus (GPa) = 13.27435 23.49145 18.38290
#
# Velocity S-wave (km/s) = 2.74872 3.65661 3.23468
# Velocity P-wave (km/s) = 3.75582 5.96560 4.98471
#
# Compressibility (1/GPa) = 0.14115650
#
# Stress axis : x y z
#
# Youngs Moduli (GPa) = 87.63984 8.61810 68.72402
#
# Poissons Ratio (x) = -0.01407 0.29334
# Poissons Ratio (y) = -0.14305 -0.15232
# Poissons Ratio (z) = 0.37408 -0.01910
#
# Static dielectric constant tensor:
#      x y z
#    x 1.602080 0.000000 -0.027710 
#    y 0.000000 1.607100 0.000000 
#    z -0.027710 0.000000 1.586790 
# 
# From -- ./inp_files/237815.got.cif
#   From: 2010.05.17/outbox.cif.g08.bks.cpg/sg12_119_cif.got.tgz:237815.got - 2010.06.03 13:09:07.
