data_PCOD9191221
_publ_section_title
;
Structure prediction by ZEFSAII (Michael W. Deem and Ramdas Pophale) SiO2 
 PCOD9191221
Probable space group: C 2/M
;
_chemical_formula_sum "Si O2"
_cell_formula_units_Z 36
_cell_length_a 14.687928
_cell_length_b 19.740443
_cell_length_c 9.512302
_cell_angle_alpha 90.000000
_cell_angle_beta 132.103179
_cell_angle_gamma 90.000000
_cell_volume 2046.308227
_symmetry_space_group_name_H-M "C 2/M"
_symmetry_group_IT_number 12
_symmetry_cell_setting 'monoclinic'
loop_
_space_group_symop_operation_xyz
x,y,z
-x,y,-z
-x,-y,-z
x,-y,z
1/2+x,1/2+y,z
1/2-x,1/2+y,-z
1/2-x,1/2-y,-z
1/2+x,1/2-y,z
loop_
_atom_site_type_symbol
_atom_site_label
_atom_site_fract_x
_atom_site_fract_y
_atom_site_fract_z
Si Si1 0.360333 0.803725 0.799716
Si Si2 0.816104 0.183118 0.128642
Si Si3 0.000000 0.254129 0.500000
Si Si4 0.221163 0.667256 0.590158
Si Si5 0.133574 0.078771 0.069850
O O1 0.270084 0.832778 0.826812
O O2 0.325361 0.725299 0.725448
O O3 0.323980 0.839543 0.616058
O O4 0.500000 0.808048 0.000000
O O5 0.835337 0.126636 0.030753
O O6 0.947384 0.207084 0.322763
O O7 0.750000 0.250000 0.000000
O O8 0.107833 0.301132 0.557034
O O9 0.269662 0.599339 0.709943
O O10 0.140296 0.000000 0.038156
O O11 0.000000 0.091747 0.000000
#
# Coordination Sequence:
#
# PCOD9191221 Si02
#       5
#     8   8   4   8   8
#     4  10  20  33  59  91 121 148 194 261 297 343
#     4  11  21  36  61  91 121 154 202 254 298 352
#     4  10  20  32  62  96 118 148 202 260 300 340
#     4  10  21  34  59  91 119 158 198 248 304 349
#     4  11  25  43  62  86 124 166 201 244 305 370
#
# _framework density 17.592658
#
# number of rings (size 3 to 8) (size 9 to 14) (size 15 to 20)
#    0.000    1.556    4.444    2.000    9.333    0.000 
#    0.000    2.222    0.000    1.333    0.000    0.000 
#    0.000    0.000    0.000    0.000    0.000    0.000 
#
# Total GULP energy -100391.250643 kJ/mol
# GULP energy per Si atom -5577.291702 kJ/mol
# Density = 1.755262 g / cm^3
# Si number density = 17.592658 Si / 1000 Ang^3
#
#
#
# Elastic Constant Matrix: (Units=GPa)
#
#
# Indices 1 2 3 4 5 6 
#
# 1 97.3290 53.1872 53.8340 0.0000 -9.9226 0.0000
# 2 53.1872 91.6384 54.2287 0.0000 -7.6394 0.0000
# 3 53.8340 54.2287 141.3375 0.0000 -3.7475 0.0000
# 4 0.0000 0.0000 0.0000 20.8713 0.0000 -4.3739
# 5 -9.9226 -7.6394 -3.7475 0.0000 37.6967 0.0000
# 6 0.0000 0.0000 0.0000 -4.3739 0.0000 21.5883
#
#
#
# Elastic Compliance Matrix: (Units=1/GPa)
#
#
# Indices 1 2 3 4 5 6 
#
# 1 0.016387 -0.007308 -0.003372 0.000000 0.002497 0.000000
# 2 -0.007308 0.017584 -0.003930 0.000000 0.001249 0.000000
# 3 -0.003372 -0.003930 0.009849 0.000000 -0.000705 0.000000
# 4 0.000000 0.000000 0.000000 0.050037 0.000000 0.010138
# 5 0.002497 0.001249 -0.000705 0.000000 0.027368 0.000000
# 6 0.000000 0.000000 0.000000 0.010138 0.000000 0.048375
#
#
# Mechanical properties :
#
#
# Convention : Reuss Voigt Hill
#
# Bulk Modulus (GPa) = 68.48929 72.53384 70.51157
# Shear Modulus (GPa) = 24.54754 27.30160 25.92457
#
# Velocity S-wave (km/s) = 3.73946 3.94366 3.84292
# Velocity P-wave (km/s) = 7.59341 7.87754 7.73678
#
# Compressibility (1/GPa) = 0.01460082
#
# Stress axis : x y z
#
# Youngs Moduli (GPa) = 61.02213 56.87079 101.53649
#
# Poissons Ratio (x) = 0.41561 0.34235
# Poissons Ratio (y) = 0.44594 0.39903
# Poissons Ratio (z) = 0.20575 0.22350
#
# Static dielectric constant tensor:
#      x y z
#    x 1.637930 0.000000 -0.021470 
#    y 0.000000 1.591090 0.000000 
#    z -0.021470 0.000000 1.644600 
# 
# From -- ./inp_files/61454.got.cif
#   From: 2010.05.17/outbox.cif.g08.bks.cpg/sg12_31_cif.got.tgz:61454.got - 2010.06.03 13:09:07.
