data_PCOD9191694
_publ_section_title
;
Structure prediction by ZEFSAII (Michael W. Deem and Ramdas Pophale) SiO2 
 PCOD9191694
Probable space group: C 2/M
;
_chemical_formula_sum "Si O2"
_cell_formula_units_Z 48
_cell_length_a 20.630409
_cell_length_b 7.989040
_cell_length_c 16.480621
_cell_angle_alpha 90.000000
_cell_angle_beta 108.499404
_cell_angle_gamma 90.000000
_cell_volume 2575.930262
_symmetry_space_group_name_H-M "C 2/M"
_symmetry_group_IT_number 12
_symmetry_cell_setting 'monoclinic'
loop_
_space_group_symop_operation_xyz
x,y,z
-x,y,-z
-x,-y,-z
x,-y,z
1/2+x,1/2+y,z
1/2-x,1/2+y,-z
1/2-x,1/2-y,-z
1/2+x,1/2-y,z
loop_
_atom_site_type_symbol
_atom_site_label
_atom_site_fract_x
_atom_site_fract_y
_atom_site_fract_z
Si Si1 0.534994 0.701563 0.932144
Si Si2 0.985932 0.299612 0.737576
Si Si3 0.652100 0.798161 0.402027
Si Si4 0.180504 0.201683 0.928819
Si Si5 0.300565 0.702212 0.404692
Si Si6 0.633630 0.298460 0.735992
O O1 0.537876 0.500000 0.939181
O O2 0.494219 0.743381 0.833964
O O3 0.612666 0.762232 0.949034
O O4 0.500000 0.766688 0.000000
O O5 0.984500 0.500000 0.736003
O O6 0.916505 0.235887 0.668465
O O7 0.054134 0.243632 0.717457
O O8 0.657381 0.751028 0.498528
O O9 0.722602 0.738277 0.388162
O O10 0.651999 0.000000 0.396889
O O11 0.172792 0.261539 0.832693
O O12 0.177310 0.000000 0.925455
O O13 0.250000 0.250000 0.000000
O O14 0.298715 0.500000 0.400649
O O15 0.334214 0.765067 0.334933
O O16 0.638947 0.500000 0.736864
#
# Coordination Sequence:
#
# PCOD9191694 Si02
#       6
#     8   8   8   8   8   8
#     4   9  19  36  54  72  98 131 166 203 241 285
#     4  10  20  33  51  75 102 130 160 200 248 293
#     4   9  19  34  50  73 103 129 159 204 251 289
#     4   9  18  32  50  72  98 127 159 199 243 286
#     4   9  18  34  54  72  94 130 170 202 239 291
#     4   9  19  35  52  71  98 131 166 203 241 287
#
# _framework density 18.634046000000001
#
# number of rings (size 3 to 8) (size 9 to 14) (size 15 to 20)
#    0.000    2.833    0.000    1.500    0.000    7.000 
#    0.000    5.000    0.000    0.000    0.000    0.000 
#    0.000    0.000    0.000    0.000    0.000    0.000 
#
# Total GULP energy -133825.061651 kJ/mol
# GULP energy per Si atom -5576.044235 kJ/mol
# Density = 1.859163 g / cm^3
# Si number density = 18.634046 Si / 1000 Ang^3
#
#
#
# Elastic Constant Matrix: (Units=GPa)
#
#
# Indices 1 2 3 4 5 6 
#
# 1 148.7442 7.1095 153.9918 0.0000 -2.0082 0.0000
# 2 7.1095 8.6119 5.1481 0.0000 -4.1017 0.0000
# 3 153.9918 5.1481 180.6941 0.0000 -3.6853 0.0000
# 4 0.0000 0.0000 0.0000 24.7755 0.0000 5.0433
# 5 -2.0082 -4.1017 -3.6853 0.0000 46.6192 0.0000
# 6 0.0000 0.0000 0.0000 5.0433 0.0000 20.4379
#
#
#
# Elastic Compliance Matrix: (Units=1/GPa)
#
#
# Indices 1 2 3 4 5 6 
#
# 1 0.060597 -0.021035 -0.051110 0.000000 -0.003281 0.000000
# 2 -0.021035 0.130424 0.014450 0.000000 0.011711 0.000000
# 3 -0.051110 0.014450 0.048739 0.000000 0.002923 0.000000
# 4 0.000000 0.000000 0.000000 0.042497 0.000000 -0.010487
# 5 -0.003281 0.011711 0.002923 0.000000 0.022571 0.000000
# 6 0.000000 0.000000 0.000000 -0.010487 0.000000 0.051516
#
#
# Mechanical properties :
#
#
# Convention : Reuss Voigt Hill
#
# Bulk Modulus (GPa) = 8.04055 74.50544 41.27300
# Shear Modulus (GPa) = 9.74294 29.81989 19.78142
#
# Velocity S-wave (km/s) = 2.28909 4.00470 3.26171
# Velocity P-wave (km/s) = 3.36317 7.83925 6.03178
#
# Compressibility (1/GPa) = 0.12436962
#
# Stress axis : x y z
#
# Youngs Moduli (GPa) = 16.50243 7.66729 20.51734
#
# Poissons Ratio (x) = 0.16128 1.04864
# Poissons Ratio (y) = 0.34713 -0.29647
# Poissons Ratio (z) = 0.84344 -0.11079
#
# Static dielectric constant tensor:
#      x y z
#    x 1.643380 0.000000 -0.009890 
#    y 0.000000 1.668440 0.000000 
#    z -0.009890 0.000000 1.625530 
# 
# From -- ./inp_files/230436.got.cif
#   From: 2010.05.17/outbox.cif.g08.bks.cpg/sg12_116_cif.got.tgz:230436.got - 2010.06.03 13:09:07.
