data_PCOD9191010
_publ_section_title
;
Structure prediction by ZEFSAII (Michael W. Deem and Ramdas Pophale) SiO2 
 PCOD9191010
Probable space group: C 2/M
;
_chemical_formula_sum "Si O2"
_cell_formula_units_Z 64
_cell_length_a 9.741628
_cell_length_b 22.923593
_cell_length_c 14.213593
_cell_angle_alpha 90.000000
_cell_angle_beta 82.827174
_cell_angle_gamma 90.000000
_cell_volume 3149.241473
_symmetry_space_group_name_H-M "C 2/M"
_symmetry_group_IT_number 12
_symmetry_cell_setting 'monoclinic'
loop_
_space_group_symop_operation_xyz
x,y,z
-x,y,-z
-x,-y,-z
x,-y,z
1/2+x,1/2+y,z
1/2-x,1/2+y,-z
1/2-x,1/2-y,-z
1/2+x,1/2-y,z
loop_
_atom_site_type_symbol
_atom_site_label
_atom_site_fract_x
_atom_site_fract_y
_atom_site_fract_z
Si Si1 0.408967 0.284526 0.597350
Si Si2 0.403527 0.826184 0.930738
Si Si3 0.238063 0.434980 0.264141
Si Si4 0.611504 0.365418 0.914684
Si Si5 0.905593 0.651761 0.596130
Si Si6 0.972974 0.759602 0.209992
Si Si7 0.544949 0.064806 0.827433
Si Si8 0.330805 0.842996 0.293344
O O1 0.500000 0.299136 0.500000
O O2 0.354741 0.218093 0.584141
O O3 0.491818 0.282587 0.689040
O O4 0.288297 0.330770 0.623060
O O5 0.245860 0.842695 0.961161
O O6 0.409236 0.783361 0.841105
O O7 0.486726 0.885845 0.901567
O O8 0.500000 0.796221 0.000000
O O9 0.284105 0.500000 0.288058
O O10 0.330576 0.409391 0.170799
O O11 0.212952 0.390379 0.352928
O O12 0.084072 0.440901 0.233006
O O13 0.500000 0.387584 0.000000
O O14 0.449206 0.312088 0.140815
O O15 0.000000 0.631228 0.500000
O O16 0.023067 0.657289 0.666001
O O17 0.842453 0.714995 0.228057
O O18 0.671865 0.097330 0.764663
O O19 0.576142 0.000000 0.861464
#
# Coordination Sequence:
#
# PCOD9191010 Si02
#       8
#     8   8   8   8   8   8   8   8
#     4  10  20  32  51  80 109 140 173 213 273 338
#     4  10  21  36  55  81 108 138 181 226 269 319
#     4   9  18  35  54  74 106 140 176 225 272 317
#     4  11  23  36  55  82 111 148 186 223 274 328
#     4   9  18  30  51  81 107 135 177 225 273 325
#     4  10  20  34  54  76 108 141 175 223 271 321
#     4   8  16  32  53  73  95 131 176 222 265 304
#     4   9  17  31  50  72 101 136 174 216 266 322
#
# _framework density 20.322354000000001
#
# number of rings (size 3 to 8) (size 9 to 14) (size 15 to 20)
#    0.000    2.500    0.000    4.125    0.000   10.250 
#    0.000    0.000    0.000    2.625    0.000    0.000 
#    0.000    0.000    0.000    0.000    0.000    0.000 
#
# Total GULP energy -178272.655294 kJ/mol
# GULP energy per Si atom -5571.020478 kJ/mol
# Density = 2.027610 g / cm^3
# Si number density = 20.322354 Si / 1000 Ang^3
#
#
#
# Elastic Constant Matrix: (Units=GPa)
#
#
# Indices 1 2 3 4 5 6 
#
# 1 43.1897 24.8999 35.4789 0.0000 -18.2363 0.0000
# 2 24.8999 101.8127 46.4015 0.0000 -22.6044 0.0000
# 3 35.4789 46.4015 108.4737 0.0000 -31.7785 0.0000
# 4 0.0000 0.0000 0.0000 -0.4141 0.0000 10.4012
# 5 -18.2363 -22.6044 -31.7785 0.0000 37.4478 0.0000
# 6 0.0000 0.0000 0.0000 10.4012 0.0000 6.0021
#
#
#
# Elastic Compliance Matrix: (Units=1/GPa)
#
#
# Indices 1 2 3 4 5 6 
#
# 1 0.034792 -0.003173 -0.007479 0.000000 0.008681 0.000000
# 2 -0.003173 0.012935 -0.003541 0.000000 0.003258 0.000000
# 3 -0.007479 -0.003541 0.015287 0.000000 0.007193 0.000000
# 4 0.000000 0.000000 0.000000 -0.054234 0.000000 0.093984
# 5 0.008681 0.003258 0.007193 0.000000 0.039002 0.000000
# 6 0.000000 0.000000 0.000000 0.093984 0.000000 0.003741
#
#
# Mechanical properties :
#
#
# Convention : Reuss Voigt Hill
#
# Bulk Modulus (GPa) = 28.87818 51.89296 40.38557
# Shear Modulus (GPa) = 54.67315 18.38689 36.53002
#
# Velocity S-wave (km/s) = 5.19243 3.01119 4.24433
# Velocity P-wave (km/s) = 7.08445 6.13841 6.62833
#
# Compressibility (1/GPa) = 0.03462822
#
# Stress axis : x y z
#
# Youngs Moduli (GPa) = 28.74194 77.30918 65.41466
#
# Poissons Ratio (x) = 0.24530 0.48925
# Poissons Ratio (y) = 0.09120 0.23163
# Poissons Ratio (z) = 0.21497 0.27375
#
# Static dielectric constant tensor:
#      x y z
#    x 1.761810 0.000000 0.016620 
#    y 0.000000 1.757120 0.000000 
#    z 0.016620 0.000000 1.808570 
# 
# From -- ./inp_files/264812.got.cif
#   From: 2010.05.17/outbox.cif.g08.bks.cpg/sg12_133_cif.got.tgz:264812.got - 2010.06.03 13:09:07.
