data_PCOD9191797
_publ_section_title
;
Structure prediction by ZEFSAII (Michael W. Deem and Ramdas Pophale) SiO2 
 PCOD9191797
Probable space group: C 2/M
;
_chemical_formula_sum "Si O2"
_cell_formula_units_Z 56
_cell_length_a 19.401340
_cell_length_b 8.648274
_cell_length_c 26.959580
_cell_angle_alpha 90.000000
_cell_angle_beta 136.998851
_cell_angle_gamma 90.000000
_cell_volume 3085.083756
_symmetry_space_group_name_H-M "C 2/M"
_symmetry_group_IT_number 12
_symmetry_cell_setting 'monoclinic'
loop_
_space_group_symop_operation_xyz
x,y,z
-x,y,-z
-x,-y,-z
x,-y,z
1/2+x,1/2+y,z
1/2-x,1/2+y,-z
1/2-x,1/2-y,-z
1/2+x,1/2-y,z
loop_
_atom_site_type_symbol
_atom_site_label
_atom_site_fract_x
_atom_site_fract_y
_atom_site_fract_z
Si Si1 0.218679 0.314508 0.639863
Si Si2 0.045529 0.813770 0.619625
Si Si3 0.680270 0.185402 0.507111
Si Si4 0.590571 0.684949 0.929142
Si Si5 0.368152 0.185317 0.797547
Si Si6 0.737685 0.686773 0.916079
Si Si7 0.304997 0.687440 0.216828
O O1 0.213636 0.500000 0.640693
O O2 0.119984 0.245046 0.615336
O O3 0.220053 0.270253 0.582851
O O4 0.315918 0.254669 0.721046
O O5 0.099237 0.764902 0.699619
O O6 0.933846 0.747211 0.557049
O O7 0.042587 0.000000 0.616177
O O8 0.750000 0.250000 0.500000
O O9 0.679503 0.000000 0.503934
O O10 0.584623 0.500000 0.928022
O O11 0.479861 0.754990 0.866331
O O12 0.655462 0.729511 0.914477
O O13 0.655451 0.746402 0.009649
O O14 0.293896 0.230717 0.803658
O O15 0.367405 0.000000 0.793417
O O16 0.745158 0.500000 0.919390
O O17 0.703687 0.742081 0.844009
O O18 0.308111 0.500000 0.216772
#
# Coordination Sequence:
#
# PCOD9191797 Si02
#       7
#     8   8   8   8   8   8   8
#     4  10  21  38  58  80 109 144 181 222 271 324
#     4  10  20  36  59  84 110 142 181 223 270 327
#     4  11  24  39  56  81 112 145 182 225 271 319
#     4  10  20  33  51  77 107 138 174 218 268 317
#     4  10  20  35  56  80 105 136 177 221 265 318
#     4   9  18  35  55  72  99 140 180 215 257 315
#     4   8  17  34  55  78 101 133 177 218 258 308
#
# _framework density 18.151855999999999
#
# number of rings (size 3 to 8) (size 9 to 14) (size 15 to 20)
#    0.000    2.286    0.000    3.429    0.000    6.286 
#    0.000   10.000    0.000    0.000    0.000    0.000 
#    0.000    0.000    0.000    0.000    0.000    0.000 
#
# Total GULP energy -156286.723000 kJ/mol
# GULP energy per Si atom -5581.668679 kJ/mol
# Density = 1.811054 g / cm^3
# Si number density = 18.151856 Si / 1000 Ang^3
#
#
#
# Elastic Constant Matrix: (Units=GPa)
#
#
# Indices 1 2 3 4 5 6 
#
# 1 4.7103 -3.1699 -23.0646 0.0000 -34.5013 0.0000
# 2 -3.1699 24.7699 -8.5492 0.0000 -11.3778 0.0000
# 3 -23.0646 -8.5492 -6.6247 0.0000 -33.1105 0.0000
# 4 0.0000 0.0000 0.0000 34.5124 0.0000 4.3894
# 5 -34.5013 -11.3778 -33.1105 0.0000 35.1616 0.0000
# 6 0.0000 0.0000 0.0000 4.3894 0.0000 28.1109
#
#
#
# Elastic Compliance Matrix: (Units=1/GPa)
#
#
# Indices 1 2 3 4 5 6 
#
# 1 0.021657 -0.009792 -0.026835 0.000000 -0.007188 0.000000
# 2 -0.009792 0.036786 -0.004355 0.000000 -0.001806 0.000000
# 3 -0.026835 -0.004355 0.015201 0.000000 -0.013426 0.000000
# 4 0.000000 0.000000 0.000000 0.029562 0.000000 -0.004616
# 5 -0.007188 -0.001806 -0.013426 0.000000 0.008160 0.000000
# 6 0.000000 0.000000 0.000000 -0.004616 0.000000 0.036294
#
#
# Mechanical properties :
#
#
# Convention : Reuss Voigt Hill
#
# Bulk Modulus (GPa) = -120.18926 -5.19021 -62.68974
# Shear Modulus (GPa) = 22.04091 23.39959 22.72025
#
# Velocity S-wave (km/s) = 3.48839 3.59430 3.54174
# Velocity P-wave (km/s) = 7.08038 3.78943 4.22918
#
# Compressibility (1/GPa) = -0.00832021
#
# Stress axis : x y z
#
# Youngs Moduli (GPa) = 46.17516 27.18417 65.78429
#
# Poissons Ratio (x) = 0.26620 1.76533
# Poissons Ratio (y) = 0.45217 0.28646
# Poissons Ratio (z) = 1.23911 0.11838
#
# Static dielectric constant tensor:
#      x y z
#    x 1.604190 0.000000 -0.021180 
#    y 0.000000 1.613890 0.000000 
#    z -0.021180 0.000000 1.609500 
# 
# From -- ./inp_files/363180.got.cif
#   From: 2010.05.17/outbox.cif.g08.bks.cpg/sg12_182_cif.got.tgz:363180.got - 2010.06.03 13:09:07.
