data_PCOD9191277
_publ_section_title
;
Structure prediction by ZEFSAII (Michael W. Deem and Ramdas Pophale) SiO2 
 PCOD9191277
Probable space group: C 2/M
;
_chemical_formula_sum "Si O2"
_cell_formula_units_Z 48
_cell_length_a 18.844484
_cell_length_b 7.362355
_cell_length_c 21.989458
_cell_angle_alpha 90.000000
_cell_angle_beta 48.188054
_cell_angle_gamma 90.000000
_cell_volume 2273.883542
_symmetry_space_group_name_H-M "C 2/M"
_symmetry_group_IT_number 12
_symmetry_cell_setting 'monoclinic'
loop_
_space_group_symop_operation_xyz
x,y,z
-x,y,-z
-x,-y,-z
x,-y,z
1/2+x,1/2+y,z
1/2-x,1/2+y,-z
1/2-x,1/2-y,-z
1/2+x,1/2-y,z
loop_
_atom_site_type_symbol
_atom_site_label
_atom_site_fract_x
_atom_site_fract_y
_atom_site_fract_z
Si Si1 0.882189 0.221993 0.263904
Si Si2 0.285637 0.780148 0.732588
Si Si3 0.496855 0.289236 0.569435
Si Si4 0.152830 0.781138 0.910434
Si Si5 0.856222 0.217073 0.416019
Si Si6 0.480134 0.718758 0.914359
O O1 0.790971 0.275620 0.275149
O O2 0.872435 0.285684 0.338357
O O3 0.978248 0.281582 0.173804
O O4 0.882389 0.000000 0.263395
O O5 0.390414 0.718391 0.655924
O O6 0.246057 0.717925 0.821074
O O7 0.286072 0.000000 0.732726
O O8 0.500000 0.208266 0.500000
O O9 0.525855 0.500000 0.545871
O O10 0.569608 0.209622 0.576844
O O11 0.066725 0.746036 0.912079
O O12 0.160545 0.000000 0.910865
O O13 0.115110 0.713800 0.997314
O O14 0.750000 0.250000 0.500000
O O15 0.870156 0.000000 0.404053
O O16 0.471183 0.500000 0.915437
#
# Coordination Sequence:
#
# PCOD9191277 Si02
#       6
#     8   8   8   8   8   8
#     4   8  14  25  43  67  89 109 140 181 216 245
#     4   9  16  27  46  70  90 108 138 179 215 247
#     4  10  21  34  45  60  86 118 146 171 208 261
#     4   7  10  17  33  61  90 109 129 165 211 249
#     4  10  20  33  48  65  85 110 143 180 215 253
#     4   7   9  16  33  59  89 111 129 165 213 248
#
# _framework density 21.109261
#
# number of rings (size 3 to 8) (size 9 to 14) (size 15 to 20)
#    0.000    3.500    0.000    4.000    0.000    1.000 
#    0.000    0.000    0.000    1.000    0.000   10.500 
#    0.000    0.000    0.000    0.000    0.000    0.000 
#
# Total GULP energy -133716.490079 kJ/mol
# GULP energy per Si atom -5571.520420 kJ/mol
# Density = 2.106122 g / cm^3
# Si number density = 21.109261 Si / 1000 Ang^3
#
#
#
# Elastic Constant Matrix: (Units=GPa)
#
#
# Indices 1 2 3 4 5 6 
#
# 1 100.4200 2.7880 91.8864 -0.0003 13.7340 0.0004
# 2 2.7880 72.1802 -9.6409 0.0000 5.9350 0.0005
# 3 91.8864 -9.6409 233.0909 0.0000 26.4021 0.0000
# 4 -0.0003 0.0000 0.0000 26.5669 0.0000 -37.2161
# 5 13.7340 5.9350 26.4021 0.0000 28.2946 0.0000
# 6 0.0004 0.0005 0.0000 -37.2161 0.0000 11.0323
#
#
#
# Elastic Compliance Matrix: (Units=1/GPa)
#
#
# Indices 1 2 3 4 5 6 
#
# 1 0.015798 -0.001282 -0.006086 0.000000 -0.001721 0.000000
# 2 -0.001282 0.014424 0.001536 0.000000 -0.003837 0.000000
# 3 -0.006086 0.001536 0.007217 0.000000 -0.004103 0.000000
# 4 0.000000 0.000000 0.000000 -0.010103 0.000000 -0.034082
# 5 -0.001721 -0.003837 -0.004103 0.000000 0.040811 0.000000
# 6 0.000000 0.000000 0.000000 -0.034082 0.000000 -0.024330
#
#
# Mechanical properties :
#
#
# Convention : Reuss Voigt Hill
#
# Bulk Modulus (GPa) = 38.79272 63.97312 51.38292
# Shear Modulus (GPa) = 78.03777 34.55595 56.29686
#
# Velocity S-wave (km/s) = 6.08677 4.05038 5.16983
# Velocity P-wave (km/s) = 8.23501 7.22811 7.74793
#
# Compressibility (1/GPa) = 0.02577804
#
# Stress axis : x y z
#
# Youngs Moduli (GPa) = 63.30091 69.32668 138.55233
#
# Poissons Ratio (x) = 0.08885 0.84318
# Poissons Ratio (y) = 0.08112 -0.21288
# Poissons Ratio (z) = 0.38523 -0.10652
#
# Static dielectric constant tensor:
#      x y z
#    x 1.731930 0.000000 0.029020 
#    y 0.000000 1.855180 0.000000 
#    z 0.029020 0.000000 1.794310 
# 
# From -- ./inp_files/273585.got.cif
#   From: 2010.05.17/outbox.cif.g08.bks.cpg/sg12_137_cif.got.tgz:273585.got - 2010.06.03 13:09:07.
