data_PCOD9191390
_publ_section_title
;
Structure prediction by ZEFSAII (Michael W. Deem and Ramdas Pophale) SiO2 
 PCOD9191390
Probable space group: C 2/M
;
_chemical_formula_sum "Si O2"
_cell_formula_units_Z 64
_cell_length_a 24.463210
_cell_length_b 7.604463
_cell_length_c 17.762038
_cell_angle_alpha 90.000000
_cell_angle_beta 70.053513
_cell_angle_gamma 90.000000
_cell_volume 3106.047018
_symmetry_space_group_name_H-M "C 2/M"
_symmetry_group_IT_number 12
_symmetry_cell_setting 'monoclinic'
loop_
_space_group_symop_operation_xyz
x,y,z
-x,y,-z
-x,-y,-z
x,-y,z
1/2+x,1/2+y,z
1/2-x,1/2+y,-z
1/2-x,1/2-y,-z
1/2+x,1/2-y,z
loop_
_atom_site_type_symbol
_atom_site_label
_atom_site_fract_x
_atom_site_fract_y
_atom_site_fract_z
Si Si1 0.848667 0.289129 0.777580
Si Si2 0.105962 0.791159 0.981481
Si Si3 0.180399 0.296341 0.700043
Si Si4 0.818883 0.208990 0.465704
Si Si5 0.763655 0.789357 0.080586
Si Si6 0.449452 0.203322 0.835168
Si Si7 0.569432 0.787209 0.837670
Si Si8 0.312244 0.288343 0.631691
O O1 0.848200 0.500000 0.789226
O O2 0.788661 0.220158 0.843007
O O3 0.904652 0.218373 0.795869
O O4 0.847561 0.254360 0.689604
O O5 0.171334 0.724028 0.933518
O O6 0.067262 0.756797 0.926607
O O7 0.108669 0.000000 0.993615
O O8 0.082084 0.708276 0.068956
O O9 0.186413 0.500000 0.719261
O O10 0.159960 0.288852 0.622553
O O11 0.130081 0.217835 0.775277
O O12 0.245674 0.219315 0.673228
O O13 0.750000 0.250000 0.500000
O O14 0.838375 0.272410 0.539267
O O15 0.827670 0.000000 0.455879
O O16 0.765040 0.000000 0.089787
O O17 0.750000 0.750000 0.000000
O O18 0.513224 0.281076 0.819416
O O19 0.458462 0.000000 0.808997
O O20 0.569403 0.000000 0.831541
O O21 0.307824 0.500000 0.626934
#
# Coordination Sequence:
#
# PCOD9191390 Si02
#       8
#     8   8   8   8   8   8   8   8
#     4  10  20  33  50  72  98 129 169 209 245 293
#     4  11  22  34  51  76 101 128 168 215 260 303
#     4   9  18  33  52  77 104 130 164 205 250 298
#     4   9  17  30  50  77 107 135 162 196 244 301
#     4  10  20  33  49  71  98 128 162 202 249 297
#     4  10  21  37  53  69  95 135 177 212 251 299
#     4  10  21  36  54  73  97 133 173 212 253 299
#     4   9  18  31  49  76 105 129 156 194 246 302
#
# _framework density 20.604966999999998
#
# number of rings (size 3 to 8) (size 9 to 14) (size 15 to 20)
#    0.000    2.250    1.250    2.625    0.000    6.500 
#    0.000    0.000    0.000    0.750    0.000    5.250 
#    0.000    0.000    0.000    0.000    0.000    0.000 
#
# Total GULP energy -178564.365749 kJ/mol
# GULP energy per Si atom -5580.136430 kJ/mol
# Density = 2.055807 g / cm^3
# Si number density = 20.604967 Si / 1000 Ang^3
#
#
#
# Elastic Constant Matrix: (Units=GPa)
#
#
# Indices 1 2 3 4 5 6 
#
# 1 83.9355 -1.6967 24.8278 0.0000 17.8754 0.0000
# 2 -1.6967 45.7174 -19.5658 0.0000 -5.8411 0.0000
# 3 24.8278 -19.5658 89.2167 0.0000 28.8432 0.0000
# 4 0.0000 0.0000 0.0000 21.4564 0.0000 6.3842
# 5 17.8754 -5.8411 28.8432 0.0000 22.8477 0.0000
# 6 0.0000 0.0000 0.0000 6.3842 0.0000 11.3289
#
#
#
# Elastic Compliance Matrix: (Units=1/GPa)
#
#
# Indices 1 2 3 4 5 6 
#
# 1 0.014373 -0.001179 -0.000888 0.000000 -0.010426 0.000000
# 2 -0.001179 0.024246 0.005649 0.000000 -0.000010 0.000000
# 3 -0.000888 0.005649 0.020280 0.000000 -0.023463 0.000000
# 4 0.000000 0.000000 0.000000 0.055995 0.000000 -0.031555
# 5 -0.010426 -0.000010 -0.023463 0.000000 0.081542 0.000000
# 6 0.000000 0.000000 0.000000 -0.031555 0.000000 0.106052
#
#
# Mechanical properties :
#
#
# Convention : Reuss Voigt Hill
#
# Bulk Modulus (GPa) = 15.13703 25.11114 20.12408
# Shear Modulus (GPa) = 15.75576 25.48023 20.61800
#
# Velocity S-wave (km/s) = 2.76825 3.52036 3.16671
# Velocity P-wave (km/s) = 4.19283 5.36072 4.81233
#
# Compressibility (1/GPa) = 0.06606317
#
# Stress axis : x y z
#
# Youngs Moduli (GPa) = 69.57505 41.24414 49.30998
#
# Poissons Ratio (x) = 0.04861 0.04377
# Poissons Ratio (y) = 0.08200 -0.27853
# Poissons Ratio (z) = 0.06176 -0.23297
#
# Static dielectric constant tensor:
#      x y z
#    x 1.756860 0.000000 0.005500 
#    y 0.000000 2.351300 0.000000 
#    z 0.005500 0.000000 1.739910 
# 
# From -- ./inp_files/287527.got.cif
#   From: 2010.05.17/outbox.cif.g08.bks.cpg/sg12_144_cif.got.tgz:287527.got - 2010.06.03 13:09:07.
