data_PCOD9191738
_publ_section_title
;
Structure prediction by ZEFSAII (Michael W. Deem and Ramdas Pophale) SiO2 
 PCOD9191738
Probable space group: C 2/M
;
_chemical_formula_sum "Si O2"
_cell_formula_units_Z 56
_cell_length_a 14.085666
_cell_length_b 8.979340
_cell_length_c 18.580043
_cell_angle_alpha 90.000000
_cell_angle_beta 89.608542
_cell_angle_gamma 90.000000
_cell_volume 2349.948696
_symmetry_space_group_name_H-M "C 2/M"
_symmetry_group_IT_number 12
_symmetry_cell_setting 'monoclinic'
loop_
_space_group_symop_operation_xyz
x,y,z
-x,y,-z
-x,-y,-z
x,-y,z
1/2+x,1/2+y,z
1/2-x,1/2+y,-z
1/2-x,1/2-y,-z
1/2+x,1/2-y,z
loop_
_atom_site_type_symbol
_atom_site_label
_atom_site_fract_x
_atom_site_fract_y
_atom_site_fract_z
Si Si1 0.344903 0.322440 0.129010
Si Si2 0.381385 0.830391 0.555016
Si Si3 0.454504 0.175803 0.838997
Si Si4 0.846912 0.829548 0.410380
Si Si5 0.805747 0.334806 0.271750
Si Si6 0.586962 0.665444 0.306521
Si Si7 0.888828 0.826180 0.974269
O O1 0.333125 0.500000 0.133108
O O2 0.452440 0.273181 0.145720
O O3 0.293201 0.242102 0.194735
O O4 0.331996 0.276259 0.045936
O O5 0.267707 0.830947 0.573824
O O6 0.389065 0.768114 0.474586
O O7 0.431886 0.728628 0.614350
O O8 0.414059 0.000000 0.560598
O O9 0.432020 0.219253 0.757449
O O10 0.382264 0.229029 0.902176
O O11 0.469114 0.000000 0.847042
O O12 0.861066 0.762576 0.330454
O O13 0.878649 0.000000 0.414494
O O14 0.848248 0.500000 0.263239
O O15 0.700742 0.351061 0.303152
O O16 0.546478 0.500000 0.292830
O O17 0.867782 0.000000 0.958747
O O18 0.000000 0.820591 0.000000
#
# Coordination Sequence:
#
# PCOD9191738 Si02
#       7
#     8   8   8   8   8   8   8
#     4  10  20  35  55  76 101 133 167 205 251 302
#     4   9  16  27  45  70  98 128 167 210 247 288
#     4  11  21  33  53  78 102 130 168 210 249 295
#     4   9  16  27  45  69  98 132 167 203 247 296
#     4  10  20  33  51  76 104 133 168 211 253 294
#     4  10  20  34  51  73 104 137 168 206 254 301
#     4   8  16  32  52  73  97 128 166 206 248 295
#
# _framework density 23.830307999999999
#
# number of rings (size 3 to 8) (size 9 to 14) (size 15 to 20)
#    0.000    2.429    0.000    4.286    0.000    8.286 
#    0.000    0.714    0.000    0.857    0.000    6.000 
#    0.000    0.000    0.000    0.000    0.000    0.000 
#
# Total GULP energy -156530.047199 kJ/mol
# GULP energy per Si atom -5590.358829 kJ/mol
# Density = 2.377607 g / cm^3
# Si number density = 23.830308 Si / 1000 Ang^3
#
#
#
# Elastic Constant Matrix: (Units=GPa)
#
#
# Indices 1 2 3 4 5 6 
#
# 1 36.0833 -10.6092 18.5473 0.0000 -12.1501 0.0000
# 2 -10.6092 99.7719 62.9468 0.0000 -13.0432 0.0000
# 3 18.5473 62.9468 164.9650 0.0000 -13.9751 0.0000
# 4 0.0000 0.0000 0.0000 22.3589 0.0000 11.6339
# 5 -12.1501 -13.0432 -13.9751 0.0000 39.8952 0.0000
# 6 0.0000 0.0000 0.0000 11.6339 0.0000 9.4580
#
#
#
# Elastic Compliance Matrix: (Units=1/GPa)
#
#
# Indices 1 2 3 4 5 6 
#
# 1 0.038717 0.010326 -0.007223 0.000000 0.012637 0.000000
# 2 0.010326 0.016228 -0.006840 0.000000 0.006054 0.000000
# 3 -0.007223 -0.006840 0.009387 0.000000 -0.001148 0.000000
# 4 0.000000 0.000000 0.000000 0.124248 0.000000 -0.152833
# 5 0.012637 0.006054 -0.001148 0.000000 0.030492 0.000000
# 6 0.000000 0.000000 0.000000 -0.152833 0.000000 0.293725
#
#
# Mechanical properties :
#
#
# Convention : Reuss Voigt Hill
#
# Bulk Modulus (GPa) = 17.58769 49.17669 33.38219
# Shear Modulus (GPa) = 9.27259 29.67143 19.47201
#
# Velocity S-wave (km/s) = 1.97473 3.53244 2.86162
# Velocity P-wave (km/s) = 3.54906 6.10889 4.99572
#
# Compressibility (1/GPa) = 0.05685796
#
# Stress axis : x y z
#
# Youngs Moduli (GPa) = 25.82822 61.62242 106.53277
#
# Poissons Ratio (x) = -0.63630 0.76944
# Poissons Ratio (y) = -0.26670 0.72871
# Poissons Ratio (z) = 0.18655 0.42151
#
# Static dielectric constant tensor:
#      x y z
#    x 2.051310 0.000000 -0.066090 
#    y 0.000000 1.838780 0.000000 
#    z -0.066090 0.000000 1.890280 
# 
# From -- ./inp_files/287058.got.cif
#   From: 2010.05.17/outbox.cif.g08.bks.cpg/sg12_144_cif.got.tgz:287058.got - 2010.06.03 13:09:07.
