data_PCOD9191499
_publ_section_title
;
Structure prediction by ZEFSAII (Michael W. Deem and Ramdas Pophale) SiO2 
 PCOD9191499
Probable space group: C 2/M
;
_chemical_formula_sum "Si O2"
_cell_formula_units_Z 40
_cell_length_a 9.925917
_cell_length_b 13.836889
_cell_length_c 12.985041
_cell_angle_alpha 90.000000
_cell_angle_beta 53.251149
_cell_angle_gamma 90.000000
_cell_volume 1428.989488
_symmetry_space_group_name_H-M "C 2/M"
_symmetry_group_IT_number 12
_symmetry_cell_setting 'monoclinic'
loop_
_space_group_symop_operation_xyz
x,y,z
-x,y,-z
-x,-y,-z
x,-y,z
1/2+x,1/2+y,z
1/2-x,1/2+y,-z
1/2-x,1/2-y,-z
1/2+x,1/2-y,z
loop_
_atom_site_type_symbol
_atom_site_label
_atom_site_fract_x
_atom_site_fract_y
_atom_site_fract_z
Si Si1 0.853769 0.356417 0.184863
Si Si2 0.119972 0.893887 0.633253
Si Si3 0.928043 0.669185 0.375429
Si Si4 0.261047 0.134189 0.015439
Si Si5 0.184953 0.132240 0.832335
O O1 0.819908 0.358340 0.321690
O O2 0.863747 0.244285 0.151601
O O3 0.043357 0.393833 0.087305
O O4 0.733205 0.392793 0.148223
O O5 0.051217 0.787054 0.629517
O O6 0.318089 0.873579 0.517140
O O7 0.104184 0.902626 0.763655
O O8 0.075026 0.000000 0.608296
O O9 0.113178 0.627171 0.277373
O O10 0.162741 0.098133 0.960064
O O11 0.250000 0.250000 0.000000
#
# Coordination Sequence:
#
# PCOD9191499 Si02
#       5
#     8   8   8   8   8
#     4   8  14  25  43  68  95 124 159 196 235 286
#     4  10  20  33  50  72  98 129 166 206 246 289
#     4   9  18  31  48  71 100 129 163 203 244 290
#     4   8  13  23  42  70  95 121 157 195 236 285
#     4   9  16  27  46  71  96 125 159 198 240 287
#
# _framework density 27.991809
#
# number of rings (size 3 to 8) (size 9 to 14) (size 15 to 20)
#    0.000    3.200    0.000    0.600    0.000    1.600 
#    0.000    0.000    0.000   22.800    0.000  284.200 
#    0.000    0.000    0.000    0.000    0.000    0.000 
#
# Total GULP energy -111590.768517 kJ/mol
# GULP energy per Si atom -5579.538426 kJ/mol
# Density = 2.792810 g / cm^3
# Si number density = 27.991809 Si / 1000 Ang^3
#
#
#
# Elastic Constant Matrix: (Units=GPa)
#
#
# Indices 1 2 3 4 5 6 
#
# 1 172.1532 1.4368 36.4940 -0.0001 32.8791 0.0001
# 2 1.4368 183.2533 8.6085 0.0000 10.3677 0.0000
# 3 36.4940 8.6085 148.0820 -0.0001 28.6174 0.0001
# 4 -0.0001 0.0000 -0.0001 -55.0846 0.0001 16.4311
# 5 32.8791 10.3677 28.6174 0.0001 52.9692 -0.0001
# 6 0.0001 0.0000 0.0001 16.4311 -0.0001 -47.1024
#
#
#
# Elastic Compliance Matrix: (Units=1/GPa)
#
#
# Indices 1 2 3 4 5 6 
#
# 1 0.006714 0.000201 -0.000953 0.000000 -0.003692 0.000000
# 2 0.000201 0.005526 -0.000154 0.000000 -0.001123 0.000000
# 3 -0.000953 -0.000154 0.007678 0.000000 -0.003527 0.000000
# 4 0.000000 0.000000 0.000000 -0.020262 0.000000 -0.007068
# 5 -0.003692 -0.001123 -0.003527 0.000000 0.023296 0.000000
# 6 0.000000 0.000000 0.000000 -0.007068 0.000000 -0.023696
#
#
# Mechanical properties :
#
#
# Convention : Reuss Voigt Hill
#
# Bulk Modulus (GPa) = 55.22518 66.28525 60.75521
# Shear Modulus (GPa) = 703.87999 20.61971 362.24985
#
# Velocity S-wave (km/s) = 15.87467 2.71704 11.38832
# Velocity P-wave (km/s) = 18.86210 5.79437 13.95266
#
# Compressibility (1/GPa) = 0.01810768
#
# Stress axis : x y z
#
# Youngs Moduli (GPa) = 148.93674 180.95854 130.23649
#
# Poissons Ratio (x) = -0.03637 0.12409
# Poissons Ratio (y) = -0.02994 0.02002
# Poissons Ratio (z) = 0.14191 0.02781
#
# Static dielectric constant tensor:
#      x y z
#    x 2.202240 0.000000 0.020260 
#    y 0.000000 2.442420 0.000000 
#    z 0.020260 0.000000 2.202610 
# 
# From -- ./inp_files/203841.got.cif
#   From: 2010.05.17/outbox.cif.g08.bks.cpg/sg12_102_cif.got.tgz:203841.got - 2010.06.03 13:09:07.
