data_PCOD9191425
_publ_section_title
;
Structure prediction by ZEFSAII (Michael W. Deem and Ramdas Pophale) SiO2 
 PCOD9191425
Probable space group: C 2/M
;
_chemical_formula_sum "Si O2"
_cell_formula_units_Z 32
_cell_length_a 16.884157
_cell_length_b 21.413246
_cell_length_c 16.538408
_cell_angle_alpha 90.000000
_cell_angle_beta 163.011189
_cell_angle_gamma 90.000000
_cell_volume 1747.082559
_symmetry_space_group_name_H-M "C 2/M"
_symmetry_group_IT_number 12
_symmetry_cell_setting 'monoclinic'
loop_
_space_group_symop_operation_xyz
x,y,z
-x,y,-z
-x,-y,-z
x,-y,z
1/2+x,1/2+y,z
1/2-x,1/2+y,-z
1/2-x,1/2-y,-z
1/2+x,1/2-y,z
loop_
_atom_site_type_symbol
_atom_site_label
_atom_site_fract_x
_atom_site_fract_y
_atom_site_fract_z
Si Si1 0.603379 0.722981 0.510309
Si Si2 0.849342 0.307197 0.040007
Si Si3 0.910481 0.637338 0.570982
Si Si4 0.926544 0.073268 0.020115
O O1 0.500000 0.714620 0.500000
O O2 0.419425 0.678821 0.273296
O O3 0.554781 0.795087 0.437027
O O4 0.917595 0.711879 0.796196
O O5 0.991244 0.354445 0.240857
O O6 0.750000 0.250000 0.000000
O O7 0.607847 0.613772 0.258715
O O8 0.113827 0.588880 0.728292
O O9 0.980348 0.000000 0.083379
O O10 0.000000 0.091026 0.000000
#
# Coordination Sequence:
#
# PCOD9191425 Si02
#       4
#     8   8   8   8
#     4  11  20  32  51  76 104 134 168 201 243 301
#     4  10  20  33  49  73 102 133 168 205 243 296
#     4  11  20  34  51  69 100 138 166 196 247 292
#     4  11  22  34  49  72 100 131 171 210 238 278
#
# _framework density 18.31625
#
# number of rings (size 3 to 8) (size 9 to 14) (size 15 to 20)
#    0.000    1.250    0.000   11.250    0.000    2.000 
#    0.000    0.000    0.000    0.000    0.000    0.000 
#    0.000   70.000    0.000    0.000    0.000    0.000 
#
# Total GULP energy -89281.829076 kJ/mol
# GULP energy per Si atom -5580.114317 kJ/mol
# Density = 1.827456 g / cm^3
# Si number density = 18.316250 Si / 1000 Ang^3
#
#
#
# Elastic Constant Matrix: (Units=GPa)
#
#
# Indices 1 2 3 4 5 6 
#
# 1 55.9172 1.4015 -2.4610 0.0019 21.4595 0.0007
# 2 1.4015 27.8304 -0.8658 0.0006 -7.2840 0.0003
# 3 -2.4610 -0.8658 75.2233 0.0003 12.4188 0.0008
# 4 0.0019 0.0006 0.0003 11.2355 -0.0006 -1.8635
# 5 21.4595 -7.2840 12.4188 -0.0006 35.5524 0.0005
# 6 0.0007 0.0003 0.0008 -1.8635 0.0005 12.4942
#
#
#
# Elastic Compliance Matrix: (Units=1/GPa)
#
#
# Indices 1 2 3 4 5 6 
#
# 1 0.024887 -0.005710 0.003631 -0.000005 -0.017460 -0.000002
# 2 -0.005710 0.039335 -0.001734 -0.000001 0.012111 -0.000001
# 3 0.003631 -0.001734 0.014658 -0.000001 -0.007667 -0.000001
# 4 -0.000005 -0.000001 -0.000001 0.091261 0.000005 0.013611
# 5 -0.017460 0.012111 -0.007667 0.000005 0.043826 0.000000
# 6 -0.000002 -0.000001 -0.000001 0.013611 0.000000 0.082068
#
#
# Mechanical properties :
#
#
# Convention : Reuss Voigt Hill
#
# Bulk Modulus (GPa) = 14.03394 17.23559 15.63477
# Shear Modulus (GPa) = 15.27121 22.58281 18.92701
#
# Velocity S-wave (km/s) = 2.89061 3.51513 3.21806
# Velocity P-wave (km/s) = 4.33814 5.08972 4.72889
#
# Compressibility (1/GPa) = 0.07125582
#
# Stress axis : x y z
#
# Youngs Moduli (GPa) = 40.18105 25.42233 68.22028
#
# Poissons Ratio (x) = 0.14517 -0.24771
# Poissons Ratio (y) = 0.22944 0.11827
# Poissons Ratio (z) = -0.14590 0.04407
#
# Static dielectric constant tensor:
#      x y z
#    x 1.662160 0.000000 -0.006960 
#    y 0.000000 1.607240 0.000000 
#    z -0.006960 0.000000 1.662980 
# 
# From -- ./inp_files/11035.got.cif
#   From: 2010.05.17/outbox.cif.g08.bks.cpg/sg12_6_cif.got.tgz:11035.got - 2010.06.03 13:09:07.
