data_PCOD9191481
_publ_section_title
;
Structure prediction by ZEFSAII (Michael W. Deem and Ramdas Pophale) SiO2 
 PCOD9191481
Probable space group: C 2/M
;
_chemical_formula_sum "Si O2"
_cell_formula_units_Z 64
_cell_length_a 31.155462
_cell_length_b 8.607055
_cell_length_c 15.335752
_cell_angle_alpha 90.000000
_cell_angle_beta 79.180644
_cell_angle_gamma 90.000000
_cell_volume 4039.283586
_symmetry_space_group_name_H-M "C 2/M"
_symmetry_group_IT_number 12
_symmetry_cell_setting 'monoclinic'
loop_
_space_group_symop_operation_xyz
x,y,z
-x,y,-z
-x,-y,-z
x,-y,z
1/2+x,1/2+y,z
1/2-x,1/2+y,-z
1/2-x,1/2-y,-z
1/2+x,1/2-y,z
loop_
_atom_site_type_symbol
_atom_site_label
_atom_site_fract_x
_atom_site_fract_y
_atom_site_fract_z
Si Si1 0.716031 0.686136 0.196200
Si Si2 0.781097 0.685410 0.614899
Si Si3 0.188006 0.186565 0.876545
Si Si4 0.054998 0.312585 0.068530
Si Si5 0.686101 0.685556 0.574081
Si Si6 0.127839 0.686396 0.744041
Si Si7 0.542340 0.811098 0.872573
Si Si8 0.853316 0.813101 0.922052
O O1 0.720156 0.500000 0.189269
O O2 0.707088 0.735332 0.298829
O O3 0.761987 0.761092 0.150813
O O4 0.677760 0.737355 0.145167
O O5 0.782692 0.500000 0.623973
O O6 0.731154 0.728820 0.607580
O O7 0.810361 0.738775 0.522351
O O8 0.159979 0.261616 0.809744
O O9 0.185537 0.000000 0.869439
O O10 0.168168 0.234483 0.977418
O O11 0.056240 0.500000 0.069646
O O12 0.097532 0.249046 0.099552
O O13 0.007714 0.261954 0.123130
O O14 0.055609 0.264236 0.966055
O O15 0.685608 0.500000 0.565791
O O16 0.646289 0.742607 0.648173
O O17 0.128462 0.500000 0.737674
O O18 0.079312 0.739200 0.790875
O O19 0.542291 0.000000 0.872662
O O20 0.854703 0.000000 0.920878
#
# Coordination Sequence:
#
# PCOD9191481 Si02
#       8
#     8   8   8   8   8   8   8   8
#     4  11  22  35  50  68  96 134 170 205 244 287
#     4  10  20  34  51  72  97 126 162 204 243 289
#     4  11  21  33  46  67 100 133 170 208 236 280
#     4   9  16  31  51  70  94 128 167 205 242 286
#     4  10  20  33  50  72 100 128 159 201 244 292
#     4  11  19  30  50  74 100 132 164 198 244 293
#     4   8  16  29  48  73  98 125 163 204 243 289
#     4  10  22  35  47  69 100 132 169 208 245 285
#
# _framework density 15.844395
#
# number of rings (size 3 to 8) (size 9 to 14) (size 15 to 20)
#    0.000    2.000    2.500    3.000    0.000    2.500 
#    0.000    2.500    0.000    0.000    0.000    0.875 
#    0.000    7.000    0.000    0.000    0.000    0.000 
#
# Total GULP energy -178567.405479 kJ/mol
# GULP energy per Si atom -5580.231421 kJ/mol
# Density = 1.580833 g / cm^3
# Si number density = 15.844395 Si / 1000 Ang^3
#
#
#
# Elastic Constant Matrix: (Units=GPa)
#
#
# Indices 1 2 3 4 5 6 
#
# 1 99.9875 3.4018 46.4651 0.0000 -15.3508 0.0000
# 2 3.4018 12.6569 5.4448 0.0000 -1.8884 0.0000
# 3 46.4651 5.4448 71.1304 0.0000 -15.1737 0.0000
# 4 0.0000 0.0000 0.0000 24.3629 0.0000 -0.7039
# 5 -15.3508 -1.8884 -15.1737 0.0000 25.9769 0.0000
# 6 0.0000 0.0000 0.0000 -0.7039 0.0000 22.0900
#
#
#
# Elastic Compliance Matrix: (Units=1/GPa)
#
#
# Indices 1 2 3 4 5 6 
#
# 1 0.014636 0.000394 -0.008841 0.000000 0.003513 0.000000
# 2 0.000394 0.081864 -0.005945 0.000000 0.002711 0.000000
# 3 -0.008841 -0.005945 0.021799 0.000000 0.007076 0.000000
# 4 0.000000 0.000000 0.000000 0.041084 0.000000 0.001309
# 5 0.003513 0.002711 0.007076 0.000000 0.044902 0.000000
# 6 0.000000 0.000000 0.000000 0.001309 0.000000 0.045311
#
#
# Mechanical properties :
#
#
# Convention : Reuss Voigt Hill
#
# Bulk Modulus (GPa) = 11.17152 32.71091 21.94122
# Shear Modulus (GPa) = 16.22217 23.05016 19.63616
#
# Velocity S-wave (km/s) = 3.20323 3.81830 3.52421
# Velocity P-wave (km/s) = 4.55488 6.33476 5.51707
#
# Compressibility (1/GPa) = 0.08951330
#
# Stress axis : x y z
#
# Youngs Moduli (GPa) = 68.32504 12.21532 45.87382
#
# Poissons Ratio (x) = -0.00481 0.40559
# Poissons Ratio (y) = -0.02692 0.27274
# Poissons Ratio (z) = 0.60410 0.07263
#
# Static dielectric constant tensor:
#      x y z
#    x 1.521910 0.000000 -0.015650 
#    y 0.000000 1.536690 0.000000 
#    z -0.015650 0.000000 1.520130 
# 
# From -- ./inp_files/243957.got.cif
#   From: 2010.05.17/outbox.cif.g08.bks.cpg/sg12_122_cif.got.tgz:243957.got - 2010.06.03 13:09:07.
