data_PCOD9191407
_publ_section_title
;
Structure prediction by ZEFSAII (Michael W. Deem and Ramdas Pophale) SiO2 
 PCOD9191407
Probable space group: C 2/M
;
_chemical_formula_sum "Si O2"
_cell_formula_units_Z 48
_cell_length_a 15.028620
_cell_length_b 7.416839
_cell_length_c 16.411033
_cell_angle_alpha 90.000000
_cell_angle_beta 103.488513
_cell_angle_gamma 90.000000
_cell_volume 1778.796573
_symmetry_space_group_name_H-M "C 2/M"
_symmetry_group_IT_number 12
_symmetry_cell_setting 'monoclinic'
loop_
_space_group_symop_operation_xyz
x,y,z
-x,y,-z
-x,-y,-z
x,-y,z
1/2+x,1/2+y,z
1/2-x,1/2+y,-z
1/2-x,1/2-y,-z
1/2+x,1/2-y,z
loop_
_atom_site_type_symbol
_atom_site_label
_atom_site_fract_x
_atom_site_fract_y
_atom_site_fract_z
Si Si1 0.588631 0.785450 0.121205
Si Si2 0.215075 0.715286 0.812965
Si Si3 0.612353 0.780301 0.941674
Si Si4 0.841212 0.293565 0.633093
Si Si5 0.537656 0.214118 0.682027
Si Si6 0.646211 0.283085 0.553168
O O1 0.681089 0.751811 0.190793
O O2 0.485640 0.726852 0.119454
O O3 0.581307 0.000000 0.114990
O O4 0.608842 0.715807 0.033739
O O5 0.207517 0.500000 0.810812
O O6 0.193834 0.780865 0.900703
O O7 0.128710 0.787896 0.744432
O O8 0.615700 0.000000 0.945180
O O9 0.836686 0.500000 0.661085
O O10 0.739343 0.214664 0.618173
O O11 0.854226 0.295218 0.537191
O O12 0.937569 0.211500 0.682703
O O13 0.561215 0.238358 0.592064
O O14 0.532402 0.000000 0.698386
O O15 0.652292 0.500000 0.546510
#
# Coordination Sequence:
#
# PCOD9191407 Si02
#       6
#     8   8   8   8   8   8
#     4   9  17  32  54  76  97 127 168 210 249 291
#     4  10  20  33  49  72 102 134 166 202 246 295
#     4   8  16  32  53  74  98 131 168 203 245 300
#     4   9  19  36  55  74  99 133 167 198 243 302
#     4  10  21  35  50  70 101 139 169 195 240 303
#     4  10  20  34  55  80 100 123 164 214 251 282
#
# _framework density 26.984537
#
# number of rings (size 3 to 8) (size 9 to 14) (size 15 to 20)
#    0.000    2.667    0.000    2.500    0.000    5.333 
#    0.000    5.833    0.000    0.000    0.000    0.000 
#    0.000    0.000    0.000    0.000    0.000    0.000 
#
# Total GULP energy -134186.078086 kJ/mol
# GULP energy per Si atom -5591.086587 kJ/mol
# Density = 2.692312 g / cm^3
# Si number density = 26.984537 Si / 1000 Ang^3
#
#
#
# Elastic Constant Matrix: (Units=GPa)
#
#
# Indices 1 2 3 4 5 6 
#
# 1 196.8806 0.1948 21.8235 0.0000 18.9303 0.0000
# 2 0.1948 103.1961 -5.9690 0.0000 6.6223 0.0000
# 3 21.8235 -5.9690 73.5605 0.0000 20.0684 0.0000
# 4 0.0000 0.0000 0.0000 5.1479 0.0000 6.3158
# 5 18.9303 6.6223 20.0684 0.0000 51.1288 0.0000
# 6 0.0000 0.0000 0.0000 6.3158 0.0000 12.0096
#
#
#
# Elastic Compliance Matrix: (Units=1/GPa)
#
#
# Indices 1 2 3 4 5 6 
#
# 1 0.005356 0.000020 -0.001171 0.000000 -0.001526 0.000000
# 2 0.000020 0.009879 0.001284 0.000000 -0.001791 0.000000
# 3 -0.001171 0.001284 0.015649 0.000000 -0.005875 0.000000
# 4 0.000000 0.000000 0.000000 0.547491 0.000000 -0.287922
# 5 -0.001526 -0.001791 -0.005875 0.000000 0.022661 0.000000
# 6 0.000000 0.000000 0.000000 -0.287922 0.000000 0.234683
#
#
# Mechanical properties :
#
#
# Convention : Reuss Voigt Hill
#
# Bulk Modulus (GPa) = 32.10192 45.08175 38.59183
# Shear Modulus (GPa) = 5.91132 37.49646 21.70389
#
# Velocity S-wave (km/s) = 1.48168 3.73172 2.83911
# Velocity P-wave (km/s) = 3.85349 5.94225 5.00798
#
# Compressibility (1/GPa) = 0.03115079
#
# Stress axis : x y z
#
# Youngs Moduli (GPa) = 186.71627 101.21984 63.90324
#
# Poissons Ratio (x) = -0.00203 0.07483
# Poissons Ratio (y) = -0.00375 -0.08207
# Poissons Ratio (z) = 0.21864 -0.13000
#
# Static dielectric constant tensor:
#      x y z
#    x 2.068610 0.000000 0.046370 
#    y 0.000000 2.016380 0.000000 
#    z 0.046370 0.000000 2.213000 
# 
# From -- ./inp_files/308257.got.cif
#   From: 2010.05.17/outbox.cif.g08.bks.cpg/sg12_155_cif.got.tgz:308257.got - 2010.06.03 13:09:07.
