data_PCOD9191306
_publ_section_title
;
Structure prediction by ZEFSAII (Michael W. Deem and Ramdas Pophale) SiO2 
 PCOD9191306
Probable space group: C 2/M
;
_chemical_formula_sum "Si O2"
_cell_formula_units_Z 64
_cell_length_a 25.209913
_cell_length_b 8.426277
_cell_length_c 16.968011
_cell_angle_alpha 90.000000
_cell_angle_beta 68.450430
_cell_angle_gamma 90.000000
_cell_volume 3352.491801
_symmetry_space_group_name_H-M "C 2/M"
_symmetry_group_IT_number 12
_symmetry_cell_setting 'monoclinic'
loop_
_space_group_symop_operation_xyz
x,y,z
-x,y,-z
-x,-y,-z
x,-y,z
1/2+x,1/2+y,z
1/2-x,1/2+y,-z
1/2-x,1/2-y,-z
1/2+x,1/2-y,z
loop_
_atom_site_type_symbol
_atom_site_label
_atom_site_fract_x
_atom_site_fract_y
_atom_site_fract_z
Si Si1 0.601242 0.811304 0.731398
Si Si2 0.514917 0.320691 0.260724
Si Si3 0.312414 0.689293 0.197573
Si Si4 0.363650 0.692277 0.750065
Si Si5 0.342752 0.184016 0.459012
Si Si6 0.703225 0.807610 0.359001
Si Si7 0.045906 0.818775 0.537733
Si Si8 0.252432 0.689260 0.910111
O O1 0.535048 0.764625 0.760060
O O2 0.630037 0.750729 0.794924
O O3 0.638969 0.744832 0.635840
O O4 0.604993 0.000000 0.724321
O O5 0.521880 0.500000 0.225603
O O6 0.577463 0.250107 0.242772
O O7 0.487590 0.330280 0.362290
O O8 0.311858 0.500000 0.198058
O O9 0.260614 0.745644 0.283061
O O10 0.298048 0.748989 0.118319
O O11 0.367015 0.500000 0.744023
O O12 0.347935 0.752155 0.670941
O O13 0.310887 0.739941 0.834514
O O14 0.299451 0.251647 0.548668
O O15 0.401671 0.203177 0.475934
O O16 0.328085 0.000000 0.454488
O O17 0.702419 0.000000 0.361904
O O18 0.000000 0.763450 0.500000
O O19 0.065026 0.000000 0.506387
O O20 0.251439 0.500000 0.910800
O O21 0.250000 0.750000 0.000000
#
# Coordination Sequence:
#
# PCOD9191306 Si02
#       8
#     8   8   8   8   8   8   8   8
#     4  10  20  33  48  69  99 137 178 214 250 293
#     4   9  17  30  47  68  96 131 169 207 246 291
#     4  10  20  35  54  75 100 132 169 208 251 298
#     4   9  18  32  52  77 103 131 165 205 249 297
#     4   9  18  30  42  61  93 131 171 213 253 293
#     4   9  18  31  47  69  98 132 171 215 260 300
#     4   9  16  25  39  60  87 122 166 212 252 289
#     4  10  20  36  59  86 110 130 155 192 243 301
#
# _framework density 19.090275999999999
#
# number of rings (size 3 to 8) (size 9 to 14) (size 15 to 20)
#    0.000    2.625    0.000    1.875    0.000    4.250 
#    0.000    2.500    0.000    0.750    0.000    5.250 
#    0.000    0.000    0.000    0.000    0.000    0.000 
#
# Total GULP energy -178315.775341 kJ/mol
# GULP energy per Si atom -5572.367979 kJ/mol
# Density = 1.904683 g / cm^3
# Si number density = 19.090276 Si / 1000 Ang^3
#
#
#
# Elastic Constant Matrix: (Units=GPa)
#
#
# Indices 1 2 3 4 5 6 
#
# 1 94.4623 13.8638 35.6103 0.0000 30.7884 0.0000
# 2 13.8638 20.3335 13.2337 0.0000 6.3493 0.0000
# 3 35.6103 13.2337 71.4737 0.0000 20.9346 0.0000
# 4 0.0000 0.0000 0.0000 20.5132 0.0000 5.0347
# 5 30.7884 6.3493 20.9346 0.0000 25.8816 0.0000
# 6 0.0000 0.0000 0.0000 5.0347 0.0000 24.3233
#
#
#
# Elastic Compliance Matrix: (Units=1/GPa)
#
#
# Indices 1 2 3 4 5 6 
#
# 1 0.018360 -0.004932 -0.002872 0.000000 -0.018308 0.000000
# 2 -0.004932 0.058229 -0.007677 0.000000 -0.002207 0.000000
# 3 -0.002872 -0.007677 0.020039 0.000000 -0.010909 0.000000
# 4 0.000000 0.000000 0.000000 0.051358 0.000000 -0.010631
# 5 -0.018308 -0.002207 -0.010909 0.000000 0.069781 0.000000
# 6 0.000000 0.000000 0.000000 -0.010631 0.000000 0.043313
#
#
# Mechanical properties :
#
#
# Convention : Reuss Voigt Hill
#
# Bulk Modulus (GPa) = 15.22896 34.63166 24.93031
# Shear Modulus (GPa) = 15.92704 22.38105 19.15405
#
# Velocity S-wave (km/s) = 2.89156 3.42772 3.17099
# Velocity P-wave (km/s) = 4.37525 5.81773 5.14727
#
# Compressibility (1/GPa) = 0.06566437
#
# Stress axis : x y z
#
# Youngs Moduli (GPa) = 54.46670 17.17361 49.90346
#
# Poissons Ratio (x) = 0.08471 0.14332
# Poissons Ratio (y) = 0.26865 0.38313
# Poissons Ratio (z) = 0.15642 0.13185
#
# Static dielectric constant tensor:
#      x y z
#    x 1.698040 0.000000 -0.014750 
#    y 0.000000 1.678350 0.000000 
#    z -0.014750 0.000000 1.684840 
# 
# From -- ./inp_files/287596.got.cif
#   From: 2010.05.17/outbox.cif.g08.bks.cpg/sg12_144_cif.got.tgz:287596.got - 2010.06.03 13:09:07.
