data_PCOD9191256
_publ_section_title
;
Structure prediction by ZEFSAII (Michael W. Deem and Ramdas Pophale) SiO2 
 PCOD9191256
Probable space group: C 2/M
;
_chemical_formula_sum "Si O2"
_cell_formula_units_Z 64
_cell_length_a 19.538822
_cell_length_b 7.684101
_cell_length_c 23.292312
_cell_angle_alpha 90.000000
_cell_angle_beta 67.712197
_cell_angle_gamma 90.000000
_cell_volume 3235.803434
_symmetry_space_group_name_H-M "C 2/M"
_symmetry_group_IT_number 12
_symmetry_cell_setting 'monoclinic'
loop_
_space_group_symop_operation_xyz
x,y,z
-x,y,-z
-x,-y,-z
x,-y,z
1/2+x,1/2+y,z
1/2-x,1/2+y,-z
1/2-x,1/2-y,-z
1/2+x,1/2-y,z
loop_
_atom_site_type_symbol
_atom_site_label
_atom_site_fract_x
_atom_site_fract_y
_atom_site_fract_z
Si Si1 0.909452 0.289616 0.655933
Si Si2 0.174369 0.209868 0.991584
Si Si3 0.749470 0.704104 0.262834
Si Si4 0.571399 0.786864 0.600996
Si Si5 0.515186 0.701189 0.064110
Si Si6 0.143408 0.793600 0.873641
Si Si7 0.877859 0.704542 0.537597
Si Si8 0.781857 0.711382 0.380926
O O1 0.907592 0.500000 0.655246
O O2 0.838375 0.233225 0.714495
O O3 0.898699 0.223945 0.593618
O O4 0.990944 0.234473 0.649161
O O5 0.172908 0.272880 0.925770
O O6 0.168485 0.000000 0.992277
O O7 0.250000 0.250000 0.000000
O O8 0.097650 0.276590 0.044818
O O9 0.763343 0.500000 0.260471
O O10 0.798345 0.772369 0.195454
O O11 0.771790 0.775125 0.318640
O O12 0.582922 0.726092 0.531655
O O13 0.641242 0.730993 0.616147
O O14 0.572890 0.000000 0.599594
O O15 0.519903 0.500000 0.082129
O O16 0.439089 0.779232 0.113186
O O17 0.500000 0.701141 0.000000
O O18 0.132115 0.000000 0.885117
O O19 0.896183 0.500000 0.533919
O O20 0.789556 0.726183 0.561096
O O21 0.779728 0.500000 0.381833
#
# Coordination Sequence:
#
# PCOD9191256 Si02
#       8
#     8   8   8   8   8   8   8   8
#     4   9  17  30  48  67  89 120 156 191 227 275
#     4   9  17  30  50  77 105 127 148 182 228 271
#     4  10  20  33  47  65  91 122 156 193 232 272
#     4   9  16  28  47  68  89 115 149 191 237 281
#     4   7  12  26  48  71  93 119 153 187 215 251
#     4   9  17  32  54  72  88 122 166 193 215 261
#     4   9  16  27  46  70  90 112 149 192 231 277
#     4   9  18  31  45  63  90 121 149 184 235 284
#
# _framework density 19.778704999999999
#
# number of rings (size 3 to 8) (size 9 to 14) (size 15 to 20)
#    0.000    3.125    0.000    2.625    0.000    2.500 
#    0.000    3.125    0.000    9.750    0.000    0.000 
#    0.000    0.000    0.000    0.000    0.000    0.000 
#
# Total GULP energy -178287.836153 kJ/mol
# GULP energy per Si atom -5571.494880 kJ/mol
# Density = 1.973369 g / cm^3
# Si number density = 19.778705 Si / 1000 Ang^3
#
#
#
# Elastic Constant Matrix: (Units=GPa)
#
#
# Indices 1 2 3 4 5 6 
#
# 1 118.7022 -4.6417 42.6190 0.0000 -35.9291 -0.0001
# 2 -4.6417 31.9512 -1.1735 -0.0001 2.1497 0.0001
# 3 42.6190 -1.1735 101.4989 0.0000 -34.6662 -0.0001
# 4 0.0000 -0.0001 0.0000 2.5769 0.0000 0.5933
# 5 -35.9291 2.1497 -34.6662 0.0000 25.3210 0.0000
# 6 -0.0001 0.0001 -0.0001 0.5933 0.0000 14.4521
#
#
#
# Elastic Compliance Matrix: (Units=1/GPa)
#
#
# Indices 1 2 3 4 5 6 
#
# 1 0.014956 0.000649 0.001797 0.000000 0.023627 0.000000
# 2 0.000649 0.031563 -0.000955 0.000001 -0.003066 0.000000
# 3 0.001797 -0.000955 0.018755 0.000000 0.028308 0.000000
# 4 0.000000 0.000001 0.000000 0.391767 0.000001 -0.016083
# 5 0.023627 -0.003066 0.028308 0.000001 0.112034 0.000001
# 6 0.000000 0.000000 0.000000 -0.016083 0.000001 0.069855
#
#
# Mechanical properties :
#
#
# Convention : Reuss Voigt Hill
#
# Bulk Modulus (GPa) = 14.65040 36.19556 25.42298
# Shear Modulus (GPa) = 7.59072 22.82655 15.20863
#
# Velocity S-wave (km/s) = 1.96116 3.40089 2.77598
# Velocity P-wave (km/s) = 3.54280 5.81045 4.81211
#
# Compressibility (1/GPa) = 0.06825753
#
# Stress axis : x y z
#
# Youngs Moduli (GPa) = 66.86234 31.68241 53.31901
#
# Poissons Ratio (x) = -0.02056 -0.09582
# Poissons Ratio (y) = -0.04340 0.05090
# Poissons Ratio (z) = -0.12016 0.03025
#
# Static dielectric constant tensor:
#      x y z
#    x 1.722320 0.000000 -0.015270 
#    y 0.000000 1.743540 0.000000 
#    z -0.015270 0.000000 1.690310 
# 
# From -- ./inp_files/345535.got.cif
#   From: 2010.05.17/outbox.cif.g08.bks.cpg/sg12_173_cif.got.tgz:345535.got - 2010.06.03 13:09:07.
