data_PCOD9191682
_publ_section_title
;
Structure prediction by ZEFSAII (Michael W. Deem and Ramdas Pophale) SiO2 
 PCOD9191682
Probable space group: C 2/M
;
_chemical_formula_sum "Si O2"
_cell_formula_units_Z 64
_cell_length_a 28.773319
_cell_length_b 9.509383
_cell_length_c 14.089367
_cell_angle_alpha 90.000000
_cell_angle_beta 72.572199
_cell_angle_gamma 90.000000
_cell_volume 3678.116276
_symmetry_space_group_name_H-M "C 2/M"
_symmetry_group_IT_number 12
_symmetry_cell_setting 'monoclinic'
loop_
_space_group_symop_operation_xyz
x,y,z
-x,y,-z
-x,-y,-z
x,-y,z
1/2+x,1/2+y,z
1/2-x,1/2+y,-z
1/2-x,1/2-y,-z
1/2+x,1/2-y,z
loop_
_atom_site_type_symbol
_atom_site_label
_atom_site_fract_x
_atom_site_fract_y
_atom_site_fract_z
Si Si1 0.204130 0.836155 0.344996
Si Si2 0.944707 0.665949 0.507692
Si Si3 0.130747 0.665253 0.272600
Si Si4 0.685566 0.833847 0.693560
Si Si5 0.425510 0.832085 0.880764
Si Si6 0.894537 0.336534 0.113322
Si Si7 0.482889 0.660596 0.121100
Si Si8 0.370709 0.664415 0.432723
O O1 0.177364 0.750194 0.279361
O O2 0.258496 0.786452 0.336235
O O3 0.169172 0.826663 0.457986
O O4 0.207847 0.000000 0.315868
O O5 0.944153 0.500000 0.481501
O O6 0.911311 0.682148 0.621974
O O7 0.919065 0.758461 0.442182
O O8 0.000000 0.704943 0.500000
O O9 0.142483 0.500000 0.260686
O O10 0.108804 0.709585 0.185232
O O11 0.659086 0.820413 0.811388
O O12 0.653731 0.746004 0.639172
O O13 0.684683 0.000000 0.667619
O O14 0.476075 0.747854 0.849015
O O15 0.434956 0.000000 0.867764
O O16 0.400474 0.805613 0.998224
O O17 0.909224 0.500000 0.117346
O O18 0.931659 0.239917 0.149213
O O19 0.479166 0.500000 0.155919
O O20 0.500000 0.659547 0.000000
O O21 0.379489 0.500000 0.407047
#
# Coordination Sequence:
#
# PCOD9191682 Si02
#       8
#     8   8   8   8   8   8   8   8
#     4   9  19  35  52  71  96 125 159 199 244 294
#     4   9  18  33  51  72 100 131 161 194 233 283
#     4   9  18  32  51  72  94 125 163 199 236 283
#     4  10  20  34  52  72  95 127 164 201 243 289
#     4   9  17  31  50  71  96 129 168 201 233 282
#     4   9  18  32  49  69  96 129 164 202 239 280
#     4   9  17  29  46  69  97 127 159 197 240 283
#     4  10  20  33  51  75 100 126 157 197 245 293
#
# _framework density 17.400210999999999
#
# number of rings (size 3 to 8) (size 9 to 14) (size 15 to 20)
#    0.000    2.750    0.000    1.125    0.000    4.750 
#    0.000    3.125    0.000    0.000    0.000    0.000 
#    0.000    0.000    0.000    0.000    0.000    0.000 
#
# Total GULP energy -178432.725442 kJ/mol
# GULP energy per Si atom -5576.022670 kJ/mol
# Density = 1.736061 g / cm^3
# Si number density = 17.400211 Si / 1000 Ang^3
#
#
#
# Elastic Constant Matrix: (Units=GPa)
#
#
# Indices 1 2 3 4 5 6 
#
# 1 143.6990 64.5802 38.1429 0.0000 13.6722 0.0000
# 2 64.5802 61.4530 31.8450 0.0000 11.7841 0.0000
# 3 38.1429 31.8450 27.5239 0.0000 15.0804 0.0000
# 4 0.0000 0.0000 0.0000 15.7313 0.0000 4.9005
# 5 13.6722 11.7841 15.0804 0.0000 28.7228 0.0000
# 6 0.0000 0.0000 0.0000 4.9005 0.0000 32.1851
#
#
#
# Elastic Compliance Matrix: (Units=1/GPa)
#
#
# Indices 1 2 3 4 5 6 
#
# 1 0.013602 -0.010892 -0.007229 0.000000 0.001789 0.000000
# 2 -0.010892 0.052122 -0.051009 0.000000 0.010582 0.000000
# 3 -0.007229 -0.051009 0.129176 0.000000 -0.043453 0.000000
# 4 0.000000 0.000000 0.000000 0.066733 0.000000 -0.010161
# 5 0.001789 0.010582 -0.043453 0.000000 0.052436 0.000000
# 6 0.000000 0.000000 0.000000 -0.010161 0.000000 0.032617
#
#
# Mechanical properties :
#
#
# Convention : Reuss Voigt Hill
#
# Bulk Modulus (GPa) = 17.65536 55.75689 36.70613
# Shear Modulus (GPa) = 9.92404 21.86838 15.89621
#
# Velocity S-wave (km/s) = 2.39077 3.54897 3.02580
# Velocity P-wave (km/s) = 4.21778 6.99335 5.77480
#
# Compressibility (1/GPa) = 0.05664001
#
# Stress axis : x y z
#
# Youngs Moduli (GPa) = 73.51613 19.18564 7.74140
#
# Poissons Ratio (x) = 0.20896 0.05596
# Poissons Ratio (y) = 0.80070 0.39488
# Poissons Ratio (z) = 0.53147 0.97865
#
# Static dielectric constant tensor:
#      x y z
#    x 1.561900 0.000000 -0.014000 
#    y 0.000000 1.588560 0.000000 
#    z -0.014000 0.000000 1.602190 
# 
# From -- ./inp_files/243876.got.cif
#   From: 2010.05.17/outbox.cif.g08.bks.cpg/sg12_122_cif.got.tgz:243876.got - 2010.06.03 13:09:07.
