data_PCOD9191718
_publ_section_title
;
Structure prediction by ZEFSAII (Michael W. Deem and Ramdas Pophale) SiO2 
 PCOD9191718
Probable space group: C 2/M
;
_chemical_formula_sum "Si O2"
_cell_formula_units_Z 64
_cell_length_a 12.714011
_cell_length_b 27.295822
_cell_length_c 20.788458
_cell_angle_alpha 90.000000
_cell_angle_beta 149.376919
_cell_angle_gamma 90.000000
_cell_volume 3674.936546
_symmetry_space_group_name_H-M "C 2/M"
_symmetry_group_IT_number 12
_symmetry_cell_setting 'monoclinic'
loop_
_space_group_symop_operation_xyz
x,y,z
-x,y,-z
-x,-y,-z
x,-y,z
1/2+x,1/2+y,z
1/2-x,1/2+y,-z
1/2-x,1/2-y,-z
1/2+x,1/2-y,z
loop_
_atom_site_type_symbol
_atom_site_label
_atom_site_fract_x
_atom_site_fract_y
_atom_site_fract_z
Si Si1 0.805971 0.557425 0.763030
Si Si2 0.460283 0.750811 0.402643
Si Si3 0.595041 0.625780 0.759940
Si Si4 0.300970 0.780666 0.929414
Si Si5 0.740470 0.832361 0.500902
Si Si6 0.519267 0.209890 0.176914
Si Si7 0.180327 0.555737 0.039962
Si Si8 0.742362 0.624952 0.622176
O O1 0.760920 0.500000 0.752968
O O2 0.678218 0.594783 0.741948
O O3 0.763981 0.572968 0.668269
O O4 0.047372 0.565481 0.906692
O O5 0.500000 0.749926 0.500000
O O6 0.543980 0.801864 0.419552
O O7 0.597337 0.708061 0.442018
O O8 0.220604 0.741354 0.263615
O O9 0.724274 0.674782 0.844171
O O10 0.363181 0.641397 0.622695
O O11 0.640053 0.591660 0.844734
O O12 0.119800 0.742203 0.847995
O O13 0.500000 0.757629 0.000000
O O14 0.381295 0.800181 0.041200
O O15 0.698402 0.869424 0.420667
O O16 0.618058 0.162892 0.263639
O O17 0.251967 0.500000 0.078194
O O18 0.000000 0.560320 0.000000
O O19 0.500000 0.638159 0.500000
#
# Coordination Sequence:
#
# PCOD9191718 Si02
#       8
#     8   8   8   8   8   8   8   8
#     4  10  20  33  51  75 108 143 178 221 278 336
#     4  11  20  35  50  69 101 142 189 225 250 305
#     4  11  18  31  48  74 104 140 176 217 264 313
#     4  11  23  33  52  77 105 145 178 225 268 314
#     4  11  22  30  52  74  98 143 186 218 261 314
#     4  11  22  36  51  74 106 147 185 216 270 316
#     4   8  15  28  46  67  95 134 172 211 262 317
#     4  12  20  35  50  75 106 144 178 217 265 326
#
# _framework density 17.415267
#
# number of rings (size 3 to 8) (size 9 to 14) (size 15 to 20)
#    0.000    1.375    3.750    5.250    3.500    0.250 
#    0.000    0.000    0.000    0.000    0.000    0.000 
#    0.000   27.000    0.250    0.500    0.000    0.000 
#
# Total GULP energy -178505.066352 kJ/mol
# GULP energy per Si atom -5578.283323 kJ/mol
# Density = 1.737563 g / cm^3
# Si number density = 17.415267 Si / 1000 Ang^3
#
#
#
# Elastic Constant Matrix: (Units=GPa)
#
#
# Indices 1 2 3 4 5 6 
#
# 1 36.1947 22.7401 15.8103 0.0001 2.2820 0.0022
# 2 22.7401 63.8600 29.3977 -0.0012 -2.5257 0.0010
# 3 15.8103 29.3977 69.7156 0.0300 -8.0238 0.0178
# 4 0.0001 -0.0012 0.0300 26.2804 0.0116 -8.7288
# 5 2.2820 -2.5257 -8.0238 0.0116 24.5006 0.0072
# 6 0.0022 0.0010 0.0178 -8.7288 0.0072 19.3553
#
#
#
# Elastic Compliance Matrix: (Units=1/GPa)
#
#
# Indices 1 2 3 4 5 6 
#
# 1 0.037085 -0.011482 -0.004263 0.000009 -0.006034 0.000007
# 2 -0.011482 0.022998 -0.006960 0.000012 0.001161 0.000012
# 3 -0.004263 -0.006960 0.018922 -0.000036 0.005876 -0.000035
# 4 0.000009 0.000012 -0.000036 0.044755 -0.000039 0.020183
# 5 -0.006034 0.001161 0.005876 -0.000039 0.043421 -0.000038
# 6 0.000007 0.000012 -0.000035 0.020183 -0.000038 0.060768
#
#
# Mechanical properties :
#
#
# Convention : Reuss Voigt Hill
#
# Bulk Modulus (GPa) = 29.76675 33.96296 31.86486
# Shear Modulus (GPa) = 17.57117 20.81541 19.19329
#
# Velocity S-wave (km/s) = 3.17985 3.46097 3.32338
# Velocity P-wave (km/s) = 5.53275 5.95947 5.75007
#
# Compressibility (1/GPa) = 0.03359453
#
# Stress axis : x y z
#
# Youngs Moduli (GPa) = 26.96537 43.48221 52.84813
#
# Poissons Ratio (x) = 0.49925 0.22529
# Poissons Ratio (y) = 0.30961 0.36784
# Poissons Ratio (z) = 0.11495 0.30265
#
# Static dielectric constant tensor:
#      x y z
#    x 1.611630 0.000000 -0.046360 
#    y 0.000000 1.616690 0.000000 
#    z -0.046360 0.000000 1.627620 
# 
# From -- ./inp_files/307516.got.cif
#   From: 2010.05.17/outbox.cif.g08.bks.cpg/sg12_154_cif.got.tgz:307516.got - 2010.06.03 13:09:07.
