data_PCOD9191088
_publ_section_title
;
Structure prediction by ZEFSAII (Michael W. Deem and Ramdas Pophale) SiO2 
 PCOD9191088
Probable space group: C 2/M
;
_chemical_formula_sum "Si O2"
_cell_formula_units_Z 56
_cell_length_a 26.062714
_cell_length_b 9.963854
_cell_length_c 13.197926
_cell_angle_alpha 90.000000
_cell_angle_beta 62.108000
_cell_angle_gamma 90.000000
_cell_volume 3029.157755
_symmetry_space_group_name_H-M "C 2/M"
_symmetry_group_IT_number 12
_symmetry_cell_setting 'monoclinic'
loop_
_space_group_symop_operation_xyz
x,y,z
-x,y,-z
-x,-y,-z
x,-y,z
1/2+x,1/2+y,z
1/2-x,1/2+y,-z
1/2-x,1/2-y,-z
1/2+x,1/2-y,z
loop_
_atom_site_type_symbol
_atom_site_label
_atom_site_fract_x
_atom_site_fract_y
_atom_site_fract_z
Si Si1 0.819157 0.649940 0.767123
Si Si2 0.366984 0.159155 0.944025
Si Si3 0.219061 0.344608 0.797061
Si Si4 0.964139 0.151270 0.780421
Si Si5 0.405535 0.348169 0.395684
Si Si6 0.195780 0.341929 0.583171
Si Si7 0.562745 0.749926 0.416681
O O1 0.795375 0.500000 0.780175
O O2 0.829653 0.681826 0.875990
O O3 0.775969 0.754827 0.756956
O O4 0.882652 0.656507 0.657547
O O5 0.425696 0.243039 0.876882
O O6 0.379625 0.000000 0.936498
O O7 0.328937 0.197072 0.076218
O O8 0.234180 0.500000 0.804407
O O9 0.194913 0.337486 0.705985
O O10 0.946726 0.167277 0.677926
O O11 0.033326 0.172413 0.718522
O O12 0.951170 0.000000 0.825289
O O13 0.383990 0.500000 0.394526
O O14 0.360421 0.232751 0.409143
O O15 0.420234 0.336656 0.501358
O O16 0.200354 0.500000 0.548806
O O17 0.250000 0.250000 0.500000
O O18 0.500000 0.814707 0.500000
#
# Coordination Sequence:
#
# PCOD9191088 Si02
#       7
#     8   8   8   8   8   8   8
#     4  10  20  32  52  83 110 134 170 218 266 308
#     4   9  19  36  55  78 108 138 171 212 260 315
#     4  10  22  39  56  74 102 142 180 213 257 315
#     4   9  18  33  55  83 110 137 172 213 259 312
#     4  10  20  35  55  79 108 141 177 217 260 308
#     4  11  24  40  57  77 103 139 181 221 261 306
#     4   9  18  32  52  79 111 144 174 207 256 318
#
# _framework density 18.486986999999999
#
# number of rings (size 3 to 8) (size 9 to 14) (size 15 to 20)
#    0.000    2.286    0.000    2.143    0.000   10.000 
#    0.000    3.571    0.000    4.286    0.000    0.000 
#    0.000    0.000    0.000    0.000    0.000    0.000 
#
# Total GULP energy -156180.048408 kJ/mol
# GULP energy per Si atom -5577.858872 kJ/mol
# Density = 1.844491 g / cm^3
# Si number density = 18.486987 Si / 1000 Ang^3
#
#
#
# Elastic Constant Matrix: (Units=GPa)
#
#
# Indices 1 2 3 4 5 6 
#
# 1 75.6703 60.6743 34.5408 0.0000 -17.7420 0.0000
# 2 60.6743 96.1660 31.2784 0.0000 -14.0770 0.0000
# 3 34.5408 31.2784 83.7156 0.0000 -7.3018 0.0000
# 4 0.0000 0.0000 0.0000 19.1785 0.0000 -4.0430
# 5 -17.7420 -14.0770 -7.3018 0.0000 15.6785 0.0000
# 6 0.0000 0.0000 0.0000 -4.0430 0.0000 22.8304
#
#
#
# Elastic Compliance Matrix: (Units=1/GPa)
#
#
# Indices 1 2 3 4 5 6 
#
# 1 0.034134 -0.016481 -0.006095 0.000000 0.020990 0.000000
# 2 -0.016481 0.021130 -0.001112 0.000000 -0.000196 0.000000
# 3 -0.006095 -0.001112 0.014787 0.000000 -0.001008 0.000000
# 4 0.000000 0.000000 0.000000 0.054164 0.000000 0.009592
# 5 0.020990 -0.000196 -0.001008 0.000000 0.086888 0.000000
# 6 0.000000 0.000000 0.000000 0.009592 0.000000 0.045500
#
#
# Mechanical properties :
#
#
# Convention : Reuss Voigt Hill
#
# Bulk Modulus (GPa) = 44.10056 56.50434 50.30245
# Shear Modulus (GPa) = 16.04947 20.14137 18.09542
#
# Velocity S-wave (km/s) = 2.94963 3.30432 3.13200
# Velocity P-wave (km/s) = 5.95879 6.72226 6.35201
#
# Compressibility (1/GPa) = 0.02267545
#
# Stress axis : x y z
#
# Youngs Moduli (GPa) = 29.29664 47.32597 67.62529
#
# Poissons Ratio (x) = 0.77998 0.41217
# Poissons Ratio (y) = 0.48284 0.07519
# Poissons Ratio (z) = 0.17856 0.05262
#
# Static dielectric constant tensor:
#      x y z
#    x 1.622180 0.000000 -0.002680 
#    y 0.000000 1.630180 0.000000 
#    z -0.002680 0.000000 1.643820 
# 
# From -- ./inp_files/238251.got.cif
#   From: 2010.05.17/outbox.cif.g08.bks.cpg/sg12_120_cif.got.tgz:238251.got - 2010.06.03 13:09:07.
