data_PCOD9191163
_publ_section_title
;
Structure prediction by ZEFSAII (Michael W. Deem and Ramdas Pophale) SiO2 
 PCOD9191163
Probable space group: C 2/M
;
_chemical_formula_sum "Si O2"
_cell_formula_units_Z 58
_cell_length_a 27.913544
_cell_length_b 9.175570
_cell_length_c 14.632946
_cell_angle_alpha 90.000000
_cell_angle_beta 64.032547
_cell_angle_gamma 90.000000
_cell_volume 3369.459395
_symmetry_space_group_name_H-M "C 2/M"
_symmetry_group_IT_number 12
_symmetry_cell_setting 'monoclinic'
loop_
_space_group_symop_operation_xyz
x,y,z
-x,y,-z
-x,-y,-z
x,-y,z
1/2+x,1/2+y,z
1/2-x,1/2+y,-z
1/2-x,1/2-y,-z
1/2+x,1/2-y,z
loop_
_atom_site_type_symbol
_atom_site_label
_atom_site_fract_x
_atom_site_fract_y
_atom_site_fract_z
Si Si1 0.928369 0.825687 0.373815
Si Si2 0.330405 0.173629 0.113711
Si Si3 0.116550 0.673837 0.419018
Si Si4 0.500000 0.500000 0.000000
Si Si5 0.448545 0.674355 0.685019
Si Si6 0.717799 0.172673 0.211150
Si Si7 0.408069 0.660834 0.181625
Si Si8 0.363649 0.174749 0.880938
O O1 0.891170 0.739041 0.474489
O O2 0.918858 0.789542 0.275776
O O3 0.989616 0.794243 0.349259
O O4 0.920711 0.000000 0.391057
O O5 0.271882 0.239780 0.175337
O O6 0.370950 0.234565 0.154629
O O7 0.327648 0.000000 0.119442
O O8 0.351459 0.215283 0.994975
O O9 0.108516 0.500000 0.424282
O O10 0.073884 0.750333 0.387480
O O11 0.174282 0.703789 0.326173
O O12 0.536832 0.624860 0.916829
O O13 0.441738 0.500000 0.684657
O O14 0.413053 0.738518 0.797038
O O15 0.687013 0.206083 0.141934
O O16 0.729115 0.000000 0.202615
O O17 0.380979 0.500000 0.209528
O O18 0.373456 0.000000 0.866267
#
# Coordination Sequence:
#
# PCOD9191163 Si02
#       8
#     8   8   8   2   8   8   8   8
#     4  10  21  36  55  81 109 142 188 233 265 323
#     4  11  22  35  55  84 114 141 182 234 280 328
#     4  10  21  37  56  80 113 146 181 225 281 333
#     4   8  20  40  66  76 110 152 190 224 262 320
#     4  10  20  32  55  84 111 144 186 226 271 330
#     4   9  19  37  56  77 106 147 185 222 272 334
#     4   9  21  38  60  79 108 146 189 221 265 321
#     4   9  20  35  52  80 116 145 180 225 278 333
#
# _framework density 17.213443000000002
#
# number of rings (size 3 to 8) (size 9 to 14) (size 15 to 20)
#    0.414    1.931    0.000    2.897    1.931    7.172 
#    0.000    1.034    0.000    0.000    0.000    0.000 
#    0.000    0.000    0.000    0.000    0.000    0.000 
#
# Total GULP energy -161487.145707 kJ/mol
# GULP energy per Si atom -5568.522266 kJ/mol
# Density = 1.717426 g / cm^3
# Si number density = 17.213443 Si / 1000 Ang^3
#
#
#
# Elastic Constant Matrix: (Units=GPa)
#
#
# Indices 1 2 3 4 5 6 
#
# 1 42.1081 29.8414 63.4796 0.0000 8.9704 0.0000
# 2 29.8414 36.8276 52.7505 0.0000 3.3940 0.0000
# 3 63.4796 52.7505 130.1072 0.0000 16.7578 0.0000
# 4 0.0000 0.0000 0.0000 33.2591 0.0000 -1.5631
# 5 8.9704 3.3940 16.7578 0.0000 11.4799 0.0000
# 6 0.0000 0.0000 0.0000 -1.5631 0.0000 29.2058
#
#
#
# Elastic Compliance Matrix: (Units=1/GPa)
#
#
# Indices 1 2 3 4 5 6 
#
# 1 0.102997 -0.031871 -0.034703 0.000000 -0.020401 0.000000
# 2 -0.031871 0.080284 -0.021122 0.000000 0.032001 0.000000
# 3 -0.034703 -0.021122 0.035573 0.000000 -0.018566 0.000000
# 4 0.000000 0.000000 0.000000 0.030143 0.000000 0.001613
# 5 -0.020401 0.032001 -0.018566 0.000000 0.120690 0.000000
# 6 0.000000 0.000000 0.000000 0.001613 0.000000 0.034326
#
#
# Mechanical properties :
#
#
# Convention : Reuss Voigt Hill
#
# Bulk Modulus (GPa) = 23.00882 55.68732 39.34807
# Shear Modulus (GPa) = 8.41903 18.98707 13.70305
#
# Velocity S-wave (km/s) = 2.21395 3.32480 2.82453
# Velocity P-wave (km/s) = 4.46444 6.86734 5.79187
#
# Compressibility (1/GPa) = 0.04346159
#
# Stress axis : x y z
#
# Youngs Moduli (GPa) = 9.70900 12.45581 28.11141
#
# Poissons Ratio (x) = 0.39698 0.97556
# Poissons Ratio (y) = 0.30943 0.59377
# Poissons Ratio (z) = 0.33693 0.26309
#
# Static dielectric constant tensor:
#      x y z
#    x 1.560220 0.000000 0.009090 
#    y 0.000000 1.576820 0.000000 
#    z 0.009090 0.000000 1.582820 
# 
# From -- ./inp_files/243717.got.cif
#   From: 2010.05.17/outbox.cif.g08.bks.cpg/sg12_122_cif.got.tgz:243717.got - 2010.06.03 13:09:07.
