data_PCOD9191863
_publ_section_title
;
Structure prediction by ZEFSAII (Michael W. Deem and Ramdas Pophale) SiO2 
 PCOD9191863
Probable space group: C 2/M
;
_chemical_formula_sum "Si O2"
_cell_formula_units_Z 64
_cell_length_a 18.259702
_cell_length_b 20.054601
_cell_length_c 11.918981
_cell_angle_alpha 90.000000
_cell_angle_beta 39.551722
_cell_angle_gamma 90.000000
_cell_volume 2779.281374
_symmetry_space_group_name_H-M "C 2/M"
_symmetry_group_IT_number 12
_symmetry_cell_setting 'monoclinic'
loop_
_space_group_symop_operation_xyz
x,y,z
-x,y,-z
-x,-y,-z
x,-y,z
1/2+x,1/2+y,z
1/2-x,1/2+y,-z
1/2-x,1/2-y,-z
1/2+x,1/2-y,z
loop_
_atom_site_type_symbol
_atom_site_label
_atom_site_fract_x
_atom_site_fract_y
_atom_site_fract_z
Si Si1 0.897915 0.900511 0.703079
Si Si2 0.355928 0.074355 0.081356
Si Si3 0.200545 0.577436 0.595357
Si Si4 0.691707 0.795903 0.469274
Si Si5 0.411973 0.200132 0.876540
Si Si6 0.056303 0.791271 0.831465
Si Si7 0.831221 0.748963 0.749734
Si Si8 0.527535 0.572998 0.770498
O O1 0.775797 0.926207 0.805556
O O2 0.885995 0.820417 0.716409
O O3 0.000000 0.919935 0.500000
O O4 0.937252 0.925659 0.776524
O O5 0.347077 0.091821 0.223621
O O6 0.404770 0.000000 0.011923
O O7 0.415568 0.130320 0.936184
O O8 0.177208 0.500000 0.595576
O O9 0.154647 0.632563 0.563077
O O10 0.341217 0.584289 0.431235
O O11 0.750000 0.750000 0.500000
O O12 0.820766 0.812687 0.269562
O O13 0.642001 0.765779 0.412154
O O14 0.529303 0.243381 0.755977
O O15 0.380250 0.196898 0.782933
O O16 0.304418 0.239776 0.060789
O O17 0.998099 0.861660 0.875038
O O18 0.000000 0.751610 0.000000
O O19 0.526904 0.500000 0.825549
#
# Coordination Sequence:
#
# PCOD9191863 Si02
#       8
#     8   8   8   8   8   8   8   8
#     4  11  19  30  52  80 114 145 181 230 289 349
#     4  10  20  33  55  83 113 150 193 242 290 342
#     4   9  19  35  53  80 118 150 183 236 292 345
#     4  11  22  36  59  88 110 150 199 245 285 352
#     4  10  20  37  54  77 111 155 189 238 285 342
#     4  11  22  37  57  80 115 156 196 233 288 346
#     4  10  21  34  53  79 114 146 192 239 287 331
#     4  10  20  33  51  81 116 151 187 225 281 353
#
# _framework density 23.027536000000001
#
# number of rings (size 3 to 8) (size 9 to 14) (size 15 to 20)
#    0.000    1.750    3.750    1.875    1.750    0.750 
#    0.000    0.625    0.000    1.125    0.000    0.000 
#    0.000    3.000    0.000    0.000    0.000    0.500 
#
# Total GULP energy -178601.343456 kJ/mol
# GULP energy per Si atom -5581.291983 kJ/mol
# Density = 2.297512 g / cm^3
# Si number density = 23.027536 Si / 1000 Ang^3
#
#
#
# Elastic Constant Matrix: (Units=GPa)
#
#
# Indices 1 2 3 4 5 6 
#
# 1 72.2266 38.7697 9.9247 0.0000 13.1312 0.0000
# 2 38.7697 148.5762 20.9950 0.0000 24.8891 0.0000
# 3 9.9247 20.9950 42.4080 0.0000 14.2020 0.0000
# 4 0.0000 0.0000 0.0000 25.5477 0.0000 4.0849
# 5 13.1312 24.8891 14.2020 0.0000 54.9278 0.0000
# 6 0.0000 0.0000 0.0000 4.0849 0.0000 31.8156
#
#
#
# Elastic Compliance Matrix: (Units=1/GPa)
#
#
# Indices 1 2 3 4 5 6 
#
# 1 0.016396 -0.003777 -0.001344 0.000000 -0.001861 0.000000
# 2 -0.003777 0.008456 -0.002542 0.000000 -0.002271 0.000000
# 3 -0.001344 -0.002542 0.026998 0.000000 -0.005507 0.000000
# 4 0.000000 0.000000 0.000000 0.039963 0.000000 -0.005131
# 5 -0.001861 -0.002271 -0.005507 0.000000 0.021104 0.000000
# 6 0.000000 0.000000 0.000000 -0.005131 0.000000 0.032090
#
#
# Mechanical properties :
#
#
# Convention : Reuss Voigt Hill
#
# Bulk Modulus (GPa) = 27.37924 44.73218 36.05571
# Shear Modulus (GPa) = 28.98466 35.35965 32.17216
#
# Velocity S-wave (km/s) = 3.55166 3.92284 3.74186
# Velocity P-wave (km/s) = 5.36047 6.32345 5.86177
#
# Compressibility (1/GPa) = 0.03652402
#
# Stress axis : x y z
#
# Youngs Moduli (GPa) = 60.99230 118.26350 37.04018
#
# Poissons Ratio (x) = 0.44664 0.04979
# Poissons Ratio (y) = 0.23034 0.09414
# Poissons Ratio (z) = 0.08198 0.30059
#
# Static dielectric constant tensor:
#      x y z
#    x 0.680920 0.000000 0.984010 
#    y 0.000000 1.853590 0.000000 
#    z 0.984010 0.000000 1.684370 
# 
# From -- ./inp_files/159561.got.cif
#   From: 2010.05.17/outbox.cif.g08.bks.cpg/sg12_80_cif.got.tgz:159561.got - 2010.06.03 13:09:07.
