data_PCOD9191917
_publ_section_title
;
Structure prediction by ZEFSAII (Michael W. Deem and Ramdas Pophale) SiO2 
 PCOD9191917
Probable space group: C 2/M
;
_chemical_formula_sum "Si O2"
_cell_formula_units_Z 56
_cell_length_a 15.220441
_cell_length_b 9.138561
_cell_length_c 24.783222
_cell_angle_alpha 90.000000
_cell_angle_beta 62.646395
_cell_angle_gamma 90.000000
_cell_volume 3061.734950
_symmetry_space_group_name_H-M "C 2/M"
_symmetry_group_IT_number 12
_symmetry_cell_setting 'monoclinic'
loop_
_space_group_symop_operation_xyz
x,y,z
-x,y,-z
-x,-y,-z
x,-y,z
1/2+x,1/2+y,z
1/2-x,1/2+y,-z
1/2-x,1/2-y,-z
1/2+x,1/2-y,z
loop_
_atom_site_type_symbol
_atom_site_label
_atom_site_fract_x
_atom_site_fract_y
_atom_site_fract_z
Si Si1 0.108679 0.675301 0.493670
Si Si2 0.664632 0.672059 0.811601
Si Si3 0.185334 0.325230 0.592606
Si Si4 0.027869 0.667344 0.934007
Si Si5 0.573676 0.675983 0.723175
Si Si6 0.632219 0.825615 0.195388
Si Si7 0.815520 0.666383 0.938051
O O1 0.119332 0.500000 0.481603
O O2 0.125449 0.701264 0.553223
O O3 0.203679 0.758501 0.441986
O O4 0.000000 0.716511 0.500000
O O5 0.642618 0.500000 0.822901
O O6 0.608026 0.751117 0.875923
O O7 0.627677 0.720136 0.763648
O O8 0.781052 0.691410 0.785992
O O9 0.191199 0.500000 0.598115
O O10 0.127213 0.249452 0.657557
O O11 0.061508 0.500000 0.934233
O O12 0.927052 0.664459 0.928595
O O13 0.000000 0.733264 0.000000
O O14 0.575689 0.500000 0.717799
O O15 0.463067 0.735871 0.760989
O O16 0.676076 0.775055 0.125133
O O17 0.608751 0.000000 0.196448
O O18 0.722165 0.000000 0.054863
O O19 0.750000 0.750000 0.000000
#
# Coordination Sequence:
#
# PCOD9191917 Si02
#       7
#     8   8   8   8   8   8   8
#     4   9  19  38  63  90 122 157 194 235 278 328
#     4  10  22  38  57  80 107 144 189 235 284 339
#     4  10  21  37  60  89 120 157 194 234 283 333
#     4  10  20  34  53  79 109 139 177 230 291 347
#     4  11  23  39  58  83 116 153 194 239 286 339
#     4  10  21  39  58  78 107 145 189 236 286 342
#     4  10  20  33  52  77 105 139 177 227 285 344
#
# _framework density 18.290282999999999
#
# number of rings (size 3 to 8) (size 9 to 14) (size 15 to 20)
#    0.000    2.000    1.429    1.714    0.000    4.571 
#    0.000    5.714    0.000    0.000    0.000    0.000 
#    0.000    0.000    0.000    0.000    0.000    0.000 
#
# Total GULP energy -156225.363961 kJ/mol
# GULP energy per Si atom -5579.477284 kJ/mol
# Density = 1.824865 g / cm^3
# Si number density = 18.290283 Si / 1000 Ang^3
#
#
#
# Elastic Constant Matrix: (Units=GPa)
#
#
# Indices 1 2 3 4 5 6 
#
# 1 106.7935 47.5778 66.1016 0.0000 -3.8349 0.0000
# 2 47.5778 53.4727 71.4517 0.0000 -5.5959 0.0000
# 3 66.1016 71.4517 160.6629 0.0000 -9.5086 0.0000
# 4 0.0000 0.0000 0.0000 7.6453 0.0000 10.3341
# 5 -3.8349 -5.5959 -9.5086 0.0000 18.4958 0.0000
# 6 0.0000 0.0000 0.0000 10.3341 0.0000 18.5382
#
#
#
# Elastic Compliance Matrix: (Units=1/GPa)
#
#
# Indices 1 2 3 4 5 6 
#
# 1 0.015557 -0.013104 -0.000636 0.000000 -0.001066 0.000000
# 2 -0.013104 0.057351 -0.019852 0.000000 0.004429 0.000000
# 3 -0.000636 -0.019852 0.015421 0.000000 0.001790 0.000000
# 4 0.000000 0.000000 0.000000 0.530632 0.000000 -0.295801
# 5 -0.001066 0.004429 0.001790 0.000000 0.056105 0.000000
# 6 0.000000 0.000000 0.000000 -0.295801 0.000000 0.218837
#
#
# Mechanical properties :
#
#
# Convention : Reuss Voigt Hill
#
# Bulk Modulus (GPa) = 47.29344 76.79904 62.04624
# Shear Modulus (GPa) = 5.16456 17.98905 11.57681
#
# Velocity S-wave (km/s) = 1.68220 3.13953 2.51858
# Velocity P-wave (km/s) = 5.44852 7.43117 6.51570
#
# Compressibility (1/GPa) = 0.02114458
#
# Stress axis : x y z
#
# Youngs Moduli (GPa) = 64.27896 17.43651 64.84718
#
# Poissons Ratio (x) = 0.22848 0.04126
# Poissons Ratio (y) = 0.84228 1.28737
# Poissons Ratio (z) = 0.04090 0.34616
#
# Static dielectric constant tensor:
#      x y z
#    x 1.635090 0.000000 0.024010 
#    y 0.000000 1.633210 0.000000 
#    z 0.024010 0.000000 1.609250 
# 
# From -- ./inp_files/338562.got.cif
#   From: 2010.05.17/outbox.cif.g08.bks.cpg/sg12_170_cif.got.tgz:338562.got - 2010.06.03 13:09:07.
