data_PCOD9191927
_publ_section_title
;
Structure prediction by ZEFSAII (Michael W. Deem and Ramdas Pophale) SiO2 
 PCOD9191927
Probable space group: C 2/M
;
_chemical_formula_sum "Si O2"
_cell_formula_units_Z 64
_cell_length_a 14.381627
_cell_length_b 9.301114
_cell_length_c 32.538810
_cell_angle_alpha 90.000000
_cell_angle_beta 118.956722
_cell_angle_gamma 90.000000
_cell_volume 3808.426578
_symmetry_space_group_name_H-M "C 2/M"
_symmetry_group_IT_number 12
_symmetry_cell_setting 'monoclinic'
loop_
_space_group_symop_operation_xyz
x,y,z
-x,y,-z
-x,-y,-z
x,-y,z
1/2+x,1/2+y,z
1/2-x,1/2+y,-z
1/2-x,1/2-y,-z
1/2+x,1/2-y,z
loop_
_atom_site_type_symbol
_atom_site_label
_atom_site_fract_x
_atom_site_fract_y
_atom_site_fract_z
Si Si1 0.449856 0.170325 0.697349
Si Si2 0.517862 0.670059 0.631774
Si Si3 0.268785 0.827983 0.874296
Si Si4 0.720481 0.670167 0.451867
Si Si5 0.199009 0.172766 0.950325
Si Si6 0.969448 0.172175 0.204708
Si Si7 0.537726 0.672425 0.127999
Si Si8 0.287674 0.329122 0.385861
O O1 0.512544 0.240425 0.672555
O O2 0.483779 0.244577 0.746769
O O3 0.324776 0.194209 0.661110
O O4 0.468330 0.000000 0.702887
O O5 0.528071 0.500000 0.643643
O O6 0.404747 0.690208 0.584951
O O7 0.614583 0.710363 0.622642
O O8 0.257022 0.789013 0.919881
O O9 0.155335 0.795558 0.828910
O O10 0.364729 0.748992 0.872799
O O11 0.283365 0.000000 0.875304
O O12 0.741103 0.500000 0.459219
O O13 0.750000 0.750000 0.500000
O O14 0.782773 0.739815 0.426825
O O15 0.074865 0.209906 0.917278
O O16 0.205522 0.000000 0.956273
O O17 0.250000 0.250000 0.000000
O O18 0.026678 0.209298 0.173900
O O19 0.979257 0.000000 0.212737
O O20 0.549074 0.500000 0.127874
O O21 0.295738 0.500000 0.396929
#
# Coordination Sequence:
#
# PCOD9191927 Si02
#       8
#     8   8   8   8   8   8   8   8
#     4  10  20  33  52  78 103 127 163 211 251 287
#     4   9  19  36  55  73  99 137 171 200 246 304
#     4   9  19  35  53  73  99 132 168 205 246 295
#     4  10  20  34  53  76 102 133 168 206 249 296
#     4   9  19  35  52  73 102 134 167 204 250 300
#     4   9  19  36  53  70 100 137 166 198 246 302
#     4   9  19  35  53  74 101 132 167 208 251 295
#     4   9  19  36  54  73 100 132 167 206 246 293
#
# _framework density 16.804839000000001
#
# number of rings (size 3 to 8) (size 9 to 14) (size 15 to 20)
#    0.000    2.750    0.000    2.250    0.000    5.500 
#    0.000   11.250    0.000    0.000    0.000    0.000 
#    0.000    0.000    0.000    0.000    0.000    0.000 
#
# Total GULP energy -178487.090886 kJ/mol
# GULP energy per Si atom -5577.721590 kJ/mol
# Density = 1.676659 g / cm^3
# Si number density = 16.804839 Si / 1000 Ang^3
#
#
#
# Elastic Constant Matrix: (Units=GPa)
#
#
# Indices 1 2 3 4 5 6 
#
# 1 151.8537 62.8298 58.4791 0.0000 -19.4570 0.0000
# 2 62.8298 59.6594 72.7729 0.0000 -10.3445 0.0000
# 3 58.4791 72.7729 132.7743 0.0000 -18.9119 0.0000
# 4 0.0000 0.0000 0.0000 37.5402 0.0000 -3.1266
# 5 -19.4570 -10.3445 -18.9119 0.0000 8.0712 0.0000
# 6 0.0000 0.0000 0.0000 -3.1266 0.0000 33.7540
#
#
#
# Elastic Compliance Matrix: (Units=1/GPa)
#
#
# Indices 1 2 3 4 5 6 
#
# 1 0.018172 -0.028326 0.012893 0.000000 0.037714 0.000000
# 2 -0.028326 0.094728 -0.047846 0.000000 -0.058984 0.000000
# 3 0.012893 -0.047846 0.035676 0.000000 0.053354 0.000000
# 4 0.000000 0.000000 0.000000 0.026845 0.000000 0.002487
# 5 0.037714 -0.058984 0.053354 0.000000 0.264231 0.000000
# 6 0.000000 0.000000 0.000000 0.002487 0.000000 0.029856
#
#
# Mechanical properties :
#
#
# Convention : Reuss Voigt Hill
#
# Bulk Modulus (GPa) = 45.41291 81.38343 63.39817
# Shear Modulus (GPa) = 8.28629 25.88678 17.08653
#
# Velocity S-wave (km/s) = 2.22297 3.92910 3.19213
# Velocity P-wave (km/s) = 5.80269 8.31369 7.16898
#
# Compressibility (1/GPa) = 0.02202017
#
# Stress axis : x y z
#
# Youngs Moduli (GPa) = 55.02877 10.55652 28.02986
#
# Poissons Ratio (x) = 0.29903 -0.36140
# Poissons Ratio (y) = 1.55876 1.34110
# Poissons Ratio (z) = -0.70951 0.50508
#
# Static dielectric constant tensor:
#      x y z
#    x 1.548390 0.000000 0.005380 
#    y 0.000000 1.554730 0.000000 
#    z 0.005380 0.000000 1.541560 
# 
# From -- ./inp_files/359885.got.cif
#   From: 2010.05.17/outbox.cif.g08.bks.cpg/sg12_180_cif.got.tgz:359885.got - 2010.06.03 13:09:07.
