data_PCOD9191596
_publ_section_title
;
Structure prediction by ZEFSAII (Michael W. Deem and Ramdas Pophale) SiO2 
 PCOD9191596
Probable space group: C 2/M
;
_chemical_formula_sum "Si O2"
_cell_formula_units_Z 64
_cell_length_a 19.823087
_cell_length_b 9.067344
_cell_length_c 25.607862
_cell_angle_alpha 90.000000
_cell_angle_beta 125.443002
_cell_angle_gamma 90.000000
_cell_volume 3749.890434
_symmetry_space_group_name_H-M "C 2/M"
_symmetry_group_IT_number 12
_symmetry_cell_setting 'monoclinic'
loop_
_space_group_symop_operation_xyz
x,y,z
-x,y,-z
-x,-y,-z
x,-y,z
1/2+x,1/2+y,z
1/2-x,1/2+y,-z
1/2-x,1/2-y,-z
1/2+x,1/2-y,z
loop_
_atom_site_type_symbol
_atom_site_label
_atom_site_fract_x
_atom_site_fract_y
_atom_site_fract_z
Si Si1 0.119347 0.830100 0.934839
Si Si2 0.978287 0.675574 0.198257
Si Si3 0.817260 0.324455 0.197776
Si Si4 0.347996 0.323304 0.698458
Si Si5 0.237569 0.324787 0.549930
Si Si6 0.595100 0.675472 0.551339
Si Si7 0.202863 0.175906 0.699696
Si Si8 0.716124 0.830110 0.064659
O O1 0.052871 0.742108 0.870714
O O2 0.203020 0.830779 0.936981
O O3 0.095034 0.000000 0.932014
O O4 0.144701 0.750560 0.999805
O O5 0.990039 0.500000 0.199258
O O6 0.903948 0.702139 0.206299
O O7 0.061909 0.754640 0.253474
O O8 0.806569 0.500000 0.197965
O O9 0.816114 0.247129 0.253185
O O10 0.745461 0.256630 0.128990
O O11 0.349545 0.500000 0.706248
O O12 0.310999 0.291787 0.624233
O O13 0.283724 0.250203 0.710191
O O14 0.232799 0.500000 0.541836
O O15 0.250000 0.250000 0.500000
O O16 0.154882 0.263280 0.539710
O O17 0.500000 0.715862 0.500000
O O18 0.603963 0.500000 0.545168
O O19 0.628563 0.701780 0.624935
O O20 0.214803 0.000000 0.709800
O O21 0.695476 0.000000 0.066783
#
# Coordination Sequence:
#
# PCOD9191596 Si02
#       8
#     8   8   8   8   8   8   8   8
#     4   9  16  27  45  70 101 135 169 209 258 305
#     4  10  20  33  51  77 106 136 173 216 258 301
#     4  10  20  33  50  75 106 136 171 215 258 302
#     4  10  21  37  55  75 102 137 174 211 255 307
#     4  10  21  36  55  78 104 135 171 211 255 305
#     4   9  19  36  56  78 104 134 169 210 256 306
#     4  10  20  35  55  76 102 137 173 209 254 308
#     4   9  16  27  45  70 100 133 170 211 256 304
#
# _framework density 17.067164999999999
#
# number of rings (size 3 to 8) (size 9 to 14) (size 15 to 20)
#    0.000    2.375    0.000    2.625    0.000    7.750 
#    0.000    3.750    0.000    0.750    0.000    5.250 
#    0.000    0.000    0.000    0.000    0.000    0.000 
#
# Total GULP energy -178536.861336 kJ/mol
# GULP energy per Si atom -5579.276917 kJ/mol
# Density = 1.702832 g / cm^3
# Si number density = 17.067165 Si / 1000 Ang^3
#
#
#
# Elastic Constant Matrix: (Units=GPa)
#
#
# Indices 1 2 3 4 5 6 
#
# 1 62.0025 66.4459 92.9042 0.0000 1.1480 0.0000
# 2 66.4459 123.0705 105.3682 0.0000 0.9973 0.0000
# 3 92.9042 105.3682 171.7021 0.0000 2.2366 0.0000
# 4 0.0000 0.0000 0.0000 34.3816 0.0000 -2.6011
# 5 1.1480 0.9973 2.2366 0.0000 20.3687 0.0000
# 6 0.0000 0.0000 0.0000 -2.6011 0.0000 28.1812
#
#
#
# Elastic Compliance Matrix: (Units=1/GPa)
#
#
# Indices 1 2 3 4 5 6 
#
# 1 0.097939 -0.015818 -0.043286 0.000000 0.000008 0.000000
# 2 -0.015818 0.019677 -0.003521 0.000000 0.000315 0.000000
# 3 -0.043286 -0.003521 0.031416 0.000000 -0.000838 0.000000
# 4 0.000000 0.000000 0.000000 0.029290 0.000000 0.002703
# 5 0.000008 0.000315 -0.000838 0.000000 0.049171 0.000000
# 6 0.000000 0.000000 0.000000 0.002703 0.000000 0.035734
#
#
# Mechanical properties :
#
#
# Convention : Reuss Voigt Hill
#
# Bulk Modulus (GPa) = 42.04517 98.46797 70.25657
# Shear Modulus (GPa) = 12.61340 22.72341 17.66841
#
# Velocity S-wave (km/s) = 2.72149 3.65281 3.22099
# Velocity P-wave (km/s) = 5.87911 8.69542 7.42207
#
# Compressibility (1/GPa) = 0.02378395
#
# Stress axis : x y z
#
# Youngs Moduli (GPa) = 10.21048 50.82011 31.83047
#
# Poissons Ratio (x) = 0.80386 1.37780
# Poissons Ratio (y) = 0.16151 0.11207
# Poissons Ratio (z) = 0.44197 0.17893
#
# Static dielectric constant tensor:
#      x y z
#    x 1.546120 0.000000 0.002180 
#    y 0.000000 1.567910 0.000000 
#    z 0.002180 0.000000 1.565740 
# 
# From -- ./inp_files/346158.got.cif
#   From: 2010.05.17/outbox.cif.g08.bks.cpg/sg12_174_cif.got.tgz:346158.got - 2010.06.03 13:09:07.
