data_PCOD9191185
_publ_section_title
;
Structure prediction by ZEFSAII (Michael W. Deem and Ramdas Pophale) SiO2 
 PCOD9191185
Probable space group: C 2/M
;
_chemical_formula_sum "Si O2"
_cell_formula_units_Z 32
_cell_length_a 15.759263
_cell_length_b 11.384286
_cell_length_c 12.971080
_cell_angle_alpha 90.000000
_cell_angle_beta 32.313387
_cell_angle_gamma 90.000000
_cell_volume 1243.958904
_symmetry_space_group_name_H-M "C 2/M"
_symmetry_group_IT_number 12
_symmetry_cell_setting 'monoclinic'
loop_
_space_group_symop_operation_xyz
x,y,z
-x,y,-z
-x,-y,-z
x,-y,z
1/2+x,1/2+y,z
1/2-x,1/2+y,-z
1/2-x,1/2-y,-z
1/2+x,1/2-y,z
loop_
_atom_site_type_symbol
_atom_site_label
_atom_site_fract_x
_atom_site_fract_y
_atom_site_fract_z
Si Si1 0.738250 0.000000 0.303676
Si Si2 0.431420 0.360162 0.713938
Si Si3 0.598019 0.000000 0.235216
Si Si4 0.232650 0.252919 0.642531
Si Si5 0.092444 0.295377 0.073722
O O1 0.727429 0.000000 0.191837
O O2 0.565253 0.000000 0.534549
O O3 0.803112 0.875831 0.275500
O O4 0.432285 0.500000 0.699977
O O5 0.595842 0.305917 0.502599
O O6 0.425656 0.324540 0.841748
O O7 0.263798 0.307526 0.844558
O O8 0.598630 0.890092 0.159400
O O9 0.250000 0.250000 0.500000
O O10 0.066737 0.320867 0.826013
#
# Coordination Sequence:
#
# PCOD9191185 Si02
#       5
#     4   8   4   8   8
#     4  11  22  38  61  94 129 158 201 258 311 365
#     4  10  20  32  56  88 122 151 203 259 300 351
#     4  11  20  38  63  90 130 157 195 267 313 350
#     4  10  21  35  59  86 119 161 204 246 299 362
#     4  10  21  35  59  88 119 159 206 250 301 359
#
# _framework density 25.724322000000001
#
# number of rings (size 3 to 8) (size 9 to 14) (size 15 to 20)
#    0.000    1.750    6.250    0.000    8.750    0.000 
#    0.000    0.000    0.000   36.000    0.000    1.750 
#    0.000    0.000    0.000    0.000    0.000    0.000 
#
# Total GULP energy -89443.063771 kJ/mol
# GULP energy per Si atom -5590.191486 kJ/mol
# Density = 2.566577 g / cm^3
# Si number density = 25.724322 Si / 1000 Ang^3
#
#
#
# Elastic Constant Matrix: (Units=GPa)
#
#
# Indices 1 2 3 4 5 6 
#
# 1 119.1914 54.7194 87.7124 0.0000 -29.7529 0.0000
# 2 54.7194 147.3214 39.1736 0.0000 -11.0581 0.0000
# 3 87.7124 39.1736 210.4101 0.0000 -38.2396 0.0000
# 4 0.0000 0.0000 0.0000 -4.3582 0.0000 -10.5656
# 5 -29.7529 -11.0581 -38.2396 0.0000 74.8983 0.0000
# 6 0.0000 0.0000 0.0000 -10.5656 0.0000 35.2299
#
#
#
# Elastic Compliance Matrix: (Units=1/GPa)
#
#
# Indices 1 2 3 4 5 6 
#
# 1 0.014345 -0.003857 -0.004772 0.000000 0.002692 0.000000
# 2 -0.003857 0.008190 0.000027 0.000000 -0.000309 0.000000
# 3 -0.004772 0.000027 0.007047 0.000000 0.001706 0.000000
# 4 0.000000 0.000000 0.000000 -0.132858 0.000000 -0.039845
# 5 0.002692 -0.000309 0.001706 0.000000 0.015246 0.000000
# 6 0.000000 0.000000 0.000000 -0.039845 0.000000 0.016435
#
#
# Mechanical properties :
#
#
# Convention : Reuss Voigt Hill
#
# Bulk Modulus (GPa) = 80.79608 93.34817 87.07212
# Shear Modulus (GPa) = -99.47503 40.84185 -29.31659
#
# Velocity S-wave (km/s) = -6.22524 3.98889 -3.37953
# Velocity P-wave (km/s) = 4.49387 7.58826 4.32359
#
# Compressibility (1/GPa) = 0.01237684
#
# Stress axis : x y z
#
# Youngs Moduli (GPa) = 69.71300 122.09857 141.90190
#
# Poissons Ratio (x) = 0.47092 0.67721
# Poissons Ratio (y) = 0.26887 -0.00380
# Poissons Ratio (z) = 0.33270 -0.00327
#
# Static dielectric constant tensor:
#      x y z
#    x 2.112040 0.000000 -0.051610 
#    y 0.000000 2.031840 0.000000 
#    z -0.051610 0.000000 2.059630 
# 
# From -- ./inp_files/222850.got.cif
#   From: 2010.05.17/outbox.cif.g08.bks.cpg/sg12_112_cif.got.tgz:222850.got - 2010.06.03 13:09:07.
