data_PCOD9191559
_publ_section_title
;
Structure prediction by ZEFSAII (Michael W. Deem and Ramdas Pophale) SiO2 
 PCOD9191559
Probable space group: C 2/M
;
_chemical_formula_sum "Si O2"
_cell_formula_units_Z 64
_cell_length_a 29.122992
_cell_length_b 8.540694
_cell_length_c 16.531222
_cell_angle_alpha 90.000000
_cell_angle_beta 62.131924
_cell_angle_gamma 90.000000
_cell_volume 3634.956803
_symmetry_space_group_name_H-M "C 2/M"
_symmetry_group_IT_number 12
_symmetry_cell_setting 'monoclinic'
loop_
_space_group_symop_operation_xyz
x,y,z
-x,y,-z
-x,-y,-z
x,-y,z
1/2+x,1/2+y,z
1/2-x,1/2+y,-z
1/2-x,1/2-y,-z
1/2+x,1/2-y,z
loop_
_atom_site_type_symbol
_atom_site_label
_atom_site_fract_x
_atom_site_fract_y
_atom_site_fract_z
Si Si1 0.886042 0.687200 0.746130
Si Si2 0.761792 0.687311 0.242703
Si Si3 0.638705 0.310765 0.745438
Si Si4 0.272270 0.812601 0.897810
Si Si5 0.474876 0.309236 0.103943
Si Si6 0.399503 0.690719 0.397506
Si Si7 0.148058 0.810837 0.394115
Si Si8 0.013071 0.810802 0.246867
O O1 0.885802 0.500000 0.743474
O O2 0.831971 0.739262 0.832942
O O3 0.884122 0.751849 0.656468
O O4 0.936038 0.744906 0.753132
O O5 0.761740 0.500000 0.238517
O O6 0.811157 0.743988 0.252112
O O7 0.759895 0.753722 0.153351
O O8 0.707754 0.738275 0.329800
O O9 0.641301 0.500000 0.744997
O O10 0.585124 0.263451 0.834065
O O11 0.631800 0.261811 0.657357
O O12 0.271259 0.000000 0.899776
O O13 0.250000 0.750000 0.000000
O O14 0.475428 0.500000 0.102335
O O15 0.506076 0.262273 0.158913
O O16 0.500000 0.253095 0.000000
O O17 0.399028 0.500000 0.398463
O O18 0.374660 0.745050 0.501768
O O19 0.459575 0.737074 0.335630
O O20 0.146767 0.000000 0.395180
O O21 0.015371 0.000000 0.246976
#
# Coordination Sequence:
#
# PCOD9191559 Si02
#       8
#     8   8   8   8   8   8   8   8
#     4  10  21  35  50  73 104 130 157 201 253 298
#     4  10  20  33  50  74 102 131 166 205 246 297
#     4   9  17  31  51  73  99 130 163 205 253 293
#     4  10  21  37  55  74  99 131 165 203 246 293
#     4   8  15  29  49  73  97 123 161 202 237 285
#     4   8  16  32  52  73  97 129 172 213 245 287
#     4   9  18  34  53  70  94 132 173 208 243 291
#     4   9  17  31  52  74  97 129 168 206 243 290
#
# _framework density 17.606812999999999
#
# number of rings (size 3 to 8) (size 9 to 14) (size 15 to 20)
#    0.000    2.875    0.000    2.625    0.000    4.000 
#    0.000    7.500    0.000    0.750    0.000    0.000 
#    0.000    0.000    0.000    0.000    0.000    0.000 
#
# Total GULP energy -178420.870025 kJ/mol
# GULP energy per Si atom -5575.652188 kJ/mol
# Density = 1.756674 g / cm^3
# Si number density = 17.606813 Si / 1000 Ang^3
#
#
#
# Elastic Constant Matrix: (Units=GPa)
#
#
# Indices 1 2 3 4 5 6 
#
# 1 170.9423 24.3431 94.1551 0.0000 21.4151 0.0000
# 2 24.3431 16.2240 27.0934 0.0000 2.9263 0.0001
# 3 94.1551 27.0934 191.2410 0.0000 14.1867 0.0000
# 4 0.0000 0.0000 0.0000 13.1206 0.0000 1.7036
# 5 21.4151 2.9263 14.1867 0.0000 10.0491 0.0000
# 6 0.0000 0.0001 0.0000 1.7036 0.0000 32.2622
#
#
#
# Elastic Compliance Matrix: (Units=1/GPa)
#
#
# Indices 1 2 3 4 5 6 
#
# 1 0.010633 -0.008247 -0.002864 0.000000 -0.016215 0.000000
# 2 -0.008247 0.087749 -0.008689 0.000000 0.004290 0.000000
# 3 -0.002864 -0.008689 0.008075 0.000000 -0.002767 0.000000
# 4 0.000000 0.000000 0.000000 0.076742 0.000000 -0.004052
# 5 -0.016215 0.004290 -0.002767 0.000000 0.136723 0.000000
# 6 0.000000 0.000000 0.000000 -0.004052 0.000000 0.031210
#
#
# Mechanical properties :
#
#
# Convention : Reuss Voigt Hill
#
# Bulk Modulus (GPa) = 14.95743 74.39894 44.67819
# Shear Modulus (GPa) = 12.10598 26.60742 19.35670
#
# Velocity S-wave (km/s) = 2.62501 3.89163 3.31930
# Velocity P-wave (km/s) = 4.20728 7.90826 6.33411
#
# Compressibility (1/GPa) = 0.06685640
#
# Stress axis : x y z
#
# Youngs Moduli (GPa) = 94.04561 11.39616 123.83491
#
# Poissons Ratio (x) = 0.09399 0.35464
# Poissons Ratio (y) = 0.77562 1.07605
# Poissons Ratio (z) = 0.26933 0.09903
#
# Static dielectric constant tensor:
#      x y z
#    x 1.571370 0.000000 -0.011730 
#    y 0.000000 1.597870 0.000000 
#    z -0.011730 0.000000 1.597150 
# 
# From -- ./inp_files/243782.got.cif
#   From: 2010.05.17/outbox.cif.g08.bks.cpg/sg12_122_cif.got.tgz:243782.got - 2010.06.03 13:09:07.
