data_PCOD9191437
_publ_section_title
;
Structure prediction by ZEFSAII (Michael W. Deem and Ramdas Pophale) SiO2 
 PCOD9191437
Probable space group: C 2/M
;
_chemical_formula_sum "Si O2"
_cell_formula_units_Z 56
_cell_length_a 28.128514
_cell_length_b 14.343733
_cell_length_c 11.856445
_cell_angle_alpha 90.000000
_cell_angle_beta 28.555802
_cell_angle_gamma 90.000000
_cell_volume 2286.675234
_symmetry_space_group_name_H-M "C 2/M"
_symmetry_group_IT_number 12
_symmetry_cell_setting 'monoclinic'
loop_
_space_group_symop_operation_xyz
x,y,z
-x,y,-z
-x,-y,-z
x,-y,z
1/2+x,1/2+y,z
1/2-x,1/2+y,-z
1/2-x,1/2-y,-z
1/2+x,1/2-y,z
loop_
_atom_site_type_symbol
_atom_site_label
_atom_site_fract_x
_atom_site_fract_y
_atom_site_fract_z
Si Si1 0.279242 0.893372 0.170976
Si Si2 0.624956 0.898315 0.806831
Si Si3 0.505812 0.289184 0.868734
Si Si4 0.625454 0.299020 0.059596
Si Si5 0.340067 0.159191 0.514435
Si Si6 0.410997 0.111081 0.605620
Si Si7 0.813239 0.890182 0.855228
O O1 0.282317 0.893189 0.300167
O O2 0.357503 0.812164 0.979158
O O3 0.186795 0.875233 0.279289
O O4 0.310836 0.000000 0.073437
O O5 0.653875 0.895733 0.615514
O O6 0.577157 0.000000 0.930586
O O7 0.556706 0.808313 0.976759
O O8 0.617849 0.259008 0.611058
O O9 0.500000 0.341945 0.000000
O O10 0.457437 0.328980 0.856950
O O11 0.729039 0.338390 0.792331
O O12 0.616629 0.336253 0.204687
O O13 0.410619 0.132094 0.472586
O O14 0.500000 0.146569 0.500000
O O15 0.413246 0.000000 0.609901
O O16 0.299965 0.139554 0.876309
O O17 0.825368 0.000000 0.852209
#
# Coordination Sequence:
#
# PCOD9191437 Si02
#       7
#     8   8   8   8   8   8   8
#     4   9  18  32  52  77 103 136 178 217 258 311
#     4   9  18  31  50  77 109 140 166 203 262 330
#     4   9  20  33  50  77 104 137 176 215 260 313
#     4  10  20  35  56  77 105 143 172 217 268 309
#     4  10  20  33  49  75 105 137 176 213 252 317
#     4   9  18  28  44  71 106 139 161 201 261 319
#     4   9  18  33  52  77 106 138 176 213 261 322
#
# _framework density 24.489704
#
# number of rings (size 3 to 8) (size 9 to 14) (size 15 to 20)
#    0.000    2.714    0.000    0.857    4.000    8.857 
#    0.000    0.000    0.000    1.286    0.000    2.000 
#    0.000    0.000    0.000    0.000    0.000    0.000 
#
# Total GULP energy -156166.097680 kJ/mol
# GULP energy per Si atom -5577.360631 kJ/mol
# Density = 2.443396 g / cm^3
# Si number density = 24.489704 Si / 1000 Ang^3
#
#
#
# Elastic Constant Matrix: (Units=GPa)
#
#
# Indices 1 2 3 4 5 6 
#
# 1 254.2171 48.9807 27.4561 0.0000 28.5070 0.0000
# 2 48.9807 56.5256 16.0293 0.0000 7.4340 0.0000
# 3 27.4561 16.0293 51.7162 0.0000 9.4456 0.0000
# 4 0.0000 0.0000 0.0000 11.7276 0.0000 6.1654
# 5 28.5070 7.4340 9.4456 0.0000 36.7338 0.0000
# 6 0.0000 0.0000 0.0000 6.1654 0.0000 35.4363
#
#
#
# Elastic Compliance Matrix: (Units=1/GPa)
#
#
# Indices 1 2 3 4 5 6 
#
# 1 0.005092 -0.003741 -0.001008 0.000000 -0.002936 0.000000
# 2 -0.003741 0.022364 -0.004878 0.000000 -0.000369 0.000000
# 3 -0.001008 -0.004878 0.022098 0.000000 -0.003913 0.000000
# 4 0.000000 0.000000 0.000000 0.093853 0.000000 -0.016329
# 5 -0.002936 -0.000369 -0.003913 0.000000 0.030582 0.000000
# 6 0.000000 0.000000 0.000000 -0.016329 0.000000 0.031061
#
#
# Mechanical properties :
#
#
# Convention : Reuss Voigt Hill
#
# Bulk Modulus (GPa) = 33.00269 60.82125 46.91197
# Shear Modulus (GPa) = 21.33055 34.77906 28.05481
#
# Velocity S-wave (km/s) = 2.95447 3.77258 3.38831
# Velocity P-wave (km/s) = 5.01437 6.62313 5.87409
#
# Compressibility (1/GPa) = 0.03030056
#
# Stress axis : x y z
#
# Youngs Moduli (GPa) = 196.36871 44.71375 45.25273
#
# Poissons Ratio (x) = 0.16727 0.04561
# Poissons Ratio (y) = 0.73458 0.22077
# Poissons Ratio (z) = 0.19793 0.21814
#
# Static dielectric constant tensor:
#      x y z
#    x 2.010880 0.000000 0.023450 
#    y 0.000000 1.983560 0.000000 
#    z 0.023450 0.000000 1.991340 
# 
# From -- ./inp_files/183467.got.cif
#   From: 2010.05.17/outbox.cif.g08.bks.cpg/sg12_92_cif.got.tgz:183467.got - 2010.06.03 13:09:07.
