data_PCOD9191202
_publ_section_title
;
Structure prediction by ZEFSAII (Michael W. Deem and Ramdas Pophale) SiO2 
 PCOD9191202
Probable space group: C 2/M
;
_chemical_formula_sum "Si O2"
_cell_formula_units_Z 40
_cell_length_a 21.057841
_cell_length_b 10.996562
_cell_length_c 10.179957
_cell_angle_alpha 90.000000
_cell_angle_beta 58.609431
_cell_angle_gamma 90.000000
_cell_volume 2012.286030
_symmetry_space_group_name_H-M "C 2/M"
_symmetry_group_IT_number 12
_symmetry_cell_setting 'monoclinic'
loop_
_space_group_symop_operation_xyz
x,y,z
-x,y,-z
-x,-y,-z
x,-y,z
1/2+x,1/2+y,z
1/2-x,1/2+y,-z
1/2-x,1/2-y,-z
1/2+x,1/2-y,z
loop_
_atom_site_type_symbol
_atom_site_label
_atom_site_fract_x
_atom_site_fract_y
_atom_site_fract_z
Si Si1 0.947509 0.757271 0.685678
Si Si2 0.954471 0.144291 0.183462
Si Si3 0.417285 0.000000 0.648089
Si Si4 0.225405 0.500000 0.361474
Si Si5 0.739425 0.500000 0.363686
Si Si6 0.207993 0.755657 0.685959
Si Si7 0.409221 0.500000 0.623592
O O1 0.909323 0.625925 0.736296
O O2 0.896064 0.874587 0.715139
O O3 0.000000 0.749390 0.500000
O O4 0.999005 0.792978 0.751600
O O5 0.877264 0.214471 0.250273
O O6 0.942980 0.000000 0.222994
O O7 0.000000 0.151904 0.000000
O O8 0.500000 0.000000 0.500000
O O9 0.359880 0.000000 0.589021
O O10 0.241680 0.500000 0.500527
O O11 0.260636 0.374078 0.273372
O O12 0.774863 0.624588 0.271053
O O13 0.650794 0.500000 0.429548
O O14 0.250000 0.750000 0.500000
O O15 0.500000 0.500000 0.500000
#
# Coordination Sequence:
#
# PCOD9191202 Si02
#       7
#     8   8   4   4   4   8   4
#     4  10  22  34  63  91 130 161 225 267 322 370
#     4  11  24  44  67  98 132 178 224 271 329 405
#     4  10  22  34  54  91 135 167 207 267 337 381
#     4  10  20  34  56  87 131 171 205 263 323 381
#     4  10  22  32  56  95 131 161 211 273 327 369
#     4  10  22  34  63  91 131 160 224 264 323 372
#     4  10  20  32  58  91 129 165 213 271 317 369
#
# _framework density 19.877889
#
# number of rings (size 3 to 8) (size 9 to 14) (size 15 to 20)
#    0.000    1.800    2.000    1.200   22.400    0.000 
#    0.000    2.000    0.000    7.200    0.000    0.000 
#    0.000    0.000    0.000    0.000    0.000    0.000 
#
# Total GULP energy -111478.219251 kJ/mol
# GULP energy per Si atom -5573.910963 kJ/mol
# Density = 1.983265 g / cm^3
# Si number density = 19.877889 Si / 1000 Ang^3
#
#
#
# Elastic Constant Matrix: (Units=GPa)
#
#
# Indices 1 2 3 4 5 6 
#
# 1 194.9689 67.1547 39.8739 0.0000 -8.7412 0.0000
# 2 67.1547 233.0920 23.6722 0.0000 -3.6697 0.0000
# 3 39.8739 23.6722 51.7134 0.0000 0.0288 0.0000
# 4 0.0000 0.0000 0.0000 15.0469 0.0000 -4.2720
# 5 -8.7412 -3.6697 0.0288 0.0000 14.3801 0.0000
# 6 0.0000 0.0000 0.0000 -4.2720 0.0000 20.7976
#
#
#
# Elastic Compliance Matrix: (Units=1/GPa)
#
#
# Indices 1 2 3 4 5 6 
#
# 1 0.006709 -0.001414 -0.004528 0.000000 0.003726 0.000000
# 2 -0.001414 0.004817 -0.001114 0.000000 0.000372 0.000000
# 3 -0.004528 -0.001114 0.023340 0.000000 -0.003084 0.000000
# 4 0.000000 0.000000 0.000000 0.070575 0.000000 0.014496
# 5 0.003726 0.000372 -0.003084 0.000000 0.071907 0.000000
# 6 0.000000 0.000000 0.000000 0.014496 0.000000 0.051060
#
#
# Mechanical properties :
#
#
# Convention : Reuss Voigt Hill
#
# Bulk Modulus (GPa) = 48.18603 82.35289 65.26946
# Shear Modulus (GPa) = 20.04496 33.31648 26.68072
#
# Velocity S-wave (km/s) = 3.17898 4.09841 3.66762
# Velocity P-wave (km/s) = 6.14559 7.99470 7.13034
#
# Compressibility (1/GPa) = 0.02075290
#
# Stress axis : x y z
#
# Youngs Moduli (GPa) = 149.04680 207.61117 42.84413
#
# Poissons Ratio (x) = 0.29366 0.19399
# Poissons Ratio (y) = 0.21082 0.04775
# Poissons Ratio (z) = 0.67486 0.23137
#
# Static dielectric constant tensor:
#      x y z
#    x 1.693270 0.000000 -0.003400 
#    y 0.000000 1.824370 0.000000 
#    z -0.003400 0.000000 1.659610 
# 
# From -- ./inp_files/153385.got.cif
#   From: 2010.05.17/outbox.cif.g08.bks.cpg/sg12_77_cif.got.tgz:153385.got - 2010.06.03 13:09:07.
