data_PCOD9191460
_publ_section_title
;
Structure prediction by ZEFSAII (Michael W. Deem and Ramdas Pophale) SiO2 
 PCOD9191460
Probable space group: C 2/M
;
_chemical_formula_sum "Si O2"
_cell_formula_units_Z 40
_cell_length_a 15.196246
_cell_length_b 7.599909
_cell_length_c 20.860486
_cell_angle_alpha 90.000000
_cell_angle_beta 124.352194
_cell_angle_gamma 90.000000
_cell_volume 1988.981369
_symmetry_space_group_name_H-M "C 2/M"
_symmetry_group_IT_number 12
_symmetry_cell_setting 'monoclinic'
loop_
_space_group_symop_operation_xyz
x,y,z
-x,y,-z
-x,-y,-z
x,-y,z
1/2+x,1/2+y,z
1/2-x,1/2+y,-z
1/2-x,1/2-y,-z
1/2+x,1/2-y,z
loop_
_atom_site_type_symbol
_atom_site_label
_atom_site_fract_x
_atom_site_fract_y
_atom_site_fract_z
Si Si1 0.155644 0.288416 0.411341
Si Si2 0.593868 0.784405 0.121619
Si Si3 0.353071 0.210621 0.998702
Si Si4 0.284142 0.208112 0.703049
Si Si5 0.960774 0.712927 0.413673
O O1 0.149795 0.500000 0.404620
O O2 0.250000 0.250000 0.500000
O O3 0.177888 0.217481 0.349691
O O4 0.046145 0.224421 0.397026
O O5 0.646834 0.728206 0.075695
O O6 0.658103 0.721155 0.210031
O O7 0.595280 0.000000 0.121870
O O8 0.469237 0.730137 0.072562
O O9 0.358376 0.000000 0.998530
O O10 0.250000 0.250000 0.000000
O O11 0.157496 0.229854 0.651684
O O12 0.307727 0.000000 0.711897
O O13 0.961605 0.500000 0.415203
O O14 0.000000 0.772663 0.500000
#
# Coordination Sequence:
#
# PCOD9191460 Si02
#       5
#     8   8   8   8   8
#     4  10  20  33  50  70  95 130 169 208 250 296
#     4   8  17  34  52  74 105 137 165 201 253 303
#     4   9  17  33  57  78 102 135 166 201 249 303
#     4  10  20  34  53  75  99 132 177 214 241 295
#     4  10  20  34  50  71 102 134 164 209 266 302
#
# _framework density 20.110797000000002
#
# number of rings (size 3 to 8) (size 9 to 14) (size 15 to 20)
#    0.000    2.600    2.000    1.200    0.000    2.800 
#    0.000    6.000    0.000    0.000    0.000    0.000 
#    0.000    0.000    0.000    0.000    0.000    0.000 
#
# Total GULP energy -111570.642990 kJ/mol
# GULP energy per Si atom -5578.532150 kJ/mol
# Density = 2.006502 g / cm^3
# Si number density = 20.110797 Si / 1000 Ang^3
#
#
#
# Elastic Constant Matrix: (Units=GPa)
#
#
# Indices 1 2 3 4 5 6 
#
# 1 218.4557 2.1455 124.3564 0.0000 -13.2520 0.0000
# 2 2.1455 40.5136 5.4151 0.0000 -4.5635 0.0000
# 3 124.3564 5.4151 217.2295 0.0000 -16.8604 0.0000
# 4 0.0000 0.0000 0.0000 6.2093 0.0000 4.8546
# 5 -13.2520 -4.5635 -16.8604 0.0000 19.2385 0.0000
# 6 0.0000 0.0000 0.0000 4.8546 0.0000 22.3592
#
#
#
# Elastic Compliance Matrix: (Units=1/GPa)
#
#
# Indices 1 2 3 4 5 6 
#
# 1 0.006828 0.000309 -0.003804 0.000000 0.001442 0.000000
# 2 0.000309 0.025381 -0.000350 0.000000 0.005927 0.000000
# 3 -0.003804 -0.000350 0.007060 0.000000 0.003484 0.000000
# 4 0.000000 0.000000 0.000000 0.193977 0.000000 -0.042116
# 5 0.001442 0.005927 0.003484 0.000000 0.057432 0.000000
# 6 0.000000 0.000000 0.000000 -0.042116 0.000000 0.053869
#
#
# Mechanical properties :
#
#
# Convention : Reuss Voigt Hill
#
# Bulk Modulus (GPa) = 31.66591 82.22587 56.94589
# Shear Modulus (GPa) = 13.78311 32.51351 23.14831
#
# Velocity S-wave (km/s) = 2.62078 4.02521 3.39638
# Velocity P-wave (km/s) = 4.99378 7.91064 6.61499
#
# Compressibility (1/GPa) = 0.03157970
#
# Stress axis : x y z
#
# Youngs Moduli (GPa) = 146.46212 39.39939 141.63398
#
# Poissons Ratio (x) = -0.01219 0.53883
# Poissons Ratio (y) = -0.04531 0.04954
# Poissons Ratio (z) = 0.55720 0.01378
#
# Static dielectric constant tensor:
#      x y z
#    x 1.700790 0.000000 -0.026320 
#    y 0.000000 1.783970 0.000000 
#    z -0.026320 0.000000 1.689110 
# 
# From -- ./inp_files/202869.got.cif
#   From: 2010.05.17/outbox.cif.g08.bks.cpg/sg12_102_cif.got.tgz:202869.got - 2010.06.03 13:09:07.
