data_PCOD9191087
_publ_section_title
;
Structure prediction by ZEFSAII (Michael W. Deem and Ramdas Pophale) SiO2 
 PCOD9191087
Probable space group: C 2/M
;
_chemical_formula_sum "Si O2"
_cell_formula_units_Z 42
_cell_length_a 16.239702
_cell_length_b 7.539855
_cell_length_c 15.999030
_cell_angle_alpha 90.000000
_cell_angle_beta 62.034532
_cell_angle_gamma 90.000000
_cell_volume 1730.249379
_symmetry_space_group_name_H-M "C 2/M"
_symmetry_group_IT_number 12
_symmetry_cell_setting 'monoclinic'
loop_
_space_group_symop_operation_xyz
x,y,z
-x,y,-z
-x,-y,-z
x,-y,z
1/2+x,1/2+y,z
1/2-x,1/2+y,-z
1/2-x,1/2-y,-z
1/2+x,1/2-y,z
loop_
_atom_site_type_symbol
_atom_site_label
_atom_site_fract_x
_atom_site_fract_y
_atom_site_fract_z
Si Si1 0.015267 0.285451 0.397388
Si Si2 0.854549 0.282068 0.200028
Si Si3 0.568887 0.702859 0.078962
Si Si4 0.322311 0.290167 0.807634
Si Si5 0.830557 0.289071 0.396430
Si Si6 0.000000 0.500000 0.000000
O O1 0.013604 0.500000 0.400229
O O2 0.928181 0.218050 0.384412
O O3 0.000000 0.224508 0.500000
O O4 0.108316 0.235077 0.303841
O O5 0.869595 0.500000 0.185302
O O6 0.778464 0.217864 0.169888
O O7 0.810931 0.236326 0.311186
O O8 0.958451 0.206395 0.153871
O O9 0.594076 0.500000 0.046151
O O10 0.628204 0.769627 0.130480
O O11 0.569184 0.844388 0.005192
O O12 0.310328 0.500000 0.823803
O O13 0.841119 0.500000 0.387922
O O14 0.750000 0.250000 0.500000
#
# Coordination Sequence:
#
# PCOD9191087 Si02
#       6
#     8   8   8   8   8   2
#     4  10  20  33  52  84 126 173 223 272 322 379
#     4  10  20  40  65  92 131 178 215 271 334 386
#     4  11  24  45  73 103 130 173 220 266 340 412
#     4  10  22  38  64  95 129 171 221 271 326 397
#     4  10  20  32  52  82 124 174 223 271 325 378
#     4  12  26  48  80  98 138 170 204 288 342 398
#
# _framework density 24.273959000000001
#
# number of rings (size 3 to 8) (size 9 to 14) (size 15 to 20)
#    0.000    1.714    2.857    1.429    1.333    2.667 
#    0.000    0.952    0.000    0.000    0.000    0.000 
#    0.000    0.000    0.000    0.000    0.000    0.000 
#
# Total GULP energy -117204.578069 kJ/mol
# GULP energy per Si atom -5581.170384 kJ/mol
# Density = 2.421871 g / cm^3
# Si number density = 24.273959 Si / 1000 Ang^3
#
#
#
# Elastic Constant Matrix: (Units=GPa)
#
#
# Indices 1 2 3 4 5 6 
#
# 1 205.4040 30.2229 50.2266 0.0000 21.1309 0.0000
# 2 30.2229 90.3338 21.4773 0.0000 22.1052 0.0000
# 3 50.2266 21.4773 92.3453 0.0000 6.9826 0.0000
# 4 0.0000 0.0000 0.0000 23.8729 0.0000 -11.6134
# 5 21.1309 22.1052 6.9826 0.0000 46.8924 0.0000
# 6 0.0000 0.0000 0.0000 -11.6134 0.0000 4.7820
#
#
#
# Elastic Compliance Matrix: (Units=1/GPa)
#
#
# Indices 1 2 3 4 5 6 
#
# 1 0.005881 -0.000839 -0.002865 0.000000 -0.001828 0.000000
# 2 -0.000839 0.013227 -0.002202 0.000000 -0.005529 0.000000
# 3 -0.002865 -0.002202 0.012868 0.000000 0.000413 0.000000
# 4 0.000000 0.000000 0.000000 -0.230888 0.000000 -0.560727
# 5 -0.001828 -0.005529 0.000413 0.000000 0.024694 0.000000
# 6 0.000000 0.000000 0.000000 -0.560727 0.000000 -1.152646
#
#
# Mechanical properties :
#
#
# Convention : Reuss Voigt Hill
#
# Bulk Modulus (GPa) = 49.59327 65.77074 57.68201
# Shear Modulus (GPa) = -3.82166 34.18655 15.18244
#
# Velocity S-wave (km/s) = -1.25611 3.75689 2.50364
# Velocity P-wave (km/s) = 4.28617 6.78034 5.67205
#
# Compressibility (1/GPa) = 0.02016403
#
# Stress axis : x y z
#
# Youngs Moduli (GPa) = 170.05296 75.60083 77.71134
#
# Poissons Ratio (x) = 0.06343 0.22265
# Poissons Ratio (y) = 0.14267 0.17111
# Poissons Ratio (z) = 0.48722 0.16647
#
# Static dielectric constant tensor:
#      x y z
#    x 1.945690 0.000000 -0.057830 
#    y 0.000000 1.923310 0.000000 
#    z -0.057830 0.000000 2.184020 
# 
# From -- ./inp_files/220716.got.cif
#   From: 2010.05.17/outbox.cif.g08.bks.cpg/sg12_111_cif.got.tgz:220716.got - 2010.06.03 13:09:07.
