data_PCOD9191091
_publ_section_title
;
Structure prediction by ZEFSAII (Michael W. Deem and Ramdas Pophale) SiO2 
 PCOD9191091
Probable space group: C 2/M
;
_chemical_formula_sum "Si O2"
_cell_formula_units_Z 64
_cell_length_a 20.720995
_cell_length_b 16.617418
_cell_length_c 20.908550
_cell_angle_alpha 90.000000
_cell_angle_beta 149.503996
_cell_angle_gamma 90.000000
_cell_volume 3653.553874
_symmetry_space_group_name_H-M "C 2/M"
_symmetry_group_IT_number 12
_symmetry_cell_setting 'monoclinic'
loop_
_space_group_symop_operation_xyz
x,y,z
-x,y,-z
-x,-y,-z
x,-y,z
1/2+x,1/2+y,z
1/2-x,1/2+y,-z
1/2-x,1/2-y,-z
1/2+x,1/2-y,z
loop_
_atom_site_type_symbol
_atom_site_label
_atom_site_fract_x
_atom_site_fract_y
_atom_site_fract_z
Si Si1 0.616314 0.215484 0.966610
Si Si2 0.845095 0.705295 0.779798
Si Si3 0.915532 0.405035 0.593042
Si Si4 0.510965 0.341862 0.636309
Si Si5 0.105605 0.698998 0.545545
Si Si6 0.288262 0.905714 0.850762
Si Si7 0.737205 0.907780 0.407783
Si Si8 0.380348 0.208150 0.182671
O O1 0.483404 0.241580 0.884075
O O2 0.605068 0.202034 0.881066
O O3 0.655980 0.133576 0.037010
O O4 0.733245 0.277277 0.074757
O O5 0.732166 0.770253 0.688493
O O6 0.842639 0.646845 0.838716
O O7 0.811598 0.651193 0.689080
O O8 0.920654 0.500000 0.586892
O O9 0.862174 0.357496 0.486616
O O10 0.830111 0.388688 0.582672
O O11 0.052871 0.366832 0.726308
O O12 0.466797 0.277531 0.545074
O O13 0.636039 0.389950 0.722180
O O14 0.388305 0.396047 0.543663
O O15 0.547711 0.287371 0.728887
O O16 0.000000 0.658489 0.500000
O O17 0.315592 0.000000 0.868123
O O18 0.707901 0.000000 0.365760
#
# Coordination Sequence:
#
# PCOD9191091 Si02
#       8
#     8   8   8   8   8   8   8   8
#     4  10  21  35  53  76 102 144 188 220 255 301
#     4  11  21  34  54  79 109 150 178 214 258 315
#     4  10  21  36  58  83 106 133 172 228 284 323
#     4   9  19  34  55  78 109 145 181 214 261 318
#     4  10  20  36  57  81 107 135 178 218 265 331
#     4  11  22  35  51  78 115 151 181 215 257 313
#     4  10  20  32  52  83 114 141 172 217 271 325
#     4   9  19  37  56  75 103 137 186 226 264 314
#
# _framework density 17.517192000000001
#
# number of rings (size 3 to 8) (size 9 to 14) (size 15 to 20)
#    0.000    2.000    2.500    1.125    1.750    3.750 
#    0.000    1.875    0.000    0.750    0.000    0.875 
#    0.000    0.000    0.000    0.000    0.000    0.000 
#
# Total GULP energy -178531.218722 kJ/mol
# GULP energy per Si atom -5579.100585 kJ/mol
# Density = 1.747732 g / cm^3
# Si number density = 17.517192 Si / 1000 Ang^3
#
#
#
# Elastic Constant Matrix: (Units=GPa)
#
#
# Indices 1 2 3 4 5 6 
#
# 1 83.1740 30.0772 24.1783 -0.0002 9.1962 0.0000
# 2 30.0772 37.9110 2.9859 -0.0002 -3.6124 -0.0001
# 3 24.1783 2.9859 62.8539 -0.0007 14.0712 -0.0002
# 4 -0.0002 -0.0002 -0.0007 6.8027 -0.0003 -0.1277
# 5 9.1962 -3.6124 14.0712 -0.0003 32.3384 0.0000
# 6 0.0000 -0.0001 -0.0002 -0.1277 0.0000 26.5776
#
#
#
# Elastic Compliance Matrix: (Units=1/GPa)
#
#
# Indices 1 2 3 4 5 6 
#
# 1 0.020009 -0.015883 -0.005840 -0.000001 -0.004923 0.000000
# 2 -0.015883 0.039533 0.002473 0.000002 0.007857 0.000000
# 3 -0.005840 0.002473 0.019505 0.000002 -0.006550 0.000000
# 4 -0.000001 0.000002 0.000002 0.147013 0.000001 0.000706
# 5 -0.004923 0.007857 -0.006550 0.000001 0.036051 0.000000
# 6 0.000000 0.000000 0.000000 0.000706 0.000000 0.037629
#
#
# Mechanical properties :
#
#
# Convention : Reuss Voigt Hill
#
# Bulk Modulus (GPa) = 24.66347 33.15796 28.91071
# Shear Modulus (GPa) = 14.21440 21.59023 17.90232
#
# Velocity S-wave (km/s) = 2.85169 3.51453 3.20032
# Velocity P-wave (km/s) = 4.99530 5.95308 5.49510
#
# Compressibility (1/GPa) = 0.04054580
#
# Stress axis : x y z
#
# Youngs Moduli (GPa) = 49.97818 25.29550 51.26783
#
# Poissons Ratio (x) = 0.40178 0.29941
# Poissons Ratio (y) = 0.79382 -0.12678
# Poissons Ratio (z) = 0.29188 -0.06256
#
# Static dielectric constant tensor:
#      x y z
#    x 1.608920 0.000000 0.007440 
#    y 0.000000 1.562780 0.000000 
#    z 0.007440 0.000000 1.616880 
# 
# From -- ./inp_files/322465.got.cif
#   From: 2010.05.17/outbox.cif.g08.bks.cpg/sg12_162_cif.got.tgz:322465.got - 2010.06.03 13:09:07.
