data_PCOD9191684
_publ_section_title
;
Structure prediction by ZEFSAII (Michael W. Deem and Ramdas Pophale) SiO2 
 PCOD9191684
Probable space group: C 2/M
;
_chemical_formula_sum "Si O2"
_cell_formula_units_Z 56
_cell_length_a 19.559581
_cell_length_b 9.299827
_cell_length_c 30.515582
_cell_angle_alpha 90.000000
_cell_angle_beta 37.209702
_cell_angle_gamma 90.000000
_cell_volume 3356.761222
_symmetry_space_group_name_H-M "C 2/M"
_symmetry_group_IT_number 12
_symmetry_cell_setting 'monoclinic'
loop_
_space_group_symop_operation_xyz
x,y,z
-x,y,-z
-x,-y,-z
x,-y,z
1/2+x,1/2+y,z
1/2-x,1/2+y,-z
1/2-x,1/2-y,-z
1/2+x,1/2-y,z
loop_
_atom_site_type_symbol
_atom_site_label
_atom_site_fract_x
_atom_site_fract_y
_atom_site_fract_z
Si Si1 0.218583 0.829623 0.560262
Si Si2 0.525626 0.326987 0.723813
Si Si3 0.605278 0.171266 0.853239
Si Si4 0.761466 0.171607 0.856540
Si Si5 0.419100 0.334653 0.998186
Si Si6 0.868093 0.671502 0.569356
Si Si7 0.321328 0.172289 0.282942
O O1 0.250000 0.750000 0.500000
O O2 0.097383 0.790857 0.643519
O O3 0.308656 0.799764 0.552944
O O4 0.218857 0.000000 0.551996
O O5 0.538005 0.500000 0.724047
O O6 0.393669 0.292689 0.787561
O O7 0.585354 0.244184 0.733088
O O8 0.699223 0.205682 0.842313
O O9 0.491360 0.254602 0.924262
O O10 0.649663 0.204988 0.782244
O O11 0.584064 0.000000 0.866670
O O12 0.750451 0.000000 0.868911
O O13 0.693819 0.253572 0.929117
O O14 0.397334 0.500000 0.997975
O O15 0.500000 0.331351 0.000000
O O16 0.856651 0.500000 0.583744
O O17 0.797399 0.759722 0.641157
O O18 0.000000 0.707295 0.500000
O O19 0.319884 0.000000 0.289288
#
# Coordination Sequence:
#
# PCOD9191684 Si02
#       7
#     8   8   8   8   8   8   8
#     4   9  18  32  50  72  97 126 160 197 238 285
#     4   9  19  35  52  70  97 133 165 194 238 294
#     4   9  18  32  50  73  99 128 163 200 241 290
#     4   9  17  32  53  72  94 128 165 200 240 287
#     4   9  17  29  47  73 101 126 157 201 247 286
#     4   9  19  36  54  71  96 131 166 198 238 290
#     4  10  20  33  51  75 101 128 160 201 244 285
#
# _framework density 16.682746999999999
#
# number of rings (size 3 to 8) (size 9 to 14) (size 15 to 20)
#    0.000    2.857    0.000    1.714    0.000    7.143 
#    0.000    2.143    0.000    0.000    0.000    0.000 
#    0.000    0.000    0.000    0.000    0.000    0.000 
#
# Total GULP energy -156071.389350 kJ/mol
# GULP energy per Si atom -5573.978191 kJ/mol
# Density = 1.664478 g / cm^3
# Si number density = 16.682747 Si / 1000 Ang^3
#
#
#
# Elastic Constant Matrix: (Units=GPa)
#
#
# Indices 1 2 3 4 5 6 
#
# 1 56.5716 47.5819 91.1280 0.0000 -0.6613 0.0001
# 2 47.5819 54.7926 88.2213 0.0000 5.0361 0.0002
# 3 91.1280 88.2213 204.0073 0.0000 -3.1759 0.0000
# 4 0.0000 0.0000 0.0000 31.0993 0.0000 2.2920
# 5 -0.6613 5.0361 -3.1759 0.0000 32.5737 0.0000
# 6 0.0001 0.0002 0.0000 2.2920 0.0000 20.9931
#
#
#
# Elastic Compliance Matrix: (Units=1/GPa)
#
#
# Indices 1 2 3 4 5 6 
#
# 1 0.085761 -0.044752 -0.018850 0.000000 0.006822 0.000000
# 2 -0.044752 0.088376 -0.018482 0.000000 -0.016374 -0.000001
# 3 -0.018850 -0.018482 0.021385 0.000000 0.004560 0.000000
# 4 0.000000 0.000000 0.000000 0.032416 0.000000 -0.003539
# 5 0.006822 -0.016374 0.004560 0.000000 0.033814 0.000000
# 6 0.000000 -0.000001 0.000000 -0.003539 0.000000 0.048021
#
#
# Mechanical properties :
#
#
# Convention : Reuss Voigt Hill
#
# Bulk Modulus (GPa) = 31.89310 85.47043 58.68177
# Shear Modulus (GPa) = 10.32219 22.82924 16.57572
#
# Velocity S-wave (km/s) = 2.49014 3.70325 3.15554
# Velocity P-wave (km/s) = 5.23704 8.34443 6.96621
#
# Compressibility (1/GPa) = 0.03135475
#
# Stress axis : x y z
#
# Youngs Moduli (GPa) = 11.66033 11.31523 46.76094
#
# Poissons Ratio (x) = 0.50638 0.88143
# Poissons Ratio (y) = 0.52182 0.86426
# Poissons Ratio (z) = 0.21979 0.20913
#
# Static dielectric constant tensor:
#      x y z
#    x 1.544500 0.000000 -0.007130 
#    y 0.000000 1.558070 0.000000 
#    z -0.007130 0.000000 1.548020 
# 
# From -- ./inp_files/237848.got.cif
#   From: 2010.05.17/outbox.cif.g08.bks.cpg/sg12_119_cif.got.tgz:237848.got - 2010.06.03 13:09:07.
