data_PCOD9191932
_publ_section_title
;
Structure prediction by ZEFSAII (Michael W. Deem and Ramdas Pophale) SiO2 
 PCOD9191932
Probable space group: C 2/M
;
_chemical_formula_sum "Si O2"
_cell_formula_units_Z 40
_cell_length_a 25.338017
_cell_length_b 7.353213
_cell_length_c 9.630446
_cell_angle_alpha 90.000000
_cell_angle_beta 127.811997
_cell_angle_gamma 90.000000
_cell_volume 1417.548469
_symmetry_space_group_name_H-M "C 2/M"
_symmetry_group_IT_number 12
_symmetry_cell_setting 'monoclinic'
loop_
_space_group_symop_operation_xyz
x,y,z
-x,y,-z
-x,-y,-z
x,-y,z
1/2+x,1/2+y,z
1/2-x,1/2+y,-z
1/2-x,1/2-y,-z
1/2+x,1/2-y,z
loop_
_atom_site_type_symbol
_atom_site_label
_atom_site_fract_x
_atom_site_fract_y
_atom_site_fract_z
Si Si1 0.001425 0.286415 0.846973
Si Si2 0.648055 0.281455 0.074705
Si Si3 0.174165 0.215474 0.420301
Si Si4 0.931451 0.277019 0.463548
Si Si5 0.793681 0.297666 0.223721
O O1 0.987633 0.500000 0.836538
O O2 0.947071 0.217003 0.649165
O O3 0.075367 0.267290 0.901206
O O4 0.000000 0.205310 0.000000
O O5 0.654757 0.500000 0.091639
O O6 0.640260 0.217318 0.223666
O O7 0.718682 0.218110 0.119660
O O8 0.250000 0.250000 0.500000
O O9 0.177033 0.310720 0.573096
O O10 0.164652 0.000000 0.422495
O O11 0.929659 0.500000 0.453189
O O12 0.862383 0.209362 0.278472
O O13 0.000000 0.220952 0.500000
O O14 0.784526 0.500000 0.151168
#
# Coordination Sequence:
#
# PCOD9191932 Si02
#       5
#     8   8   8   8   8
#     4  10  20  33  52  78 104 131 167 213 257 298
#     4   9  18  30  46  72 103 133 163 203 257 308
#     4   9  16  26  43  70 102 134 167 204 251 302
#     4   9  18  34  55  76 100 135 177 216 256 305
#     4   9  17  31  51  73  98 132 175 216 254 303
#
# _framework density 28.217727
#
# number of rings (size 3 to 8) (size 9 to 14) (size 15 to 20)
#    0.000    2.800    0.000    3.000    0.000    6.000 
#    0.000    2.000    0.000    2.400    0.000    0.000 
#    0.000    0.000    0.000    0.000    0.000    0.000 
#
# Total GULP energy -111581.503110 kJ/mol
# GULP energy per Si atom -5579.075156 kJ/mol
# Density = 2.815350 g / cm^3
# Si number density = 28.217727 Si / 1000 Ang^3
#
#
#
# Elastic Constant Matrix: (Units=GPa)
#
#
# Indices 1 2 3 4 5 6 
#
# 1 130.4700 26.5698 64.7212 0.0000 33.5058 0.0000
# 2 26.5698 143.9297 8.3140 0.0000 -7.6245 0.0000
# 3 64.7212 8.3140 172.9147 0.0000 39.4960 0.0000
# 4 0.0000 0.0000 0.0000 5.6691 0.0000 9.9726
# 5 33.5058 -7.6245 39.4960 0.0000 69.4615 0.0000
# 6 0.0000 0.0000 0.0000 9.9726 0.0000 27.2112
#
#
#
# Elastic Compliance Matrix: (Units=1/GPa)
#
#
# Indices 1 2 3 4 5 6 
#
# 1 0.010467 -0.001946 -0.003014 0.000000 -0.003549 0.000000
# 2 -0.001946 0.007403 -0.000032 0.000000 0.001769 0.000000
# 3 -0.003014 -0.000032 0.007564 0.000000 -0.002851 0.000000
# 4 0.000000 0.000000 0.000000 0.496454 0.000000 -0.181945
# 5 -0.003549 0.001769 -0.002851 0.000000 0.017924 0.000000
# 6 0.000000 0.000000 0.000000 -0.181945 0.000000 0.103430
#
#
# Mechanical properties :
#
#
# Convention : Reuss Voigt Hill
#
# Bulk Modulus (GPa) = 64.72113 71.83606 68.27859
# Shear Modulus (GPa) = 7.59446 43.64898 25.62172
#
# Velocity S-wave (km/s) = 1.64232 3.93729 3.01657
# Velocity P-wave (km/s) = 5.15581 6.79578 6.03179
#
# Compressibility (1/GPa) = 0.01545091
#
# Stress axis : x y z
#
# Youngs Moduli (GPa) = 95.53521 135.08643 132.20828
#
# Poissons Ratio (x) = 0.26291 0.39843
# Poissons Ratio (y) = 0.18593 0.00418
# Poissons Ratio (z) = 0.28791 0.00427
#
# Static dielectric constant tensor:
#      x y z
#    x 1.667600 0.000000 -0.247890 
#    y 0.000000 1.934990 0.000000 
#    z -0.247890 0.000000 2.376190 
# 
# From -- ./inp_files/162657.got.cif
#   From: 2010.05.17/outbox.cif.g08.bks.cpg/sg12_82_cif.got.tgz:162657.got - 2010.06.03 13:09:07.
