data_PCOD9191459
_publ_section_title
;
Structure prediction by ZEFSAII (Michael W. Deem and Ramdas Pophale) SiO2 
 PCOD9191459
Probable space group: C 2/M
;
_chemical_formula_sum "Si O2"
_cell_formula_units_Z 48
_cell_length_a 14.166144
_cell_length_b 10.555111
_cell_length_c 19.146222
_cell_angle_alpha 90.000000
_cell_angle_beta 131.341465
_cell_angle_gamma 90.000000
_cell_volume 2149.383360
_symmetry_space_group_name_H-M "C 2/M"
_symmetry_group_IT_number 12
_symmetry_cell_setting 'monoclinic'
loop_
_space_group_symop_operation_xyz
x,y,z
-x,y,-z
-x,-y,-z
x,-y,z
1/2+x,1/2+y,z
1/2-x,1/2+y,-z
1/2-x,1/2-y,-z
1/2+x,1/2-y,z
loop_
_atom_site_type_symbol
_atom_site_label
_atom_site_fract_x
_atom_site_fract_y
_atom_site_fract_z
Si Si1 0.567054 0.143034 0.101691
Si Si2 0.565311 0.000000 0.400530
Si Si3 0.220636 0.500000 0.610896
Si Si4 0.464771 0.235034 0.273885
Si Si5 0.678633 0.858526 0.923461
Si Si6 0.716063 0.761761 0.298995
Si Si7 0.974926 0.000000 0.639731
Si Si8 0.683548 0.500000 0.573787
O O1 0.453349 0.129485 0.100785
O O2 0.672193 0.214170 0.198156
O O3 0.611781 0.000000 0.104637
O O4 0.500000 0.199780 0.000000
O O5 0.492761 0.873818 0.343282
O O6 0.608742 0.000000 0.500915
O O7 0.692048 0.000000 0.414973
O O8 0.223552 0.626173 0.657855
O O9 0.347166 0.500000 0.624418
O O10 0.352756 0.191292 0.168883
O O11 0.589226 0.238566 0.284935
O O12 0.454205 0.372166 0.303643
O O13 0.736646 0.000000 0.951262
O O14 0.750000 0.750000 0.000000
O O15 0.800677 0.875486 0.370912
O O16 0.930419 0.000000 0.537274
#
# Coordination Sequence:
#
# PCOD9191459 Si02
#       8
#     8   4   4   8   8   8   4   4
#     4   9  17  32  52  70  92 125 162 195 232 278
#     4   9  14  24  37  54  85 123 151 177 220 281
#     4   9  16  22  35  58  89 121 147 177 226 281
#     4   9  16  26  39  58  88 120 150 183 227 275
#     4  10  20  33  50  70  94 125 159 196 236 278
#     4   9  15  25  39  60  88 119 149 184 227 273
#     4   9  16  22  35  60  87 119 149 181 224 273
#     4   9  14  22  37  58  85 117 153 183 218 271
#
# _framework density 22.331987999999999
#
# number of rings (size 3 to 8) (size 9 to 14) (size 15 to 20)
#    0.000    2.833    1.667    1.000    1.167    4.000 
#    1.500    0.417    0.000    0.000    0.000    0.000 
#    0.000    8.000    0.000    0.000    0.000    0.000 
#
# Total GULP energy -134087.326499 kJ/mol
# GULP energy per Si atom -5586.971937 kJ/mol
# Density = 2.228116 g / cm^3
# Si number density = 22.331988 Si / 1000 Ang^3
#
#
#
# Elastic Constant Matrix: (Units=GPa)
#
#
# Indices 1 2 3 4 5 6 
#
# 1 77.0836 5.2463 10.3110 0.0000 -14.6339 0.0000
# 2 5.2463 243.6868 144.7195 0.0000 -0.6374 0.0000
# 3 10.3110 144.7195 236.6552 0.0000 -15.1200 0.0000
# 4 0.0000 0.0000 0.0000 17.8874 0.0000 -17.4851
# 5 -14.6339 -0.6374 -15.1200 0.0000 20.5607 0.0000
# 6 0.0000 0.0000 0.0000 -17.4851 0.0000 -21.6499
#
#
#
# Elastic Compliance Matrix: (Units=1/GPa)
#
#
# Indices 1 2 3 4 5 6 
#
# 1 0.015038 -0.000505 0.000353 0.000000 0.010947 0.000000
# 2 -0.000505 0.006622 -0.004236 0.000000 -0.003269 0.000000
# 3 0.000353 -0.004236 0.007144 0.000000 0.005373 0.000000
# 4 0.000000 0.000000 0.000000 0.031241 0.000000 -0.025231
# 5 0.010947 -0.003269 0.005373 0.000000 0.060278 0.000000
# 6 0.000000 0.000000 0.000000 -0.025231 0.000000 -0.025812
#
#
# Mechanical properties :
#
#
# Convention : Reuss Voigt Hill
#
# Bulk Modulus (GPa) = 49.93007 97.55324 73.74165
# Shear Modulus (GPa) = 45.46961 29.83624 37.65293
#
# Velocity S-wave (km/s) = 4.51718 3.65914 4.11061
# Velocity P-wave (km/s) = 7.04367 7.85051 7.45801
#
# Compressibility (1/GPa) = 0.02002801
#
# Stress axis : x y z
#
# Youngs Moduli (GPa) = 66.49667 151.01838 139.97743
#
# Poissons Ratio (x) = 0.07621 -0.04938
# Poissons Ratio (y) = 0.03356 0.59297
# Poissons Ratio (z) = -0.02346 0.63974
#
# Static dielectric constant tensor:
#      x y z
#    x 1.917370 0.000000 0.015350 
#    y 0.000000 1.786820 0.000000 
#    z 0.015350 0.000000 1.791610 
# 
# From -- ./inp_files/182281.got.cif
#   From: 2010.05.17/outbox.cif.g08.bks.cpg/sg12_92_cif.got.tgz:182281.got - 2010.06.03 13:09:07.
