data_PCOD9191170
_publ_section_title
;
Structure prediction by ZEFSAII (Michael W. Deem and Ramdas Pophale) SiO2 
 PCOD9191170
Probable space group: C 2/M
;
_chemical_formula_sum "Si O2"
_cell_formula_units_Z 60
_cell_length_a 35.016825
_cell_length_b 15.500223
_cell_length_c 5.259126
_cell_angle_alpha 90.000000
_cell_angle_beta 113.057696
_cell_angle_gamma 90.000000
_cell_volume 2626.446000
_symmetry_space_group_name_H-M "C 2/M"
_symmetry_group_IT_number 12
_symmetry_cell_setting 'monoclinic'
loop_
_space_group_symop_operation_xyz
x,y,z
-x,y,-z
-x,-y,-z
x,-y,z
1/2+x,1/2+y,z
1/2-x,1/2+y,-z
1/2-x,1/2-y,-z
1/2+x,1/2-y,z
loop_
_atom_site_type_symbol
_atom_site_label
_atom_site_fract_x
_atom_site_fract_y
_atom_site_fract_z
Si Si1 0.238982 0.603250 0.658306
Si Si2 0.589333 0.000000 0.275964
Si Si3 0.951644 0.777608 0.793096
Si Si4 0.455599 0.119364 0.487696
Si Si5 0.118647 0.897095 0.499051
Si Si6 0.166991 0.105882 0.125008
Si Si7 0.811874 0.395394 0.986521
Si Si8 0.891076 0.349381 0.934377
O O1 0.241906 0.500000 0.708363
O O2 0.220098 0.615209 0.330173
O O3 0.286090 0.636836 0.792345
O O4 0.209665 0.634321 0.809677
O O5 0.555415 0.072999 0.281634
O O6 0.622163 0.079242 0.308427
O O7 0.951947 0.719765 0.539463
O O8 0.927899 0.865038 0.671712
O O9 0.919642 0.727007 0.900218
O O10 0.000000 0.782326 0.000000
O O11 0.500000 0.098172 0.500000
O O12 0.422142 0.093426 0.191221
O O13 0.137207 0.867704 0.816066
O O14 0.119400 0.000000 0.500017
O O15 0.148110 0.866533 0.345547
O O16 0.167730 0.000000 0.129097
O O17 0.822508 0.500000 0.029013
O O18 0.851680 0.338121 0.011282
#
# Coordination Sequence:
#
# PCOD9191170 Si02
#       8
#     8   4   8   8   8   8   8   8
#     4   9  18  32  57  90 125 162 199 258 304 367
#     4  10  23  35  59  85 119 160 221 273 308 353
#     4  11  25  43  62  87 123 164 212 254 326 388
#     4  11  23  39  60  83 117 168 215 267 320 370
#     4  10  22  40  70  99 124 157 203 265 319 388
#     4   9  18  37  64  98 127 153 203 252 320 384
#     4  10  20  32  55  86 125 164 212 251 302 353
#     4  11  23  38  56  85 125 170 212 263 307 369
#
# _framework density 22.844557999999999
#
# number of rings (size 3 to 8) (size 9 to 14) (size 15 to 20)
#    0.000    1.867    2.000    1.400    5.600    4.000 
#    0.000    0.000    0.000    7.600    0.000    0.000 
#    0.000    0.000    0.000    0.000    0.000    0.000 
#
# Total GULP energy -167034.574094 kJ/mol
# GULP energy per Si atom -5567.819136 kJ/mol
# Density = 2.279256 g / cm^3
# Si number density = 22.844558 Si / 1000 Ang^3
#
#
#
# Elastic Constant Matrix: (Units=GPa)
#
#
# Indices 1 2 3 4 5 6 
#
# 1 78.5163 19.4597 4.1064 0.0000 2.7427 0.0000
# 2 19.4597 23.3530 8.5449 0.0000 5.7926 0.0000
# 3 4.1064 8.5449 60.8794 0.0000 0.2545 0.0000
# 4 0.0000 0.0000 0.0000 21.6958 0.0000 2.8218
# 5 2.7427 5.7926 0.2545 0.0000 38.1623 0.0000
# 6 0.0000 0.0000 0.0000 2.8218 0.0000 14.6648
#
#
#
# Elastic Compliance Matrix: (Units=1/GPa)
#
#
# Indices 1 2 3 4 5 6 
#
# 1 0.016125 -0.013994 0.000873 0.000000 0.000959 0.000000
# 2 -0.013994 0.059126 -0.007322 0.000000 -0.007920 0.000000
# 3 0.000873 -0.007322 0.017391 0.000000 0.000933 0.000000
# 4 0.000000 0.000000 0.000000 0.047275 0.000000 -0.009097
# 5 0.000959 -0.007920 0.000933 0.000000 0.027331 0.000000
# 6 0.000000 0.000000 0.000000 -0.009097 0.000000 0.069941
#
#
# Mechanical properties :
#
#
# Convention : Reuss Voigt Hill
#
# Bulk Modulus (GPa) = 19.32181 25.21898 22.27040
# Shear Modulus (GPa) = 16.93034 23.61376 20.27205
#
# Velocity S-wave (km/s) = 2.72529 3.21856 2.98214
# Velocity P-wave (km/s) = 4.28710 4.98754 4.65053
#
# Compressibility (1/GPa) = 0.05175499
#
# Stress axis : x y z
#
# Youngs Moduli (GPa) = 62.01372 16.91307 57.50152
#
# Poissons Ratio (x) = 0.23669 -0.05017
# Poissons Ratio (y) = 0.86784 0.42101
# Poissons Ratio (z) = -0.05411 0.12383
#
# Static dielectric constant tensor:
#      x y z
#    x 1.875140 0.000000 -0.085230 
#    y 0.000000 1.855720 0.000000 
#    z -0.085230 0.000000 2.022750 
# 
# From -- ./inp_files/32061.got.cif
#   From: 2010.05.17/outbox.cif.g08.bks.cpg/sg12_17_cif.got.tgz:32061.got - 2010.06.03 13:09:07.
