data_PCOD9191703
_publ_section_title
;
Structure prediction by ZEFSAII (Michael W. Deem and Ramdas Pophale) SiO2 
 PCOD9191703
Probable space group: C 2/M
;
_chemical_formula_sum "Si O2"
_cell_formula_units_Z 48
_cell_length_a 18.771145
_cell_length_b 7.706821
_cell_length_c 21.333889
_cell_angle_alpha 90.000000
_cell_angle_beta 48.518943
_cell_angle_gamma 90.000000
_cell_volume 2312.167016
_symmetry_space_group_name_H-M "C 2/M"
_symmetry_group_IT_number 12
_symmetry_cell_setting 'monoclinic'
loop_
_space_group_symop_operation_xyz
x,y,z
-x,y,-z
-x,-y,-z
x,-y,z
1/2+x,1/2+y,z
1/2-x,1/2+y,-z
1/2-x,1/2-y,-z
1/2+x,1/2-y,z
loop_
_atom_site_type_symbol
_atom_site_label
_atom_site_fract_x
_atom_site_fract_y
_atom_site_fract_z
Si Si1 0.731872 0.793758 0.582898
Si Si2 0.477138 0.213156 0.255488
Si Si3 0.511087 0.211801 0.094332
Si Si4 0.898119 0.293010 0.582153
Si Si5 0.348507 0.208796 0.093004
Si Si6 0.361886 0.207298 0.742768
O O1 0.750000 0.750000 0.500000
O O2 0.628941 0.727594 0.665298
O O3 0.816747 0.733770 0.578220
O O4 0.728553 0.000000 0.590228
O O5 0.505787 0.269285 0.168917
O O6 0.553614 0.272823 0.262113
O O7 0.477014 0.000000 0.255796
O O8 0.417965 0.266081 0.109096
O O9 0.511343 0.000000 0.094782
O O10 0.602272 0.268006 0.000416
O O11 0.909397 0.500000 0.582432
O O12 0.869030 0.223641 0.667589
O O13 0.000000 0.222764 0.500000
O O14 0.240993 0.260551 0.167641
O O15 0.351810 0.000000 0.090729
O O16 0.373684 0.000000 0.732782
#
# Coordination Sequence:
#
# PCOD9191703 Si02
#       6
#     8   8   8   8   8   8
#     4  11  22  37  59  83 107 137 175 218 263 315
#     4   9  18  33  52  74 102 139 177 210 255 316
#     4   8  15  30  52  74  98 133 176 215 253 306
#     4  10  21  38  57  77 106 142 178 218 265 315
#     4   9  17  31  52  76 101 132 172 218 262 304
#     4  10  20  33  51  75 104 137 171 211 261 313
#
# _framework density 20.759746
#
# number of rings (size 3 to 8) (size 9 to 14) (size 15 to 20)
#    0.000    2.500    0.000    3.500    0.000    5.667 
#    0.000    5.000    0.000    3.000    0.000    0.000 
#    0.000    0.000    0.000    0.000    0.000    0.000 
#
# Total GULP energy -134019.796278 kJ/mol
# GULP energy per Si atom -5584.158178 kJ/mol
# Density = 2.071250 g / cm^3
# Si number density = 20.759746 Si / 1000 Ang^3
#
#
#
# Elastic Constant Matrix: (Units=GPa)
#
#
# Indices 1 2 3 4 5 6 
#
# 1 182.0640 -2.0702 140.5494 0.0000 -3.5044 0.0000
# 2 -2.0702 30.7527 4.0291 -0.0001 0.0474 0.0000
# 3 140.5494 4.0291 206.7155 0.0000 0.4929 0.0000
# 4 0.0000 -0.0001 0.0000 39.4784 0.0000 -9.7415
# 5 -3.5044 0.0474 0.4929 0.0000 42.9982 0.0000
# 6 0.0000 0.0000 0.0000 -9.7415 0.0000 16.6086
#
#
#
# Elastic Compliance Matrix: (Units=1/GPa)
#
#
# Indices 1 2 3 4 5 6 
#
# 1 0.011709 0.001835 -0.007999 0.000000 0.001044 0.000000
# 2 0.001835 0.032888 -0.001889 0.000000 0.000135 0.000000
# 3 -0.007999 -0.001889 0.010315 0.000000 -0.000768 0.000000
# 4 0.000000 0.000000 0.000000 0.029617 0.000000 0.017371
# 5 0.001044 0.000135 -0.000768 0.000000 0.023351 0.000000
# 6 0.000000 0.000000 0.000000 0.017371 0.000000 0.070399
#
#
# Mechanical properties :
#
#
# Convention : Reuss Voigt Hill
#
# Bulk Modulus (GPa) = 25.76970 78.28321 52.02645
# Shear Modulus (GPa) = 24.11734 38.28528 31.20131
#
# Velocity S-wave (km/s) = 3.41212 4.29908 3.88102
# Velocity P-wave (km/s) = 5.28807 7.90151 6.72300
#
# Compressibility (1/GPa) = 0.03880527
#
# Stress axis : x y z
#
# Youngs Moduli (GPa) = 85.40602 30.40606 96.94582
#
# Poissons Ratio (x) = -0.05578 0.77549
# Poissons Ratio (y) = -0.15669 0.18310
# Poissons Ratio (z) = 0.68318 0.05743
#
# Static dielectric constant tensor:
#      x y z
#    x 1.694180 0.000000 -0.000470 
#    y 0.000000 1.781890 0.000000 
#    z -0.000470 0.000000 1.728220 
# 
# From -- ./inp_files/319572.got.cif
#   From: 2010.05.17/outbox.cif.g08.bks.cpg/sg12_160_cif.got.tgz:319572.got - 2010.06.03 13:09:07.
