data_PCOD9191198
_publ_section_title
;
Structure prediction by ZEFSAII (Michael W. Deem and Ramdas Pophale) SiO2 
 PCOD9191198
Probable space group: C 2/M
;
_chemical_formula_sum "Si O2"
_cell_formula_units_Z 56
_cell_length_a 22.245642
_cell_length_b 29.598805
_cell_length_c 9.711262
_cell_angle_alpha 90.000000
_cell_angle_beta 153.978676
_cell_angle_gamma 90.000000
_cell_volume 2805.226898
_symmetry_space_group_name_H-M "C 2/M"
_symmetry_group_IT_number 12
_symmetry_cell_setting 'monoclinic'
loop_
_space_group_symop_operation_xyz
x,y,z
-x,y,-z
-x,-y,-z
x,-y,z
1/2+x,1/2+y,z
1/2-x,1/2+y,-z
1/2-x,1/2-y,-z
1/2+x,1/2-y,z
loop_
_atom_site_type_symbol
_atom_site_label
_atom_site_fract_x
_atom_site_fract_y
_atom_site_fract_z
Si Si1 0.667663 0.905628 0.828396
Si Si2 0.662670 0.093674 0.315051
Si Si3 0.391751 0.000000 0.898563
Si Si4 0.469819 0.700675 0.101470
Si Si5 0.726629 0.354106 0.706384
Si Si6 0.712878 0.148581 0.670360
Si Si7 0.604656 0.000000 0.591943
Si Si8 0.968564 0.708031 0.271432
O O1 0.500000 0.898858 0.500000
O O2 0.739539 0.869010 0.878437
O O3 0.684945 0.953622 0.786853
O O4 0.735635 0.895980 0.115467
O O5 0.718736 0.131901 0.330505
O O6 0.715058 0.105151 0.574760
O O7 0.692069 0.045733 0.302263
O O8 0.500000 0.096853 0.000000
O O9 0.500000 0.000000 0.000000
O O10 0.497177 0.000000 0.243909
O O11 0.571966 0.662117 0.369782
O O12 0.488520 0.745745 0.229776
O O13 0.500000 0.707186 0.000000
O O14 0.317070 0.683772 0.819338
O O15 0.816092 0.311871 0.943843
O O16 0.565892 0.172063 0.392396
O O17 0.500000 0.000000 0.500000
O O18 0.000000 0.711953 0.500000
#
# Coordination Sequence:
#
# PCOD9191198 Si02
#       8
#     8   8   4   8   8   8   4   8
#     4  11  20  40  66 100 129 165 208 263 325 376
#     4  11  20  36  65  94 126 171 208 261 319 369
#     4  10  20  32  58 103 132 156 212 268 318 365
#     4  12  30  44  60  94 128 173 218 261 316 382
#     4  12  23  42  66  90 132 166 213 259 321 383
#     4  12  23  42  66  89 135 168 210 263 315 381
#     4  10  20  34  62 101 140 154 202 278 318 369
#     4  12  26  45  69  96 123 159 219 275 322 374
#
# _framework density 19.962734000000001
#
# number of rings (size 3 to 8) (size 9 to 14) (size 15 to 20)
#    0.000    0.571    5.714    4.286    4.000    2.286 
#    0.000    0.000    0.000    5.143    0.000    0.000 
#    0.000    0.000    0.000    0.000    0.000    0.000 
#
# Total GULP energy -156023.194021 kJ/mol
# GULP energy per Si atom -5572.256929 kJ/mol
# Density = 1.991730 g / cm^3
# Si number density = 19.962734 Si / 1000 Ang^3
#
#
#
# Elastic Constant Matrix: (Units=GPa)
#
#
# Indices 1 2 3 4 5 6 
#
# 1 105.8654 21.6488 23.4376 0.0000 -30.4578 0.0000
# 2 21.6488 81.8554 8.4527 0.0000 -13.2231 0.0000
# 3 23.4376 8.4527 47.3500 0.0000 -19.4858 0.0000
# 4 0.0000 0.0000 0.0000 0.8650 0.0000 -25.7745
# 5 -30.4578 -13.2231 -19.4858 0.0000 30.0672 0.0000
# 6 0.0000 0.0000 0.0000 -25.7745 0.0000 9.7512
#
#
#
# Elastic Compliance Matrix: (Units=1/GPa)
#
#
# Indices 1 2 3 4 5 6 
#
# 1 0.013565 -0.001475 -0.001450 0.000000 0.012153 0.000000
# 2 -0.001475 0.013311 0.000202 0.000000 0.004491 0.000000
# 3 -0.001450 0.000202 0.028956 0.000000 0.017385 0.000000
# 4 0.000000 0.000000 0.000000 -0.014867 0.000000 -0.039297
# 5 0.012153 0.004491 0.017385 0.000000 0.058812 0.000000
# 6 0.000000 0.000000 0.000000 -0.039297 0.000000 -0.001319
#
#
# Mechanical properties :
#
#
# Convention : Reuss Voigt Hill
#
# Bulk Modulus (GPa) = 19.84665 38.01656 28.93160
# Shear Modulus (GPa) = 41.42549 20.23878 30.83213
#
# Velocity S-wave (km/s) = 4.56031 3.18752 3.93426
# Velocity P-wave (km/s) = 6.13938 5.71246 5.92976
#
# Compressibility (1/GPa) = 0.05038634
#
# Stress axis : x y z
#
# Youngs Moduli (GPa) = 73.71930 75.12386 34.53571
#
# Poissons Ratio (x) = 0.11078 0.05008
# Poissons Ratio (y) = 0.10871 -0.00697
# Poissons Ratio (z) = 0.10689 -0.01517
#
# Static dielectric constant tensor:
#      x y z
#    x 1.676240 0.000000 -0.036140 
#    y 0.000000 1.888940 0.000000 
#    z -0.036140 0.000000 1.697970 
# 
# From -- ./inp_files/91677.got.cif
#   From: 2010.05.17/outbox.cif.g08.bks.cpg/sg12_46_cif.got.tgz:91677.got - 2010.06.03 13:09:07.
