data_PCOD9191539
_publ_section_title
;
Structure prediction by ZEFSAII (Michael W. Deem and Ramdas Pophale) SiO2 
 PCOD9191539
Probable space group: C 2/M
;
_chemical_formula_sum "Si O2"
_cell_formula_units_Z 56
_cell_length_a 19.903120
_cell_length_b 7.555676
_cell_length_c 18.313758
_cell_angle_alpha 90.000000
_cell_angle_beta 51.511067
_cell_angle_gamma 90.000000
_cell_volume 2155.673793
_symmetry_space_group_name_H-M "C 2/M"
_symmetry_group_IT_number 12
_symmetry_cell_setting 'monoclinic'
loop_
_space_group_symop_operation_xyz
x,y,z
-x,y,-z
-x,-y,-z
x,-y,z
1/2+x,1/2+y,z
1/2-x,1/2+y,-z
1/2-x,1/2-y,-z
1/2+x,1/2-y,z
loop_
_atom_site_type_symbol
_atom_site_label
_atom_site_fract_x
_atom_site_fract_y
_atom_site_fract_z
Si Si1 0.108615 0.797890 0.845857
Si Si2 0.712672 0.709041 0.342861
Si Si3 0.454917 0.282433 0.260858
Si Si4 0.462935 0.801059 0.606634
Si Si5 0.861439 0.802435 0.454634
Si Si6 0.329856 0.707639 0.046040
Si Si7 0.145276 0.786017 0.135588
O O1 0.204227 0.799347 0.746730
O O2 0.053673 0.719872 0.816920
O O3 0.119318 0.716615 0.919043
O O4 0.078413 0.000000 0.876097
O O5 0.729329 0.500000 0.337886
O O6 0.632130 0.729764 0.342355
O O7 0.684694 0.776972 0.442985
O O8 0.449432 0.500000 0.263280
O O9 0.375982 0.217762 0.365119
O O10 0.550080 0.234486 0.223629
O O11 0.500000 0.813957 0.500000
O O12 0.537737 0.687191 0.592369
O O13 0.461268 0.000000 0.637265
O O14 0.825882 0.000000 0.468879
O O15 0.351444 0.500000 0.028167
O O16 0.227091 0.722219 0.125283
O O17 0.345259 0.779665 0.954544
O O18 0.149352 0.000000 0.133219
#
# Coordination Sequence:
#
# PCOD9191539 Si02
#       7
#     8   8   8   8   8   8   8
#     4  10  21  36  53  77 110 143 179 222 266 313
#     4  10  20  33  50  73 105 143 182 222 264 314
#     4   9  19  35  55  79 106 141 181 219 264 318
#     4   9  17  30  49  74 101 132 174 222 271 314
#     4   9  18  33  51  74 105 141 181 222 264 312
#     4   9  19  35  56  83 110 135 169 219 270 316
#     4   9  18  35  59  83 106 136 174 214 265 327
#
# _framework density 25.977955999999999
#
# number of rings (size 3 to 8) (size 9 to 14) (size 15 to 20)
#    0.000    2.714    0.000    0.857    2.000    4.000 
#    0.000    4.286    0.000    0.000    0.000    5.000 
#    0.000    0.000    0.000    0.000    0.000    0.000 
#
# Total GULP energy -156346.195337 kJ/mol
# GULP energy per Si atom -5583.792691 kJ/mol
# Density = 2.591883 g / cm^3
# Si number density = 25.977956 Si / 1000 Ang^3
#
#
#
# Elastic Constant Matrix: (Units=GPa)
#
#
# Indices 1 2 3 4 5 6 
#
# 1 79.2009 3.4855 -8.8818 0.0002 -7.9258 0.0004
# 2 3.4855 86.3785 3.8003 0.0005 7.7501 0.0002
# 3 -8.8818 3.8003 91.0859 0.0001 11.3826 0.0000
# 4 0.0002 0.0005 0.0001 10.0557 0.0000 -0.4829
# 5 -7.9258 7.7501 11.3826 0.0000 45.2670 0.0001
# 6 0.0004 0.0002 0.0000 -0.4829 0.0001 6.8986
#
#
#
# Elastic Compliance Matrix: (Units=1/GPa)
#
#
# Indices 1 2 3 4 5 6 
#
# 1 0.012990 -0.000762 0.001030 0.000000 0.002146 -0.000001
# 2 -0.000762 0.011808 -0.000307 -0.000001 -0.002078 0.000000
# 3 0.001030 -0.000307 0.011422 0.000000 -0.002639 0.000000
# 4 0.000000 -0.000001 0.000000 0.099781 0.000000 0.006985
# 5 0.002146 -0.002078 -0.002639 0.000000 0.023486 0.000000
# 6 -0.000001 0.000000 0.000000 0.006985 0.000000 0.145445
#
#
# Mechanical properties :
#
#
# Convention : Reuss Voigt Hill
#
# Bulk Modulus (GPa) = 27.66923 28.16370 27.91646
# Shear Modulus (GPa) = 15.77005 29.66170 22.71587
#
# Velocity S-wave (km/s) = 2.46652 3.38272 2.96028
# Velocity P-wave (km/s) = 4.33426 5.11097 4.73855
#
# Compressibility (1/GPa) = 0.03614124
#
# Stress axis : x y z
#
# Youngs Moduli (GPa) = 76.98275 84.69096 87.55243
#
# Poissons Ratio (x) = 0.06454 -0.09020
# Poissons Ratio (y) = 0.05866 0.02691
# Poissons Ratio (z) = -0.07931 0.02603
#
# Static dielectric constant tensor:
#      x y z
#    x 2.077580 0.000000 0.079180 
#    y 0.000000 2.021910 0.000000 
#    z 0.079180 0.000000 2.115390 
# 
# From -- ./inp_files/280994.got.cif
#   From: 2010.05.17/outbox.cif.g08.bks.cpg/sg12_141_cif.got.tgz:280994.got - 2010.06.03 13:09:07.
