data_PCOD9191654
_publ_section_title
;
Structure prediction by ZEFSAII (Michael W. Deem and Ramdas Pophale) SiO2 
 PCOD9191654
Probable space group: C 2/M
;
_chemical_formula_sum "Si O2"
_cell_formula_units_Z 48
_cell_length_a 24.237312
_cell_length_b 22.823524
_cell_length_c 4.727108
_cell_angle_alpha 90.000000
_cell_angle_beta 86.573584
_cell_angle_gamma 90.000000
_cell_volume 2610.271194
_symmetry_space_group_name_H-M "C 2/M"
_symmetry_group_IT_number 12
_symmetry_cell_setting 'monoclinic'
loop_
_space_group_symop_operation_xyz
x,y,z
-x,y,-z
-x,-y,-z
x,-y,z
1/2+x,1/2+y,z
1/2-x,1/2+y,-z
1/2-x,1/2-y,-z
1/2+x,1/2-y,z
loop_
_atom_site_type_symbol
_atom_site_label
_atom_site_fract_x
_atom_site_fract_y
_atom_site_fract_z
Si Si1 0.049483 0.566169 0.246105
Si Si2 0.672649 0.933068 0.276009
Si Si3 0.648912 0.766079 0.550293
Si Si4 0.804939 0.790683 0.972953
Si Si5 0.537845 0.828131 0.774673
Si Si6 0.276625 0.870335 0.259258
O O1 0.052262 0.500000 0.122625
O O2 0.108380 0.576655 0.382692
O O3 0.000000 0.562485 0.500000
O O4 0.949798 0.614426 0.015758
O O5 0.715212 0.921183 0.515484
O O6 0.677099 0.000000 0.177778
O O7 0.687018 0.889317 0.019586
O O8 0.651618 0.744438 0.231555
O O9 0.592796 0.796046 0.664258
O O10 0.695681 0.815166 0.590088
O O11 0.668344 0.710329 0.728678
O O12 0.782256 0.850261 0.844661
O O13 0.750000 0.750000 0.000000
O O14 0.500000 0.834086 0.500000
O O15 0.500000 0.791106 0.000000
#
# Coordination Sequence:
#
# PCOD9191654 Si02
#       6
#     8   8   8   8   8   8
#     4   9  19  33  46  64  92 129 172 211 245 278
#     4  11  22  34  49  71  99 131 169 210 247 286
#     4  11  20  33  50  71  95 120 166 218 254 294
#     4  10  20  33  51  72  90 117 159 215 266 303
#     4  11  21  33  48  67  92 129 166 203 248 288
#     4  11  19  34  52  68  92 123 161 206 259 300
#
# _framework density 18.388892999999999
#
# number of rings (size 3 to 8) (size 9 to 14) (size 15 to 20)
#    0.000    1.500    0.000    9.500    0.000    0.333 
#    0.000    5.833    0.000    0.000    0.000    0.000 
#    0.000    0.000    0.000    0.000    0.000  210.000 
#
# Total GULP energy -133613.066903 kJ/mol
# GULP energy per Si atom -5567.211121 kJ/mol
# Density = 1.834704 g / cm^3
# Si number density = 18.388893 Si / 1000 Ang^3
#
#
#
# Elastic Constant Matrix: (Units=GPa)
#
#
# Indices 1 2 3 4 5 6 
#
# 1 57.2219 30.9734 13.0219 0.0000 -3.8676 0.0000
# 2 30.9734 46.6075 16.6106 0.0000 -0.8130 0.0000
# 3 13.0219 16.6106 88.8983 0.0000 -4.8370 0.0000
# 4 0.0000 0.0000 0.0000 10.0415 0.0000 -25.8168
# 5 -3.8676 -0.8130 -4.8370 0.0000 35.5441 0.0000
# 6 0.0000 0.0000 0.0000 -25.8168 0.0000 -28.3546
#
#
#
# Elastic Compliance Matrix: (Units=1/GPa)
#
#
# Indices 1 2 3 4 5 6 
#
# 1 0.027550 -0.018079 -0.000521 0.000000 0.002513 0.000000
# 2 -0.018079 0.034851 -0.003957 0.000000 -0.001709 0.000000
# 3 -0.000521 -0.003957 0.012146 0.000000 0.001506 0.000000
# 4 0.000000 0.000000 0.000000 0.029808 0.000000 -0.027140
# 5 0.002513 -0.001709 0.001506 0.000000 0.028573 0.000000
# 6 0.000000 0.000000 0.000000 -0.027140 0.000000 -0.010556
#
#
# Mechanical properties :
#
#
# Convention : Reuss Voigt Hill
#
# Bulk Modulus (GPa) = 33.97409 34.88217 34.42813
# Shear Modulus (GPa) = 28.20116 12.25432 20.22774
#
# Velocity S-wave (km/s) = 3.92037 2.58427 3.32022
# Velocity P-wave (km/s) = 6.24562 5.28346 5.78458
#
# Compressibility (1/GPa) = 0.02943419
#
# Stress axis : x y z
#
# Youngs Moduli (GPa) = 36.29718 28.69367 82.32961
#
# Poissons Ratio (x) = 0.51876 0.04287
# Poissons Ratio (y) = 0.65623 0.32574
# Poissons Ratio (z) = 0.01890 0.11353
#
# Static dielectric constant tensor:
#      x y z
#    x 1.699670 0.000000 0.025660 
#    y 0.000000 1.718570 0.000000 
#    z 0.025660 0.000000 1.745850 
# 
# From -- ./inp_files/20977.got.cif
#   From: 2010.05.17/outbox.cif.g08.bks.cpg/sg12_11_cif.got.tgz:20977.got - 2010.06.03 13:09:07.
