data_PCOD9191753
_publ_section_title
;
Structure prediction by ZEFSAII (Michael W. Deem and Ramdas Pophale) SiO2 
 PCOD9191753
Probable space group: C 2/M
;
_chemical_formula_sum "Si O2"
_cell_formula_units_Z 48
_cell_length_a 21.263375
_cell_length_b 7.519293
_cell_length_c 27.555436
_cell_angle_alpha 90.000000
_cell_angle_beta 30.187631
_cell_angle_gamma 90.000000
_cell_volume 2215.340935
_symmetry_space_group_name_H-M "C 2/M"
_symmetry_group_IT_number 12
_symmetry_cell_setting 'monoclinic'
loop_
_space_group_symop_operation_xyz
x,y,z
-x,y,-z
-x,-y,-z
x,-y,z
1/2+x,1/2+y,z
1/2-x,1/2+y,-z
1/2-x,1/2-y,-z
1/2+x,1/2-y,z
loop_
_atom_site_type_symbol
_atom_site_label
_atom_site_fract_x
_atom_site_fract_y
_atom_site_fract_z
Si Si1 0.369681 0.709253 0.775481
Si Si2 0.118904 0.717489 0.777980
Si Si3 0.872065 0.288974 0.886647
Si Si4 0.124977 0.782551 0.444785
Si Si5 0.378608 0.713326 0.441713
Si Si6 0.120393 0.282169 0.889022
O O1 0.370657 0.500000 0.763327
O O2 0.359237 0.724728 0.840206
O O3 0.500726 0.782700 0.667979
O O4 0.247525 0.781173 0.829804
O O5 0.117619 0.500000 0.778582
O O6 0.248187 0.773400 0.666698
O O7 0.113250 0.772726 0.837800
O O8 0.997503 0.779411 0.829213
O O9 0.884974 0.500000 0.875083
O O10 0.750000 0.250000 0.000000
O O11 0.123623 0.722046 0.501409
O O12 0.000000 0.726680 0.500000
O O13 0.125164 0.000000 0.444620
O O14 0.389050 0.500000 0.437326
O O15 0.250000 0.750000 0.500000
O O16 0.120408 0.500000 0.889443
O O17 0.000000 0.225514 0.000000
#
# Coordination Sequence:
#
# PCOD9191753 Si02
#       6
#     8   8   8   8   8   8
#     4  10  20  34  53  78 106 135 170 213 262 312
#     4   9  17  29  48  74 101 133 173 215 257 300
#     4  11  22  36  55  78 106 138 172 211 255 306
#     4   9  16  28  48  75 104 131 167 216 262 301
#     4  10  20  33  51  76 106 139 173 213 260 309
#     4   9  16  28  48  73 100 130 169 218 265 306
#
# _framework density 21.667093000000001
#
# number of rings (size 3 to 8) (size 9 to 14) (size 15 to 20)
#    0.000    2.333    0.000    3.500    0.000    8.667 
#    0.000    0.000    0.000    6.000    0.000    0.000 
#    0.000    0.000    0.000    0.000    0.000    0.000 
#
# Total GULP energy -134152.557846 kJ/mol
# GULP energy per Si atom -5589.689910 kJ/mol
# Density = 2.161778 g / cm^3
# Si number density = 21.667093 Si / 1000 Ang^3
#
#
#
# Elastic Constant Matrix: (Units=GPa)
#
#
# Indices 1 2 3 4 5 6 
#
# 1 150.5062 -3.1419 46.0787 0.0039 -11.9646 -0.0081
# 2 -3.1419 54.8885 -0.0639 0.0057 -4.2087 -0.0080
# 3 46.0787 -0.0639 137.8970 0.0013 -9.2581 -0.0023
# 4 0.0039 0.0057 0.0013 6.6849 -0.0006 -4.5679
# 5 -11.9646 -4.2087 -9.2581 -0.0006 46.8837 0.0023
# 6 -0.0081 -0.0080 -0.0023 -4.5679 0.0023 16.5562
#
#
#
# Elastic Compliance Matrix: (Units=1/GPa)
#
#
# Indices 1 2 3 4 5 6 
#
# 1 0.007512 0.000541 -0.002410 -0.000002 0.001490 0.000003
# 2 0.000541 0.018386 -0.000053 -0.000012 0.001778 0.000006
# 3 -0.002410 -0.000053 0.008123 0.000000 0.000984 0.000000
# 4 -0.000002 -0.000012 0.000000 0.184345 -0.000002 0.050861
# 5 0.001490 0.001778 0.000984 -0.000002 0.022064 -0.000002
# 6 0.000003 0.000006 0.000000 0.050861 -0.000002 0.074433
#
#
# Mechanical properties :
#
#
# Convention : Reuss Voigt Hill
#
# Bulk Modulus (GPa) = 33.13668 47.67084 40.40376
# Shear Modulus (GPa) = 15.20845 34.05288 24.63066
#
# Velocity S-wave (km/s) = 2.65224 3.96869 3.37527
# Velocity P-wave (km/s) = 4.97051 6.56125 5.82048
#
# Compressibility (1/GPa) = 0.03017804
#
# Stress axis : x y z
#
# Youngs Moduli (GPa) = 133.12465 54.38916 123.10582
#
# Poissons Ratio (x) = -0.02945 0.29666
# Poissons Ratio (y) = -0.07207 0.00653
# Poissons Ratio (z) = 0.32080 0.00288
#
# Static dielectric constant tensor:
#      x y z
#    x 1.724830 -0.000020 0.001940 
#    y -0.000020 1.859900 0.000020 
#    z 0.001940 0.000020 1.735590 
# 
# From -- ./inp_files/320316.got.cif
#   From: 2010.05.17/outbox.cif.g08.bks.cpg/sg12_161_cif.got.tgz:320316.got - 2010.06.03 13:09:07.
