data_PCOD9191658
_publ_section_title
;
Structure prediction by ZEFSAII (Michael W. Deem and Ramdas Pophale) SiO2 
 PCOD9191658
Probable space group: C 2/M
;
_chemical_formula_sum "Si O2"
_cell_formula_units_Z 64
_cell_length_a 17.393011
_cell_length_b 24.473831
_cell_length_c 23.808609
_cell_angle_alpha 90.000000
_cell_angle_beta 158.838600
_cell_angle_gamma 90.000000
_cell_volume 3658.588822
_symmetry_space_group_name_H-M "C 2/M"
_symmetry_group_IT_number 12
_symmetry_cell_setting 'monoclinic'
loop_
_space_group_symop_operation_xyz
x,y,z
-x,y,-z
-x,-y,-z
x,-y,z
1/2+x,1/2+y,z
1/2-x,1/2+y,-z
1/2-x,1/2-y,-z
1/2+x,1/2-y,z
loop_
_atom_site_type_symbol
_atom_site_label
_atom_site_fract_x
_atom_site_fract_y
_atom_site_fract_z
Si Si1 0.199845 0.311024 0.487773
Si Si2 0.677481 0.284901 0.656033
Si Si3 0.226766 0.776405 0.172399
Si Si4 0.417057 0.935601 0.766019
Si Si5 0.589882 0.173602 0.877104
Si Si6 0.413101 0.620243 0.538179
Si Si7 0.884127 0.782267 0.175090
Si Si8 0.333003 0.064904 0.841355
O O1 0.250000 0.250000 0.500000
O O2 0.257982 0.353619 0.478627
O O3 0.384179 0.311136 0.661241
O O4 0.946620 0.311083 0.326226
O O5 0.500000 0.252359 0.500000
O O6 0.799010 0.248748 0.783617
O O7 0.537147 0.330567 0.591734
O O8 0.852229 0.312894 0.736591
O O9 0.278990 0.726158 0.164810
O O10 0.000000 0.801533 0.000000
O O11 0.588276 0.890479 0.861781
O O12 0.206583 0.918864 0.587536
O O13 0.387663 0.924975 0.812950
O O14 0.463212 0.000000 0.790052
O O15 0.617509 0.219014 0.847800
O O16 0.747847 0.186123 0.035957
O O17 0.600385 0.587244 0.695403
O O18 0.330477 0.000000 0.845641
O O19 0.500000 0.088249 0.000000
#
# Coordination Sequence:
#
# PCOD9191658 Si02
#       8
#     8   8   8   8   8   8   8   8
#     4  10  20  33  51  73 102 134 177 226 269 314
#     4  12  20  30  49  75 100 141 182 218 258 322
#     4  11  21  35  51  73 102 140 179 219 278 328
#     4  11  22  35  50  73 106 145 188 226 264 314
#     4  11  21  34  53  79 108 142 188 223 274 322
#     4  12  20  33  54  70 103 142 185 223 260 314
#     4  10  21  36  54  79 106 139 180 237 271 325
#     4  10  22  35  49  73 105 142 186 227 258 306
#
# _framework density 17.493084
#
# number of rings (size 3 to 8) (size 9 to 14) (size 15 to 20)
#    0.000    1.125    6.250    3.000    1.750    1.500 
#    0.000    0.000    0.000    0.000    0.000    0.000 
#    0.000   12.500    0.000    4.500    0.000    4.125 
#
# Total GULP energy -178348.373919 kJ/mol
# GULP energy per Si atom -5573.386685 kJ/mol
# Density = 1.745327 g / cm^3
# Si number density = 17.493084 Si / 1000 Ang^3
#
#
#
# Elastic Constant Matrix: (Units=GPa)
#
#
# Indices 1 2 3 4 5 6 
#
# 1 24.5206 12.0794 15.2376 0.0004 -7.0694 0.0034
# 2 12.0794 65.0584 20.4629 0.0240 -6.9465 0.0236
# 3 15.2376 20.4629 142.3441 -0.0005 -16.0807 0.0182
# 4 0.0004 0.0240 -0.0005 22.9626 0.0176 0.3957
# 5 -7.0694 -6.9465 -16.0807 0.0176 29.3509 0.0004
# 6 0.0034 0.0236 0.0182 0.3957 0.0004 17.1534
#
#
#
# Elastic Compliance Matrix: (Units=1/GPa)
#
#
# Indices 1 2 3 4 5 6 
#
# 1 0.048701 -0.007137 -0.003254 0.000000 0.008258 0.000003
# 2 -0.007137 0.017349 -0.001557 -0.000019 0.001534 -0.000020
# 3 -0.003254 -0.001557 0.007960 0.000000 0.003209 -0.000006
# 4 0.000000 -0.000019 0.000000 0.043567 -0.000031 -0.001005
# 5 0.008258 0.001534 0.003209 -0.000031 0.038181 -0.000007
# 6 0.000003 -0.000020 -0.000006 -0.001005 -0.000007 0.058321
#
#
# Mechanical properties :
#
#
# Convention : Reuss Voigt Hill
#
# Bulk Modulus (GPa) = 19.95455 36.38700 28.17077
# Shear Modulus (GPa) = 19.63254 26.16958 22.90106
#
# Velocity S-wave (km/s) = 3.35371 3.87201 3.62214
# Velocity P-wave (km/s) = 5.14086 6.39029 5.79932
#
# Compressibility (1/GPa) = 0.05011387
#
# Stress axis : x y z
#
# Youngs Moduli (GPa) = 20.53348 57.63886 125.62964
#
# Poissons Ratio (x) = 0.41137 0.40885
# Poissons Ratio (y) = 0.14655 0.19558
# Poissons Ratio (z) = 0.06682 0.08973
#
# Static dielectric constant tensor:
#      x y z
#    x 1.633260 -0.000010 -0.032910 
#    y -0.000010 1.608220 -0.000020 
#    z -0.032910 -0.000020 1.694230 
# 
# From -- ./inp_files/345043.got.cif
#   From: 2010.05.17/outbox.cif.g08.bks.cpg/sg12_173_cif.got.tgz:345043.got - 2010.06.03 13:09:07.
