data_PCOD9191951
_publ_section_title
;
Structure prediction by ZEFSAII (Michael W. Deem and Ramdas Pophale) SiO2 
 PCOD9191951
Probable space group: C 2/M
;
_chemical_formula_sum "Si O2"
_cell_formula_units_Z 64
_cell_length_a 14.922152
_cell_length_b 7.516432
_cell_length_c 28.849980
_cell_angle_alpha 90.000000
_cell_angle_beta 119.207892
_cell_angle_gamma 90.000000
_cell_volume 2824.429562
_symmetry_space_group_name_H-M "C 2/M"
_symmetry_group_IT_number 12
_symmetry_cell_setting 'monoclinic'
loop_
_space_group_symop_operation_xyz
x,y,z
-x,y,-z
-x,-y,-z
x,-y,z
1/2+x,1/2+y,z
1/2-x,1/2+y,-z
1/2-x,1/2-y,-z
1/2+x,1/2-y,z
loop_
_atom_site_type_symbol
_atom_site_label
_atom_site_fract_x
_atom_site_fract_y
_atom_site_fract_z
Si Si1 0.421581 0.717995 0.915358
Si Si2 0.206017 0.706603 0.369226
Si Si3 0.856157 0.788859 0.798652
Si Si4 0.363996 0.216872 0.292461
Si Si5 0.139345 0.212141 0.450995
Si Si6 0.423825 0.704365 0.412517
Si Si7 0.353133 0.712520 0.997626
Si Si8 0.532730 0.214066 0.260855
O O1 0.420631 0.500000 0.914162
O O2 0.376343 0.780987 0.855234
O O3 0.540440 0.774176 0.951815
O O4 0.359175 0.774568 0.945572
O O5 0.223206 0.500000 0.361173
O O6 0.142778 0.712787 0.400255
O O7 0.318662 0.787249 0.405018
O O8 0.135038 0.787614 0.311903
O O9 0.751285 0.721190 0.748546
O O10 0.952784 0.759289 0.789067
O O11 0.841260 0.000000 0.799112
O O12 0.404657 0.289006 0.351893
O O13 0.436637 0.270536 0.267740
O O14 0.365990 0.000000 0.296940
O O15 0.250000 0.250000 0.500000
O O16 0.036691 0.280796 0.450121
O O17 0.128475 0.000000 0.445152
O O18 0.427115 0.500000 0.430345
O O19 0.361073 0.500000 0.997497
O O20 0.250000 0.750000 0.000000
O O21 0.533821 0.000000 0.264396
#
# Coordination Sequence:
#
# PCOD9191951 Si02
#       8
#     8   8   8   8   8   8   8   8
#     4   8  17  34  52  74 108 147 179 216 271 329
#     4  10  20  37  59  80 108 141 174 216 266 318
#     4  10  20  34  53  78 109 143 182 221 260 318
#     4  10  20  33  52  78 106 139 176 216 261 312
#     4  11  24  40  59  83 109 139 178 223 269 318
#     4  10  21  37  58  80 105 140 177 213 260 319
#     4   9  17  33  57  78 102 141 186 226 271 322
#     4  10  20  34  53  79 110 143 175 216 270 315
#
# _framework density 22.659444000000001
#
# number of rings (size 3 to 8) (size 9 to 14) (size 15 to 20)
#    0.000    2.250    2.500    1.125    0.000    3.500 
#    0.000    6.250    0.000    0.000    0.000    0.000 
#    0.000    0.000    0.000    0.000    0.000    0.000 
#
# Total GULP energy -178620.578687 kJ/mol
# GULP energy per Si atom -5581.893084 kJ/mol
# Density = 2.260787 g / cm^3
# Si number density = 22.659444 Si / 1000 Ang^3
#
#
#
# Elastic Constant Matrix: (Units=GPa)
#
#
# Indices 1 2 3 4 5 6 
#
# 1 121.1329 -3.9522 -3.6212 0.0000 -7.3500 0.0000
# 2 -3.9522 63.6489 -7.3298 0.0000 3.2984 0.0000
# 3 -3.6212 -7.3298 53.8460 0.0000 -3.7484 0.0000
# 4 0.0000 0.0000 0.0000 9.3675 0.0000 -6.6790
# 5 -7.3500 3.2984 -3.7484 0.0000 20.7726 0.0000
# 6 0.0000 0.0000 0.0000 -6.6790 0.0000 18.4478
#
#
#
# Elastic Compliance Matrix: (Units=1/GPa)
#
#
# Indices 1 2 3 4 5 6 
#
# 1 0.008483 0.000465 0.000848 0.000000 0.003081 0.000000
# 2 0.000465 0.016084 0.002080 0.000000 -0.002014 0.000000
# 3 0.000848 0.002080 0.019150 0.000000 0.003425 0.000000
# 4 0.000000 0.000000 0.000000 0.143898 0.000000 0.052098
# 5 0.003081 -0.002014 0.003425 0.000000 0.050168 0.000000
# 6 0.000000 0.000000 0.000000 0.052098 0.000000 0.073069
#
#
# Mechanical properties :
#
#
# Convention : Reuss Voigt Hill
#
# Bulk Modulus (GPa) = 19.80043 23.20238 21.50140
# Shear Modulus (GPa) = 15.58119 26.61964 21.10042
#
# Velocity S-wave (km/s) = 2.62510 3.43121 3.05486
# Velocity P-wave (km/s) = 4.23621 5.09504 4.68534
#
# Compressibility (1/GPa) = 0.05050395
#
# Stress axis : x y z
#
# Youngs Moduli (GPa) = 117.88496 62.17354 52.21881
#
# Poissons Ratio (x) = -0.02890 -0.04429
# Poissons Ratio (y) = -0.05479 -0.10864
# Poissons Ratio (z) = -0.09999 -0.12935
#
# Static dielectric constant tensor:
#      x y z
#    x 1.854850 0.000000 0.019490 
#    y 0.000000 1.879670 0.000000 
#    z 0.019490 0.000000 1.822290 
# 
# From -- ./inp_files/359993.got.cif
#   From: 2010.05.17/outbox.cif.g08.bks.cpg/sg12_180_cif.got.tgz:359993.got - 2010.06.03 13:09:07.
