data_PCOD9191845
_publ_section_title
;
Structure prediction by ZEFSAII (Michael W. Deem and Ramdas Pophale) SiO2 
 PCOD9191845
Probable space group: C 2/M
;
_chemical_formula_sum "Si O2"
_cell_formula_units_Z 56
_cell_length_a 21.747492
_cell_length_b 7.670822
_cell_length_c 18.917637
_cell_angle_alpha 90.000000
_cell_angle_beta 121.816716
_cell_angle_gamma 90.000000
_cell_volume 2681.658567
_symmetry_space_group_name_H-M "C 2/M"
_symmetry_group_IT_number 12
_symmetry_cell_setting 'monoclinic'
loop_
_space_group_symop_operation_xyz
x,y,z
-x,y,-z
-x,-y,-z
x,-y,z
1/2+x,1/2+y,z
1/2-x,1/2+y,-z
1/2-x,1/2-y,-z
1/2+x,1/2-y,z
loop_
_atom_site_type_symbol
_atom_site_label
_atom_site_fract_x
_atom_site_fract_y
_atom_site_fract_z
Si Si1 0.235106 0.288721 0.383186
Si Si2 0.080716 0.713798 0.029541
Si Si3 0.291544 0.212839 0.791763
Si Si4 0.141506 0.209646 0.767774
Si Si5 0.335481 0.794008 0.058310
Si Si6 0.368772 0.795627 0.553996
Si Si7 0.981157 0.799606 0.411964
O O1 0.236596 0.500000 0.385934
O O2 0.214441 0.230878 0.292712
O O3 0.314086 0.227117 0.455207
O O4 0.176969 0.230164 0.406457
O O5 0.079262 0.500000 0.026861
O O6 0.136571 0.767009 0.124433
O O7 0.115544 0.775948 0.976520
O O8 0.000000 0.771377 0.000000
O O9 0.220411 0.270986 0.790721
O O10 0.290900 0.000000 0.791362
O O11 0.133924 0.248601 0.845947
O O12 0.080825 0.277021 0.676311
O O13 0.140439 0.000000 0.761625
O O14 0.338429 0.000000 0.053238
O O15 0.250000 0.750000 0.000000
O O16 0.443944 0.703167 0.585316
O O17 0.383843 0.000000 0.573182
O O18 0.000000 0.718253 0.500000
O O19 0.958630 0.000000 0.413309
#
# Coordination Sequence:
#
# PCOD9191845 Si02
#       7
#     8   8   8   8   8   8   8
#     4   9  18  33  55  76 101 145 189 223 268 335
#     4   9  18  32  54  83 109 137 179 232 277 318
#     4   9  16  31  54  77 102 136 185 229 263 322
#     4  10  20  35  57  83 108 143 190 233 275 328
#     4  11  21  36  59  84 113 147 185 232 283 340
#     4  10  20  33  51  79 112 140 174 230 286 328
#     4  10  21  37  57  78 106 148 192 229 270 334
#
# _framework density 20.8826
#
# number of rings (size 3 to 8) (size 9 to 14) (size 15 to 20)
#    0.000    2.286    1.429    1.714    0.000    4.857 
#    0.000    5.000    0.000    1.714    0.000    0.000 
#    0.000    0.000    0.000    0.000    0.000    0.000 
#
# Total GULP energy -156319.222228 kJ/mol
# GULP energy per Si atom -5582.829365 kJ/mol
# Density = 2.083507 g / cm^3
# Si number density = 20.882600 Si / 1000 Ang^3
#
#
#
# Elastic Constant Matrix: (Units=GPa)
#
#
# Indices 1 2 3 4 5 6 
#
# 1 136.7974 -0.3879 94.0776 0.0000 13.5390 0.0000
# 2 -0.3879 40.2247 1.5851 -0.0001 0.0230 0.0000
# 3 94.0776 1.5851 192.4748 0.0000 -2.5160 0.0000
# 4 0.0000 -0.0001 0.0000 -75.6802 0.0000 18.0027
# 5 13.5390 0.0230 -2.5160 0.0000 32.9257 0.0000
# 6 0.0000 0.0000 0.0000 18.0027 0.0000 11.8779
#
#
#
# Elastic Compliance Matrix: (Units=1/GPa)
#
#
# Indices 1 2 3 4 5 6 
#
# 1 0.011884 0.000349 -0.005881 0.000000 -0.005336 0.000000
# 2 0.000349 0.024879 -0.000378 0.000000 -0.000190 0.000000
# 3 -0.005881 -0.000378 0.008113 0.000000 0.003039 0.000000
# 4 0.000000 0.000000 0.000000 -0.009712 0.000000 0.014720
# 5 -0.005336 -0.000190 0.003039 0.000000 0.032798 0.000000
# 6 0.000000 0.000000 0.000000 0.014720 0.000000 0.061880
#
#
# Mechanical properties :
#
#
# Convention : Reuss Voigt Hill
#
# Bulk Modulus (GPa) = 30.25211 62.22739 46.23975
# Shear Modulus (GPa) = 32.74834 12.10616 22.42725
#
# Velocity S-wave (km/s) = 3.96436 2.41036 3.28070
# Velocity P-wave (km/s) = 5.95593 6.13268 6.04495
#
# Compressibility (1/GPa) = 0.03305555
#
# Stress axis : x y z
#
# Youngs Moduli (GPa) = 84.14831 40.19503 123.26029
#
# Poissons Ratio (x) = -0.01404 0.72492
# Poissons Ratio (y) = -0.02940 0.04661
# Poissons Ratio (z) = 0.49489 0.01520
#
# Static dielectric constant tensor:
#      x y z
#    x 1.729820 0.000000 -0.020660 
#    y 0.000000 1.792520 0.000000 
#    z -0.020660 0.000000 1.717980 
# 
# From -- ./inp_files/281724.got.cif
#   From: 2010.05.17/outbox.cif.g08.bks.cpg/sg12_141_cif.got.tgz:281724.got - 2010.06.03 13:09:07.
