data_PCOD9191744
_publ_section_title
;
Structure prediction by ZEFSAII (Michael W. Deem and Ramdas Pophale) SiO2 
 PCOD9191744
Probable space group: C 2/M
;
_chemical_formula_sum "Si O2"
_cell_formula_units_Z 64
_cell_length_a 29.176951
_cell_length_b 7.852978
_cell_length_c 13.373434
_cell_angle_alpha 90.000000
_cell_angle_beta 89.278562
_cell_angle_gamma 90.000000
_cell_volume 3063.957924
_symmetry_space_group_name_H-M "C 2/M"
_symmetry_group_IT_number 12
_symmetry_cell_setting 'monoclinic'
loop_
_space_group_symop_operation_xyz
x,y,z
-x,y,-z
-x,-y,-z
x,-y,z
1/2+x,1/2+y,z
1/2-x,1/2+y,-z
1/2-x,1/2-y,-z
1/2+x,1/2-y,z
loop_
_atom_site_type_symbol
_atom_site_label
_atom_site_fract_x
_atom_site_fract_y
_atom_site_fract_z
Si Si1 0.858137 0.200195 0.688571
Si Si2 0.143569 0.209333 0.700886
Si Si3 0.049681 0.802026 0.774691
Si Si4 0.696635 0.705499 0.501489
Si Si5 0.196770 0.205478 0.897624
Si Si6 0.446592 0.704892 0.786229
Si Si7 0.055541 0.305692 0.992096
Si Si8 0.697340 0.201796 0.116468
O O1 0.829542 0.271688 0.596439
O O2 0.908543 0.272539 0.710963
O O3 0.829667 0.216589 0.791654
O O4 0.864634 0.000000 0.667538
O O5 0.090961 0.269631 0.707702
O O6 0.171208 0.264828 0.602665
O O7 0.168916 0.263461 0.801834
O O8 0.143140 0.000000 0.701313
O O9 0.998411 0.726640 0.770676
O O10 0.045097 0.000000 0.748155
O O11 0.066293 0.792419 0.890014
O O12 0.694212 0.500000 0.501004
O O13 0.750000 0.750000 0.500000
O O14 0.249739 0.262956 0.886511
O O15 0.196798 0.000000 0.898610
O O16 0.178427 0.263690 0.005808
O O17 0.448801 0.500000 0.777918
O O18 0.429899 0.740785 0.899904
O O19 0.070254 0.500000 0.979051
O O20 0.000000 0.299912 0.000000
O O21 0.697233 0.000000 0.133578
#
# Coordination Sequence:
#
# PCOD9191744 Si02
#       8
#     8   8   8   8   8   8   8   8
#     4  10  21  35  53  76 105 140 176 215 262 312
#     4   9  18  33  55  78 101 134 175 217 264 313
#     4   9  17  31  51  74 102 139 179 213 252 310
#     4  10  21  39  60  81 105 135 175 221 268 316
#     4   9  18  33  51  73 104 136 166 209 267 322
#     4   9  18  32  49  72 104 141 179 213 251 307
#     4   9  17  29  46  71 104 139 173 214 260 301
#     4  10  20  33  51  76 105 136 172 214 261 317
#
# _framework density 20.888014999999999
#
# number of rings (size 3 to 8) (size 9 to 14) (size 15 to 20)
#    0.000    2.625    0.000    1.500    1.750    4.000 
#    0.000    1.875    0.000    3.750    0.000    0.000 
#    0.000    6.000    0.000    0.000    0.000    0.000 
#
# Total GULP energy -178572.110756 kJ/mol
# GULP energy per Si atom -5580.378461 kJ/mol
# Density = 2.084047 g / cm^3
# Si number density = 20.888015 Si / 1000 Ang^3
#
#
#
# Elastic Constant Matrix: (Units=GPa)
#
#
# Indices 1 2 3 4 5 6 
#
# 1 144.8220 -0.5110 91.0048 0.0000 4.0465 0.0000
# 2 -0.5110 22.5863 -4.8505 0.0000 3.7025 0.0000
# 3 91.0048 -4.8505 131.8584 0.0000 12.2920 0.0000
# 4 0.0000 0.0000 0.0000 4.6459 0.0000 -0.0251
# 5 4.0465 3.7025 12.2920 0.0000 38.2510 0.0000
# 6 0.0000 0.0000 0.0000 -0.0251 0.0000 13.1563
#
#
#
# Elastic Compliance Matrix: (Units=1/GPa)
#
#
# Indices 1 2 3 4 5 6 
#
# 1 0.012349 -0.001876 -0.008749 0.000000 0.001687 0.000000
# 2 -0.001876 0.045858 0.003481 0.000000 -0.005359 0.000000
# 3 -0.008749 0.003481 0.014119 0.000000 -0.003948 0.000000
# 4 0.000000 0.000000 0.000000 0.215248 0.000000 0.000411
# 5 0.001687 -0.005359 -0.003948 0.000000 0.027752 0.000000
# 6 0.000000 0.000000 0.000000 0.000411 0.000000 0.076010
#
#
# Mechanical properties :
#
#
# Convention : Reuss Voigt Hill
#
# Bulk Modulus (GPa) = 17.23012 52.28371 34.75691
# Shear Modulus (GPa) = 11.76551 25.45218 18.60884
#
# Velocity S-wave (km/s) = 2.37590 3.49450 2.98801
# Velocity P-wave (km/s) = 3.97407 6.43171 5.34603
#
# Compressibility (1/GPa) = 0.05803792
#
# Stress axis : x y z
#
# Youngs Moduli (GPa) = 80.97614 21.80630 70.82853
#
# Poissons Ratio (x) = 0.04091 0.61971
# Poissons Ratio (y) = 0.15192 -0.24658
# Poissons Ratio (z) = 0.70849 -0.07591
#
# Static dielectric constant tensor:
#      x y z
#    x 1.799950 0.000000 0.015140 
#    y 0.000000 1.766590 0.000000 
#    z 0.015140 0.000000 1.724550 
# 
# From -- ./inp_files/187624.got.cif
#   From: 2010.05.17/outbox.cif.g08.bks.cpg/sg12_94_cif.got.tgz:187624.got - 2010.06.03 13:09:07.
