data_PCOD9191769
_publ_section_title
;
Structure prediction by ZEFSAII (Michael W. Deem and Ramdas Pophale) SiO2 
 PCOD9191769
Probable space group: C 2/M
;
_chemical_formula_sum "Si O2"
_cell_formula_units_Z 64
_cell_length_a 24.761979
_cell_length_b 19.676582
_cell_length_c 9.278231
_cell_angle_alpha 90.000000
_cell_angle_beta 130.000619
_cell_angle_gamma 90.000000
_cell_volume 3462.981896
_symmetry_space_group_name_H-M "C 2/M"
_symmetry_group_IT_number 12
_symmetry_cell_setting 'monoclinic'
loop_
_space_group_symop_operation_xyz
x,y,z
-x,y,-z
-x,-y,-z
x,-y,z
1/2+x,1/2+y,z
1/2-x,1/2+y,-z
1/2-x,1/2-y,-z
1/2+x,1/2-y,z
loop_
_atom_site_type_symbol
_atom_site_label
_atom_site_fract_x
_atom_site_fract_y
_atom_site_fract_z
Si Si1 0.679097 0.424328 0.439849
Si Si2 0.348611 0.775618 0.045361
Si Si3 0.325153 0.079462 0.534388
Si Si4 0.414822 0.185814 0.860085
Si Si5 0.029319 0.178087 0.697160
Si Si6 0.880870 0.787263 0.567713
Si Si7 0.214420 0.683699 0.774585
Si Si8 0.062504 0.921881 0.000709
O O1 0.666988 0.500000 0.480273
O O2 0.759850 0.416487 0.533809
O O3 0.651678 0.362300 0.487172
O O4 0.633381 0.420430 0.214705
O O5 0.413787 0.736471 0.230982
O O6 0.310116 0.820955 0.100927
O O7 0.381356 0.813618 0.962776
O O8 0.291848 0.717594 0.903328
O O9 0.387180 0.123232 0.714812
O O10 0.298481 0.116372 0.342278
O O11 0.342049 0.000000 0.540792
O O12 0.382902 0.253300 0.729086
O O13 0.500000 0.188276 0.000000
O O14 0.062755 0.123805 0.861451
O O15 0.000000 0.147072 0.500000
O O16 0.961271 0.209667 0.656845
O O17 0.834927 0.739423 0.387814
O O18 0.046307 0.000000 0.935527
O O19 0.000000 0.897746 0.000000
#
# Coordination Sequence:
#
# PCOD9191769 Si02
#       8
#     8   8   8   8   8   8   8   8
#     4  10  20  35  60  86 114 151 200 243 279 338
#     4  11  22  37  58  90 116 149 192 241 292 337
#     4  10  22  41  62  86 114 152 195 241 295 349
#     4  11  22  36  62  89 114 148 191 246 294 347
#     4  12  22  33  52  82 117 150 187 236 288 345
#     4  11  20  35  57  85 115 153 191 238 291 340
#     4  10  22  39  60  84 119 152 195 243 290 354
#     4  10  20  33  51  76 109 153 196 229 272 335
#
# _framework density 18.481183000000001
#
# number of rings (size 3 to 8) (size 9 to 14) (size 15 to 20)
#    0.000    1.375    3.750    3.000    0.000    2.500 
#    0.000    0.625    0.000    3.750    0.000    0.000 
#    0.000    0.000    0.000    0.000    0.000    0.000 
#
# Total GULP energy -178589.201612 kJ/mol
# GULP energy per Si atom -5580.912550 kJ/mol
# Density = 1.843912 g / cm^3
# Si number density = 18.481183 Si / 1000 Ang^3
#
#
#
# Elastic Constant Matrix: (Units=GPa)
#
#
# Indices 1 2 3 4 5 6 
#
# 1 81.4007 26.4319 20.9905 0.0000 -1.8872 0.0000
# 2 26.4319 92.1269 16.4292 0.0000 2.1283 0.0000
# 3 20.9905 16.4292 48.6409 0.0000 -4.3867 0.0000
# 4 0.0000 0.0000 0.0000 -2.6699 0.0000 -3.2097
# 5 -1.8872 2.1283 -4.3867 0.0000 20.3211 0.0000
# 6 0.0000 0.0000 0.0000 -3.2097 0.0000 19.5983
#
#
#
# Elastic Compliance Matrix: (Units=1/GPa)
#
#
# Indices 1 2 3 4 5 6 
#
# 1 0.014708 -0.003311 -0.005175 0.000000 0.000596 0.000000
# 2 -0.003311 0.012383 -0.002956 0.000000 -0.002243 0.000000
# 3 -0.005175 -0.002956 0.024247 0.000000 0.005063 0.000000
# 4 0.000000 0.000000 0.000000 -0.312935 0.000000 -0.051251
# 5 0.000596 -0.002243 0.005063 0.000000 0.050593 0.000000
# 6 0.000000 0.000000 0.000000 -0.051251 0.000000 0.042631
#
#
# Mechanical properties :
#
#
# Convention : Reuss Voigt Hill
#
# Bulk Modulus (GPa) = 35.14372 38.87463 37.00918
# Shear Modulus (GPa) = -36.76392 18.00437 -9.37977
#
# Velocity S-wave (km/s) = -4.46495 3.12460 -2.25529
# Velocity P-wave (km/s) = 2.74296 5.83934 3.64514
#
# Compressibility (1/GPa) = 0.02845458
#
# Stress axis : x y z
#
# Youngs Moduli (GPa) = 67.98895 80.75284 41.24172
#
# Poissons Ratio (x) = 0.26735 0.21344
# Poissons Ratio (y) = 0.22509 0.12192
# Poissons Ratio (z) = 0.35186 0.23872
#
# Static dielectric constant tensor:
#      x y z
#    x 1.654400 0.000000 -0.010440 
#    y 0.000000 1.636040 0.000000 
#    z -0.010440 0.000000 1.660670 
# 
# From -- ./inp_files/77507.got.cif
#   From: 2010.05.17/outbox.cif.g08.bks.cpg/sg12_39_cif.got.tgz:77507.got - 2010.06.03 13:09:07.
