data_PCOD9191171
_publ_section_title
;
Structure prediction by ZEFSAII (Michael W. Deem and Ramdas Pophale) SiO2 
 PCOD9191171
Probable space group: C 2/M
;
_chemical_formula_sum "Si O2"
_cell_formula_units_Z 40
_cell_length_a 18.324380
_cell_length_b 19.365447
_cell_length_c 11.693815
_cell_angle_alpha 90.000000
_cell_angle_beta 147.505527
_cell_angle_gamma 90.000000
_cell_volume 2229.275745
_symmetry_space_group_name_H-M "C 2/M"
_symmetry_group_IT_number 12
_symmetry_cell_setting 'monoclinic'
loop_
_space_group_symop_operation_xyz
x,y,z
-x,y,-z
-x,-y,-z
x,-y,z
1/2+x,1/2+y,z
1/2-x,1/2+y,-z
1/2-x,1/2-y,-z
1/2+x,1/2-y,z
loop_
_atom_site_type_symbol
_atom_site_label
_atom_site_fract_x
_atom_site_fract_y
_atom_site_fract_z
Si Si1 0.665960 0.803744 0.970516
Si Si2 0.005986 0.422576 0.370953
Si Si3 0.880638 0.796214 0.429006
Si Si4 0.773774 0.155026 0.713565
Si Si5 0.500900 0.322594 0.181006
O O1 0.596257 0.865012 0.810648
O O2 0.549952 0.756815 0.876405
O O3 0.750000 0.750000 0.000000
O O4 0.767489 0.832013 0.201137
O O5 0.972985 0.500000 0.288695
O O6 0.159952 0.401964 0.541924
O O7 0.000000 0.420329 0.500000
O O8 0.807930 0.726435 0.375800
O O9 0.945264 0.837422 0.620332
O O10 0.000000 0.775845 0.500000
O O11 0.877360 0.165958 0.746327
O O12 0.868036 0.141080 0.950203
#
# Coordination Sequence:
#
# PCOD9191171 Si02
#       5
#     8   8   8   8   8
#     4  11  20  33  57  87 116 146 193 241 285 334
#     4  11  23  38  58  82 117 157 192 234 288 351
#     4  11  19  30  54  86 113 141 182 246 289 327
#     4  10  20  35  54  84 119 144 192 234 294 335
#     4  10  20  32  55  88 112 147 184 249 286 330
#
# _framework density 17.943047
#
# number of rings (size 3 to 8) (size 9 to 14) (size 15 to 20)
#    0.000    1.400    4.000    3.600    0.000    0.000 
#    0.000    2.000    0.000    5.400    0.000    0.000 
#    0.000    0.000    0.000    0.000    0.000    0.000 
#
# Total GULP energy -111523.821912 kJ/mol
# GULP energy per Si atom -5576.191096 kJ/mol
# Density = 1.790221 g / cm^3
# Si number density = 17.943047 Si / 1000 Ang^3
#
#
#
# Elastic Constant Matrix: (Units=GPa)
#
#
# Indices 1 2 3 4 5 6 
#
# 1 74.1430 17.4590 39.9685 0.0000 7.6432 0.0000
# 2 17.4590 81.6180 44.0500 0.0000 2.3202 0.0000
# 3 39.9685 44.0500 149.9030 0.0000 -17.1348 0.0000
# 4 0.0000 0.0000 0.0000 20.4413 0.0000 -2.4433
# 5 7.6432 2.3202 -17.1348 0.0000 37.4473 0.0000
# 6 0.0000 0.0000 0.0000 -2.4433 0.0000 10.5526
#
#
#
# Elastic Compliance Matrix: (Units=1/GPa)
#
#
# Indices 1 2 3 4 5 6 
#
# 1 0.016911 -0.000802 -0.004920 0.000000 -0.005653 0.000000
# 2 -0.000802 0.014930 -0.004496 0.000000 -0.002819 0.000000
# 3 -0.004920 -0.004496 0.009972 0.000000 0.005846 0.000000
# 4 0.000000 0.000000 0.000000 0.050313 0.000000 0.011649
# 5 -0.005653 -0.002819 0.005846 0.000000 0.030707 0.000000
# 6 0.000000 0.000000 0.000000 0.011649 0.000000 0.097461
#
#
# Mechanical properties :
#
#
# Convention : Reuss Voigt Hill
#
# Bulk Modulus (GPa) = 46.77439 56.51322 51.64381
# Shear Modulus (GPa) = 20.17311 27.30066 23.73689
#
# Velocity S-wave (km/s) = 3.35667 3.90490 3.64112
# Velocity P-wave (km/s) = 6.41466 7.20383 6.82067
#
# Compressibility (1/GPa) = 0.02137922
#
# Stress axis : x y z
#
# Youngs Moduli (GPa) = 59.13318 66.97828 100.28089
#
# Poissons Ratio (x) = 0.05369 0.49334
# Poissons Ratio (y) = 0.04740 0.45084
# Poissons Ratio (z) = 0.29091 0.30112
#
# Static dielectric constant tensor:
#      x y z
#    x 1.645740 0.000000 -0.021890 
#    y 0.000000 1.579380 0.000000 
#    z -0.021890 0.000000 1.690710 
# 
# From -- ./inp_files/132310.got.cif
#   From: 2010.05.17/outbox.cif.g08.bks.cpg/sg12_67_cif.got.tgz:132310.got - 2010.06.03 13:09:07.
