data_PCOD9191798
_publ_section_title
;
Structure prediction by ZEFSAII (Michael W. Deem and Ramdas Pophale) SiO2 
 PCOD9191798
Probable space group: C 2/M
;
_chemical_formula_sum "Si O2"
_cell_formula_units_Z 48
_cell_length_a 16.944906
_cell_length_b 19.150781
_cell_length_c 22.535102
_cell_angle_alpha 90.000000
_cell_angle_beta 160.567837
_cell_angle_gamma 90.000000
_cell_volume 2432.907836
_symmetry_space_group_name_H-M "C 2/M"
_symmetry_group_IT_number 12
_symmetry_cell_setting 'monoclinic'
loop_
_space_group_symop_operation_xyz
x,y,z
-x,y,-z
-x,-y,-z
x,-y,z
1/2+x,1/2+y,z
1/2-x,1/2+y,-z
1/2-x,1/2-y,-z
1/2+x,1/2-y,z
loop_
_atom_site_type_symbol
_atom_site_label
_atom_site_fract_x
_atom_site_fract_y
_atom_site_fract_z
Si Si1 0.757766 0.319923 0.046520
Si Si2 0.941777 0.307674 0.618577
Si Si3 0.626109 0.281398 0.151304
Si Si4 0.938637 0.915797 0.645764
Si Si5 0.568509 0.870712 0.946193
Si Si6 0.926315 0.920734 0.386719
O O1 0.904832 0.314444 0.211797
O O2 0.750000 0.250000 0.000000
O O3 0.486749 0.329625 0.877078
O O4 0.884706 0.372442 0.091270
O O5 0.750000 0.250000 0.500000
O O6 0.798593 0.377941 0.501101
O O7 0.102080 0.285475 0.675803
O O8 0.500000 0.300372 0.000000
O O9 0.534736 0.204006 0.104484
O O10 0.177602 0.887830 0.845949
O O11 0.967934 0.891591 0.598211
O O12 0.932170 0.000000 0.645102
O O13 0.357875 0.921069 0.816764
O O14 0.000000 0.883843 0.500000
O O15 0.017721 0.000000 0.453857
#
# Coordination Sequence:
#
# PCOD9191798 Si02
#       6
#     8   8   8   8   8   8
#     4   9  19  34  53  81 110 141 187 239 286 333
#     4  11  20  35  59  83 112 148 189 238 285 339
#     4   9  18  32  53  78 104 136 182 232 276 324
#     4  11  23  37  55  83 118 154 187 226 287 351
#     4  11  19  34  55  79 112 145 183 228 283 341
#     4  10  20  33  51  77 107 141 182 226 273 329
#
# _framework density 19.729476999999999
#
# number of rings (size 3 to 8) (size 9 to 14) (size 15 to 20)
#    0.000    1.833    0.000    7.000    0.000    1.333 
#    0.000    7.500    0.000    7.500    0.000    0.000 
#    0.000    0.000    0.000    0.000    0.000    0.000 
#
# Total GULP energy -133664.741726 kJ/mol
# GULP energy per Si atom -5569.364239 kJ/mol
# Density = 1.968457 g / cm^3
# Si number density = 19.729477 Si / 1000 Ang^3
#
#
#
# Elastic Constant Matrix: (Units=GPa)
#
#
# Indices 1 2 3 4 5 6 
#
# 1 120.3504 20.2152 36.8272 0.0110 33.0565 -0.0102
# 2 20.2152 57.2797 27.5404 0.0716 16.2016 0.0320
# 3 36.8272 27.5404 94.0400 0.1347 18.7487 0.0308
# 4 0.0110 0.0716 0.1347 26.9488 0.0166 6.2325
# 5 33.0565 16.2016 18.7487 0.0166 44.4751 -0.0043
# 6 -0.0102 0.0320 0.0308 6.2325 -0.0043 11.1723
#
#
#
# Elastic Compliance Matrix: (Units=1/GPa)
#
#
# Indices 1 2 3 4 5 6 
#
# 1 0.011168 -0.000642 -0.002814 0.000013 -0.006880 0.000010
# 2 -0.000642 0.021590 -0.005020 -0.000020 -0.005271 -0.000040
# 3 -0.002814 -0.005020 0.013564 -0.000053 -0.001798 0.000003
# 4 0.000013 -0.000020 -0.000053 0.042604 0.000001 -0.023767
# 5 -0.006880 -0.005271 -0.001798 0.000001 0.030277 0.000025
# 6 0.000010 -0.000040 0.000003 -0.023767 0.000025 0.102766
#
#
# Mechanical properties :
#
#
# Convention : Reuss Voigt Hill
#
# Bulk Modulus (GPa) = 34.04913 48.98174 41.51543
# Shear Modulus (GPa) = 20.10368 28.99172 24.54770
#
# Velocity S-wave (km/s) = 3.19559 3.83751 3.53117
# Velocity P-wave (km/s) = 5.55978 6.67203 6.14114
#
# Compressibility (1/GPa) = 0.02936933
#
# Stress axis : x y z
#
# Youngs Moduli (GPa) = 89.54341 46.31853 73.72248
#
# Poissons Ratio (x) = 0.02976 0.20742
# Poissons Ratio (y) = 0.05753 0.37010
# Poissons Ratio (z) = 0.25194 0.23253
#
# Static dielectric constant tensor:
#      x y z
#    x 1.731610 -0.000020 -0.000090 
#    y -0.000020 1.851810 -0.000020 
#    z -0.000090 -0.000020 1.771900 
# 
# From -- ./inp_files/312500.got.cif
#   From: 2010.05.17/outbox.cif.g08.bks.cpg/sg12_157_cif.got.tgz:312500.got - 2010.06.03 13:09:07.
