data_PCOD9191190
_publ_section_title
;
Structure prediction by ZEFSAII (Michael W. Deem and Ramdas Pophale) SiO2 
 PCOD9191190
Probable space group: C 2/M
;
_chemical_formula_sum "Si O2"
_cell_formula_units_Z 22
_cell_length_a 5.162874
_cell_length_b 21.642623
_cell_length_c 8.285383
_cell_angle_alpha 90.000000
_cell_angle_beta 115.692779
_cell_angle_gamma 90.000000
_cell_volume 834.261615
_symmetry_space_group_name_H-M "C 2/M"
_symmetry_group_IT_number 12
_symmetry_cell_setting 'monoclinic'
loop_
_space_group_symop_operation_xyz
x,y,z
-x,y,-z
-x,-y,-z
x,-y,z
1/2+x,1/2+y,z
1/2-x,1/2+y,-z
1/2-x,1/2-y,-z
1/2+x,1/2-y,z
loop_
_atom_site_type_symbol
_atom_site_label
_atom_site_fract_x
_atom_site_fract_y
_atom_site_fract_z
Si Si1 0.876882 0.783269 0.781661
Si Si2 0.257952 0.605052 0.172202
Si Si3 0.665306 0.000000 0.380328
Si Si4 0.000000 0.000000 0.000000
O O1 0.042370 0.730473 0.722132
O O2 0.993890 0.845391 0.728653
O O3 0.000000 0.785398 0.000000
O O4 0.106906 0.563510 0.269179
O O5 0.400339 0.553035 0.101083
O O6 0.000000 0.635591 0.000000
O O7 0.500000 0.000000 0.500000
O O8 0.000000 0.000000 0.500000
#
# Coordination Sequence:
#
# PCOD9191190 Si02
#       4
#     8   8   4   2
#     4  10  20  34  58  96 128 155 199 261 316 359
#     4  11  23  39  66  91 129 163 211 259 312 378
#     4  11  28  43  62  90 129 169 208 260 317 370
#     4  10  20  32  56  92 114 160 200 252 300 356
#
# _framework density 26.370623999999999
#
# number of rings (size 3 to 8) (size 9 to 14) (size 15 to 20)
#    0.000    1.455    1.818    5.455   10.182    0.000 
#    0.000    0.000    0.000    6.545    0.000    0.000 
#    0.000    0.000    0.000    0.000    0.000    0.000 
#
# Total GULP energy -61323.903735 kJ/mol
# GULP energy per Si atom -5574.900340 kJ/mol
# Density = 2.631060 g / cm^3
# Si number density = 26.370624 Si / 1000 Ang^3
#
#
#
# Elastic Constant Matrix: (Units=GPa)
#
#
# Indices 1 2 3 4 5 6 
#
# 1 168.9575 41.2576 45.5486 0.0000 -46.5302 0.0000
# 2 41.2576 149.0338 19.0207 0.0000 -32.1577 0.0000
# 3 45.5486 19.0207 63.3026 0.0000 -32.2061 0.0000
# 4 0.0000 0.0000 0.0000 -122.6000 0.0000 301.0493
# 5 -46.5302 -32.1577 -32.2061 0.0000 65.7743 0.0000
# 6 0.0000 0.0000 0.0000 301.0493 0.0000 -668.8241
#
#
#
# Elastic Compliance Matrix: (Units=1/GPa)
#
#
# Indices 1 2 3 4 5 6 
#
# 1 0.008131 -0.001035 -0.003823 0.000000 0.003374 0.000000
# 2 -0.001035 0.007646 -0.000031 0.000000 0.002991 0.000000
# 3 -0.003823 -0.000031 0.022871 0.000000 0.008479 0.000000
# 4 0.000000 0.000000 0.000000 0.077475 0.000000 0.034873
# 5 0.003374 0.002991 0.008479 0.000000 0.023204 0.000000
# 6 0.000000 0.000000 0.000000 0.034873 0.000000 0.014202
#
#
# Mechanical properties :
#
#
# Convention : Reuss Voigt Hill
#
# Bulk Modulus (GPa) = 34.63819 65.88308 50.26063
# Shear Modulus (GPa) = 28.91338 -126.76550 -48.92606
#
# Velocity S-wave (km/s) = 3.31482 -6.94083 -4.31202
# Velocity P-wave (km/s) = 5.27393 6.26065 2.38551
#
# Compressibility (1/GPa) = 0.02886987
#
# Stress axis : x y z
#
# Youngs Moduli (GPa) = 122.98168 130.79282 43.72321
#
# Poissons Ratio (x) = 0.13537 0.16716
# Poissons Ratio (y) = 0.12729 0.00136
# Poissons Ratio (z) = 0.47017 0.00406
#
# Static dielectric constant tensor:
#      x y z
#    x 2.062150 0.000000 0.108890 
#    y 0.000000 2.114540 0.000000 
#    z 0.108890 0.000000 2.188990 
# 
# From -- ./inp_files/33331.got.cif
#   From: 2010.05.17/outbox.cif.g08.bks.cpg/sg12_17_cif.got.tgz:33331.got - 2010.06.03 13:09:07.
