data_PCOD9191500
_publ_section_title
;
Structure prediction by ZEFSAII (Michael W. Deem and Ramdas Pophale) SiO2 
 PCOD9191500
Probable space group: C 2/M
;
_chemical_formula_sum "Si O2"
_cell_formula_units_Z 64
_cell_length_a 22.096133
_cell_length_b 9.466488
_cell_length_c 17.368079
_cell_angle_alpha 90.000000
_cell_angle_beta 81.520206
_cell_angle_gamma 90.000000
_cell_volume 3593.213888
_symmetry_space_group_name_H-M "C 2/M"
_symmetry_group_IT_number 12
_symmetry_cell_setting 'monoclinic'
loop_
_space_group_symop_operation_xyz
x,y,z
-x,y,-z
-x,-y,-z
x,-y,z
1/2+x,1/2+y,z
1/2-x,1/2+y,-z
1/2-x,1/2-y,-z
1/2+x,1/2-y,z
loop_
_atom_site_type_symbol
_atom_site_label
_atom_site_fract_x
_atom_site_fract_y
_atom_site_fract_z
Si Si1 0.972853 0.667276 0.806842
Si Si2 0.323458 0.665640 0.407473
Si Si3 0.144913 0.332077 0.275770
Si Si4 0.406306 0.666186 0.947951
Si Si5 0.176505 0.333993 0.439546
Si Si6 0.213446 0.166299 0.135974
Si Si7 0.610991 0.166116 0.739602
Si Si8 0.649668 0.833284 0.908442
O O1 0.971633 0.500000 0.826741
O O2 0.919786 0.693343 0.753962
O O3 0.956251 0.757609 0.885150
O O4 0.039061 0.699512 0.760095
O O5 0.337857 0.500000 0.407149
O O6 0.249803 0.680014 0.414792
O O7 0.341702 0.742265 0.483511
O O8 0.355289 0.740430 0.329627
O O9 0.157330 0.500000 0.270785
O O10 0.146198 0.289694 0.364653
O O11 0.195232 0.252046 0.215455
O O12 0.418473 0.500000 0.953745
O O13 0.341889 0.684543 0.913751
O O14 0.395589 0.742675 0.030805
O O15 0.163460 0.500000 0.456049
O O16 0.279548 0.208301 0.091167
O O17 0.217476 0.000000 0.154260
O O18 0.637573 0.185819 0.820282
O O19 0.617724 0.000000 0.718560
O O20 0.642141 0.000000 0.928154
#
# Coordination Sequence:
#
# PCOD9191500 Si02
#       8
#     8   8   8   8   8   8   8   8
#     4   9  19  36  54  71  95 130 169 205 242 286
#     4  10  20  33  52  78 105 131 158 195 244 292
#     4   9  17  31  53  76  97 127 166 204 241 284
#     4  10  20  33  50  73  99 128 163 205 250 290
#     4   9  18  33  53  78 105 130 159 195 239 293
#     4   9  18  31  48  73 103 130 158 198 249 298
#     4  10  21  36  53  72  97 131 168 204 243 288
#     4  10  20  33  50  72  98 130 165 201 245 297
#
# _framework density 17.811353
#
# number of rings (size 3 to 8) (size 9 to 14) (size 15 to 20)
#    0.000    2.500    0.000    1.875    0.000    3.500 
#    0.000    3.125    0.000    3.750    0.000    0.000 
#    0.000    0.000    0.000    0.000    0.000    0.000 
#
# Total GULP energy -178583.284504 kJ/mol
# GULP energy per Si atom -5580.727641 kJ/mol
# Density = 1.777081 g / cm^3
# Si number density = 17.811353 Si / 1000 Ang^3
#
#
#
# Elastic Constant Matrix: (Units=GPa)
#
#
# Indices 1 2 3 4 5 6 
#
# 1 31.7021 32.9157 23.3424 0.0000 -9.0526 0.0000
# 2 32.9157 76.3968 76.9422 0.0000 -16.4857 0.0000
# 3 23.3424 76.9422 115.8006 0.0000 -17.5617 0.0000
# 4 0.0000 0.0000 0.0000 37.3979 0.0000 -7.4508
# 5 -9.0526 -16.4857 -17.5617 0.0000 11.9516 0.0000
# 6 0.0000 0.0000 0.0000 -7.4508 0.0000 17.5287
#
#
#
# Elastic Compliance Matrix: (Units=1/GPa)
#
#
# Indices 1 2 3 4 5 6 
#
# 1 0.069284 -0.044253 0.018193 0.000000 0.018170 0.000000
# 2 -0.044253 0.072173 -0.037341 0.000000 0.011165 0.000000
# 3 0.018193 -0.037341 0.030956 0.000000 0.007760 0.000000
# 4 0.000000 0.000000 0.000000 0.029213 0.000000 0.012418
# 5 0.018170 0.011165 0.007760 0.000000 0.124237 0.000000
# 6 0.000000 0.000000 0.000000 0.012418 0.000000 0.062328
#
#
# Mechanical properties :
#
#
# Convention : Reuss Voigt Hill
#
# Bulk Modulus (GPa) = 21.92469 54.47781 38.20125
# Shear Modulus (GPa) = 9.43049 19.42224 14.42636
#
# Velocity S-wave (km/s) = 2.30351 3.30577 2.84906
# Velocity P-wave (km/s) = 4.40579 6.72482 5.68481
#
# Compressibility (1/GPa) = 0.04561069
#
# Stress axis : x y z
#
# Youngs Moduli (GPa) = 14.43340 13.85565 32.30429
#
# Poissons Ratio (x) = 0.61316 -0.58772
# Poissons Ratio (y) = 0.63873 1.20627
# Poissons Ratio (z) = -0.26259 0.51738
#
# Static dielectric constant tensor:
#      x y z
#    x 1.617180 0.000000 0.024140 
#    y 0.000000 1.591160 0.000000 
#    z 0.024140 0.000000 1.580840 
# 
# From -- ./inp_files/287588.got.cif
#   From: 2010.05.17/outbox.cif.g08.bks.cpg/sg12_144_cif.got.tgz:287588.got - 2010.06.03 13:09:07.
