data_PCOD9191339
_publ_section_title
;
Structure prediction by ZEFSAII (Michael W. Deem and Ramdas Pophale) SiO2 
 PCOD9191339
Probable space group: C 2/M
;
_chemical_formula_sum "Si O2"
_cell_formula_units_Z 42
_cell_length_a 29.930088
_cell_length_b 7.387405
_cell_length_c 6.697346
_cell_angle_alpha 90.000000
_cell_angle_beta 86.381849
_cell_angle_gamma 90.000000
_cell_volume 1477.869660
_symmetry_space_group_name_H-M "C 2/M"
_symmetry_group_IT_number 12
_symmetry_cell_setting 'monoclinic'
loop_
_space_group_symop_operation_xyz
x,y,z
-x,y,-z
-x,-y,-z
x,-y,z
1/2+x,1/2+y,z
1/2-x,1/2+y,-z
1/2-x,1/2-y,-z
1/2+x,1/2-y,z
loop_
_atom_site_type_symbol
_atom_site_label
_atom_site_fract_x
_atom_site_fract_y
_atom_site_fract_z
Si Si1 0.500000 0.500000 0.500000
Si Si2 0.166108 0.216480 0.339726
Si Si3 0.855809 0.286775 0.120741
Si Si4 0.069610 0.293134 0.476471
Si Si5 0.261293 0.783473 0.230987
Si Si6 0.949984 0.718850 0.982987
O O1 0.534221 0.657303 0.577503
O O2 0.123458 0.278269 0.481089
O O3 0.217018 0.285211 0.359106
O O4 0.166430 0.000000 0.345202
O O5 0.155202 0.271657 0.113958
O O6 0.857205 0.500000 0.162961
O O7 0.811620 0.207122 0.239616
O O8 0.906587 0.215565 0.118410
O O9 0.056947 0.500000 0.520114
O O10 0.061915 0.245838 0.244128
O O11 0.262998 0.000000 0.254728
O O12 0.250000 0.750000 0.000000
O O13 0.951037 0.500000 0.007553
O O14 0.000000 0.788074 0.000000
#
# Coordination Sequence:
#
# PCOD9191339 Si02
#       6
#     2   8   8   8   8   8
#     4  12  22  36  50  66  92 120 162 202 234 266
#     4   9  14  23  37  56  84 116 148 179 222 270
#     4   8  13  21  34  55  84 120 154 176 213 266
#     4  10  20  33  49  68  92 124 155 191 235 275
#     4   8  13  19  31  52  80 114 146 176 209 262
#     4   8  14  26  45  67  94 128 156 184 224 278
#
# _framework density 28.419286
#
# number of rings (size 3 to 8) (size 9 to 14) (size 15 to 20)
#    0.000    3.238    0.952    2.000    0.000    0.762 
#    0.000    0.476    0.000    0.000    0.000    0.000 
#    0.000    1.524    2.667    0.571    0.000    0.381 
#
# Total GULP energy -117313.953688 kJ/mol
# GULP energy per Si atom -5586.378747 kJ/mol
# Density = 2.835460 g / cm^3
# Si number density = 28.419286 Si / 1000 Ang^3
#
#
#
# Elastic Constant Matrix: (Units=GPa)
#
#
# Indices 1 2 3 4 5 6 
#
# 1 334.6596 47.2985 60.7725 0.0000 -43.3639 0.0000
# 2 47.2985 142.4871 0.2913 0.0000 -8.0768 0.0000
# 3 60.7725 0.2913 142.6877 0.0000 -41.6178 0.0000
# 4 0.0000 0.0000 0.0000 5.8237 0.0000 1.3758
# 5 -43.3639 -8.0768 -41.6178 0.0000 64.2340 0.0000
# 6 0.0000 0.0000 0.0000 1.3758 0.0000 21.8491
#
#
#
# Elastic Compliance Matrix: (Units=1/GPa)
#
#
# Indices 1 2 3 4 5 6 
#
# 1 0.003535 -0.001082 -0.001044 0.000000 0.001574 0.000000
# 2 -0.001082 0.007410 0.000622 0.000000 0.000604 0.000000
# 3 -0.001044 0.000622 0.008963 0.000000 0.005180 0.000000
# 4 0.000000 0.000000 0.000000 0.174304 0.000000 -0.010976
# 5 0.001574 0.000604 0.005180 0.000000 0.020063 0.000000
# 6 0.000000 0.000000 0.000000 -0.010976 0.000000 0.046460
#
#
# Mechanical properties :
#
#
# Convention : Reuss Voigt Hill
#
# Bulk Modulus (GPa) = 59.17476 92.95097 76.06287
# Shear Modulus (GPa) = 18.56146 52.47951 35.52049
#
# Velocity S-wave (km/s) = 2.55841 4.30189 3.53919
# Velocity P-wave (km/s) = 5.44009 7.57978 6.59726
#
# Compressibility (1/GPa) = 0.01689910
#
# Stress axis : x y z
#
# Youngs Moduli (GPa) = 282.92154 134.94694 111.57306
#
# Poissons Ratio (x) = 0.14601 0.11651
# Poissons Ratio (y) = 0.30611 -0.06939
# Poissons Ratio (z) = 0.29544 -0.08393
#
# Static dielectric constant tensor:
#      x y z
#    x 2.261370 0.000000 0.034270 
#    y 0.000000 2.011860 0.000000 
#    z 0.034270 0.000000 2.369020 
# 
# From -- ./inp_files/185471.got.cif
#   From: 2010.05.17/outbox.cif.g08.bks.cpg/sg12_93_cif.got.tgz:185471.got - 2010.06.03 13:09:07.
