data_PCOD9191681
_publ_section_title
;
Structure prediction by ZEFSAII (Michael W. Deem and Ramdas Pophale) SiO2 
 PCOD9191681
Probable space group: C 2/M
;
_chemical_formula_sum "Si O2"
_cell_formula_units_Z 56
_cell_length_a 13.367054
_cell_length_b 13.439118
_cell_length_c 31.347093
_cell_angle_alpha 90.000000
_cell_angle_beta 35.711888
_cell_angle_gamma 90.000000
_cell_volume 3287.007143
_symmetry_space_group_name_H-M "C 2/M"
_symmetry_group_IT_number 12
_symmetry_cell_setting 'monoclinic'
loop_
_space_group_symop_operation_xyz
x,y,z
-x,y,-z
-x,-y,-z
x,-y,z
1/2+x,1/2+y,z
1/2-x,1/2+y,-z
1/2-x,1/2-y,-z
1/2+x,1/2-y,z
loop_
_atom_site_type_symbol
_atom_site_label
_atom_site_fract_x
_atom_site_fract_y
_atom_site_fract_z
Si Si1 0.396747 0.117053 0.932009
Si Si2 0.637933 0.612915 0.414080
Si Si3 0.942654 0.229860 0.417135
Si Si4 0.691360 0.223777 0.949499
Si Si5 0.782682 0.880937 0.829569
Si Si6 0.915309 0.212360 0.327295
Si Si7 0.912474 0.389049 0.573559
O O1 0.309492 0.185221 0.925592
O O2 0.601974 0.129885 0.866793
O O3 0.361628 0.000000 0.937639
O O4 0.326617 0.153694 0.002460
O O5 0.500000 0.628348 0.500000
O O6 0.699743 0.500000 0.395084
O O7 0.525512 0.634683 0.411145
O O8 0.794928 0.690953 0.359994
O O9 0.750000 0.250000 0.500000
O O10 0.959858 0.221471 0.361222
O O11 0.043654 0.323323 0.401287
O O12 0.761902 0.161114 0.884892
O O13 0.500000 0.256313 0.000000
O O14 0.923554 0.812414 0.757637
O O15 0.822444 0.000000 0.816407
O O16 0.787451 0.119528 0.365537
O O17 0.975687 0.500000 0.557606
O O18 0.000000 0.348698 0.500000
#
# Coordination Sequence:
#
# PCOD9191681 Si02
#       7
#     8   8   8   8   8   8   8
#     4   9  18  34  59  89 115 144 189 227 263 322
#     4  10  21  36  55  77 101 136 183 230 281 336
#     4  11  19  34  52  74  99 131 173 227 275 320
#     4   9  18  35  59  85 115 150 185 224 269 319
#     4  10  21  36  55  79 111 150 183 222 275 331
#     4  11  21  36  52  74 107 138 179 224 273 324
#     4  10  20  33  51  74  98 128 172 225 274 323
#
# _framework density 17.036774999999999
#
# number of rings (size 3 to 8) (size 9 to 14) (size 15 to 20)
#    0.000    2.000    2.857    1.714    0.000    6.571 
#    0.000    2.143    0.000    4.286    0.000    0.000 
#    0.000    0.000    0.000    0.000    0.000    0.000 
#
# Total GULP energy -155932.918564 kJ/mol
# GULP energy per Si atom -5569.032806 kJ/mol
# Density = 1.699800 g / cm^3
# Si number density = 17.036775 Si / 1000 Ang^3
#
#
#
# Elastic Constant Matrix: (Units=GPa)
#
#
# Indices 1 2 3 4 5 6 
#
# 1 110.3941 49.1013 44.0649 0.0000 9.5163 0.0000
# 2 49.1013 124.1407 45.6481 -0.0001 -6.0660 0.0000
# 3 44.0649 45.6481 105.8185 -0.0003 -0.2219 0.0000
# 4 0.0000 -0.0001 -0.0003 15.4460 -0.0001 -6.1583
# 5 9.5163 -6.0660 -0.2219 -0.0001 17.7733 0.0000
# 6 0.0000 0.0000 0.0000 -6.1583 0.0000 17.3765
#
#
#
# Elastic Compliance Matrix: (Units=1/GPa)
#
#
# Indices 1 2 3 4 5 6 
#
# 1 0.013156 -0.004279 -0.003650 0.000000 -0.008550 0.000000
# 2 -0.004279 0.011153 -0.003017 0.000000 0.006060 0.000000
# 3 -0.003650 -0.003017 0.012274 0.000000 0.001078 0.000000
# 4 0.000000 0.000000 0.000000 0.075395 0.000001 0.026720
# 5 -0.008550 0.006060 0.001078 0.000001 0.062924 0.000000
# 6 0.000000 0.000000 0.000000 0.026720 0.000000 0.067019
#
#
# Mechanical properties :
#
#
# Convention : Reuss Voigt Hill
#
# Bulk Modulus (GPa) = 68.07037 68.66464 68.36751
# Shear Modulus (GPa) = 18.60747 23.55510 21.08128
#
# Velocity S-wave (km/s) = 3.30842 3.72237 3.52148
# Velocity P-wave (km/s) = 7.39161 7.67242 7.53332
#
# Compressibility (1/GPa) = 0.01469068
#
# Stress axis : x y z
#
# Youngs Moduli (GPa) = 76.01204 89.65990 81.47398
#
# Poissons Ratio (x) = 0.38366 0.29741
# Poissons Ratio (y) = 0.32526 0.24579
# Poissons Ratio (z) = 0.27747 0.27048
#
# Static dielectric constant tensor:
#      x y z
#    x 1.584020 0.000000 -0.025290 
#    y 0.000000 1.584740 0.000000 
#    z -0.025290 0.000000 1.585230 
# 
# From -- ./inp_files/358185.got.cif
#   From: 2010.05.17/outbox.cif.g08.bks.cpg/sg12_180_cif.got.tgz:358185.got - 2010.06.03 13:09:07.
