data_PCOD9191982
_publ_section_title
;
Structure prediction by ZEFSAII (Michael W. Deem and Ramdas Pophale) SiO2 
 PCOD9191982
Probable space group: C 2/M
;
_chemical_formula_sum "Si O2"
_cell_formula_units_Z 48
_cell_length_a 11.116222
_cell_length_b 24.168987
_cell_length_c 9.323367
_cell_angle_alpha 90.000000
_cell_angle_beta 94.250006
_cell_angle_gamma 90.000000
_cell_volume 2498.000734
_symmetry_space_group_name_H-M "C 2/M"
_symmetry_group_IT_number 12
_symmetry_cell_setting 'monoclinic'
loop_
_space_group_symop_operation_xyz
x,y,z
-x,y,-z
-x,-y,-z
x,-y,z
1/2+x,1/2+y,z
1/2-x,1/2+y,-z
1/2-x,1/2-y,-z
1/2+x,1/2-y,z
loop_
_atom_site_type_symbol
_atom_site_label
_atom_site_fract_x
_atom_site_fract_y
_atom_site_fract_z
Si Si1 0.508393 0.833324 0.329297
Si Si2 0.615726 0.433494 0.421349
Si Si3 0.873045 0.064941 0.908678
Si Si4 0.123595 0.437527 0.413575
Si Si5 0.599030 0.247840 0.115319
Si Si6 0.294293 0.838268 0.097872
O O1 0.500000 0.825663 0.500000
O O2 0.598218 0.885016 0.311745
O O3 0.548748 0.776918 0.257048
O O4 0.387127 0.849896 0.234364
O O5 0.500000 0.411419 0.500000
O O6 0.603421 0.500000 0.420400
O O7 0.610002 0.417058 0.255132
O O8 0.750631 0.424123 0.494412
O O9 0.772276 0.106399 0.958239
O O10 0.837372 0.000000 0.910256
O O11 0.000000 0.070170 0.000000
O O12 0.135813 0.500000 0.354356
O O13 0.000000 0.439416 0.500000
O O14 0.700100 0.293021 0.147568
O O15 0.500000 0.273906 0.000000
O O16 0.644072 0.194704 0.027601
#
# Coordination Sequence:
#
# PCOD9191982 Si02
#       6
#     8   8   8   8   8   8
#     4  10  20  34  55  83 108 132 176 232 271 310
#     4   9  18  33  51  74 109 149 182 215 267 332
#     4  10  20  33  52  79 107 136 176 225 269 313
#     4   9  17  31  53  79 110 147 178 211 269 336
#     4   9  20  38  56  74 100 141 183 215 264 330
#     4  10  20  37  57  73 103 146 179 214 267 331
#
# _framework density 19.215368000000002
#
# number of rings (size 3 to 8) (size 9 to 14) (size 15 to 20)
#    0.000    2.500    0.000    2.500    0.000    4.000 
#    0.000    3.333    0.000    3.000    0.000    0.000 
#    0.000    0.000    0.000    0.000    0.000    0.000 
#
# Total GULP energy -133651.447232 kJ/mol
# GULP energy per Si atom -5568.810301 kJ/mol
# Density = 1.917163 g / cm^3
# Si number density = 19.215368 Si / 1000 Ang^3
#
#
#
# Elastic Constant Matrix: (Units=GPa)
#
#
# Indices 1 2 3 4 5 6 
#
# 1 85.3871 18.2915 30.9839 0.0000 18.1009 0.0000
# 2 18.2915 44.3805 34.4042 0.0000 8.6627 0.0000
# 3 30.9839 34.4042 70.2597 0.0000 24.2465 0.0000
# 4 0.0000 0.0000 0.0000 3.2235 0.0000 -1.6179
# 5 18.1009 8.6627 24.2465 0.0000 24.8774 0.0000
# 6 0.0000 0.0000 0.0000 -1.6179 0.0000 23.5623
#
#
#
# Elastic Compliance Matrix: (Units=1/GPa)
#
#
# Indices 1 2 3 4 5 6 
#
# 1 0.014787 -0.002506 -0.002836 0.000000 -0.007123 0.000000
# 2 -0.002506 0.037586 -0.020210 0.000000 0.008433 0.000000
# 3 -0.002836 -0.020210 0.033510 0.000000 -0.023559 0.000000
# 4 0.000000 0.000000 0.000000 0.321299 0.000000 0.022062
# 5 -0.007123 0.008433 -0.023559 0.000000 0.065405 0.000000
# 6 0.000000 0.000000 0.000000 0.022062 0.000000 0.043956
#
#
# Mechanical properties :
#
#
# Convention : Reuss Voigt Hill
#
# Bulk Modulus (GPa) = 28.75221 40.82073 34.78647
# Shear Modulus (GPa) = 8.63201 18.08914 13.36057
#
# Velocity S-wave (km/s) = 2.12179 3.07153 2.63973
# Velocity P-wave (km/s) = 4.58239 5.81971 5.23771
#
# Compressibility (1/GPa) = 0.03477993
#
# Stress axis : x y z
#
# Youngs Moduli (GPa) = 67.62639 26.60551 29.84171
#
# Poissons Ratio (x) = 0.06667 0.08463
# Poissons Ratio (y) = 0.16946 0.60310
# Poissons Ratio (z) = 0.19179 0.53770
#
# Static dielectric constant tensor:
#      x y z
#    x 1.727520 0.000000 -0.028760 
#    y 0.000000 1.678610 0.000000 
#    z -0.028760 0.000000 1.673650 
# 
# From -- ./inp_files/50810.got.cif
#   From: 2010.05.17/outbox.cif.g08.bks.cpg/sg12_26_cif.got.tgz:50810.got - 2010.06.03 13:09:07.
