data_PCOD9191244
_publ_section_title
;
Structure prediction by ZEFSAII (Michael W. Deem and Ramdas Pophale) SiO2 
 PCOD9191244
Probable space group: C 2/M
;
_chemical_formula_sum "Si O2"
_cell_formula_units_Z 64
_cell_length_a 13.636604
_cell_length_b 31.111855
_cell_length_c 7.133630
_cell_angle_alpha 90.000000
_cell_angle_beta 106.733252
_cell_angle_gamma 90.000000
_cell_volume 2898.358151
_symmetry_space_group_name_H-M "C 2/M"
_symmetry_group_IT_number 12
_symmetry_cell_setting 'monoclinic'
loop_
_space_group_symop_operation_xyz
x,y,z
-x,y,-z
-x,-y,-z
x,-y,z
1/2+x,1/2+y,z
1/2-x,1/2+y,-z
1/2-x,1/2-y,-z
1/2+x,1/2-y,z
loop_
_atom_site_type_symbol
_atom_site_label
_atom_site_fract_x
_atom_site_fract_y
_atom_site_fract_z
Si Si1 0.418306 0.950568 0.180933
Si Si2 0.244906 0.381302 0.990826
Si Si3 0.812465 0.884384 0.582381
Si Si4 0.722562 0.706067 0.391550
Si Si5 0.643153 0.049209 0.410741
Si Si6 0.536444 0.371530 0.804862
Si Si7 0.503721 0.725558 0.726590
Si Si8 0.830480 0.288611 0.084887
O O1 0.341478 0.917499 0.042085
O O2 0.387609 0.950381 0.385059
O O3 0.538531 0.938569 0.245107
O O4 0.407374 0.000000 0.110837
O O5 0.281153 0.381343 0.788641
O O6 0.197472 0.334545 0.021203
O O7 0.351588 0.391823 0.154011
O O8 0.787129 0.836712 0.493811
O O9 0.739777 0.919563 0.451199
O O10 0.935708 0.888212 0.639944
O O11 0.750000 0.750000 0.500000
O O12 0.608496 0.715291 0.252670
O O13 0.809861 0.699670 0.289083
O O14 0.668749 0.000000 0.376655
O O15 0.556026 0.320870 0.778922
O O16 0.500000 0.375633 0.000000
O O17 0.500000 0.733428 0.500000
O O18 0.560427 0.765189 0.854869
O O19 0.750000 0.250000 0.000000
#
# Coordination Sequence:
#
# PCOD9191244 Si02
#       8
#     8   8   8   8   8   8   8   8
#     4   8  14  24  40  62  90 124 157 193 240 290
#     4   9  16  28  43  63  90 125 164 198 231 298
#     4   8  16  26  43  62  88 127 159 195 244 284
#     4  10  20  33  46  70 101 126 165 213 241 288
#     4   8  13  24  40  62  92 124 156 192 241 298
#     4   9  17  31  48  66  93 130 165 194 245 297
#     4  11  21  33  50  69  96 132 171 205 252 290
#     4  11  21  33  50  71  97 135 173 202 248 295
#
# _framework density 22.081465999999999
#
# number of rings (size 3 to 8) (size 9 to 14) (size 15 to 20)
#    0.000    2.750    2.500    1.500    0.000    1.000 
#    2.250    0.625    0.000    3.750    0.000    0.000 
#    0.000   17.500    0.000   26.500    0.000   23.500 
#
# Total GULP energy -178460.962477 kJ/mol
# GULP energy per Si atom -5576.905077 kJ/mol
# Density = 2.203121 g / cm^3
# Si number density = 22.081466 Si / 1000 Ang^3
#
#
#
# Elastic Constant Matrix: (Units=GPa)
#
#
# Indices 1 2 3 4 5 6 
#
# 1 140.7615 97.8224 48.6422 0.0000 30.7653 0.0000
# 2 97.8224 140.8958 46.1779 0.0000 54.3602 0.0000
# 3 48.6422 46.1779 61.6716 0.0000 17.2814 0.0000
# 4 0.0000 0.0000 0.0000 23.0371 0.0000 13.4572
# 5 30.7653 54.3602 17.2814 0.0000 53.2156 0.0000
# 6 0.0000 0.0000 0.0000 13.4572 0.0000 36.9333
#
#
#
# Elastic Compliance Matrix: (Units=1/GPa)
#
#
# Indices 1 2 3 4 5 6 
#
# 1 0.015265 -0.010068 -0.005402 0.000000 0.003213 0.000000
# 2 -0.010068 0.020754 -0.003619 0.000000 -0.014205 0.000000
# 3 -0.005402 -0.003619 0.023404 0.000000 -0.000781 0.000000
# 4 0.000000 0.000000 0.000000 0.055146 0.000000 -0.020093
# 5 0.003213 -0.014205 -0.000781 0.000000 0.031697 0.000000
# 6 0.000000 0.000000 0.000000 -0.020093 0.000000 0.034397
#
#
# Mechanical properties :
#
#
# Convention : Reuss Voigt Hill
#
# Bulk Modulus (GPa) = 47.06798 80.95709 64.01253
# Shear Modulus (GPa) = 22.13145 32.68296 27.40720
#
# Velocity S-wave (km/s) = 3.16929 3.85139 3.52687
# Velocity P-wave (km/s) = 5.89529 7.51799 6.75554
#
# Compressibility (1/GPa) = 0.02124587
#
# Stress axis : x y z
#
# Youngs Moduli (GPa) = 65.50808 48.18397 42.72751
#
# Poissons Ratio (x) = 0.48510 0.23082
# Poissons Ratio (y) = 0.65952 0.15462
# Poissons Ratio (z) = 0.35389 0.17437
#
# Static dielectric constant tensor:
#      x y z
#    x 1.794590 0.000000 -0.066650 
#    y 0.000000 1.864950 0.000000 
#    z -0.066650 0.000000 1.958660 
# 
# From -- ./inp_files/67009.got.cif
#   From: 2010.05.17/outbox.cif.g08.bks.cpg/sg12_34_cif.got.tgz:67009.got - 2010.06.03 13:09:07.
