data_PCOD9191734
_publ_section_title
;
Structure prediction by ZEFSAII (Michael W. Deem and Ramdas Pophale) SiO2 
 PCOD9191734
Probable space group: C 2/M
;
_chemical_formula_sum "Si O2"
_cell_formula_units_Z 40
_cell_length_a 11.129001
_cell_length_b 28.010570
_cell_length_c 8.860655
_cell_angle_alpha 90.000000
_cell_angle_beta 139.062552
_cell_angle_gamma 90.000000
_cell_volume 1809.842736
_symmetry_space_group_name_H-M "C 2/M"
_symmetry_group_IT_number 12
_symmetry_cell_setting 'monoclinic'
loop_
_space_group_symop_operation_xyz
x,y,z
-x,y,-z
-x,-y,-z
x,-y,z
1/2+x,1/2+y,z
1/2-x,1/2+y,-z
1/2-x,1/2-y,-z
1/2+x,1/2-y,z
loop_
_atom_site_type_symbol
_atom_site_label
_atom_site_fract_x
_atom_site_fract_y
_atom_site_fract_z
Si Si1 0.532500 0.148637 0.853134
Si Si2 0.960785 0.052271 0.140534
Si Si3 0.031067 0.850257 0.707593
Si Si4 0.036370 0.247659 0.853619
Si Si5 0.975646 0.448329 0.296952
O O1 0.461972 0.200368 0.732405
O O2 0.453719 0.101402 0.701880
O O3 0.500000 0.145125 0.000000
O O4 0.752745 0.149400 0.045723
O O5 0.037222 0.098978 0.294592
O O6 0.028581 0.000000 0.256304
O O7 0.740620 0.051369 0.946317
O O8 0.000000 0.056293 0.000000
O O9 0.958696 0.801031 0.710132
O O10 0.000000 0.848365 0.500000
O O11 0.250000 0.250000 0.000000
O O12 0.000000 0.245652 0.000000
O O13 0.049389 0.500000 0.313528
O O14 0.000000 0.447057 0.500000
#
# Coordination Sequence:
#
# PCOD9191734 Si02
#       5
#     8   8   8   8   8
#     4   9  19  35  50  70 101 132 163 205 254 301
#     4   9  18  33  51  71  99 133 167 208 257 305
#     4  10  20  33  51  76 103 133 170 211 257 308
#     4   9  18  35  54  73 102 138 173 212 258 308
#     4   9  18  32  50  72  96 125 164 205 246 297
#
# _framework density 22.101368999999998
#
# number of rings (size 3 to 8) (size 9 to 14) (size 15 to 20)
#    0.000    2.800    0.000    0.600    0.000    3.200 
#    0.000    9.000    0.000    0.000    0.000    0.000 
#    0.000    0.000    0.000    0.000    0.000    0.000 
#
# Total GULP energy -111482.795064 kJ/mol
# GULP energy per Si atom -5574.139753 kJ/mol
# Density = 2.205106 g / cm^3
# Si number density = 22.101369 Si / 1000 Ang^3
#
#
#
# Elastic Constant Matrix: (Units=GPa)
#
#
# Indices 1 2 3 4 5 6 
#
# 1 74.9382 52.4002 20.8911 0.0000 5.7740 0.0000
# 2 52.4002 335.7547 69.0879 0.0000 -40.1483 0.0000
# 3 20.8911 69.0879 61.7047 0.0000 9.7074 0.0000
# 4 0.0000 0.0000 0.0000 26.5091 0.0000 -32.8188
# 5 5.7740 -40.1483 9.7074 0.0000 42.6635 0.0000
# 6 0.0000 0.0000 0.0000 -32.8188 0.0000 22.4163
#
#
#
# Elastic Compliance Matrix: (Units=1/GPa)
#
#
# Indices 1 2 3 4 5 6 
#
# 1 0.016016 -0.002634 -0.001807 0.000000 -0.004236 0.000000
# 2 -0.002634 0.005558 -0.006441 0.000000 0.007052 0.000000
# 3 -0.001807 -0.006441 0.025870 0.000000 -0.011703 0.000000
# 4 0.000000 0.000000 0.000000 -0.046426 0.000000 -0.067971
# 5 -0.004236 0.007052 -0.011703 0.000000 0.033312 0.000000
# 6 0.000000 0.000000 0.000000 -0.067971 0.000000 -0.054903
#
#
# Mechanical properties :
#
#
# Convention : Reuss Voigt Hill
#
# Bulk Modulus (GPa) = 38.93882 84.12844 61.53363
# Shear Modulus (GPa) = 512.70670 40.31899 276.51284
#
# Velocity S-wave (km/s) = 15.24740 4.27579 11.19745
# Velocity P-wave (km/s) = 18.10067 7.90721 13.96707
#
# Compressibility (1/GPa) = 0.02568131
#
# Stress axis : x y z
#
# Youngs Moduli (GPa) = 62.43599 179.91717 38.65417
#
# Poissons Ratio (x) = 0.47396 0.06984
# Poissons Ratio (y) = 0.16448 0.24896
# Poissons Ratio (z) = 0.11280 1.15880
#
# Static dielectric constant tensor:
#      x y z
#    x 1.803160 0.000000 0.045280 
#    y 0.000000 1.880840 0.000000 
#    z 0.045280 0.000000 1.744060 
# 
# From -- ./inp_files/52317.got.cif
#   From: 2010.05.17/outbox.cif.g08.bks.cpg/sg12_27_cif.got.tgz:52317.got - 2010.06.03 13:09:07.
