data_PCOD9191213
_publ_section_title
;
Structure prediction by ZEFSAII (Michael W. Deem and Ramdas Pophale) SiO2 
 PCOD9191213
Probable space group: C 2/M
;
_chemical_formula_sum "Si O2"
_cell_formula_units_Z 38
_cell_length_a 15.296972
_cell_length_b 14.259592
_cell_length_c 8.040736
_cell_angle_alpha 90.000000
_cell_angle_beta 118.424002
_cell_angle_gamma 90.000000
_cell_volume 1542.478635
_symmetry_space_group_name_H-M "C 2/M"
_symmetry_group_IT_number 12
_symmetry_cell_setting 'monoclinic'
loop_
_space_group_symop_operation_xyz
x,y,z
-x,y,-z
-x,-y,-z
x,-y,z
1/2+x,1/2+y,z
1/2-x,1/2+y,-z
1/2-x,1/2-y,-z
1/2+x,1/2-y,z
loop_
_atom_site_type_symbol
_atom_site_label
_atom_site_fract_x
_atom_site_fract_y
_atom_site_fract_z
Si Si1 0.436128 0.798880 0.773646
Si Si2 0.000000 0.500000 0.500000
Si Si3 0.306877 0.000000 0.161587
Si Si4 0.104439 0.797264 0.744462
Si Si5 0.335488 0.500000 0.288917
Si Si6 0.283463 0.689917 0.802077
Si Si7 0.338195 0.000000 0.630665
O O1 0.508389 0.768847 0.687268
O O2 0.359037 0.713668 0.726203
O O3 0.377377 0.896836 0.722161
O O4 0.500000 0.802507 0.000000
O O5 0.072781 0.500000 0.737930
O O6 0.102747 0.500000 0.491621
O O7 0.258683 0.088302 0.208889
O O8 0.256577 0.000000 0.929802
O O9 0.185968 0.752886 0.698153
O O10 0.100195 0.906427 0.690914
O O11 0.157196 0.791179 0.973149
O O12 0.277280 0.500000 0.413176
#
# Coordination Sequence:
#
# PCOD9191213 Si02
#       7
#     8   2   4   8   4   8   4
#     4  10  20  32  60  91 118 147 193 239 290 343
#     4  12  28  38  54  86 118 148 198 246 288 338
#     4  10  22  38  57  81 122 152 188 245 291 335
#     4   9  17  30  51  90 120 142 187 242 282 340
#     4  10  20  36  64  84 114 156 191 232 295 339
#     4   9  17  32  52  83 118 152 185 235 292 338
#     4  12  23  38  58  88 113 152 194 242 286 335
#
# _framework density 24.635672
#
# number of rings (size 3 to 8) (size 9 to 14) (size 15 to 20)
#    0.000    2.105    2.105    1.579    5.895    0.842 
#    0.000    5.263    0.000    0.000    0.000    1.474 
#    0.000    0.105    0.000    0.105    0.000    0.000 
#
# Total GULP energy -105801.763292 kJ/mol
# GULP energy per Si atom -5568.513857 kJ/mol
# Density = 2.457960 g / cm^3
# Si number density = 24.635672 Si / 1000 Ang^3
#
#
#
# Elastic Constant Matrix: (Units=GPa)
#
#
# Indices 1 2 3 4 5 6 
#
# 1 94.2762 -3.3778 22.2558 0.0000 -9.3939 0.0000
# 2 -3.3778 92.5965 -16.2840 0.0000 5.2922 0.0000
# 3 22.2558 -16.2840 77.1829 0.0000 4.6213 0.0000
# 4 0.0000 0.0000 0.0000 -441.4175 0.0000 175.7966
# 5 -9.3939 5.2922 4.6213 0.0000 41.1171 0.0000
# 6 0.0000 0.0000 0.0000 175.7966 0.0000 -44.6494
#
#
#
# Elastic Compliance Matrix: (Units=1/GPa)
#
#
# Indices 1 2 3 4 5 6 
#
# 1 0.011773 -0.000396 -0.003667 0.000000 0.003153 0.000000
# 2 -0.000396 0.011351 0.002619 0.000000 -0.001846 0.000000
# 3 -0.003667 0.002619 0.014736 0.000000 -0.002831 0.000000
# 4 0.000000 0.000000 0.000000 0.003988 0.000000 0.015703
# 5 0.003153 -0.001846 -0.002831 0.000000 0.025597 0.000000
# 6 0.000000 0.000000 0.000000 0.015703 0.000000 0.039428
#
#
# Mechanical properties :
#
#
# Convention : Reuss Voigt Hill
#
# Bulk Modulus (GPa) = 28.59294 29.91597 29.25445
# Shear Modulus (GPa) = 41.18027 -71.55920 -15.18946
#
# Velocity S-wave (km/s) = 4.09292 -5.39537 -2.48576
# Velocity P-wave (km/s) = 5.82817 5.16175 1.91361
#
# Compressibility (1/GPa) = 0.03497367
#
# Stress axis : x y z
#
# Youngs Moduli (GPa) = 84.94181 88.09587 67.86209
#
# Poissons Ratio (x) = 0.03485 0.24885
# Poissons Ratio (y) = 0.03360 -0.17776
# Poissons Ratio (z) = 0.31148 -0.23077
#
# Static dielectric constant tensor:
#      x y z
#    x 1.896020 0.000000 0.028500 
#    y 0.000000 1.813500 0.000000 
#    z 0.028500 0.000000 2.185130 
# 
# From -- ./inp_files/59293.got.cif
#   From: 2010.05.17/outbox.cif.g08.bks.cpg/sg12_30_cif.got.tgz:59293.got - 2010.06.03 13:09:07.
