data_PCOD9191023
_publ_section_title
;
Structure prediction by ZEFSAII (Michael W. Deem and Ramdas Pophale) SiO2 
 PCOD9191023
Probable space group: C 2/M
;
_chemical_formula_sum "Si O2"
_cell_formula_units_Z 64
_cell_length_a 24.118434
_cell_length_b 9.447111
_cell_length_c 15.928372
_cell_angle_alpha 90.000000
_cell_angle_beta 67.931537
_cell_angle_gamma 90.000000
_cell_volume 3363.375436
_symmetry_space_group_name_H-M "C 2/M"
_symmetry_group_IT_number 12
_symmetry_cell_setting 'monoclinic'
loop_
_space_group_symop_operation_xyz
x,y,z
-x,y,-z
-x,-y,-z
x,-y,z
1/2+x,1/2+y,z
1/2-x,1/2+y,-z
1/2-x,1/2-y,-z
1/2+x,1/2-y,z
loop_
_atom_site_type_symbol
_atom_site_label
_atom_site_fract_x
_atom_site_fract_y
_atom_site_fract_z
Si Si1 0.266446 0.341272 0.876528
Si Si2 0.722702 0.661363 0.441805
Si Si3 0.420624 0.662616 0.476745
Si Si4 0.650289 0.837604 0.060434
Si Si5 0.227403 0.659953 0.279537
Si Si6 0.505086 0.667982 0.274545
Si Si7 0.416808 0.838177 0.645575
Si Si8 0.964805 0.830355 0.932237
O O1 0.279176 0.500000 0.836620
O O2 0.325544 0.275171 0.885300
O O3 0.247536 0.228283 0.818135
O O4 0.210019 0.351114 0.970145
O O5 0.742094 0.500000 0.433616
O O6 0.750000 0.750000 0.500000
O O7 0.650971 0.667058 0.489491
O O8 0.742471 0.736544 0.345904
O O9 0.437611 0.500000 0.486006
O O10 0.450317 0.700263 0.370155
O O11 0.435220 0.758735 0.549119
O O12 0.594347 0.766861 0.044432
O O13 0.636643 0.000000 0.097980
O O14 0.247169 0.500000 0.282977
O O15 0.155215 0.660554 0.312388
O O16 0.517022 0.500000 0.275319
O O17 0.557707 0.757197 0.288207
O O18 0.500175 0.695853 0.177066
O O19 0.438035 0.000000 0.632860
O O20 0.950473 0.000000 0.941778
O O21 0.000000 0.800706 0.000000
#
# Coordination Sequence:
#
# PCOD9191023 Si02
#       8
#     8   8   8   8   8   8   8   8
#     4  10  20  35  57  86 116 144 182 230 285 341
#     4  10  20  36  55  75 106 144 183 225 271 321
#     4   9  19  35  54  77 107 143 180 218 266 323
#     4  10  21  37  58  83 114 146 182 232 288 340
#     4  10  20  34  53  80 111 144 182 221 270 330
#     4  10  20  35  55  78 106 141 183 223 265 322
#     4  10  20  32  51  82 116 141 172 218 271 325
#     4  10  22  40  59  80 109 149 196 238 280 333
#
# _framework density 19.028502
#
# number of rings (size 3 to 8) (size 9 to 14) (size 15 to 20)
#    0.000    2.125    0.000    3.000    0.000    8.250 
#    2.250    0.000    0.000    0.000    0.000    0.000 
#    0.000    0.000    0.000    0.000    0.000    0.000 
#
# Total GULP energy -178389.855543 kJ/mol
# GULP energy per Si atom -5574.682986 kJ/mol
# Density = 1.898519 g / cm^3
# Si number density = 19.028502 Si / 1000 Ang^3
#
#
#
# Elastic Constant Matrix: (Units=GPa)
#
#
# Indices 1 2 3 4 5 6 
#
# 1 29.8488 23.8591 18.3998 0.0000 13.3051 0.0000
# 2 23.8591 109.9399 45.7199 0.0000 7.4145 0.0000
# 3 18.3998 45.7199 97.8051 0.0000 16.2549 0.0000
# 4 0.0000 0.0000 0.0000 23.0656 0.0000 6.6160
# 5 13.3051 7.4145 16.2549 0.0000 28.9350 0.0000
# 6 0.0000 0.0000 0.0000 6.6160 0.0000 25.8744
#
#
#
# Elastic Compliance Matrix: (Units=1/GPa)
#
#
# Indices 1 2 3 4 5 6 
#
# 1 0.050681 -0.008772 -0.002133 0.000000 -0.019858 0.000000
# 2 -0.008772 0.012809 -0.004922 0.000000 0.003516 0.000000
# 3 -0.002133 -0.004922 0.013847 0.000000 -0.005536 0.000000
# 4 0.000000 0.000000 0.000000 0.046786 0.000000 -0.011963
# 5 -0.019858 0.003516 -0.005536 0.000000 0.045901 0.000000
# 6 0.000000 0.000000 0.000000 -0.011963 0.000000 0.041707
#
#
# Mechanical properties :
#
#
# Convention : Reuss Voigt Hill
#
# Bulk Modulus (GPa) = 21.89062 45.95016 33.92039
# Shear Modulus (GPa) = 19.33387 25.54933 22.44160
#
# Velocity S-wave (km/s) = 3.19101 3.66825 3.43792
# Velocity P-wave (km/s) = 5.01057 6.49168 5.79861
#
# Compressibility (1/GPa) = 0.04568166
#
# Stress axis : x y z
#
# Youngs Moduli (GPa) = 19.73129 78.06796 72.21919
#
# Poissons Ratio (x) = 0.68484 0.15407
# Poissons Ratio (y) = 0.17309 0.35546
# Poissons Ratio (z) = 0.04209 0.38425
#
# Static dielectric constant tensor:
#      x y z
#    x 1.597650 0.000000 -0.076500 
#    y 0.000000 1.658010 0.000000 
#    z -0.076500 0.000000 1.501160 
# 
# From -- ./inp_files/243985.got.cif
#   From: 2010.05.17/outbox.cif.g08.bks.cpg/sg12_122_cif.got.tgz:243985.got - 2010.06.03 13:09:07.
