data_PCOD9191835
_publ_section_title
;
Structure prediction by ZEFSAII (Michael W. Deem and Ramdas Pophale) SiO2 
 PCOD9191835
Probable space group: C 2/M
;
_chemical_formula_sum "Si O2"
_cell_formula_units_Z 56
_cell_length_a 26.152417
_cell_length_b 13.567459
_cell_length_c 13.067276
_cell_angle_alpha 90.000000
_cell_angle_beta 39.463827
_cell_angle_gamma 90.000000
_cell_volume 2946.952330
_symmetry_space_group_name_H-M "C 2/M"
_symmetry_group_IT_number 12
_symmetry_cell_setting 'monoclinic'
loop_
_space_group_symop_operation_xyz
x,y,z
-x,y,-z
-x,-y,-z
x,-y,z
1/2+x,1/2+y,z
1/2-x,1/2+y,-z
1/2-x,1/2-y,-z
1/2+x,1/2-y,z
loop_
_atom_site_type_symbol
_atom_site_label
_atom_site_fract_x
_atom_site_fract_y
_atom_site_fract_z
Si Si1 0.585774 0.686865 0.827604
Si Si2 0.210615 0.245165 0.800370
Si Si3 0.123499 0.609987 0.678699
Si Si4 0.049985 0.614747 0.573579
Si Si5 0.377046 0.882553 0.909888
Si Si6 0.295011 0.388300 0.519937
Si Si7 0.182162 0.617789 0.219638
O O1 0.652610 0.686232 0.813426
O O2 0.578523 0.801324 0.804002
O O3 0.625812 0.633198 0.668593
O O4 0.500000 0.650427 0.000000
O O5 0.276917 0.306217 0.633128
O O6 0.250053 0.175460 0.823922
O O7 0.156827 0.326409 0.940839
O O8 0.096009 0.500000 0.751504
O O9 0.109268 0.618122 0.579542
O O10 0.216919 0.618949 0.565831
O O11 0.031629 0.500000 0.579251
O O12 0.097568 0.651954 0.401616
O O13 0.965320 0.656580 0.741753
O O14 0.321505 0.867018 0.895873
O O15 0.381743 0.000000 0.922976
O O16 0.296488 0.500000 0.558591
O O17 0.188721 0.500000 0.227635
#
# Coordination Sequence:
#
# PCOD9191835 Si02
#       7
#     8   8   8   8   8   8   8
#     4  11  22  34  51  77 105 132 170 212 254 304
#     4  11  21  35  55  75 102 139 173 208 250 302
#     4   9  17  31  52  77 106 136 164 199 249 310
#     4   9  16  29  51  77 105 133 161 201 254 305
#     4  10  20  33  51  79 108 134 169 210 252 297
#     4  10  21  37  54  74 102 136 172 209 252 303
#     4  10  20  34  53  76 104 137 172 211 253 298
#
# _framework density 19.002683000000001
#
# number of rings (size 3 to 8) (size 9 to 14) (size 15 to 20)
#    0.000    2.000    0.000    5.571    0.000    4.571 
#    0.000    0.000    0.000    0.000    0.000    0.000 
#    0.000   11.429    0.000    0.000    0.000    0.000 
#
# Total GULP energy -156280.880364 kJ/mol
# GULP energy per Si atom -5581.460013 kJ/mol
# Density = 1.895943 g / cm^3
# Si number density = 19.002683 Si / 1000 Ang^3
#
#
#
# Elastic Constant Matrix: (Units=GPa)
#
#
# Indices 1 2 3 4 5 6 
#
# 1 16.7618 9.8234 -15.2831 0.0000 5.1218 0.0000
# 2 9.8234 36.6661 -6.6007 0.0000 -3.6816 0.0000
# 3 -15.2831 -6.6007 58.5144 0.0000 -5.0407 0.0000
# 4 0.0000 0.0000 0.0000 24.7829 0.0000 6.8898
# 5 5.1218 -3.6816 -5.0407 0.0000 18.2679 0.0000
# 6 0.0000 0.0000 0.0000 6.8898 0.0000 19.5224
#
#
#
# Elastic Compliance Matrix: (Units=1/GPa)
#
#
# Indices 1 2 3 4 5 6 
#
# 1 0.103793 -0.026778 0.021631 0.000000 -0.028529 0.000000
# 2 -0.026778 0.035555 -0.001761 0.000000 0.014187 0.000000
# 3 0.021631 -0.001761 0.022523 0.000000 -0.000205 0.000000
# 4 0.000000 0.000000 0.000000 0.044740 0.000000 -0.015790
# 5 -0.028529 0.014187 -0.000205 0.000000 0.065542 0.000000
# 6 0.000000 0.000000 0.000000 -0.015790 0.000000 0.056796
#
#
# Mechanical properties :
#
#
# Convention : Reuss Voigt Hill
#
# Bulk Modulus (GPa) = 6.75428 9.75796 8.25612
# Shear Modulus (GPa) = 12.75127 20.78150 16.76639
#
# Velocity S-wave (km/s) = 2.59323 3.31056 2.97360
# Velocity P-wave (km/s) = 3.53957 4.44514 4.01795
#
# Compressibility (1/GPa) = 0.14805419
#
# Stress axis : x y z
#
# Youngs Moduli (GPa) = 9.63454 28.12547 44.39876
#
# Poissons Ratio (x) = 0.75315 -0.96038
# Poissons Ratio (y) = 0.25800 0.07819
# Poissons Ratio (z) = -0.20840 0.04953
#
# Static dielectric constant tensor:
#      x y z
#    x 1.670700 0.000000 -0.009660 
#    y 0.000000 1.673340 0.000000 
#    z -0.009660 0.000000 1.680580 
# 
# From -- ./inp_files/183443.got.cif
#   From: 2010.05.17/outbox.cif.g08.bks.cpg/sg12_92_cif.got.tgz:183443.got - 2010.06.03 13:09:07.
