data_PCOD9191262
_publ_section_title
;
Structure prediction by ZEFSAII (Michael W. Deem and Ramdas Pophale) SiO2 
 PCOD9191262
Probable space group: C 2/M
;
_chemical_formula_sum "Si O2"
_cell_formula_units_Z 64
_cell_length_a 25.401947
_cell_length_b 8.465196
_cell_length_c 24.518314
_cell_angle_alpha 90.000000
_cell_angle_beta 139.493891
_cell_angle_gamma 90.000000
_cell_volume 3424.469110
_symmetry_space_group_name_H-M "C 2/M"
_symmetry_group_IT_number 12
_symmetry_cell_setting 'monoclinic'
loop_
_space_group_symop_operation_xyz
x,y,z
-x,y,-z
-x,-y,-z
x,-y,z
1/2+x,1/2+y,z
1/2-x,1/2+y,-z
1/2-x,1/2-y,-z
1/2+x,1/2-y,z
loop_
_atom_site_type_symbol
_atom_site_label
_atom_site_fract_x
_atom_site_fract_y
_atom_site_fract_z
Si Si1 0.987330 0.311501 0.744983
Si Si2 0.795893 0.811624 0.703522
Si Si3 0.199276 0.688369 0.409252
Si Si4 0.261854 0.309983 0.230167
Si Si5 0.484005 0.689100 0.861549
Si Si6 0.253324 0.816240 0.062323
Si Si7 0.388235 0.316883 0.242828
Si Si8 0.876257 0.311117 0.964481
O O1 0.989682 0.500000 0.753553
O O2 0.015240 0.239047 0.825330
O O3 0.039391 0.266455 0.732741
O O4 0.894670 0.257721 0.662609
O O5 0.768185 0.745439 0.623544
O O6 0.744580 0.753725 0.714280
O O7 0.889547 0.760236 0.786829
O O8 0.795402 0.000000 0.700691
O O9 0.199280 0.500000 0.410355
O O10 0.250000 0.750000 0.500000
O O11 0.265418 0.500000 0.233044
O O12 0.342790 0.253921 0.261548
O O13 0.178091 0.268352 0.131457
O O14 0.488406 0.500000 0.869716
O O15 0.530907 0.767233 0.949635
O O16 0.314338 0.703988 0.142667
O O17 0.278099 0.000000 0.084331
O O18 0.250000 0.750000 0.000000
O O19 0.167680 0.790165 0.023297
O O20 0.409400 0.500000 0.267563
O O21 0.867361 0.500000 0.964957
#
# Coordination Sequence:
#
# PCOD9191262 Si02
#       8
#     8   8   8   8   8   8   8   8
#     4  10  20  34  54  81 109 139 173 214 263 314
#     4  10  21  36  56  80 107 139 176 216 262 314
#     4  10  21  38  62  89 115 138 166 205 256 315
#     4   9  20  36  52  72 102 142 185 222 262 309
#     4  10  20  33  49  73 104 139 179 225 272 316
#     4  11  20  30  44  63  92 131 175 224 271 313
#     4  10  20  34  51  73 102 138 177 217 260 311
#     4  10  20  33  47  67  97 136 182 227 268 312
#
# _framework density 18.689029000000001
#
# number of rings (size 3 to 8) (size 9 to 14) (size 15 to 20)
#    0.000    2.000    0.000    4.875    0.000    6.500 
#    0.000    2.500    0.000    0.750    0.000    5.250 
#    0.000    0.000    0.000    0.000    0.000    0.000 
#
# Total GULP energy -178407.804499 kJ/mol
# GULP energy per Si atom -5575.243891 kJ/mol
# Density = 1.864649 g / cm^3
# Si number density = 18.689029 Si / 1000 Ang^3
#
#
#
# Elastic Constant Matrix: (Units=GPa)
#
#
# Indices 1 2 3 4 5 6 
#
# 1 95.2206 7.9751 32.5894 0.0000 -26.6004 0.0000
# 2 7.9751 35.5069 11.7220 0.0000 -5.8445 -0.0001
# 3 32.5894 11.7220 71.6841 0.0000 -17.2980 0.0000
# 4 0.0000 0.0000 0.0000 26.3465 0.0000 0.5838
# 5 -26.6004 -5.8445 -17.2980 0.0000 24.8591 0.0000
# 6 0.0000 -0.0001 0.0000 0.5838 0.0000 22.3913
#
#
#
# Elastic Compliance Matrix: (Units=1/GPa)
#
#
# Indices 1 2 3 4 5 6 
#
# 1 0.015765 0.000041 -0.003726 0.000000 0.014285 0.000000
# 2 0.000041 0.030166 -0.003881 0.000000 0.004435 0.000000
# 3 -0.003726 -0.003881 0.018143 0.000000 0.007725 0.000000
# 4 0.000000 0.000000 0.000000 0.037978 0.000000 -0.000990
# 5 0.014285 0.004435 0.007725 0.000000 0.061931 0.000000
# 6 0.000000 0.000000 0.000000 -0.000990 0.000000 0.044686
#
#
# Mechanical properties :
#
#
# Convention : Reuss Voigt Hill
#
# Bulk Modulus (GPa) = 20.43331 34.10939 27.27135
# Shear Modulus (GPa) = 20.82340 24.72771 22.77555
#
# Velocity S-wave (km/s) = 3.34159 3.64141 3.49472
# Velocity P-wave (km/s) = 5.08383 5.99754 5.55949
#
# Compressibility (1/GPa) = 0.04893970
#
# Stress axis : x y z
#
# Youngs Moduli (GPa) = 63.43312 33.15024 55.11799
#
# Poissons Ratio (x) = -0.00135 0.20540
# Poissons Ratio (y) = -0.00259 0.21392
# Poissons Ratio (z) = 0.23638 0.12866
#
# Static dielectric constant tensor:
#      x y z
#    x 1.741440 0.000000 0.023130 
#    y 0.000000 1.649470 0.000000 
#    z 0.023130 0.000000 1.632780 
# 
# From -- ./inp_files/324222.got.cif
#   From: 2010.05.17/outbox.cif.g08.bks.cpg/sg12_163_cif.got.tgz:324222.got - 2010.06.03 13:09:07.
