data_PCOD9191073
_publ_section_title
;
Structure prediction by ZEFSAII (Michael W. Deem and Ramdas Pophale) SiO2 
 PCOD9191073
Probable space group: C 2/M
;
_chemical_formula_sum "Si O2"
_cell_formula_units_Z 56
_cell_length_a 14.059957
_cell_length_b 24.234774
_cell_length_c 13.857494
_cell_angle_alpha 90.000000
_cell_angle_beta 42.633512
_cell_angle_gamma 90.000000
_cell_volume 3198.105901
_symmetry_space_group_name_H-M "C 2/M"
_symmetry_group_IT_number 12
_symmetry_cell_setting 'monoclinic'
loop_
_space_group_symop_operation_xyz
x,y,z
-x,y,-z
-x,-y,-z
x,-y,z
1/2+x,1/2+y,z
1/2-x,1/2+y,-z
1/2-x,1/2-y,-z
1/2+x,1/2-y,z
loop_
_atom_site_type_symbol
_atom_site_label
_atom_site_fract_x
_atom_site_fract_y
_atom_site_fract_z
Si Si1 0.957593 0.106977 0.425350
Si Si2 0.610248 0.749899 0.844941
Si Si3 0.330991 0.237027 0.839777
Si Si4 0.240856 0.564858 0.868835
Si Si5 0.453099 0.145698 0.857199
Si Si6 0.632883 0.708517 0.626343
Si Si7 0.175991 0.440402 0.693460
O O1 0.875997 0.151184 0.421540
O O2 0.837615 0.062855 0.540661
O O3 0.000000 0.130286 0.500000
O O4 0.097384 0.084568 0.268332
O O5 0.743296 0.758334 0.814280
O O6 0.531871 0.804771 0.860001
O O7 0.649396 0.709873 0.728865
O O8 0.500000 0.722811 0.000000
O O9 0.370110 0.173315 0.830099
O O10 0.478772 0.266925 0.724565
O O11 0.250000 0.250000 0.000000
O O12 0.235957 0.500000 0.903836
O O13 0.175544 0.566308 0.809946
O O14 0.152525 0.607889 0.000203
O O15 0.578669 0.107564 0.726807
O O16 0.750000 0.750000 0.500000
O O17 0.116758 0.500000 0.713230
#
# Coordination Sequence:
#
# PCOD9191073 Si02
#       7
#     8   8   8   8   8   8   8
#     4  10  21  34  54  75 114 150 176 221 284 334
#     4  11  22  37  55  79 117 151 188 225 271 341
#     4  11  22  36  55  79 111 153 193 223 274 339
#     4  10  20  32  52  81 109 143 185 227 276 335
#     4  11  21  33  56  80 110 147 186 220 280 317
#     4  11  24  35  54  85 110 147 198 226 276 332
#     4  10  20  34  52  78 111 143 178 225 281 341
#
# _framework density 17.510363999999999
#
# number of rings (size 3 to 8) (size 9 to 14) (size 15 to 20)
#    0.000    1.429    2.857    4.714    6.000    2.857 
#    0.000    0.000    0.000    0.000    0.000    6.000 
#    0.000    0.000    0.000    0.000    0.000    0.000 
#
# Total GULP energy -156016.689541 kJ/mol
# GULP energy per Si atom -5572.024626 kJ/mol
# Density = 1.747051 g / cm^3
# Si number density = 17.510364 Si / 1000 Ang^3
#
#
#
# Elastic Constant Matrix: (Units=GPa)
#
#
# Indices 1 2 3 4 5 6 
#
# 1 69.4116 20.2331 20.8313 0.0000 -3.5850 0.0000
# 2 20.2331 80.3300 14.1377 0.0000 7.6560 0.0000
# 3 20.8313 14.1377 72.9046 0.0001 -6.8741 -0.0001
# 4 0.0000 0.0000 0.0001 14.7414 -0.0001 -3.9780
# 5 -3.5850 7.6560 -6.8741 -0.0001 28.6873 0.0000
# 6 0.0000 0.0000 -0.0001 -3.9780 0.0000 18.6247
#
#
#
# Elastic Compliance Matrix: (Units=1/GPa)
#
#
# Indices 1 2 3 4 5 6 
#
# 1 0.016771 -0.003752 -0.003860 0.000000 0.002172 0.000000
# 2 -0.003752 0.014225 -0.002137 0.000000 -0.004777 0.000000
# 3 -0.003860 -0.002137 0.015594 0.000000 0.003825 0.000000
# 4 0.000000 0.000000 0.000000 0.071985 0.000000 0.015375
# 5 0.002172 -0.004777 0.003825 0.000000 0.037321 0.000000
# 6 0.000000 0.000000 0.000000 0.015375 0.000000 0.056976
#
#
# Mechanical properties :
#
#
# Convention : Reuss Voigt Hill
#
# Bulk Modulus (GPa) = 36.90927 37.00560 36.95744
# Shear Modulus (GPa) = 20.71239 23.57363 22.14301
#
# Velocity S-wave (km/s) = 3.44301 3.67313 3.55993
# Velocity P-wave (km/s) = 6.07701 6.25848 6.16841
#
# Compressibility (1/GPa) = 0.02709346
#
# Stress axis : x y z
#
# Youngs Moduli (GPa) = 59.62666 70.29846 64.12558
#
# Poissons Ratio (x) = 0.26376 0.24750
# Poissons Ratio (y) = 0.22372 0.13703
# Poissons Ratio (z) = 0.23014 0.15022
#
# Static dielectric constant tensor:
#      x y z
#    x 1.637500 0.000000 -0.009300 
#    y 0.000000 1.634400 0.000000 
#    z -0.009300 0.000000 1.619080 
# 
# From -- ./inp_files/218243.got.cif
#   From: 2010.05.17/outbox.cif.g08.bks.cpg/sg12_110_cif.got.tgz:218243.got - 2010.06.03 13:09:07.
