data_PCOD9191119
_publ_section_title
;
Structure prediction by ZEFSAII (Michael W. Deem and Ramdas Pophale) SiO2 
 PCOD9191119
Probable space group: C 2/M
;
_chemical_formula_sum "Si O2"
_cell_formula_units_Z 40
_cell_length_a 25.036343
_cell_length_b 19.951062
_cell_length_c 12.515112
_cell_angle_alpha 90.000000
_cell_angle_beta 20.613913
_cell_angle_gamma 90.000000
_cell_volume 2200.895200
_symmetry_space_group_name_H-M "C 2/M"
_symmetry_group_IT_number 12
_symmetry_cell_setting 'monoclinic'
loop_
_space_group_symop_operation_xyz
x,y,z
-x,y,-z
-x,-y,-z
x,-y,z
1/2+x,1/2+y,z
1/2-x,1/2+y,-z
1/2-x,1/2-y,-z
1/2+x,1/2-y,z
loop_
_atom_site_type_symbol
_atom_site_label
_atom_site_fract_x
_atom_site_fract_y
_atom_site_fract_z
Si Si1 0.649182 0.422424 0.294847
Si Si2 0.825035 0.675487 0.363445
Si Si3 0.321877 0.820430 0.829499
Si Si4 0.628610 0.335202 0.542218
Si Si5 0.277721 0.692158 0.219404
O O1 0.500000 0.417946 0.500000
O O2 0.691043 0.500000 0.227928
O O3 0.618702 0.388057 0.465586
O O4 0.773003 0.378420 0.001596
O O5 0.750000 0.750000 0.500000
O O6 0.723032 0.637690 0.466824
O O7 0.800956 0.656113 0.531955
O O8 0.000000 0.676481 0.000000
O O9 0.500000 0.811269 0.500000
O O10 0.267331 0.835993 0.811535
O O11 0.250000 0.750000 0.000000
O O12 0.718577 0.269137 0.332215
O O13 0.459330 0.312147 0.891503
#
# Coordination Sequence:
#
# PCOD9191119 Si02
#       5
#     8   8   8   8   8
#     4  11  24  42  60  85 122 164 200 243 303 364
#     4  10  20  32  53  86 120 153 187 244 304 351
#     4  12  23  36  62  93 123 152 197 250 300 356
#     4  11  20  35  59  85 122 153 196 243 299 357
#     4  11  20  33  56  91 118 150 191 247 299 345
#
# _framework density 18.174423000000001
#
# number of rings (size 3 to 8) (size 9 to 14) (size 15 to 20)
#    0.000    1.000    4.000    7.200    2.800    0.400 
#    0.000    0.000    0.000    4.200    0.000    0.000 
#    0.000    0.000    0.000    0.000    0.000    0.000 
#
# Total GULP energy -111668.188706 kJ/mol
# GULP energy per Si atom -5583.409435 kJ/mol
# Density = 1.813306 g / cm^3
# Si number density = 18.174423 Si / 1000 Ang^3
#
#
#
# Elastic Constant Matrix: (Units=GPa)
#
#
# Indices 1 2 3 4 5 6 
#
# 1 135.0132 27.2200 53.7040 -0.0007 12.6989 0.0006
# 2 27.2200 84.9502 51.9093 0.0013 9.6251 -0.0008
# 3 53.7040 51.9093 179.3676 0.0027 -6.3160 -0.0024
# 4 -0.0007 0.0013 0.0027 9.7408 -0.0011 -1.0139
# 5 12.6989 9.6251 -6.3160 -0.0011 38.2651 0.0012
# 6 0.0006 -0.0008 -0.0024 -1.0139 0.0012 11.8738
#
#
#
# Elastic Compliance Matrix: (Units=1/GPa)
#
#
# Indices 1 2 3 4 5 6 
#
# 1 0.008886 -0.000974 -0.002488 0.000001 -0.003115 -0.000001
# 2 -0.000974 0.015149 -0.004240 -0.000001 -0.004187 0.000001
# 3 -0.002488 -0.004240 0.007658 -0.000001 0.003156 0.000001
# 4 0.000001 -0.000001 -0.000001 0.103581 0.000002 0.008845
# 5 -0.003115 -0.004187 0.003156 0.000002 0.028741 -0.000002
# 6 -0.000001 0.000001 0.000001 0.008845 -0.000002 0.084974
#
#
# Mechanical properties :
#
#
# Convention : Reuss Voigt Hill
#
# Bulk Modulus (GPa) = 61.39184 73.88862 67.64023
# Shear Modulus (GPa) = 18.53064 29.74246 24.13655
#
# Velocity S-wave (km/s) = 3.19658 4.04976 3.64820
# Velocity P-wave (km/s) = 6.89034 7.91271 7.41915
#
# Compressibility (1/GPa) = 0.01628881
#
# Stress axis : x y z
#
# Youngs Moduli (GPa) = 112.53991 66.01120 130.57598
#
# Poissons Ratio (x) = 0.06428 0.32491
# Poissons Ratio (y) = 0.10959 0.55364
# Poissons Ratio (z) = 0.28003 0.27989
#
# Static dielectric constant tensor:
#      x y z
#    x 1.703990 0.000000 0.012140 
#    y 0.000000 1.595240 0.000000 
#    z 0.012140 0.000000 1.616010 
# 
# From -- ./inp_files/120310.got.cif
#   From: 2010.05.17/outbox.cif.g08.bks.cpg/sg12_61_cif.got.tgz:120310.got - 2010.06.03 13:09:07.
