data_PCOD9191318
_publ_section_title
;
Structure prediction by ZEFSAII (Michael W. Deem and Ramdas Pophale) SiO2 
 PCOD9191318
Probable space group: C 2/M
;
_chemical_formula_sum "Si O2"
_cell_formula_units_Z 48
_cell_length_a 31.747086
_cell_length_b 9.335779
_cell_length_c 9.761518
_cell_angle_alpha 90.000000
_cell_angle_beta 77.961978
_cell_angle_gamma 90.000000
_cell_volume 2829.533403
_symmetry_space_group_name_H-M "C 2/M"
_symmetry_group_IT_number 12
_symmetry_cell_setting 'monoclinic'
loop_
_space_group_symop_operation_xyz
x,y,z
-x,y,-z
-x,-y,-z
x,-y,z
1/2+x,1/2+y,z
1/2-x,1/2+y,-z
1/2-x,1/2-y,-z
1/2+x,1/2-y,z
loop_
_atom_site_type_symbol
_atom_site_label
_atom_site_fract_x
_atom_site_fract_y
_atom_site_fract_z
Si Si1 0.936786 0.829668 0.337221
Si Si2 0.860603 0.829091 0.170994
Si Si3 0.487735 0.171132 0.853333
Si Si4 0.613294 0.171062 0.117241
Si Si5 0.629707 0.671826 0.385288
Si Si6 0.294812 0.328895 0.450462
O O1 0.902475 0.801786 0.238164
O O2 0.912091 0.790404 0.493861
O O3 0.980248 0.747263 0.273641
O O4 0.944595 0.000000 0.334946
O O5 0.819485 0.791884 0.292602
O O6 0.859656 0.000000 0.144108
O O7 0.864386 0.740340 0.030247
O O8 0.437836 0.202687 0.860252
O O9 0.493949 0.000000 0.840896
O O10 0.500000 0.216467 0.000000
O O11 0.629895 0.242775 0.244770
O O12 0.618811 0.000000 0.114802
O O13 0.628521 0.500000 0.362850
O O14 0.671356 0.703010 0.450749
O O15 0.288330 0.500000 0.454539
O O16 0.250000 0.250000 0.500000
#
# Coordination Sequence:
#
# PCOD9191318 Si02
#       6
#     8   8   8   8   8   8
#     4   9  18  33  54  76  98 137 187 220 252 307
#     4   9  18  34  55  78 105 137 173 215 261 308
#     4  10  20  33  48  72 109 143 176 222 265 300
#     4  11  22  34  51  78 108 142 180 216 260 310
#     4   9  20  38  55  76 109 140 170 216 267 309
#     4   9  19  37  61  85 106 132 169 212 262 318
#
# _framework density 16.963927999999999
#
# number of rings (size 3 to 8) (size 9 to 14) (size 15 to 20)
#    0.000    2.500    1.667    2.500    0.000    4.333 
#    0.000    7.500    0.000    0.000    0.000    0.000 
#    0.000    0.000    0.000    0.000    0.000    0.000 
#
# Total GULP energy -133899.190688 kJ/mol
# GULP energy per Si atom -5579.132945 kJ/mol
# Density = 1.692532 g / cm^3
# Si number density = 16.963928 Si / 1000 Ang^3
#
#
#
# Elastic Constant Matrix: (Units=GPa)
#
#
# Indices 1 2 3 4 5 6 
#
# 1 107.7211 59.0299 73.7913 0.0000 -24.7230 0.0000
# 2 59.0299 48.5004 75.6058 0.0000 -9.9261 0.0000
# 3 73.7913 75.6058 157.8449 0.0000 -11.4429 0.0000
# 4 0.0000 0.0000 0.0000 24.1461 0.0000 -7.2064
# 5 -24.7230 -9.9261 -11.4429 0.0000 19.5740 0.0000
# 6 0.0000 0.0000 0.0000 -7.2064 0.0000 32.2122
#
#
#
# Elastic Compliance Matrix: (Units=1/GPa)
#
#
# Indices 1 2 3 4 5 6 
#
# 1 0.048185 -0.081897 0.018904 0.000000 0.030381 0.000000
# 2 -0.081897 0.228227 -0.073245 0.000000 -0.030523 0.000000
# 3 0.018904 -0.073245 0.033019 0.000000 0.006037 0.000000
# 4 0.000000 0.000000 0.000000 0.044377 0.000000 0.009928
# 5 0.030381 -0.030523 0.006037 0.000000 0.077511 0.000000
# 6 0.000000 0.000000 0.000000 0.009928 0.000000 0.033265
#
#
# Mechanical properties :
#
#
# Convention : Reuss Voigt Hill
#
# Bulk Modulus (GPa) = 27.05950 81.21338 54.13644
# Shear Modulus (GPa) = 6.67220 22.22910 14.45065
#
# Velocity S-wave (km/s) = 1.98537 3.62384 2.92181
# Velocity P-wave (km/s) = 4.60884 8.09245 6.58518
#
# Compressibility (1/GPa) = 0.03695559
#
# Stress axis : x y z
#
# Youngs Moduli (GPa) = 20.75343 4.38160 30.28585
#
# Poissons Ratio (x) = 0.35884 -0.57253
# Poissons Ratio (y) = 1.69965 2.21828
# Poissons Ratio (z) = -0.39233 0.32093
#
# Static dielectric constant tensor:
#      x y z
#    x 1.553770 0.000000 0.001380 
#    y 0.000000 1.555890 0.000000 
#    z 0.001380 0.000000 1.563870 
# 
# From -- ./inp_files/108759.got.cif
#   From: 2010.05.17/outbox.cif.g08.bks.cpg/sg12_55_cif.got.tgz:108759.got - 2010.06.03 13:09:07.
