data_PCOD9191204
_publ_section_title
;
Structure prediction by ZEFSAII (Michael W. Deem and Ramdas Pophale) SiO2 
 PCOD9191204
Probable space group: C 2/M
;
_chemical_formula_sum "Si O2"
_cell_formula_units_Z 44
_cell_length_a 28.353803
_cell_length_b 11.000472
_cell_length_c 9.842354
_cell_angle_alpha 90.000000
_cell_angle_beta 135.026693
_cell_angle_gamma 90.000000
_cell_volume 2169.722523
_symmetry_space_group_name_H-M "C 2/M"
_symmetry_group_IT_number 12
_symmetry_cell_setting 'monoclinic'
loop_
_space_group_symop_operation_xyz
x,y,z
-x,y,-z
-x,-y,-z
x,-y,z
1/2+x,1/2+y,z
1/2-x,1/2+y,-z
1/2-x,1/2-y,-z
1/2+x,1/2-y,z
loop_
_atom_site_type_symbol
_atom_site_label
_atom_site_fract_x
_atom_site_fract_y
_atom_site_fract_z
Si Si1 0.572752 0.734304 0.202327
Si Si2 0.837139 0.500000 0.230221
Si Si3 0.856820 0.000000 0.530663
Si Si4 0.756846 0.000000 0.586525
Si Si5 0.677396 0.500000 0.858815
Si Si6 0.197379 0.758015 0.268000
Si Si7 0.180671 0.735744 0.939601
Si Si8 0.111427 0.500000 0.360718
O O1 0.602007 0.624687 0.354586
O O2 0.624844 0.742332 0.184096
O O3 0.573877 0.871897 0.264188
O O4 0.500000 0.702986 0.000000
O O5 0.860659 0.626668 0.212139
O O6 0.857471 0.500000 0.427166
O O7 0.757097 0.500000 0.047191
O O8 0.834031 0.000000 0.328266
O O9 0.798023 0.000000 0.527716
O O10 0.779483 0.109315 0.726648
O O11 0.677761 0.000000 0.398665
O O12 0.649689 0.371401 0.862060
O O13 0.250000 0.750000 0.500000
O O14 0.197896 0.689991 0.127425
O O15 0.250000 0.750000 0.000000
#
# Coordination Sequence:
#
# PCOD9191204 Si02
#       8
#     8   4   4   4   4   8   8   4
#     4  11  25  41  63  89 128 169 209 251 307 370
#     4  10  22  31  55  85 126 152 194 245 314 364
#     4  10  23  38  64  89 124 162 210 255 311 360
#     4  10  20  32  58  94 122 144 204 266 314 344
#     4  10  20  33  57  85 122 154 194 245 316 364
#     4  11  22  36  62  91 120 160 206 261 307 353
#     4  10  21  33  54  87 126 149 194 246 314 361
#     4  12  21  38  62  91 126 162 204 257 315 364
#
# _framework density 20.27909
#
# number of rings (size 3 to 8) (size 9 to 14) (size 15 to 20)
#    0.000    1.455    1.818    4.364   10.182    0.727 
#    0.000    0.000    0.000    6.545    0.000    0.000 
#    0.000    0.000    0.000    0.000    0.000    0.000 
#
# Total GULP energy -122477.757313 kJ/mol
# GULP energy per Si atom -5567.170787 kJ/mol
# Density = 2.023293 g / cm^3
# Si number density = 20.279090 Si / 1000 Ang^3
#
#
#
# Elastic Constant Matrix: (Units=GPa)
#
#
# Indices 1 2 3 4 5 6 
#
# 1 51.6490 -13.2986 43.1268 0.0000 -6.8155 0.0000
# 2 -13.2986 135.6230 12.1851 0.0000 -4.6441 0.0000
# 3 43.1268 12.1851 108.4511 0.0000 -18.4664 0.0000
# 4 0.0000 0.0000 0.0000 33.8808 0.0000 -4.3345
# 5 -6.8155 -4.6441 -18.4664 0.0000 31.1253 0.0000
# 6 0.0000 0.0000 0.0000 -4.3345 0.0000 10.3160
#
#
#
# Elastic Compliance Matrix: (Units=1/GPa)
#
#
# Indices 1 2 3 4 5 6 
#
# 1 0.031205 0.004213 -0.012917 0.000000 -0.000202 0.000000
# 2 0.004213 0.008031 -0.002466 0.000000 0.000658 0.000000
# 3 -0.012917 -0.002466 0.015673 0.000000 0.006103 0.000000
# 4 0.000000 0.000000 0.000000 0.031192 0.000000 0.013106
# 5 -0.000202 0.000658 0.006103 0.000000 0.035803 0.000000
# 6 0.000000 0.000000 0.000000 0.013106 0.000000 0.102444
#
#
# Mechanical properties :
#
#
# Convention : Reuss Voigt Hill
#
# Bulk Modulus (GPa) = 30.70224 42.19438 36.44831
# Shear Modulus (GPa) = 19.41422 31.97841 25.69631
#
# Velocity S-wave (km/s) = 3.09747 3.97535 3.56354
# Velocity P-wave (km/s) = 5.28821 6.47481 5.91136
#
# Compressibility (1/GPa) = 0.03257091
#
# Stress axis : x y z
#
# Youngs Moduli (GPa) = 32.04590 124.52362 63.80219
#
# Poissons Ratio (x) = -0.52468 0.82412
# Poissons Ratio (y) = -0.13502 0.15732
# Poissons Ratio (z) = 0.41393 0.30705
#
# Static dielectric constant tensor:
#      x y z
#    x 1.918970 0.000000 -0.046020 
#    y 0.000000 1.989810 0.000000 
#    z -0.046020 0.000000 1.716210 
# 
# From -- ./inp_files/84220.got.cif
#   From: 2010.05.17/outbox.cif.g08.bks.cpg/sg12_43_cif.got.tgz:84220.got - 2010.06.03 13:09:07.
