data_PCOD9191449
_publ_section_title
;
Structure prediction by ZEFSAII (Michael W. Deem and Ramdas Pophale) SiO2 
 PCOD9191449
Probable space group: C 2/M
;
_chemical_formula_sum "Si O2"
_cell_formula_units_Z 48
_cell_length_a 18.423174
_cell_length_b 26.280587
_cell_length_c 12.894537
_cell_angle_alpha 90.000000
_cell_angle_beta 157.306780
_cell_angle_gamma 90.000000
_cell_volume 2408.596055
_symmetry_space_group_name_H-M "C 2/M"
_symmetry_group_IT_number 12
_symmetry_cell_setting 'monoclinic'
loop_
_space_group_symop_operation_xyz
x,y,z
-x,y,-z
-x,-y,-z
x,-y,z
1/2+x,1/2+y,z
1/2-x,1/2+y,-z
1/2-x,1/2-y,-z
1/2+x,1/2-y,z
loop_
_atom_site_type_symbol
_atom_site_label
_atom_site_fract_x
_atom_site_fract_y
_atom_site_fract_z
Si Si1 0.292025 0.637773 0.529849
Si Si2 0.466459 0.801755 0.346475
Si Si3 0.815096 0.137475 0.317949
Si Si4 0.524062 0.057961 0.906109
Si Si5 0.486765 0.778679 0.142752
Si Si6 0.163608 0.830786 0.090191
O O1 0.348425 0.631670 0.483861
O O2 0.481749 0.634338 0.846593
O O3 0.139143 0.594516 0.352424
O O4 0.188102 0.693282 0.397110
O O5 0.500000 0.771324 0.500000
O O6 0.450202 0.773595 0.217990
O O7 0.659810 0.834916 0.598670
O O8 0.278818 0.831804 0.132058
O O9 0.000000 0.150550 0.500000
O O10 0.721288 0.086205 0.148638
O O11 0.657221 0.180533 0.094495
O O12 0.515783 0.000000 0.859282
O O13 0.500000 0.058305 0.000000
O O14 0.430344 0.724918 0.020787
#
# Coordination Sequence:
#
# PCOD9191449 Si02
#       6
#     8   8   8   8   8   8
#     4  10  20  33  49  78  98 133 166 206 254 300
#     4   8  21  33  46  70  95 142 168 209 246 276
#     4  10  21  31  52  75 102 136 167 206 250 300
#     4   8  16  33  51  74 105 128 156 202 257 309
#     4  11  19  32  48  68 106 135 171 211 242 289
#     4   9  20  32  48  69 102 133 180 201 243 288
#
# _framework density 19.928623000000002
#
# number of rings (size 3 to 8) (size 9 to 14) (size 15 to 20)
#    1.000    1.500    0.000    3.500    4.667    1.000 
#    3.000    0.000    0.000    0.000    0.000   11.667 
#    0.000    0.000    0.000    0.000    0.000    0.000 
#
# Total GULP energy -133675.375704 kJ/mol
# GULP energy per Si atom -5569.807321 kJ/mol
# Density = 1.988326 g / cm^3
# Si number density = 19.928623 Si / 1000 Ang^3
#
#
#
# Elastic Constant Matrix: (Units=GPa)
#
#
# Indices 1 2 3 4 5 6 
#
# 1 56.8728 -11.6487 1.7982 0.0000 -5.3042 0.0000
# 2 -11.6487 73.8341 25.9431 0.0000 0.0221 0.0000
# 3 1.7982 25.9431 114.6419 -0.0001 17.7056 0.0000
# 4 0.0000 0.0000 -0.0001 11.0944 0.0000 1.7084
# 5 -5.3042 0.0221 17.7056 0.0000 32.8034 0.0000
# 6 0.0000 0.0000 0.0000 1.7084 0.0000 9.4105
#
#
#
# Elastic Compliance Matrix: (Units=1/GPa)
#
#
# Indices 1 2 3 4 5 6 
#
# 1 0.018733 0.003555 -0.001708 0.000000 0.003949 0.000000
# 2 0.003555 0.015503 -0.003983 0.000000 0.002714 0.000000
# 3 -0.001708 -0.003983 0.010575 0.000000 -0.005981 0.000000
# 4 0.000000 0.000000 0.000000 0.092728 0.000000 -0.016834
# 5 0.003949 0.002714 -0.005981 0.000000 0.034350 0.000000
# 6 0.000000 0.000000 0.000000 -0.016834 0.000000 0.109320
#
#
# Mechanical properties :
#
#
# Convention : Reuss Voigt Hill
#
# Bulk Modulus (GPa) = 24.66828 30.83711 27.75269
# Shear Modulus (GPa) = 16.72262 25.94541 21.33401
#
# Velocity S-wave (km/s) = 2.89991 3.61212 3.27543
# Velocity P-wave (km/s) = 4.85982 5.73620 5.31610
#
# Compressibility (1/GPa) = 0.04053790
#
# Stress axis : x y z
#
# Youngs Moduli (GPa) = 53.38060 64.50165 94.56466
#
# Poissons Ratio (x) = -0.22927 0.16152
# Poissons Ratio (y) = -0.18974 0.37668
# Poissons Ratio (z) = 0.09118 0.25693
#
# Static dielectric constant tensor:
#      x y z
#    x 1.763550 0.000000 0.008090 
#    y 0.000000 1.695490 0.000000 
#    z 0.008090 0.000000 1.744930 
# 
# From -- ./inp_files/52000.got.cif
#   From: 2010.05.17/outbox.cif.g08.bks.cpg/sg12_26_cif.got.tgz:52000.got - 2010.06.03 13:09:07.
