data_PCOD9191528
_publ_section_title
;
Structure prediction by ZEFSAII (Michael W. Deem and Ramdas Pophale) SiO2 
 PCOD9191528
Probable space group: C 2/M
;
_chemical_formula_sum "Si O2"
_cell_formula_units_Z 56
_cell_length_a 15.626393
_cell_length_b 9.557394
_cell_length_c 28.597209
_cell_angle_alpha 90.000000
_cell_angle_beta 135.003980
_cell_angle_gamma 90.000000
_cell_volume 3019.789802
_symmetry_space_group_name_H-M "C 2/M"
_symmetry_group_IT_number 12
_symmetry_cell_setting 'monoclinic'
loop_
_space_group_symop_operation_xyz
x,y,z
-x,y,-z
-x,-y,-z
x,-y,z
1/2+x,1/2+y,z
1/2-x,1/2+y,-z
1/2-x,1/2-y,-z
1/2+x,1/2-y,z
loop_
_atom_site_type_symbol
_atom_site_label
_atom_site_fract_x
_atom_site_fract_y
_atom_site_fract_z
Si Si1 0.025315 0.331341 0.156608
Si Si2 0.351876 0.159182 0.564698
Si Si3 0.086926 0.329976 0.075258
Si Si4 0.778351 0.162760 0.303598
Si Si5 0.636256 0.667794 0.837172
Si Si6 0.566420 0.840727 0.571401
Si Si7 0.006346 0.162667 0.689748
O O1 0.009813 0.500000 0.152353
O O2 0.042223 0.287992 0.109306
O O3 0.149249 0.297407 0.232297
O O4 0.917479 0.251472 0.140257
O O5 0.250000 0.250000 0.500000
O O6 0.464426 0.154044 0.572164
O O7 0.402499 0.236992 0.630020
O O8 0.312167 0.000000 0.558498
O O9 0.085296 0.500000 0.074532
O O10 0.226017 0.290018 0.120644
O O11 0.000000 0.281342 0.000000
O O12 0.823970 0.254029 0.364567
O O13 0.878237 0.174829 0.300702
O O14 0.774101 0.000000 0.315463
O O15 0.633862 0.500000 0.844143
O O16 0.554060 0.696164 0.759751
O O17 0.500000 0.780729 0.500000
O O18 0.604613 0.000000 0.574955
O O19 0.967289 0.000000 0.673050
#
# Coordination Sequence:
#
# PCOD9191528 Si02
#       7
#     8   8   8   8   8   8   8
#     4  10  20  35  56  85 115 145 186 235 280 329
#     4  10  20  33  50  73 102 138 178 222 274 329
#     4   9  18  36  61  84 113 155 193 227 276 339
#     4   9  17  32  53  73  98 136 181 224 269 323
#     4  10  20  35  57  85 112 146 191 232 277 337
#     4   9  19  34  50  70  99 134 173 218 269 321
#     4   9  17  33  54  72  98 139 184 228 272 327
#
# _framework density 18.544336000000001
#
# number of rings (size 3 to 8) (size 9 to 14) (size 15 to 20)
#    0.000    2.571    1.429    0.429    0.000    3.714 
#    0.000    5.000    0.000    0.857    0.000    0.000 
#    0.000    0.000    0.000    0.000    0.000    0.000 
#
# Total GULP energy -156231.808669 kJ/mol
# GULP energy per Si atom -5579.707452 kJ/mol
# Density = 1.850213 g / cm^3
# Si number density = 18.544336 Si / 1000 Ang^3
#
#
#
# Elastic Constant Matrix: (Units=GPa)
#
#
# Indices 1 2 3 4 5 6 
#
# 1 87.7068 41.5161 60.4070 0.0000 -15.3231 0.0000
# 2 41.5161 52.0511 59.0444 0.0000 -2.7010 0.0000
# 3 60.4070 59.0444 142.5185 0.0000 -18.7581 0.0000
# 4 0.0000 0.0000 0.0000 16.0016 0.0000 -3.2543
# 5 -15.3231 -2.7010 -18.7581 0.0000 20.4578 0.0000
# 6 0.0000 0.0000 0.0000 -3.2543 0.0000 24.8972
#
#
#
# Elastic Compliance Matrix: (Units=1/GPa)
#
#
# Indices 1 2 3 4 5 6 
#
# 1 0.021785 -0.015463 -0.001079 0.000000 0.013287 0.000000
# 2 -0.015463 0.049201 -0.016489 0.000000 -0.020205 0.000000
# 3 -0.001079 -0.016489 0.015822 0.000000 0.011522 0.000000
# 4 0.000000 0.000000 0.000000 0.064200 0.000000 0.008392
# 5 0.013287 -0.020205 0.011522 0.000000 0.066730 0.000000
# 6 0.000000 0.000000 0.000000 0.008392 0.000000 0.041262
#
#
# Mechanical properties :
#
#
# Convention : Reuss Voigt Hill
#
# Bulk Modulus (GPa) = 48.20040 67.13460 57.66750
# Shear Modulus (GPa) = 15.06128 20.35859 17.70993
#
# Velocity S-wave (km/s) = 2.85296 3.31695 3.09367
# Velocity P-wave (km/s) = 6.07461 7.13795 6.62764
#
# Compressibility (1/GPa) = 0.02074672
#
# Stress axis : x y z
#
# Youngs Moduli (GPa) = 45.90258 20.32481 63.20415
#
# Poissons Ratio (x) = 0.31428 0.06819
# Poissons Ratio (y) = 0.70978 1.04218
# Poissons Ratio (z) = 0.04953 0.33514
#
# Static dielectric constant tensor:
#      x y z
#    x 1.632940 0.000000 -0.001820 
#    y 0.000000 1.631500 0.000000 
#    z -0.001820 0.000000 1.625630 
# 
# From -- ./inp_files/377741.got.cif
#   From: 2010.05.17/outbox.cif.g08.bks.cpg/sg12_189_cif.got.tgz:377741.got - 2010.06.03 13:09:07.
