data_PCOD9191376
_publ_section_title
;
Structure prediction by ZEFSAII (Michael W. Deem and Ramdas Pophale) SiO2 
 PCOD9191376
Probable space group: C 2/M
;
_chemical_formula_sum "Si O2"
_cell_formula_units_Z 40
_cell_length_a 14.185603
_cell_length_b 8.897410
_cell_length_c 13.632894
_cell_angle_alpha 90.000000
_cell_angle_beta 83.578781
_cell_angle_gamma 90.000000
_cell_volume 1709.882883
_symmetry_space_group_name_H-M "C 2/M"
_symmetry_group_IT_number 12
_symmetry_cell_setting 'monoclinic'
loop_
_space_group_symop_operation_xyz
x,y,z
-x,y,-z
-x,-y,-z
x,-y,z
1/2+x,1/2+y,z
1/2-x,1/2+y,-z
1/2-x,1/2-y,-z
1/2+x,1/2-y,z
loop_
_atom_site_type_symbol
_atom_site_label
_atom_site_fract_x
_atom_site_fract_y
_atom_site_fract_z
Si Si1 0.940660 0.172379 0.783658
Si Si2 0.612046 0.172209 0.017910
Si Si3 0.211957 0.825578 0.603692
Si Si4 0.834759 0.824754 0.182070
Si Si5 0.023328 0.333336 0.610301
O O1 0.052176 0.179759 0.804180
O O2 0.938367 0.281090 0.689862
O O3 0.883150 0.233706 0.882814
O O4 0.917729 0.000000 0.763579
O O5 0.637951 0.000000 0.032377
O O6 0.500000 0.174618 0.000000
O O7 0.669597 0.238917 0.919836
O O8 0.250000 0.750000 0.500000
O O9 0.222184 0.766199 0.715174
O O10 0.099784 0.798870 0.605038
O O11 0.239359 0.000000 0.599532
O O12 0.810751 0.000000 0.172583
O O13 0.057813 0.500000 0.639696
O O14 0.000000 0.347181 0.500000
#
# Coordination Sequence:
#
# PCOD9191376 Si02
#       5
#     8   8   8   8   8
#     4   9  16  26  41  61  88 120 152 189 232 279
#     4   9  15  22  36  59  86 116 148 185 230 277
#     4  10  20  33  50  71  97 128 161 198 237 281
#     4   8  15  26  39  59  87 118 150 186 230 275
#     4  10  20  33  49  70  97 127 160 199 239 280
#
# _framework density 23.393415999999998
#
# number of rings (size 3 to 8) (size 9 to 14) (size 15 to 20)
#    0.000    2.800    0.000    3.600    0.000    9.600 
#    0.000    0.000    0.000    0.000    0.000    1.400 
#    0.000    0.000    0.000    0.000    0.000    0.000 
#
# Total GULP energy -111579.448402 kJ/mol
# GULP energy per Si atom -5578.972420 kJ/mol
# Density = 2.334017 g / cm^3
# Si number density = 23.393416 Si / 1000 Ang^3
#
#
#
# Elastic Constant Matrix: (Units=GPa)
#
#
# Indices 1 2 3 4 5 6 
#
# 1 61.3482 -8.5074 24.4387 0.0000 -21.2677 0.0000
# 2 -8.5074 91.7325 81.8658 0.0000 -17.4973 0.0000
# 3 24.4387 81.8658 239.4626 0.0000 -40.4445 0.0000
# 4 0.0000 0.0000 0.0000 -20.5994 0.0000 13.6327
# 5 -21.2677 -17.4973 -40.4445 0.0000 28.0293 0.0000
# 6 0.0000 0.0000 0.0000 13.6327 0.0000 -0.3263
#
#
#
# Elastic Compliance Matrix: (Units=1/GPa)
#
#
# Indices 1 2 3 4 5 6 
#
# 1 0.025797 0.008106 -0.001644 0.000000 0.022262 0.000000
# 2 0.008106 0.018393 -0.005470 0.000000 0.009739 0.000000
# 3 -0.001644 -0.005470 0.007175 0.000000 0.005691 0.000000
# 4 0.000000 0.000000 0.000000 0.001822 0.000000 0.076106
# 5 0.022262 0.009739 0.005691 0.000000 0.066860 0.000000
# 6 0.000000 0.000000 0.000000 0.076106 0.000000 0.114998
#
#
# Mechanical properties :
#
#
# Convention : Reuss Voigt Hill
#
# Bulk Modulus (GPa) = 18.74491 65.34862 42.04676
# Shear Modulus (GPa) = 19.93274 21.07046 20.50160
#
# Velocity S-wave (km/s) = 2.92218 3.00442 2.96359
# Velocity P-wave (km/s) = 4.40634 6.32698 5.45190
#
# Compressibility (1/GPa) = 0.05334783
#
# Stress axis : x y z
#
# Youngs Moduli (GPa) = 38.76428 54.36983 139.36984
#
# Poissons Ratio (x) = -0.44072 0.22912
# Poissons Ratio (y) = -0.31422 0.76240
# Poissons Ratio (z) = 0.06373 0.29742
#
# Static dielectric constant tensor:
#      x y z
#    x 2.007600 0.000000 0.011020 
#    y 0.000000 1.822360 0.000000 
#    z 0.011020 0.000000 1.927850 
# 
# From -- ./inp_files/162478.got.cif
#   From: 2010.05.17/outbox.cif.g08.bks.cpg/sg12_82_cif.got.tgz:162478.got - 2010.06.03 13:09:07.
