data_PCOD9191112
_publ_section_title
;
Structure prediction by ZEFSAII (Michael W. Deem and Ramdas Pophale) SiO2 
 PCOD9191112
Probable space group: C 2/M
;
_chemical_formula_sum "Si O2"
_cell_formula_units_Z 40
_cell_length_a 20.495408
_cell_length_b 19.698987
_cell_length_c 9.360804
_cell_angle_alpha 90.000000
_cell_angle_beta 33.185878
_cell_angle_gamma 90.000000
_cell_volume 2068.636877
_symmetry_space_group_name_H-M "C 2/M"
_symmetry_group_IT_number 12
_symmetry_cell_setting 'monoclinic'
loop_
_space_group_symop_operation_xyz
x,y,z
-x,y,-z
-x,-y,-z
x,-y,z
1/2+x,1/2+y,z
1/2-x,1/2+y,-z
1/2-x,1/2-y,-z
1/2+x,1/2-y,z
loop_
_atom_site_type_symbol
_atom_site_label
_atom_site_fract_x
_atom_site_fract_y
_atom_site_fract_z
Si Si1 0.887636 0.717808 0.072071
Si Si2 0.055808 0.162539 0.680206
Si Si3 0.315786 0.579654 0.060933
Si Si4 0.757433 0.823118 0.911317
Si Si5 0.744454 0.156158 0.449554
O O1 0.853175 0.675660 0.995290
O O2 0.783337 0.774884 0.294119
O O3 0.869327 0.670493 0.243417
O O4 0.998332 0.766183 0.835965
O O5 0.127309 0.171010 0.402279
O O6 0.147426 0.141303 0.637224
O O7 0.946540 0.111145 0.856652
O O8 0.322652 0.500000 0.024526
O O9 0.265806 0.619716 0.015856
O O10 0.237465 0.599048 0.343092
O O11 0.750000 0.750000 0.000000
#
# Coordination Sequence:
#
# PCOD9191112 Si02
#       5
#     8   8   8   8   8
#     4   9  17  32  51  74 110 134 180 232 257 309
#     4  10  20  32  53  83 111 138 181 220 273 323
#     4  11  22  35  51  79 120 150 171 215 276 336
#     4  11  20  33  52  79 112 142 185 223 266 319
#     4   9  18  32  51  79 110 137 178 218 268 321
#
# _framework density 19.336404000000002
#
# number of rings (size 3 to 8) (size 9 to 14) (size 15 to 20)
#    0.000    2.000    4.000    3.000    0.000    3.200 
#    0.000    3.000    0.000    0.000    0.000    5.600 
#    0.000    0.000    0.000    0.000    0.000    0.000 
#
# Total GULP energy -111594.988036 kJ/mol
# GULP energy per Si atom -5579.749402 kJ/mol
# Density = 1.929239 g / cm^3
# Si number density = 19.336404 Si / 1000 Ang^3
#
#
#
# Elastic Constant Matrix: (Units=GPa)
#
#
# Indices 1 2 3 4 5 6 
#
# 1 102.4656 61.7256 42.5277 0.0000 29.9771 0.0000
# 2 61.7256 124.0592 41.6071 0.0000 20.1697 0.0000
# 3 42.5277 41.6071 92.7220 0.0000 27.4954 0.0000
# 4 0.0000 0.0000 0.0000 16.8122 0.0000 3.1459
# 5 29.9771 20.1697 27.4954 0.0000 34.2261 0.0000
# 6 0.0000 0.0000 0.0000 3.1459 0.0000 22.2965
#
#
#
# Elastic Compliance Matrix: (Units=1/GPa)
#
#
# Indices 1 2 3 4 5 6 
#
# 1 0.017301 -0.006284 -0.002258 0.000000 -0.009636 0.000000
# 2 -0.006284 0.011988 -0.002670 0.000000 0.000585 0.000000
# 3 -0.002258 -0.002670 0.015708 0.000000 -0.009067 0.000000
# 4 0.000000 0.000000 0.000000 0.061094 0.000000 -0.008620
# 5 -0.009636 0.000585 -0.009067 0.000000 0.044597 0.000000
# 6 0.000000 0.000000 0.000000 -0.008620 0.000000 0.046066
#
#
# Mechanical properties :
#
#
# Convention : Reuss Voigt Hill
#
# Bulk Modulus (GPa) = 44.30364 67.88530 56.09447
# Shear Modulus (GPa) = 22.05526 26.22604 24.14065
#
# Velocity S-wave (km/s) = 3.38095 3.68680 3.53718
# Velocity P-wave (km/s) = 6.18085 7.30117 6.76424
#
# Compressibility (1/GPa) = 0.02257151
#
# Stress axis : x y z
#
# Youngs Moduli (GPa) = 57.79880 83.41690 63.66324
#
# Poissons Ratio (x) = 0.52422 0.14375
# Poissons Ratio (y) = 0.36323 0.17001
# Poissons Ratio (z) = 0.13051 0.22276
#
# Static dielectric constant tensor:
#      x y z
#    x 1.793350 0.000000 -0.036140 
#    y 0.000000 1.652150 0.000000 
#    z -0.036140 0.000000 1.737750 
# 
# From -- ./inp_files/87636.got.cif
#   From: 2010.05.17/outbox.cif.g08.bks.cpg/sg12_44_cif.got.tgz:87636.got - 2010.06.03 13:09:07.
