data_PCOD9191179
_publ_section_title
;
Structure prediction by ZEFSAII (Michael W. Deem and Ramdas Pophale) SiO2 
 PCOD9191179
Probable space group: C 2/M
;
_chemical_formula_sum "Si O2"
_cell_formula_units_Z 56
_cell_length_a 27.552001
_cell_length_b 18.236981
_cell_length_c 7.071257
_cell_angle_alpha 90.000000
_cell_angle_beta 127.600814
_cell_angle_gamma 90.000000
_cell_volume 2815.022952
_symmetry_space_group_name_H-M "C 2/M"
_symmetry_group_IT_number 12
_symmetry_cell_setting 'monoclinic'
loop_
_space_group_symop_operation_xyz
x,y,z
-x,y,-z
-x,-y,-z
x,-y,z
1/2+x,1/2+y,z
1/2-x,1/2+y,-z
1/2-x,1/2-y,-z
1/2+x,1/2-y,z
loop_
_atom_site_type_symbol
_atom_site_label
_atom_site_fract_x
_atom_site_fract_y
_atom_site_fract_z
Si Si1 0.559033 0.311017 0.230646
Si Si2 0.058703 0.694225 0.535253
Si Si3 0.189928 0.165098 0.680883
Si Si4 0.757784 0.819168 0.784402
Si Si5 0.631129 0.770327 0.080816
Si Si6 0.845847 0.417650 0.374876
Si Si7 0.805318 0.417125 0.834159
O O1 0.537559 0.260221 0.352308
O O2 0.620297 0.349598 0.455789
O O3 0.585390 0.258437 0.128826
O O4 0.500000 0.350983 0.000000
O O5 0.096819 0.637161 0.499736
O O6 0.000000 0.660063 0.500000
O O7 0.102186 0.727580 0.802171
O O8 0.236337 0.113867 0.674999
O O9 0.211328 0.250201 0.704606
O O10 0.205363 0.156960 0.939237
O O11 0.810036 0.784055 0.777372
O O12 0.652947 0.853969 0.157987
O O13 0.862107 0.500000 0.467630
O O14 0.788374 0.386300 0.356941
O O15 0.824222 0.418028 0.102527
O O16 0.811106 0.500000 0.778415
#
# Coordination Sequence:
#
# PCOD9191179 Si02
#       7
#     8   8   8   8   8   8   8
#     4  12  22  33  53  80 104 140 186 214 258 316
#     4  11  20  36  52  73 108 144 182 220 252 298
#     4   9  16  30  53  76 103 133 171 221 262 312
#     4   9  15  31  54  78 104 134 170 221 275 309
#     4  10  20  32  56  79 105 138 171 223 268 311
#     4   9  17  31  54  79 106 142 178 213 261 317
#     4   8  16  31  53  79 104 135 170 213 272 320
#
# _framework density 19.893265
#
# number of rings (size 3 to 8) (size 9 to 14) (size 15 to 20)
#    0.000    2.286    4.286    1.714    0.000    2.571 
#    0.000    0.714    0.000    1.286    0.000    0.000 
#    0.000    5.714    0.000    0.000    0.000    0.000 
#
# Total GULP energy -156088.158025 kJ/mol
# GULP energy per Si atom -5574.577072 kJ/mol
# Density = 1.984799 g / cm^3
# Si number density = 19.893265 Si / 1000 Ang^3
#
#
#
# Elastic Constant Matrix: (Units=GPa)
#
#
# Indices 1 2 3 4 5 6 
#
# 1 73.7717 7.6440 11.2692 0.0000 14.6314 0.0000
# 2 7.6440 22.2381 -18.3701 0.0000 -6.4416 0.0000
# 3 11.2692 -18.3701 80.5714 0.0000 10.0162 0.0000
# 4 0.0000 0.0000 0.0000 8.1796 0.0000 2.3723
# 5 14.6314 -6.4416 10.0162 0.0000 36.1414 0.0000
# 6 0.0000 0.0000 0.0000 2.3723 0.0000 11.5231
#
#
#
# Elastic Compliance Matrix: (Units=1/GPa)
#
#
# Indices 1 2 3 4 5 6 
#
# 1 0.016874 -0.011333 -0.003981 0.000000 -0.007748 0.000000
# 2 -0.011333 0.064577 0.014818 0.000000 0.011991 0.000000
# 3 -0.003981 0.014818 0.016382 0.000000 -0.000288 0.000000
# 4 0.000000 0.000000 0.000000 0.130019 0.000000 -0.026768
# 5 -0.007748 0.011991 -0.000288 0.000000 0.033023 0.000000
# 6 0.000000 0.000000 0.000000 -0.026768 0.000000 0.092293
#
#
# Mechanical properties :
#
#
# Convention : Reuss Voigt Hill
#
# Bulk Modulus (GPa) = 10.32612 19.74084 15.03348
# Shear Modulus (GPa) = 12.93857 22.90469 17.92163
#
# Velocity S-wave (km/s) = 2.55306 3.39688 3.00474
# Velocity P-wave (km/s) = 3.72731 5.03289 4.42848
#
# Compressibility (1/GPa) = 0.09684181
#
# Stress axis : x y z
#
# Youngs Moduli (GPa) = 59.26117 15.48531 61.04143
#
# Poissons Ratio (x) = 0.17550 0.24300
# Poissons Ratio (y) = 0.67161 -0.90450
# Poissons Ratio (z) = 0.23591 -0.22946
#
# Static dielectric constant tensor:
#      x y z
#    x 1.725780 0.000000 -0.006320 
#    y 0.000000 1.678860 0.000000 
#    z -0.006320 0.000000 1.789060 
# 
# From -- ./inp_files/26330.got.cif
#   From: 2010.05.17/outbox.cif.g08.bks.cpg/sg12_14_cif.got.tgz:26330.got - 2010.06.03 13:09:07.
