data_PCOD9191701
_publ_section_title
;
Structure prediction by ZEFSAII (Michael W. Deem and Ramdas Pophale) SiO2 
 PCOD9191701
Probable space group: C 2/M
;
_chemical_formula_sum "Si O2"
_cell_formula_units_Z 56
_cell_length_a 14.806589
_cell_length_b 9.868537
_cell_length_c 18.186931
_cell_angle_alpha 90.000000
_cell_angle_beta 92.297045
_cell_angle_gamma 90.000000
_cell_volume 2655.327557
_symmetry_space_group_name_H-M "C 2/M"
_symmetry_group_IT_number 12
_symmetry_cell_setting 'monoclinic'
loop_
_space_group_symop_operation_xyz
x,y,z
-x,y,-z
-x,-y,-z
x,-y,z
1/2+x,1/2+y,z
1/2-x,1/2+y,-z
1/2-x,1/2-y,-z
1/2+x,1/2-y,z
loop_
_atom_site_type_symbol
_atom_site_label
_atom_site_fract_x
_atom_site_fract_y
_atom_site_fract_z
Si Si1 0.069393 0.340401 0.438370
Si Si2 0.058764 0.154709 0.804260
Si Si3 0.156251 0.849686 0.219909
Si Si4 0.122370 0.846102 0.965298
Si Si5 0.274798 0.343070 0.610295
Si Si6 0.093253 0.658733 0.673182
Si Si7 0.825799 0.346647 0.910901
O O1 0.090064 0.500000 0.449602
O O2 0.006779 0.326104 0.363634
O O3 0.000000 0.298185 0.500000
O O4 0.159931 0.253854 0.433430
O O5 0.073484 0.197526 0.888766
O O6 0.103604 0.251258 0.745714
O O7 0.952379 0.152727 0.784178
O O8 0.093718 0.000000 0.799422
O O9 0.191293 0.835075 0.303799
O O10 0.185758 0.732231 0.165878
O O11 0.184901 0.000000 0.193675
O O12 0.227647 0.852555 0.945568
O O13 0.096193 0.000000 0.984608
O O14 0.113647 0.744092 0.032587
O O15 0.282859 0.500000 0.586592
O O16 0.169114 0.306499 0.614569
O O17 0.107096 0.500000 0.690693
O O18 0.859107 0.500000 0.901836
#
# Coordination Sequence:
#
# PCOD9191701 Si02
#       7
#     8   8   8   8   8   8   8
#     4  10  22  40  60  86 121 155 187 228 281 339
#     4  10  20  35  56  80 107 144 190 234 280 339
#     4  10  20  34  53  77 108 142 180 231 284 334
#     4   9  19  35  52  72 102 140 183 231 281 334
#     4  10  21  38  60  87 116 150 193 236 282 335
#     4  10  21  37  59  86 117 151 189 237 286 331
#     4  10  20  33  51  75 103 139 184 231 280 335
#
# _framework density 21.089676000000001
#
# number of rings (size 3 to 8) (size 9 to 14) (size 15 to 20)
#    0.000    2.143    1.429    1.286    0.000    4.286 
#    0.000    2.857    0.000    0.000    0.000    0.000 
#    0.000    0.000    0.000    0.000    0.000    0.000 
#
# Total GULP energy -156442.346581 kJ/mol
# GULP energy per Si atom -5587.226664 kJ/mol
# Density = 2.104167 g / cm^3
# Si number density = 21.089676 Si / 1000 Ang^3
#
#
#
# Elastic Constant Matrix: (Units=GPa)
#
#
# Indices 1 2 3 4 5 6 
#
# 1 80.7124 27.3859 -0.4831 0.0000 -12.6024 0.0000
# 2 27.3859 99.0926 43.5757 0.0000 -30.0538 0.0000
# 3 -0.4831 43.5757 55.8072 0.0000 -1.1095 0.0000
# 4 0.0000 0.0000 0.0000 28.5418 0.0000 -9.3649
# 5 -12.6024 -30.0538 -1.1095 0.0000 31.7340 0.0000
# 6 0.0000 0.0000 0.0000 -9.3649 0.0000 17.4935
#
#
#
# Elastic Compliance Matrix: (Units=1/GPa)
#
#
# Indices 1 2 3 4 5 6 
#
# 1 0.014522 -0.006141 0.004923 0.000000 0.000123 0.000000
# 2 -0.006141 0.028772 -0.022041 0.000000 0.024040 0.000000
# 3 0.004923 -0.022041 0.034820 0.000000 -0.017702 0.000000
# 4 0.000000 0.000000 0.000000 0.042502 0.000000 0.022753
# 5 0.000123 0.024040 -0.017702 0.000000 0.053709 0.000000
# 6 0.000000 0.000000 0.000000 0.022753 0.000000 0.069345
#
#
# Mechanical properties :
#
#
# Convention : Reuss Voigt Hill
#
# Bulk Modulus (GPa) = 31.64955 41.84103 36.74529
# Shear Modulus (GPa) = 16.62675 26.56276 21.59476
#
# Velocity S-wave (km/s) = 2.81086 3.55281 3.20339
# Velocity P-wave (km/s) = 5.05710 6.05910 5.58063
#
# Compressibility (1/GPa) = 0.03159603
#
# Stress axis : x y z
#
# Youngs Moduli (GPa) = 68.86094 34.75561 28.71908
#
# Poissons Ratio (x) = 0.21343 -0.14139
# Poissons Ratio (y) = 0.42287 0.63301
# Poissons Ratio (z) = -0.33901 0.76606
#
# Static dielectric constant tensor:
#      x y z
#    x 1.787100 0.000000 0.017330 
#    y 0.000000 1.739440 0.000000 
#    z 0.017330 0.000000 1.756230 
# 
# From -- ./inp_files/308967.got.cif
#   From: 2010.05.17/outbox.cif.g08.bks.cpg/sg12_155_cif.got.tgz:308967.got - 2010.06.03 13:09:07.
