data_PCOD9191446
_publ_section_title
;
Structure prediction by ZEFSAII (Michael W. Deem and Ramdas Pophale) SiO2 
 PCOD9191446
Probable space group: C 2/M
;
_chemical_formula_sum "Si O2"
_cell_formula_units_Z 56
_cell_length_a 22.196830
_cell_length_b 7.995992
_cell_length_c 19.650317
_cell_angle_alpha 90.000000
_cell_angle_beta 133.366315
_cell_angle_gamma 90.000000
_cell_volume 2535.446383
_symmetry_space_group_name_H-M "C 2/M"
_symmetry_group_IT_number 12
_symmetry_cell_setting 'monoclinic'
loop_
_space_group_symop_operation_xyz
x,y,z
-x,y,-z
-x,-y,-z
x,-y,z
1/2+x,1/2+y,z
1/2-x,1/2+y,-z
1/2-x,1/2-y,-z
1/2+x,1/2-y,z
loop_
_atom_site_type_symbol
_atom_site_label
_atom_site_fract_x
_atom_site_fract_y
_atom_site_fract_z
Si Si1 0.242615 0.796406 0.285939
Si Si2 0.606768 0.301848 0.278208
Si Si3 0.484252 0.306190 0.291382
Si Si4 0.427764 0.198790 0.395765
Si Si5 0.699576 0.803582 0.108452
Si Si6 0.481746 0.201842 0.063262
Si Si7 0.176689 0.688183 0.894480
O O1 0.194618 0.739906 0.316843
O O2 0.336592 0.736469 0.345967
O O3 0.190657 0.729218 0.181307
O O4 0.240806 0.000000 0.282940
O O5 0.615614 0.500000 0.296481
O O6 0.563347 0.231779 0.312603
O O7 0.541160 0.276939 0.165891
O O8 0.499344 0.500000 0.317887
O O9 0.455361 0.225320 0.339351
O O10 0.406477 0.291824 0.179319
O O11 0.500000 0.268522 0.500000
O O12 0.422893 0.000000 0.403347
O O13 0.776478 0.697332 0.141751
O O14 0.717064 0.000000 0.110944
O O15 0.615642 0.759463 0.003674
O O16 0.490673 0.000000 0.072505
O O17 0.500000 0.256257 0.000000
O O18 0.153267 0.500000 0.894077
O O19 0.250000 0.750000 0.000000
#
# Coordination Sequence:
#
# PCOD9191446 Si02
#       7
#     8   8   8   8   8   8   8
#     4  10  20  37  60  85 115 153 196 243 297 358
#     4  10  22  37  56  84 119 161 202 246 299 356
#     4  11  23  40  61  89 124 159 201 252 307 365
#     4  10  22  42  68  94 118 152 201 255 313 374
#     4  11  21  34  54  81 114 154 201 250 296 348
#     4  10  20  33  49  77 117 160 203 248 293 345
#     4  12  24  38  56  82 119 162 206 250 300 355
#
# _framework density 22.086839999999999
#
# number of rings (size 3 to 8) (size 9 to 14) (size 15 to 20)
#    0.000    1.429    2.857    3.000    0.000    5.143 
#    0.000    0.714    0.000    0.000    0.000    0.000 
#    0.000    0.000    0.000    0.000    0.000    0.000 
#
# Total GULP energy -156392.902747 kJ/mol
# GULP energy per Si atom -5585.460812 kJ/mol
# Density = 2.203657 g / cm^3
# Si number density = 22.086840 Si / 1000 Ang^3
#
#
#
# Elastic Constant Matrix: (Units=GPa)
#
#
# Indices 1 2 3 4 5 6 
#
# 1 174.1439 -1.5492 40.9597 0.0000 12.2779 0.0000
# 2 -1.5492 24.8486 -2.7738 0.0000 5.2643 0.0000
# 3 40.9597 -2.7738 78.9322 0.0000 7.3330 0.0000
# 4 0.0000 0.0000 0.0000 11.1563 0.0000 -4.1021
# 5 12.2779 5.2643 7.3330 0.0000 19.0721 0.0000
# 6 0.0000 0.0000 0.0000 -4.1021 0.0000 22.1008
#
#
#
# Elastic Compliance Matrix: (Units=1/GPa)
#
#
# Indices 1 2 3 4 5 6 
#
# 1 0.006726 0.000773 -0.003154 0.000000 -0.003331 0.000000
# 2 0.000773 0.043392 0.002367 0.000000 -0.013385 0.000000
# 3 -0.003154 0.002367 0.014789 0.000000 -0.004310 0.000000
# 4 0.000000 0.000000 0.000000 0.096201 0.000000 0.017855
# 5 -0.003331 -0.013385 -0.004310 0.000000 0.059928 0.000000
# 6 0.000000 0.000000 0.000000 0.017855 0.000000 0.048561
#
#
# Mechanical properties :
#
#
# Convention : Reuss Voigt Hill
#
# Bulk Modulus (GPa) = 15.41307 39.02200 27.21753
# Shear Modulus (GPa) = 17.16736 26.55171 21.85953
#
# Velocity S-wave (km/s) = 2.79097 3.47097 3.14938
# Velocity P-wave (km/s) = 4.16888 5.81114 5.05712
#
# Compressibility (1/GPa) = 0.06488002
#
# Stress axis : x y z
#
# Youngs Moduli (GPa) = 148.68069 23.04579 67.61726
#
# Poissons Ratio (x) = -0.01781 0.21324
# Poissons Ratio (y) = -0.11492 -0.16007
# Poissons Ratio (z) = 0.46888 -0.05456
#
# Static dielectric constant tensor:
#      x y z
#    x 1.931820 0.000000 -0.007580 
#    y 0.000000 1.774890 0.000000 
#    z -0.007580 0.000000 1.789910 
# 
# From -- ./inp_files/320231.got.cif
#   From: 2010.05.17/outbox.cif.g08.bks.cpg/sg12_161_cif.got.tgz:320231.got - 2010.06.03 13:09:07.
