data_PCOD9191970
_publ_section_title
;
Structure prediction by ZEFSAII (Michael W. Deem and Ramdas Pophale) SiO2 
 PCOD9191970
Probable space group: C 2/M
;
_chemical_formula_sum "Si O2"
_cell_formula_units_Z 40
_cell_length_a 31.961265
_cell_length_b 8.540248
_cell_length_c 16.028580
_cell_angle_alpha 90.000000
_cell_angle_beta 27.783392
_cell_angle_gamma 90.000000
_cell_volume 2039.373371
_symmetry_space_group_name_H-M "C 2/M"
_symmetry_group_IT_number 12
_symmetry_cell_setting 'monoclinic'
loop_
_space_group_symop_operation_xyz
x,y,z
-x,y,-z
-x,-y,-z
x,-y,z
1/2+x,1/2+y,z
1/2-x,1/2+y,-z
1/2-x,1/2-y,-z
1/2+x,1/2-y,z
loop_
_atom_site_type_symbol
_atom_site_label
_atom_site_fract_x
_atom_site_fract_y
_atom_site_fract_z
Si Si1 0.397581 0.690072 0.927126
Si Si2 0.543799 0.678348 0.004157
Si Si3 0.752612 0.675968 0.586473
Si Si4 0.019036 0.191265 0.560337
Si Si5 0.703486 0.686579 0.319741
O O1 0.398070 0.500000 0.930842
O O2 0.457337 0.747300 0.900974
O O3 0.442832 0.738866 0.760948
O O4 0.295722 0.744941 0.119715
O O5 0.505793 0.500000 0.076144
O O6 0.500000 0.756182 0.000000
O O7 0.649212 0.668908 0.798274
O O8 0.788414 0.500000 0.518336
O O9 0.750000 0.750000 0.500000
O O10 0.802378 0.767960 0.572229
O O11 0.115804 0.241609 0.424597
O O12 0.000000 0.244352 0.500000
O O13 0.019457 0.000000 0.558969
O O14 0.708283 0.500000 0.305623
#
# Coordination Sequence:
#
# PCOD9191970 Si02
#       5
#     8   8   8   8   8
#     4   9  18  34  55  77 107 144 182 228 275 327
#     4   8  15  27  47  72  97 131 177 214 250 310
#     4  10  20  33  52  78 110 144 181 222 269 325
#     4   9  19  35  57  83 107 142 192 232 271 333
#     4  10  20  35  56  80 111 145 182 229 279 328
#
# _framework density 19.613866999999999
#
# number of rings (size 3 to 8) (size 9 to 14) (size 15 to 20)
#    0.000    2.800    0.000    2.400    2.800    0.800 
#    0.000    2.000    0.000    7.200    0.000    0.000 
#    0.000    0.000    0.000    0.000    0.000    0.000 
#
# Total GULP energy -111472.799430 kJ/mol
# GULP energy per Si atom -5573.639972 kJ/mol
# Density = 1.956922 g / cm^3
# Si number density = 19.613867 Si / 1000 Ang^3
#
#
#
# Elastic Constant Matrix: (Units=GPa)
#
#
# Indices 1 2 3 4 5 6 
#
# 1 197.6803 22.9902 84.1983 0.0000 21.3208 0.0000
# 2 22.9902 23.4592 17.9021 0.0000 3.8872 0.0000
# 3 84.1983 17.9021 96.5440 0.0000 22.3254 0.0000
# 4 0.0000 0.0000 0.0000 19.9157 0.0000 -1.2561
# 5 21.3208 3.8872 22.3254 0.0000 38.5707 0.0000
# 6 0.0000 0.0000 0.0000 -1.2561 0.0000 17.2103
#
#
#
# Elastic Compliance Matrix: (Units=1/GPa)
#
#
# Indices 1 2 3 4 5 6 
#
# 1 0.008235 -0.003023 -0.006511 0.000000 -0.000479 0.000000
# 2 -0.003023 0.050767 -0.006905 0.000000 0.000551 0.000000
# 3 -0.006511 -0.006905 0.018846 0.000000 -0.006614 0.000000
# 4 0.000000 0.000000 0.000000 0.050444 0.000000 0.003682
# 5 -0.000479 0.000551 -0.006614 0.000000 0.029964 0.000000
# 6 0.000000 0.000000 0.000000 0.003682 0.000000 0.058373
#
#
# Mechanical properties :
#
#
# Convention : Reuss Voigt Hill
#
# Bulk Modulus (GPa) = 22.23641 63.09610 42.66625
# Shear Modulus (GPa) = 18.90384 27.97886 23.44135
#
# Velocity S-wave (km/s) = 3.10788 3.78098 3.46083
# Velocity P-wave (km/s) = 4.92344 7.16240 6.14574
#
# Compressibility (1/GPa) = 0.04497129
#
# Stress axis : x y z
#
# Youngs Moduli (GPa) = 121.43352 19.69768 53.06199
#
# Poissons Ratio (x) = 0.05954 0.34547
# Poissons Ratio (y) = 0.36704 0.36641
# Poissons Ratio (z) = 0.79061 0.13602
#
# Static dielectric constant tensor:
#      x y z
#    x 1.710510 0.000000 0.007970 
#    y 0.000000 1.686890 0.000000 
#    z 0.007970 0.000000 1.678590 
# 
# From -- ./inp_files/211441.got.cif
#   From: 2010.05.17/outbox.cif.g08.bks.cpg/sg12_106_cif.got.tgz:211441.got - 2010.06.03 13:09:07.
