data_PCOD9191937
_publ_section_title
;
Structure prediction by ZEFSAII (Michael W. Deem and Ramdas Pophale) SiO2 
 PCOD9191937
Probable space group: C 2/M
;
_chemical_formula_sum "Si O2"
_cell_formula_units_Z 56
_cell_length_a 14.572688
_cell_length_b 8.758001
_cell_length_c 32.089076
_cell_angle_alpha 90.000000
_cell_angle_beta 130.843472
_cell_angle_gamma 90.000000
_cell_volume 3098.205828
_symmetry_space_group_name_H-M "C 2/M"
_symmetry_group_IT_number 12
_symmetry_cell_setting 'monoclinic'
loop_
_space_group_symop_operation_xyz
x,y,z
-x,y,-z
-x,-y,-z
x,-y,z
1/2+x,1/2+y,z
1/2-x,1/2+y,-z
1/2-x,1/2-y,-z
1/2+x,1/2-y,z
loop_
_atom_site_type_symbol
_atom_site_label
_atom_site_fract_x
_atom_site_fract_y
_atom_site_fract_z
Si Si1 0.841501 0.816998 0.060669
Si Si2 0.673298 0.683849 0.847375
Si Si3 0.881230 0.183955 0.850098
Si Si4 0.691295 0.683860 0.641440
Si Si5 0.801915 0.183706 0.452432
Si Si6 0.408918 0.815971 0.766755
Si Si7 0.560387 0.818252 0.431416
O O1 0.809803 0.772327 0.098861
O O2 0.982104 0.773588 0.094763
O O3 0.835283 0.000000 0.056902
O O4 0.750000 0.750000 0.000000
O O5 0.671978 0.500000 0.844392
O O6 0.778823 0.750914 0.849996
O O7 0.541173 0.748216 0.795919
O O8 0.870312 0.251518 0.800378
O O9 0.874004 0.000000 0.846096
O O10 0.685762 0.500000 0.640122
O O11 0.697782 0.734373 0.595204
O O12 0.808102 0.728782 0.702866
O O13 0.565578 0.749101 0.621237
O O14 0.672733 0.222997 0.434907
O O15 0.903920 0.254232 0.512502
O O16 0.816032 0.000000 0.457759
O O17 0.416305 0.000000 0.770656
O O18 0.551905 0.000000 0.430754
#
# Coordination Sequence:
#
# PCOD9191937 Si02
#       7
#     8   8   8   8   8   8   8
#     4   9  20  36  55  82 115 146 181 224 267 315
#     4  10  21  38  58  82 111 146 185 225 271 320
#     4  10  21  38  58  81 110 147 185 223 271 323
#     4  10  21  36  54  76 103 137 174 212 264 322
#     4   9  19  36  53  71 102 139 170 208 261 320
#     4  10  21  37  56  80 108 141 183 229 274 323
#     4  10  20  33  52  78 104 133 172 216 261 311
#
# _framework density 18.074977000000001
#
# number of rings (size 3 to 8) (size 9 to 14) (size 15 to 20)
#    0.000    2.286    0.000    3.000    0.000    9.143 
#    0.000    4.286    0.000    0.000    0.000    0.000 
#    0.000    0.000    0.000    0.000    0.000    0.000 
#
# Total GULP energy -156304.459517 kJ/mol
# GULP energy per Si atom -5582.302126 kJ/mol
# Density = 1.803384 g / cm^3
# Si number density = 18.074977 Si / 1000 Ang^3
#
#
#
# Elastic Constant Matrix: (Units=GPa)
#
#
# Indices 1 2 3 4 5 6 
#
# 1 137.5034 37.9605 64.4772 0.0000 12.3385 0.0000
# 2 37.9605 36.4244 36.0119 0.0000 5.5729 0.0000
# 3 64.4772 36.0119 127.3103 0.0000 21.7051 0.0000
# 4 0.0000 0.0000 0.0000 31.5381 0.0000 4.8531
# 5 12.3385 5.5729 21.7051 0.0000 13.0842 0.0000
# 6 0.0000 0.0000 0.0000 4.8531 0.0000 29.6575
#
#
#
# Elastic Compliance Matrix: (Units=1/GPa)
#
#
# Indices 1 2 3 4 5 6 
#
# 1 0.011150 -0.008426 -0.002904 0.000000 -0.002108 0.000000
# 2 -0.008426 0.044531 -0.008993 0.000000 0.003898 0.000000
# 3 -0.002904 -0.008993 0.014989 0.000000 -0.018295 0.000000
# 4 0.000000 0.000000 0.000000 0.032527 0.000000 -0.005323
# 5 -0.002108 0.003898 -0.018295 0.000000 0.107106 0.000000
# 6 0.000000 0.000000 0.000000 -0.005323 0.000000 0.034589
#
#
# Mechanical properties :
#
#
# Convention : Reuss Voigt Hill
#
# Bulk Modulus (GPa) = 33.30890 64.23747 48.77319
# Shear Modulus (GPa) = 16.91788 25.70852 21.31320
#
# Velocity S-wave (km/s) = 3.06270 3.77547 3.43761
# Velocity P-wave (km/s) = 5.56552 7.39068 6.54206
#
# Compressibility (1/GPa) = 0.03002200
#
# Stress axis : x y z
#
# Youngs Moduli (GPa) = 89.68922 22.45636 66.71725
#
# Poissons Ratio (x) = 0.18922 0.19374
# Poissons Ratio (y) = 0.75575 0.60001
# Poissons Ratio (z) = 0.26045 0.20196
#
# Static dielectric constant tensor:
#      x y z
#    x 1.615660 0.000000 -0.000530 
#    y 0.000000 1.606650 0.000000 
#    z -0.000530 0.000000 1.600330 
# 
# From -- ./inp_files/337862.got.cif
#   From: 2010.05.17/outbox.cif.g08.bks.cpg/sg12_169_cif.got.tgz:337862.got - 2010.06.03 13:09:07.
