data_PCOD9191685
_publ_section_title
;
Structure prediction by ZEFSAII (Michael W. Deem and Ramdas Pophale) SiO2 
 PCOD9191685
Probable space group: C 2/M
;
_chemical_formula_sum "Si O2"
_cell_formula_units_Z 48
_cell_length_a 28.865229
_cell_length_b 8.664447
_cell_length_c 11.626295
_cell_angle_alpha 90.000000
_cell_angle_beta 78.050856
_cell_angle_gamma 90.000000
_cell_volume 2844.745028
_symmetry_space_group_name_H-M "C 2/M"
_symmetry_group_IT_number 12
_symmetry_cell_setting 'monoclinic'
loop_
_space_group_symop_operation_xyz
x,y,z
-x,y,-z
-x,-y,-z
x,-y,z
1/2+x,1/2+y,z
1/2-x,1/2+y,-z
1/2-x,1/2-y,-z
1/2+x,1/2-y,z
loop_
_atom_site_type_symbol
_atom_site_label
_atom_site_fract_x
_atom_site_fract_y
_atom_site_fract_z
Si Si1 0.793462 0.316343 0.904018
Si Si2 0.822029 0.315386 0.413536
Si Si3 0.406882 0.312726 0.223195
Si Si4 0.509485 0.320890 0.132881
Si Si5 0.888599 0.187348 0.966580
Si Si6 0.275705 0.684417 0.661627
O O1 0.792755 0.500000 0.911047
O O2 0.842334 0.253340 0.931194
O O3 0.787382 0.262328 0.776069
O O4 0.750000 0.250000 0.000000
O O5 0.823100 0.500000 0.424484
O O6 0.869846 0.254543 0.331830
O O7 0.777460 0.275099 0.353708
O O8 0.810241 0.240497 0.542351
O O9 0.407067 0.500000 0.229349
O O10 0.461185 0.255960 0.211273
O O11 0.391114 0.272108 0.100865
O O12 0.512041 0.500000 0.168038
O O13 0.562303 0.255690 0.117553
O O14 0.500000 0.321556 0.000000
O O15 0.888099 0.000000 0.960928
O O16 0.278460 0.500000 0.671969
#
# Coordination Sequence:
#
# PCOD9191685 Si02
#       6
#     8   8   8   8   8   8
#     4  12  24  36  51  73 102 133 166 201 242 292
#     4  10  20  33  51  75 101 128 161 204 249 292
#     4   9  16  28  50  77 102 131 167 203 241 289
#     4   7  12  25  46  72  99 128 164 203 241 285
#     4   9  17  31  51  74 102 134 167 204 245 288
#     4  10  21  37  54  72  97 130 167 203 244 293
#
# _framework density 16.873218000000001
#
# number of rings (size 3 to 8) (size 9 to 14) (size 15 to 20)
#    0.000    2.500    0.000    5.500    0.000    5.333 
#    0.000    0.833    0.000    4.000    0.000    7.000 
#    0.000    0.000    0.000    0.000    0.000    0.000 
#
# Total GULP energy -133803.278028 kJ/mol
# GULP energy per Si atom -5575.136584 kJ/mol
# Density = 1.683481 g / cm^3
# Si number density = 16.873218 Si / 1000 Ang^3
#
#
#
# Elastic Constant Matrix: (Units=GPa)
#
#
# Indices 1 2 3 4 5 6 
#
# 1 159.9023 41.6512 82.7619 0.0000 -24.6090 0.0000
# 2 41.6512 41.8301 33.8737 0.0000 -2.3543 0.0000
# 3 82.7619 33.8737 92.7619 0.0000 -16.9050 0.0000
# 4 0.0000 0.0000 0.0000 23.0977 0.0000 -2.7389
# 5 -24.6090 -2.3543 -16.9050 0.0000 33.2203 0.0000
# 6 0.0000 0.0000 0.0000 -2.7389 0.0000 22.0090
#
#
#
# Elastic Compliance Matrix: (Units=1/GPa)
#
#
# Indices 1 2 3 4 5 6 
#
# 1 0.012896 -0.005624 -0.008580 0.000000 0.004789 0.000000
# 2 -0.005624 0.036963 -0.009658 0.000000 -0.006461 0.000000
# 3 -0.008580 -0.009658 0.022792 0.000000 0.004558 0.000000
# 4 0.000000 0.000000 0.000000 0.043943 0.000000 0.005468
# 5 0.004789 -0.006461 0.004558 0.000000 0.035511 0.000000
# 6 0.000000 0.000000 0.000000 0.005468 0.000000 0.046117
#
#
# Mechanical properties :
#
#
# Convention : Reuss Voigt Hill
#
# Bulk Modulus (GPa) = 40.11312 67.89643 54.00477
# Shear Modulus (GPa) = 19.66530 24.74589 22.20559
#
# Velocity S-wave (km/s) = 3.41761 3.83375 3.63164
# Velocity P-wave (km/s) = 6.27680 7.74102 7.04704
#
# Compressibility (1/GPa) = 0.02492950
#
# Stress axis : x y z
#
# Youngs Moduli (GPa) = 77.54088 27.05404 43.87418
#
# Poissons Ratio (x) = 0.15215 0.37643
# Poissons Ratio (y) = 0.43608 0.42372
# Poissons Ratio (z) = 0.66528 0.26128
#
# Static dielectric constant tensor:
#      x y z
#    x 1.586900 0.000000 -0.016800 
#    y 0.000000 1.569680 0.000000 
#    z -0.016800 0.000000 1.541220 
# 
# From -- ./inp_files/179182.got.cif
#   From: 2010.05.17/outbox.cif.g08.bks.cpg/sg12_90_cif.got.tgz:179182.got - 2010.06.03 13:09:07.
