data_PCOD9191627
_publ_section_title
;
Structure prediction by ZEFSAII (Michael W. Deem and Ramdas Pophale) SiO2 
 PCOD9191627
Probable space group: C 2/M
;
_chemical_formula_sum "Si O2"
_cell_formula_units_Z 64
_cell_length_a 25.190158
_cell_length_b 7.626154
_cell_length_c 29.811093
_cell_angle_alpha 90.000000
_cell_angle_beta 150.246500
_cell_angle_gamma 90.000000
_cell_volume 2842.051740
_symmetry_space_group_name_H-M "C 2/M"
_symmetry_group_IT_number 12
_symmetry_cell_setting 'monoclinic'
loop_
_space_group_symop_operation_xyz
x,y,z
-x,y,-z
-x,-y,-z
x,-y,z
1/2+x,1/2+y,z
1/2-x,1/2+y,-z
1/2-x,1/2-y,-z
1/2+x,1/2-y,z
loop_
_atom_site_type_symbol
_atom_site_label
_atom_site_fract_x
_atom_site_fract_y
_atom_site_fract_z
Si Si1 0.405773 0.286403 0.965248
Si Si2 0.517119 0.701077 0.132921
Si Si3 0.907753 0.211037 0.465884
Si Si4 0.184272 0.703449 0.511990
Si Si5 0.597893 0.296660 0.286000
Si Si6 0.670163 0.703954 0.757565
Si Si7 0.244740 0.712260 0.272271
Si Si8 0.024348 0.704402 0.322701
O O1 0.405553 0.500000 0.965214
O O2 0.289657 0.224245 0.864639
O O3 0.500000 0.230724 0.000000
O O4 0.433289 0.223369 0.035881
O O5 0.484270 0.500000 0.117362
O O6 0.547661 0.781667 0.203697
O O7 0.628240 0.705591 0.186756
O O8 0.901622 0.287059 0.510689
O O9 0.799634 0.253647 0.359688
O O10 0.000000 0.270492 0.500000
O O11 0.917089 0.000000 0.477004
O O12 0.206538 0.500000 0.518558
O O13 0.292366 0.782472 0.612617
O O14 0.125000 0.779808 0.425102
O O15 0.622830 0.500000 0.293280
O O16 0.517615 0.290322 0.269100
O O17 0.641391 0.500000 0.732920
O O18 0.682034 0.772158 0.715362
O O19 0.581291 0.783034 0.724622
O O20 0.234738 0.500000 0.261765
O O21 0.044805 0.500000 0.329939
#
# Coordination Sequence:
#
# PCOD9191627 Si02
#       8
#     8   8   8   8   8   8   8   8
#     4  10  20  36  61  91 120 152 189 234 290 349
#     4  10  20  36  60  87 116 149 186 233 287 341
#     4  10  20  33  50  77 116 156 192 233 283 339
#     4  10  21  37  58  85 114 149 196 243 287 340
#     4  10  21  39  61  85 116 153 196 241 287 343
#     4  11  23  39  60  86 119 157 194 239 291 345
#     4  10  20  33  53  82 115 151 190 233 283 339
#     4  11  24  40  59  85 116 153 198 245 292 343
#
# _framework density 22.518941000000002
#
# number of rings (size 3 to 8) (size 9 to 14) (size 15 to 20)
#    0.000    1.750    2.500    1.875    0.000    4.500 
#    0.000    0.625    0.000    0.000    0.000    0.000 
#    0.000    0.000    0.000    0.000    0.000    0.000 
#
# Total GULP energy -178756.032538 kJ/mol
# GULP energy per Si atom -5586.126017 kJ/mol
# Density = 2.246769 g / cm^3
# Si number density = 22.518941 Si / 1000 Ang^3
#
#
#
# Elastic Constant Matrix: (Units=GPa)
#
#
# Indices 1 2 3 4 5 6 
#
# 1 135.8277 5.5250 32.0358 0.0002 -21.7226 0.0003
# 2 5.5250 53.1628 -0.7330 0.0002 -2.5224 0.0015
# 3 32.0358 -0.7330 74.5493 0.0001 -22.2746 -0.0002
# 4 0.0002 0.0002 0.0001 7.9064 0.0000 3.0469
# 5 -21.7226 -2.5224 -22.2746 0.0000 38.9283 0.0000
# 6 0.0003 0.0015 -0.0002 3.0469 0.0000 21.8686
#
#
#
# Elastic Compliance Matrix: (Units=1/GPa)
#
#
# Indices 1 2 3 4 5 6 
#
# 1 0.008543 -0.000776 -0.002738 0.000000 0.003151 0.000000
# 2 -0.000776 0.018966 0.000914 0.000000 0.001319 -0.000001
# 3 -0.002738 0.000914 0.017081 0.000000 0.008305 0.000000
# 4 0.000000 0.000000 0.000000 0.133655 0.000000 -0.018622
# 5 0.003151 0.001319 0.008305 0.000000 0.032284 0.000000
# 6 0.000000 -0.000001 0.000000 -0.018622 0.000000 0.048322
#
#
# Mechanical properties :
#
#
# Convention : Reuss Voigt Hill
#
# Bulk Modulus (GPa) = 25.38655 37.46615 31.42635
# Shear Modulus (GPa) = 18.03872 28.85480 23.44676
#
# Velocity S-wave (km/s) = 2.83335 3.58349 3.23027
# Velocity P-wave (km/s) = 4.69060 5.81340 5.28192
#
# Compressibility (1/GPa) = 0.03939094
#
# Stress axis : x y z
#
# Youngs Moduli (GPa) = 117.04968 52.72599 58.54502
#
# Poissons Ratio (x) = 0.04092 0.16027
# Poissons Ratio (y) = 0.09085 -0.05351
# Poissons Ratio (z) = 0.32043 -0.04819
#
# Static dielectric constant tensor:
#      x y z
#    x 1.847690 0.000000 -0.013730 
#    y 0.000000 1.828990 0.000000 
#    z -0.013730 0.000000 1.856390 
# 
# From -- ./inp_files/238561.got.cif
#   From: 2010.05.17/outbox.cif.g08.bks.cpg/sg12_120_cif.got.tgz:238561.got - 2010.06.03 13:09:07.
