data_PCOD9191000
_publ_section_title
;
Structure prediction by ZEFSAII (Michael W. Deem and Ramdas Pophale) SiO2 
 PCOD9191000
Probable space group: C 2/M
;
_chemical_formula_sum "Si O2"
_cell_formula_units_Z 60
_cell_length_a 15.895120
_cell_length_b 23.087988
_cell_length_c 9.756620
_cell_angle_alpha 90.000000
_cell_angle_beta 119.880077
_cell_angle_gamma 90.000000
_cell_volume 3104.584361
_symmetry_space_group_name_H-M "C 2/M"
_symmetry_group_IT_number 12
_symmetry_cell_setting 'monoclinic'
loop_
_space_group_symop_operation_xyz
x,y,z
-x,y,-z
-x,-y,-z
x,-y,z
1/2+x,1/2+y,z
1/2-x,1/2+y,-z
1/2-x,1/2-y,-z
1/2+x,1/2-y,z
loop_
_atom_site_type_symbol
_atom_site_label
_atom_site_fract_x
_atom_site_fract_y
_atom_site_fract_z
Si Si1 0.500000 0.748453 0.000000
Si Si2 0.868187 0.106288 0.509849
Si Si3 0.653755 0.191487 0.581943
Si Si4 0.724998 0.064568 0.599897
Si Si5 0.393480 0.567538 0.959971
Si Si6 0.635838 0.242305 0.863104
Si Si7 0.861129 0.775428 0.657613
Si Si8 0.413356 0.625862 0.243654
O O1 0.575105 0.777418 0.950401
O O2 0.432669 0.713317 0.841458
O O3 0.785231 0.067549 0.507610
O O4 0.850822 0.171139 0.547773
O O5 0.865372 0.106807 0.345502
O O6 0.978272 0.098128 0.654466
O O7 0.661253 0.122562 0.562715
O O8 0.625243 0.203814 0.716083
O O9 0.756939 0.225152 0.646786
O O10 0.603503 0.221890 0.408350
O O11 0.812020 0.073121 0.779638
O O12 0.682296 0.000000 0.583614
O O13 0.403643 0.500000 0.002508
O O14 0.500000 0.587701 0.000000
O O15 0.363261 0.601569 0.069241
O O16 0.592740 0.304846 0.778442
O O17 0.750000 0.250000 0.000000
#
# Coordination Sequence:
#
# PCOD9191000 Si02
#       8
#     4   8   8   8   8   8   8   8
#     4  12  24  34  60  88 124 156 208 236 300 368
#     4  10  20  32  51  78 113 151 193 234 278 360
#     4  10  21  38  57  80 127 154 193 248 299 350
#     4  10  21  37  58  81 108 155 202 242 291 351
#     4  10  20  33  48  71 107 153 202 238 270 329
#     4  12  23  35  55  89 119 163 199 245 296 362
#     4  10  20  37  55  85 117 160 191 245 300 353
#     4  11  21  31  50  76 115 156 190 228 291 341
#
# _framework density 19.326256999999998
#
# number of rings (size 3 to 8) (size 9 to 14) (size 15 to 20)
#    0.000    1.467    5.333    0.800    2.800    1.067 
#    0.000    1.333    0.000    0.000    0.000    2.800 
#    0.000    0.000    0.000    0.000    0.000    0.000 
#
# Total GULP energy -167067.006211 kJ/mol
# GULP energy per Si atom -5568.900207 kJ/mol
# Density = 1.928227 g / cm^3
# Si number density = 19.326257 Si / 1000 Ang^3
#
#
#
# Elastic Constant Matrix: (Units=GPa)
#
#
# Indices 1 2 3 4 5 6 
#
# 1 77.4841 6.1655 25.0999 0.0000 -29.2528 0.0000
# 2 6.1655 90.7187 27.6479 0.0000 -13.6351 0.0000
# 3 25.0999 27.6479 65.1136 0.0000 -28.9234 0.0000
# 4 0.0000 0.0000 0.0000 5.7194 0.0000 -5.7477
# 5 -29.2528 -13.6351 -28.9234 0.0000 40.7635 0.0000
# 6 0.0000 0.0000 0.0000 -5.7477 0.0000 12.5788
#
#
#
# Elastic Compliance Matrix: (Units=1/GPa)
#
#
# Indices 1 2 3 4 5 6 
#
# 1 0.017952 0.001222 -0.002241 0.000000 0.011701 0.000000
# 2 0.001222 0.012755 -0.005260 0.000000 0.001411 0.000000
# 3 -0.002241 -0.005260 0.024765 0.000000 0.014204 0.000000
# 4 0.000000 0.000000 0.000000 0.323306 0.000000 0.147731
# 5 0.011701 0.001411 0.014204 0.000000 0.043479 0.000000
# 6 0.000000 0.000000 0.000000 0.147731 0.000000 0.147003
#
#
# Mechanical properties :
#
#
# Convention : Reuss Voigt Hill
#
# Bulk Modulus (GPa) = 23.30317 39.01590 31.15953
# Shear Modulus (GPa) = 8.38752 23.43921 15.91337
#
# Velocity S-wave (km/s) = 2.08552 3.48633 2.87262
# Velocity P-wave (km/s) = 4.22885 6.03638 5.21157
#
# Compressibility (1/GPa) = 0.04291262
#
# Stress axis : x y z
#
# Youngs Moduli (GPa) = 55.70300 78.39906 40.38034
#
# Poissons Ratio (x) = -0.09578 0.09050
# Poissons Ratio (y) = -0.06805 0.21241
# Poissons Ratio (z) = 0.12484 0.41240
#
# Static dielectric constant tensor:
#      x y z
#    x 1.797890 0.000000 0.019360 
#    y 0.000000 1.708820 0.000000 
#    z 0.019360 0.000000 1.706770 
# 
# From -- ./inp_files/79117.got.cif
#   From: 2010.05.17/outbox.cif.g08.bks.cpg/sg12_40_cif.got.tgz:79117.got - 2010.06.03 13:09:07.
