data_PCOD9191312
_publ_section_title
;
Structure prediction by ZEFSAII (Michael W. Deem and Ramdas Pophale) SiO2 
 PCOD9191312
Probable space group: C 2/M
;
_chemical_formula_sum "Si O2"
_cell_formula_units_Z 64
_cell_length_a 19.707619
_cell_length_b 7.507798
_cell_length_c 27.701955
_cell_angle_alpha 90.000000
_cell_angle_beta 135.364942
_cell_angle_gamma 90.000000
_cell_volume 2879.772974
_symmetry_space_group_name_H-M "C 2/M"
_symmetry_group_IT_number 12
_symmetry_cell_setting 'monoclinic'
loop_
_space_group_symop_operation_xyz
x,y,z
-x,y,-z
-x,-y,-z
x,-y,z
1/2+x,1/2+y,z
1/2-x,1/2+y,-z
1/2-x,1/2-y,-z
1/2+x,1/2-y,z
loop_
_atom_site_type_symbol
_atom_site_label
_atom_site_fract_x
_atom_site_fract_y
_atom_site_fract_z
Si Si1 0.889448 0.713188 0.595819
Si Si2 0.680599 0.213221 0.009195
Si Si3 0.181608 0.211569 0.838856
Si Si4 0.187038 0.212229 0.538975
Si Si5 0.030202 0.713486 0.266152
Si Si6 0.266694 0.782120 0.677189
Si Si7 0.023008 0.716939 0.066983
Si Si8 0.231045 0.282048 0.213159
O O1 0.888135 0.500000 0.597614
O O2 0.896133 0.754771 0.542533
O O3 0.785806 0.780774 0.563726
O O4 0.962173 0.777138 0.674081
O O5 0.735002 0.283658 0.084224
O O6 0.673833 0.000000 0.010672
O O7 0.750000 0.250000 0.000000
O O8 0.570601 0.276009 0.950125
O O9 0.075370 0.241309 0.806007
O O10 0.195689 0.278328 0.791499
O O11 0.195904 0.000000 0.843959
O O12 0.192861 0.275195 0.597248
O O13 0.195245 0.000000 0.545770
O O14 0.036294 0.500000 0.269255
O O15 0.125186 0.773206 0.285199
O O16 0.247655 0.720910 0.721815
O O17 0.266120 0.000000 0.677747
O O18 0.028196 0.500000 0.069277
O O19 0.124507 0.773958 0.140851
O O20 0.000000 0.769298 0.000000
O O21 0.231730 0.500000 0.215172
#
# Coordination Sequence:
#
# PCOD9191312 Si02
#       8
#     8   8   8   8   8   8   8   8
#     4   8  14  25  41  64  93 123 152 184 225 276
#     4  10  21  34  50  74  99 123 155 196 238 280
#     4  10  20  33  48  70  99 125 153 195 240 279
#     4   8  13  23  41  66  93 115 146 194 237 270
#     4   9  18  31  48  71  98 126 158 192 229 282
#     4   8  15  27  45  71  95 119 157 200 235 272
#     4   9  15  28  49  71  92 119 160 199 228 270
#     4   9  16  28  48  70  93 122 157 198 237 273
#
# _framework density 22.223973999999998
#
# number of rings (size 3 to 8) (size 9 to 14) (size 15 to 20)
#    0.000    3.125    1.250    1.500    1.750    1.000 
#    0.000    1.875    0.000    3.375    0.000    5.250 
#    0.000    0.000    0.000    0.000    0.000    0.000 
#
# Total GULP energy -178302.914038 kJ/mol
# GULP energy per Si atom -5571.966064 kJ/mol
# Density = 2.217339 g / cm^3
# Si number density = 22.223974 Si / 1000 Ang^3
#
#
#
# Elastic Constant Matrix: (Units=GPa)
#
#
# Indices 1 2 3 4 5 6 
#
# 1 51.3504 -3.1700 -4.5550 -0.0002 -20.8896 0.0001
# 2 -3.1700 54.1671 0.7318 -0.0004 -3.9363 0.0004
# 3 -4.5550 0.7318 42.6713 -0.0001 -29.7718 0.0001
# 4 -0.0002 -0.0004 -0.0001 4.0347 0.0001 3.0097
# 5 -20.8896 -3.9363 -29.7718 0.0001 36.6899 -0.0001
# 6 0.0001 0.0004 0.0001 3.0097 -0.0001 9.1971
#
#
#
# Elastic Compliance Matrix: (Units=1/GPa)
#
#
# Indices 1 2 3 4 5 6 
#
# 1 0.075793 0.011736 0.089606 0.000007 0.117123 -0.000004
# 2 0.011736 0.020538 0.016365 0.000004 0.022165 -0.000002
# 3 0.089606 0.016365 0.160283 0.000010 0.182834 -0.000006
# 4 0.000007 0.000004 0.000010 0.327891 0.000012 -0.107302
# 5 0.117123 0.022165 0.182834 0.000012 0.244678 -0.000007
# 6 -0.000004 -0.000002 -0.000006 -0.107302 -0.000007 0.143844
#
#
# Mechanical properties :
#
#
# Convention : Reuss Voigt Hill
#
# Bulk Modulus (GPa) = 2.03240 14.91138 8.47189
# Shear Modulus (GPa) = 5.54556 20.32981 12.93769
#
# Velocity S-wave (km/s) = 1.58137 3.02780 2.41540
# Velocity P-wave (km/s) = 2.06175 4.35288 3.40576
#
# Compressibility (1/GPa) = 0.49202805
#
# Stress axis : x y z
#
# Youngs Moduli (GPa) = 13.19379 48.69060 6.23898
#
# Poissons Ratio (x) = -0.57145 -0.55905
# Poissons Ratio (y) = -0.15485 -0.10210
# Poissons Ratio (z) = -1.18224 -0.79682
#
# Static dielectric constant tensor:
#      x y z
#    x 1.800110 0.000000 -0.025890 
#    y 0.000000 1.845470 0.000000 
#    z -0.025890 0.000000 1.858230 
# 
# From -- ./inp_files/346128.got.cif
#   From: 2010.05.17/outbox.cif.g08.bks.cpg/sg12_174_cif.got.tgz:346128.got - 2010.06.03 13:09:07.
