data_PCOD9191148
_publ_section_title
;
Structure prediction by ZEFSAII (Michael W. Deem and Ramdas Pophale) SiO2 
 PCOD9191148
Probable space group: C 2/M
;
_chemical_formula_sum "Si O2"
_cell_formula_units_Z 44
_cell_length_a 8.663946
_cell_length_b 21.346720
_cell_length_c 12.866947
_cell_angle_alpha 90.000000
_cell_angle_beta 96.027178
_cell_angle_gamma 90.000000
_cell_volume 2366.546542
_symmetry_space_group_name_H-M "C 2/M"
_symmetry_group_IT_number 12
_symmetry_cell_setting 'monoclinic'
loop_
_space_group_symop_operation_xyz
x,y,z
-x,y,-z
-x,-y,-z
x,-y,z
1/2+x,1/2+y,z
1/2-x,1/2+y,-z
1/2-x,1/2-y,-z
1/2+x,1/2-y,z
loop_
_atom_site_type_symbol
_atom_site_label
_atom_site_fract_x
_atom_site_fract_y
_atom_site_fract_z
Si Si1 0.822872 0.076024 0.499300
Si Si2 0.739952 0.162275 0.089921
Si Si3 0.847080 0.575422 0.728753
Si Si4 0.295090 0.924504 0.287539
Si Si5 0.000000 0.239957 0.000000
Si Si6 0.831374 0.072107 0.933570
O O1 0.725398 0.089482 0.389184
O O2 0.748944 0.099905 0.601690
O O3 0.000000 0.097562 0.500000
O O4 0.826657 0.000000 0.505889
O O5 0.732757 0.118690 0.190244
O O6 0.898766 0.197776 0.070910
O O7 0.611179 0.215835 0.075506
O O8 0.717760 0.115386 0.991175
O O9 0.827493 0.500000 0.748040
O O10 0.030360 0.590294 0.735753
O O11 0.175687 0.907661 0.187081
O O12 0.290728 0.000000 0.296091
O O13 0.779830 0.000000 0.934208
O O14 0.000000 0.074208 0.000000
#
# Coordination Sequence:
#
# PCOD9191148 Si02
#       6
#     8   8   8   8   4   8
#     4   9  18  30  49  80 117 151 182 214 265 337
#     4  11  21  39  55  82 106 147 187 233 272 329
#     4  10  20  34  57  85 115 146 180 227 280 335
#     4   9  18  32  49  77 119 157 179 210 268 338
#     4  10  24  38  56  74 110 148 196 228 272 318
#     4  10  20  32  54  86 119 145 175 226 280 331
#
# _framework density 18.592492
#
# number of rings (size 3 to 8) (size 9 to 14) (size 15 to 20)
#    0.000    2.182    0.909    2.182    2.545    2.182 
#    0.000    3.636    0.000    0.000    0.000   31.818 
#    0.000    0.000    0.000    0.000    0.000    0.000 
#
# Total GULP energy -122646.389369 kJ/mol
# GULP energy per Si atom -5574.835880 kJ/mol
# Density = 1.855018 g / cm^3
# Si number density = 18.592492 Si / 1000 Ang^3
#
#
#
# Elastic Constant Matrix: (Units=GPa)
#
#
# Indices 1 2 3 4 5 6 
#
# 1 96.2738 38.4645 67.5908 0.0000 -2.1903 0.0000
# 2 38.4645 72.6173 53.3150 0.0000 -10.0809 0.0000
# 3 67.5908 53.3150 151.9522 0.0000 -14.5904 0.0000
# 4 0.0000 0.0000 0.0000 7.9354 0.0000 -8.5139
# 5 -2.1903 -10.0809 -14.5904 0.0000 27.7573 0.0000
# 6 0.0000 0.0000 0.0000 -8.5139 0.0000 11.1870
#
#
#
# Elastic Compliance Matrix: (Units=1/GPa)
#
#
# Indices 1 2 3 4 5 6 
#
# 1 0.016410 -0.004819 -0.005953 0.000000 -0.003584 0.000000
# 2 -0.004819 0.020292 -0.004534 0.000000 0.004606 0.000000
# 3 -0.005953 -0.004534 0.011181 0.000000 0.003761 0.000000
# 4 0.000000 0.000000 0.000000 0.686901 0.000000 0.522773
# 5 -0.003584 0.004606 0.003761 0.000000 0.039393 0.000000
# 6 0.000000 0.000000 0.000000 0.522773 0.000000 0.487251
#
#
# Mechanical properties :
#
#
# Convention : Reuss Voigt Hill
#
# Bulk Modulus (GPa) = 57.90064 71.06488 64.48276
# Shear Modulus (GPa) = 3.85268 20.14081 11.99675
#
# Velocity S-wave (km/s) = 1.44107 3.29489 2.54293
# Velocity P-wave (km/s) = 5.82910 7.26501 6.58630
#
# Compressibility (1/GPa) = 0.01727097
#
# Stress axis : x y z
#
# Youngs Moduli (GPa) = 60.93751 49.28144 89.43997
#
# Poissons Ratio (x) = 0.23751 0.53241
# Poissons Ratio (y) = 0.29369 0.40549
# Poissons Ratio (z) = 0.36274 0.22342
#
# Static dielectric constant tensor:
#      x y z
#    x 1.683730 0.000000 0.003660 
#    y 0.000000 1.635680 0.000000 
#    z 0.003660 0.000000 1.645110 
# 
# From -- ./inp_files/120855.got.cif
#   From: 2010.05.17/outbox.cif.g08.bks.cpg/sg12_61_cif.got.tgz:120855.got - 2010.06.03 13:09:07.
