data_PCOD9191567
_publ_section_title
;
Structure prediction by ZEFSAII (Michael W. Deem and Ramdas Pophale) SiO2 
 PCOD9191567
Probable space group: C 2/M
;
_chemical_formula_sum "Si O2"
_cell_formula_units_Z 56
_cell_length_a 26.596170
_cell_length_b 7.391061
_cell_length_c 16.328388
_cell_angle_alpha 90.000000
_cell_angle_beta 138.797959
_cell_angle_gamma 90.000000
_cell_volume 2114.304743
_symmetry_space_group_name_H-M "C 2/M"
_symmetry_group_IT_number 12
_symmetry_cell_setting 'monoclinic'
loop_
_space_group_symop_operation_xyz
x,y,z
-x,y,-z
-x,-y,-z
x,-y,z
1/2+x,1/2+y,z
1/2-x,1/2+y,-z
1/2-x,1/2-y,-z
1/2+x,1/2-y,z
loop_
_atom_site_type_symbol
_atom_site_label
_atom_site_fract_x
_atom_site_fract_y
_atom_site_fract_z
Si Si1 0.128510 0.283971 0.518667
Si Si2 0.060082 0.217477 0.005084
Si Si3 0.784001 0.783470 0.632775
Si Si4 0.935995 0.217603 0.738080
Si Si5 0.790684 0.711185 0.871411
Si Si6 0.159565 0.284152 0.900623
Si Si7 0.617126 0.796220 0.677075
O O1 0.133877 0.500000 0.535902
O O2 0.214851 0.213009 0.605961
O O3 0.081466 0.256951 0.377848
O O4 0.091833 0.213651 0.558902
O O5 0.016315 0.284745 0.869949
O O6 0.062945 0.000000 0.010347
O O7 0.147671 0.275316 0.124948
O O8 0.000000 0.273723 0.000000
O O9 0.750000 0.750000 0.500000
O O10 0.869295 0.716395 0.717637
O O11 0.788484 0.000000 0.654081
O O12 0.935411 0.000000 0.744093
O O13 0.773837 0.500000 0.864450
O O14 0.709251 0.804980 0.772821
O O15 0.842954 0.786732 0.010153
O O16 0.145818 0.500000 0.884044
O O17 0.114801 0.213112 0.765763
O O18 0.250000 0.250000 0.000000
O O19 0.585866 0.000000 0.645456
#
# Coordination Sequence:
#
# PCOD9191567 Si02
#       7
#     8   8   8   8   8   8   8
#     4   9  17  28  48  74  97 124 157 198 244 289
#     4  10  22  37  54  71  93 132 175 208 239 288
#     4   8  14  25  41  62  87 115 149 186 230 276
#     4   9  18  32  48  66  93 127 162 201 243 288
#     4  10  20  33  50  74 104 132 162 204 252 292
#     4   8  15  29  48  72 100 129 159 197 245 294
#     4   9  17  30  52  78 103 130 163 199 241 299
#
# _framework density 26.486248
#
# number of rings (size 3 to 8) (size 9 to 14) (size 15 to 20)
#    0.000    3.000    0.000    0.429    2.000    2.000 
#    0.000    0.000    0.000    0.857    0.000    6.000 
#    0.000    0.000    0.000    0.000    0.000    0.000 
#
# Total GULP energy -156107.353685 kJ/mol
# GULP energy per Si atom -5575.262632 kJ/mol
# Density = 2.642596 g / cm^3
# Si number density = 26.486248 Si / 1000 Ang^3
#
#
#
# Elastic Constant Matrix: (Units=GPa)
#
#
# Indices 1 2 3 4 5 6 
#
# 1 13.5112 -8.3541 -6.1750 0.0000 -8.6191 0.0000
# 2 -8.3541 113.6544 -4.5916 0.0000 -3.7901 0.0000
# 3 -6.1750 -4.5916 102.6557 0.0000 -12.8341 0.0000
# 4 0.0000 0.0000 0.0000 3.6342 0.0000 2.2778
# 5 -8.6191 -3.7901 -12.8341 0.0000 53.3349 0.0000
# 6 0.0000 0.0000 0.0000 2.2778 0.0000 -1.3661
#
#
#
# Elastic Compliance Matrix: (Units=1/GPa)
#
#
# Indices 1 2 3 4 5 6 
#
# 1 0.093899 0.007824 0.008212 0.000000 0.017706 0.000000
# 2 0.007824 0.009495 0.001173 0.000000 0.002221 0.000000
# 3 0.008212 0.001173 0.010789 0.000000 0.004007 0.000000
# 4 0.000000 0.000000 0.000000 0.134550 0.000000 0.224346
# 5 0.017706 0.002221 0.004007 0.000000 0.022733 0.000000
# 6 0.000000 0.000000 0.000000 0.224346 0.000000 -0.357943
#
#
# Mechanical properties :
#
#
# Convention : Reuss Voigt Hill
#
# Bulk Modulus (GPa) = 6.72945 21.28665 14.00805
# Shear Modulus (GPa) = -70.06564 27.71675 -21.17444
#
# Velocity S-wave (km/s) = -5.14889 3.23841 -2.83052
# Velocity P-wave (km/s) = 5.72728 4.69440 2.31996
#
# Compressibility (1/GPa) = 0.14860060
#
# Stress axis : x y z
#
# Youngs Moduli (GPa) = 10.64979 105.31655 92.69019
#
# Poissons Ratio (x) = -0.82402 -0.76116
# Poissons Ratio (y) = -0.08333 -0.10873
# Poissons Ratio (z) = -0.08745 -0.12354
#
# Static dielectric constant tensor:
#      x y z
#    x 2.171140 0.000000 -0.061510 
#    y 0.000000 2.110490 0.000000 
#    z -0.061510 0.000000 2.038310 
# 
# From -- ./inp_files/295189.got.cif
#   From: 2010.05.17/outbox.cif.g08.bks.cpg/sg12_148_cif.got.tgz:295189.got - 2010.06.03 13:09:07.
