data_PCOD9191009
_publ_section_title
;
Structure prediction by ZEFSAII (Michael W. Deem and Ramdas Pophale) SiO2 
 PCOD9191009
Probable space group: C 2/M
;
_chemical_formula_sum "Si O2"
_cell_formula_units_Z 64
_cell_length_a 22.174133
_cell_length_b 13.970005
_cell_length_c 12.141489
_cell_angle_alpha 90.000000
_cell_angle_beta 110.788476
_cell_angle_gamma 90.000000
_cell_volume 3516.243676
_symmetry_space_group_name_H-M "C 2/M"
_symmetry_group_IT_number 12
_symmetry_cell_setting 'monoclinic'
loop_
_space_group_symop_operation_xyz
x,y,z
-x,y,-z
-x,-y,-z
x,-y,z
1/2+x,1/2+y,z
1/2-x,1/2+y,-z
1/2-x,1/2-y,-z
1/2+x,1/2-y,z
loop_
_atom_site_type_symbol
_atom_site_label
_atom_site_fract_x
_atom_site_fract_y
_atom_site_fract_z
Si Si1 0.589165 0.613757 0.756535
Si Si2 0.239252 0.613394 0.665512
Si Si3 0.056454 0.113595 0.347458
Si Si4 0.663887 0.384120 0.593415
Si Si5 0.806457 0.385686 0.600856
Si Si6 0.872475 0.229351 0.774174
Si Si7 0.781133 0.386597 0.098673
Si Si8 0.147107 0.226943 0.984965
O O1 0.597547 0.500000 0.782940
O O2 0.517131 0.626617 0.662796
O O3 0.641986 0.645656 0.700823
O O4 0.598239 0.673464 0.872698
O O5 0.253440 0.500000 0.664232
O O6 0.197841 0.639545 0.531373
O O7 0.307233 0.667656 0.710050
O O8 0.206363 0.628156 0.762597
O O9 0.109985 0.146157 0.470379
O O10 0.070338 0.170965 0.245200
O O11 0.065692 0.000000 0.335087
O O12 0.661670 0.500000 0.592011
O O13 0.736211 0.358660 0.606042
O O14 0.814139 0.500000 0.615953
O O15 0.859744 0.328029 0.702071
O O16 0.877946 0.241548 0.908040
O O17 0.781850 0.500000 0.076268
O O18 0.829273 0.325683 0.054756
O O19 0.710142 0.342210 0.032169
#
# Coordination Sequence:
#
# PCOD9191009 Si02
#       8
#     8   8   8   8   8   8   8   8
#     4  10  21  35  53  76 106 142 177 215 257 306
#     4   9  17  31  49  74 103 133 168 208 258 313
#     4  10  20  35  54  77 105 139 176 215 263 312
#     4   9  18  32  52  78 108 136 169 215 263 314
#     4  10  20  32  51  80 109 137 171 213 266 317
#     4  11  21  32  50  75 107 141 174 214 260 306
#     4   9  19  34  52  72 104 140 171 216 265 307
#     4  10  22  34  49  76 105 138 181 218 250 311
#
# _framework density 18.201241
#
# number of rings (size 3 to 8) (size 9 to 14) (size 15 to 20)
#    0.000    2.250    1.250    1.500    5.250    4.000 
#    0.000    1.250    0.000    0.750    0.000    1.750 
#    0.000    5.000    0.000    0.000    0.000    0.000 
#
# Total GULP energy -178611.928398 kJ/mol
# GULP energy per Si atom -5581.622762 kJ/mol
# Density = 1.815981 g / cm^3
# Si number density = 18.201241 Si / 1000 Ang^3
#
#
#
# Elastic Constant Matrix: (Units=GPa)
#
#
# Indices 1 2 3 4 5 6 
#
# 1 24.2891 19.2065 17.7524 0.0000 -4.9651 0.0000
# 2 19.2065 80.8684 27.1508 0.0000 -7.2236 0.0000
# 3 17.7524 27.1508 86.9751 0.0000 -15.8360 0.0000
# 4 0.0000 0.0000 0.0000 28.3027 0.0000 -0.9760
# 5 -4.9651 -7.2236 -15.8360 0.0000 22.3121 0.0000
# 6 0.0000 0.0000 0.0000 -0.9760 0.0000 21.2924
#
#
#
# Elastic Compliance Matrix: (Units=1/GPa)
#
#
# Indices 1 2 3 4 5 6 
#
# 1 0.055560 -0.010370 -0.007422 0.000000 0.003738 0.000000
# 2 -0.010370 0.015800 -0.002647 0.000000 0.000929 0.000000
# 3 -0.007422 -0.002647 0.015368 0.000000 0.008399 0.000000
# 4 0.000000 0.000000 0.000000 0.035388 0.000000 0.001622
# 5 0.003738 0.000929 0.008399 0.000000 0.051913 0.000000
# 6 0.000000 0.000000 0.000000 0.001622 0.000000 0.047040
#
#
# Mechanical properties :
#
#
# Convention : Reuss Voigt Hill
#
# Bulk Modulus (GPa) = 21.81006 35.59467 28.70237
# Shear Modulus (GPa) = 18.03565 22.91631 20.47598
#
# Velocity S-wave (km/s) = 3.15127 3.55216 3.35771
# Velocity P-wave (km/s) = 5.02488 6.03510 5.55301
#
# Compressibility (1/GPa) = 0.04585040
#
# Stress axis : x y z
#
# Youngs Moduli (GPa) = 17.99869 63.29056 65.07053
#
# Poissons Ratio (x) = 0.65630 0.48299
# Poissons Ratio (y) = 0.18664 0.17221
# Poissons Ratio (z) = 0.13360 0.16750
#
# Static dielectric constant tensor:
#      x y z
#    x 1.603840 0.000000 -0.017600 
#    y 0.000000 1.628700 0.000000 
#    z -0.017600 0.000000 1.641480 
# 
# From -- ./inp_files/176163.got.cif
#   From: 2010.05.17/outbox.cif.g08.bks.cpg/sg12_89_cif.got.tgz:176163.got - 2010.06.03 13:09:07.
