data_PCOD9191521
_publ_section_title
;
Structure prediction by ZEFSAII (Michael W. Deem and Ramdas Pophale) SiO2 
 PCOD9191521
Probable space group: C 2/M
;
_chemical_formula_sum "Si O2"
_cell_formula_units_Z 56
_cell_length_a 18.995359
_cell_length_b 8.638384
_cell_length_c 23.888250
_cell_angle_alpha 90.000000
_cell_angle_beta 126.895097
_cell_angle_gamma 90.000000
_cell_volume 3134.808477
_symmetry_space_group_name_H-M "C 2/M"
_symmetry_group_IT_number 12
_symmetry_cell_setting 'monoclinic'
loop_
_space_group_symop_operation_xyz
x,y,z
-x,y,-z
-x,-y,-z
x,-y,z
1/2+x,1/2+y,z
1/2-x,1/2+y,-z
1/2-x,1/2-y,-z
1/2+x,1/2-y,z
loop_
_atom_site_type_symbol
_atom_site_label
_atom_site_fract_x
_atom_site_fract_y
_atom_site_fract_z
Si Si1 0.080490 0.313099 0.999616
Si Si2 0.842521 0.814227 0.564636
Si Si3 0.111368 0.313837 0.716963
Si Si4 0.499790 0.186615 0.436125
Si Si5 0.264746 0.185974 0.129693
Si Si6 0.933432 0.313805 0.134980
Si Si7 0.545380 0.683691 0.281814
O O1 0.078980 0.500000 0.997928
O O2 0.069785 0.258844 0.930389
O O3 0.173643 0.260518 0.068602
O O4 0.000000 0.259374 0.000000
O O5 0.750000 0.750000 0.500000
O O6 0.918598 0.754801 0.559358
O O7 0.870369 0.765231 0.641262
O O8 0.841401 0.000000 0.563296
O O9 0.099758 0.500000 0.718565
O O10 0.202072 0.274737 0.791512
O O11 0.088791 0.277688 0.641865
O O12 0.035978 0.229621 0.716730
O O13 0.500000 0.241717 0.500000
O O14 0.508979 0.000000 0.441053
O O15 0.344482 0.233728 0.125900
O O16 0.256493 0.000000 0.121961
O O17 0.934136 0.500000 0.135872
O O18 0.018490 0.257890 0.210134
O O19 0.549523 0.500000 0.276812
#
# Coordination Sequence:
#
# PCOD9191521 Si02
#       7
#     8   8   8   8   8   8   8
#     4  10  21  35  49  68  97 129 157 189 234 287
#     4  10  20  33  50  73 101 132 167 207 248 291
#     4   8  15  29  48  71  98 126 158 197 241 286
#     4   9  17  31  52  75 101 134 166 199 245 297
#     4   9  17  30  50  73  93 119 158 199 236 276
#     4   9  18  33  52  72  94 122 157 196 238 285
#     4   9  17  29  48  74  97 120 158 204 242 279
#
# _framework density 17.863928999999999
#
# number of rings (size 3 to 8) (size 9 to 14) (size 15 to 20)
#    0.000    2.857    0.000    2.143    0.000    5.143 
#    0.000    1.429    0.000    5.143    0.000    0.000 
#    0.000    0.000    0.000    0.000    0.000    0.000 
#
# Total GULP energy -155916.260204 kJ/mol
# GULP energy per Si atom -5568.437864 kJ/mol
# Density = 1.782327 g / cm^3
# Si number density = 17.863929 Si / 1000 Ang^3
#
#
#
# Elastic Constant Matrix: (Units=GPa)
#
#
# Indices 1 2 3 4 5 6 
#
# 1 62.7847 15.4258 79.9662 0.0000 -4.6010 0.0000
# 2 15.4258 5.3384 31.2486 0.0000 -1.4046 0.0000
# 3 79.9662 31.2486 214.3326 0.0000 -3.5662 0.0000
# 4 0.0000 0.0000 0.0000 28.3724 0.0000 4.2507
# 5 -4.6010 -1.4046 -3.5662 0.0000 24.1561 0.0000
# 6 0.0000 0.0000 0.0000 4.2507 0.0000 12.4300
#
#
#
# Elastic Compliance Matrix: (Units=1/GPa)
#
#
# Indices 1 2 3 4 5 6 
#
# 1 0.067700 -0.329208 0.022690 0.000000 -0.002898 0.000000
# 2 -0.329208 2.934167 -0.303912 0.000000 0.063039 0.000000
# 3 0.022690 -0.303912 0.040386 0.000000 -0.007387 0.000000
# 4 0.000000 0.000000 0.000000 0.037149 0.000000 -0.012704
# 5 -0.002898 0.063039 -0.007387 0.000000 0.043420 0.000000
# 6 0.000000 0.000000 0.000000 -0.012704 0.000000 0.084795
#
#
# Mechanical properties :
#
#
# Convention : Reuss Voigt Hill
#
# Bulk Modulus (GPa) = 0.54903 59.52633 30.03768
# Shear Modulus (GPa) = 0.99293 23.37936 12.18614
#
# Velocity S-wave (km/s) = 0.74635 3.62159 2.61466
# Velocity P-wave (km/s) = 1.02505 7.13318 5.09573
#
# Compressibility (1/GPa) = 1.82139285
#
# Stress axis : x y z
#
# Youngs Moduli (GPa) = 14.77104 0.34081 24.76101
#
# Poissons Ratio (x) = 0.11220 -0.56183
# Poissons Ratio (y) = 4.86274 7.52518
# Poissons Ratio (z) = -0.33516 0.10358
#
# Static dielectric constant tensor:
#      x y z
#    x 1.589060 0.000000 -0.021160 
#    y 0.000000 1.604390 0.000000 
#    z -0.021160 0.000000 1.660020 
# 
# From -- ./inp_files/342217.got.cif
#   From: 2010.05.17/outbox.cif.g08.bks.cpg/sg12_172_cif.got.tgz:342217.got - 2010.06.03 13:09:07.
