data_PCOD9191770
_publ_section_title
;
Structure prediction by ZEFSAII (Michael W. Deem and Ramdas Pophale) SiO2 
 PCOD9191770
Probable space group: C 2/M
;
_chemical_formula_sum "Si O2"
_cell_formula_units_Z 48
_cell_length_a 20.923527
_cell_length_b 8.015453
_cell_length_c 23.857808
_cell_angle_alpha 90.000000
_cell_angle_beta 39.760347
_cell_angle_gamma 90.000000
_cell_volume 2559.097957
_symmetry_space_group_name_H-M "C 2/M"
_symmetry_group_IT_number 12
_symmetry_cell_setting 'monoclinic'
loop_
_space_group_symop_operation_xyz
x,y,z
-x,y,-z
-x,-y,-z
x,-y,z
1/2+x,1/2+y,z
1/2-x,1/2+y,-z
1/2-x,1/2-y,-z
1/2+x,1/2-y,z
loop_
_atom_site_type_symbol
_atom_site_label
_atom_site_fract_x
_atom_site_fract_y
_atom_site_fract_z
Si Si1 0.754820 0.804410 0.932298
Si Si2 0.066967 0.701315 0.265198
Si Si3 0.890012 0.296110 0.553567
Si Si4 0.141713 0.298697 0.551652
Si Si5 0.713394 0.203308 0.266991
Si Si6 0.387594 0.699348 0.071128
O O1 0.862653 0.764129 0.832122
O O2 0.670398 0.726638 0.948390
O O3 0.738972 0.000000 0.940483
O O4 0.750000 0.750000 0.000000
O O5 0.067894 0.500000 0.261082
O O6 0.123458 0.746800 0.285099
O O7 0.952667 0.759508 0.347385
O O8 0.888153 0.500000 0.553877
O O9 0.870998 0.238084 0.503577
O O10 0.811481 0.240261 0.653710
O O11 0.000000 0.247821 0.500000
O O12 0.135429 0.500000 0.554849
O O13 0.250000 0.250000 0.500000
O O14 0.814315 0.264643 0.169461
O O15 0.716618 0.000000 0.265861
O O16 0.393581 0.500000 0.074802
O O17 0.500000 0.766775 0.000000
#
# Coordination Sequence:
#
# PCOD9191770 Si02
#       6
#     8   8   8   8   8   8
#     4  11  22  37  58  81 106 139 182 228 273 330
#     4   9  17  33  55  76 102 139 179 222 270 318
#     4   9  14  25  49  77  97 126 176 219 248 294
#     4  10  20  33  51  76 110 143 174 218 270 317
#     4   8  13  25  49  76  99 128 172 219 255 295
#     4   9  18  34  55  80 112 143 174 218 269 321
#
# _framework density 18.756608
#
# number of rings (size 3 to 8) (size 9 to 14) (size 15 to 20)
#    0.000    2.667    1.667    2.500    0.000    1.000 
#    3.000    0.000    0.000    4.500    0.000    0.000 
#    0.000    0.000    0.000    0.000    0.000    0.000 
#
# Total GULP energy -133786.880241 kJ/mol
# GULP energy per Si atom -5574.453343 kJ/mol
# Density = 1.871392 g / cm^3
# Si number density = 18.756608 Si / 1000 Ang^3
#
#
#
# Elastic Constant Matrix: (Units=GPa)
#
#
# Indices 1 2 3 4 5 6 
#
# 1 106.2855 -6.9908 87.3829 -0.0002 -6.3942 0.0003
# 2 -6.9908 8.4595 1.4222 -0.0005 -3.1270 0.0009
# 3 87.3829 1.4222 164.6287 -0.0001 -6.5199 0.0004
# 4 -0.0002 -0.0005 -0.0001 14.9105 0.0001 -2.3521
# 5 -6.3942 -3.1270 -6.5199 0.0001 38.4677 -0.0002
# 6 0.0003 0.0009 0.0004 -2.3521 -0.0002 18.6766
#
#
#
# Elastic Compliance Matrix: (Units=1/GPa)
#
#
# Indices 1 2 3 4 5 6 
#
# 1 0.019264 0.018750 -0.010269 0.000001 0.002986 -0.000001
# 2 0.018750 0.140194 -0.010660 0.000004 0.012706 -0.000006
# 3 -0.010269 -0.010660 0.011593 0.000000 -0.000609 0.000000
# 4 0.000001 0.000004 0.000000 0.068426 0.000000 0.008617
# 5 0.002986 0.012706 -0.000609 0.000000 0.027422 0.000000
# 6 -0.000001 -0.000006 0.000000 0.008617 0.000000 0.054628
#
#
# Mechanical properties :
#
#
# Convention : Reuss Voigt Hill
#
# Bulk Modulus (GPa) = 5.99907 49.22248 27.61077
# Shear Modulus (GPa) = 13.10788 27.58158 20.34473
#
# Velocity S-wave (km/s) = 2.64643 3.83887 3.29701
# Velocity P-wave (km/s) = 3.54167 6.77856 5.40797
#
# Compressibility (1/GPa) = 0.16669263
#
# Stress axis : x y z
#
# Youngs Moduli (GPa) = 51.91001 7.13297 86.25988
#
# Poissons Ratio (x) = -0.13374 0.88579
# Poissons Ratio (y) = -0.97330 0.91954
# Poissons Ratio (z) = 0.53306 0.07604
#
# Static dielectric constant tensor:
#      x y z
#    x 1.968460 0.000000 0.106890 
#    y 0.000000 1.681650 0.000000 
#    z 0.106890 0.000000 1.713810 
# 
# From -- ./inp_files/345412.got.cif
#   From: 2010.05.17/outbox.cif.g08.bks.cpg/sg12_173_cif.got.tgz:345412.got - 2010.06.03 13:09:07.
