data_PCOD9191856
_publ_section_title
;
Structure prediction by ZEFSAII (Michael W. Deem and Ramdas Pophale) SiO2 
 PCOD9191856
Probable space group: C 2/M
;
_chemical_formula_sum "Si O2"
_cell_formula_units_Z 48
_cell_length_a 20.144362
_cell_length_b 7.440858
_cell_length_c 19.031165
_cell_angle_alpha 90.000000
_cell_angle_beta 135.119364
_cell_angle_gamma 90.000000
_cell_volume 2012.891007
_symmetry_space_group_name_H-M "C 2/M"
_symmetry_group_IT_number 12
_symmetry_cell_setting 'monoclinic'
loop_
_space_group_symop_operation_xyz
x,y,z
-x,y,-z
-x,-y,-z
x,-y,z
1/2+x,1/2+y,z
1/2-x,1/2+y,-z
1/2-x,1/2-y,-z
1/2+x,1/2-y,z
loop_
_atom_site_type_symbol
_atom_site_label
_atom_site_fract_x
_atom_site_fract_y
_atom_site_fract_z
Si Si1 0.581961 0.702841 0.607824
Si Si2 0.704413 0.208410 0.576321
Si Si3 0.590944 0.207125 0.029619
Si Si4 0.298724 0.720844 0.175926
Si Si5 0.891087 0.217138 0.636967
Si Si6 0.080100 0.217477 0.858888
O O1 0.500000 0.791223 0.500000
O O2 0.548568 0.500000 0.600214
O O3 0.668834 0.695861 0.618977
O O4 0.622375 0.781465 0.709511
O O5 0.800977 0.278290 0.614846
O O6 0.627126 0.222355 0.456253
O O7 0.717856 0.000000 0.604230
O O8 0.695128 0.285094 0.119177
O O9 0.596289 0.000000 0.057939
O O10 0.500000 0.288169 0.000000
O O11 0.577990 0.211442 0.935987
O O12 0.297997 0.500000 0.177342
O O13 0.331331 0.773055 0.122460
O O14 0.986978 0.271893 0.745978
O O15 0.889179 0.000000 0.633768
O O16 0.080175 0.000000 0.863528
#
# Coordination Sequence:
#
# PCOD9191856 Si02
#       6
#     8   8   8   8   8   8
#     4  10  20  35  57  80 107 148 191 224 268 330
#     4  10  20  33  51  80 114 144 182 231 279 325
#     4  10  22  38  56  82 114 145 180 226 282 337
#     4   9  19  36  57  81 110 147 188 227 272 329
#     4   9  19  35  54  78 109 147 186 226 276 333
#     4  10  20  37  61  82 106 142 189 234 271 322
#
# _framework density 23.846297
#
# number of rings (size 3 to 8) (size 9 to 14) (size 15 to 20)
#    0.000    2.333    0.000    2.000    2.333    4.667 
#    0.000    1.667    0.000    0.000    0.000    0.000 
#    0.000    0.000    0.000    0.000    0.000    0.000 
#
# Total GULP energy -134161.933127 kJ/mol
# GULP energy per Si atom -5590.080547 kJ/mol
# Density = 2.379202 g / cm^3
# Si number density = 23.846297 Si / 1000 Ang^3
#
#
#
# Elastic Constant Matrix: (Units=GPa)
#
#
# Indices 1 2 3 4 5 6 
#
# 1 137.2041 -0.0590 53.9041 0.0000 -2.6662 0.0000
# 2 -0.0590 78.6599 -8.2570 0.0000 4.4584 0.0000
# 3 53.9041 -8.2570 117.4187 0.0000 10.4420 0.0000
# 4 0.0000 0.0000 0.0000 3.9867 0.0000 -9.1439
# 5 -2.6662 4.4584 10.4420 0.0000 39.8985 0.0000
# 6 0.0000 0.0000 0.0000 -9.1439 0.0000 2.6998
#
#
#
# Elastic Compliance Matrix: (Units=1/GPa)
#
#
# Indices 1 2 3 4 5 6 
#
# 1 0.009030 -0.000551 -0.004345 0.000000 0.001802 0.000000
# 2 -0.000551 0.012956 0.001327 0.000000 -0.001832 0.000000
# 3 -0.004345 0.001327 0.010897 0.000000 -0.003290 0.000000
# 4 0.000000 0.000000 0.000000 -0.037061 0.000000 -0.125521
# 5 0.001802 -0.001832 -0.003290 0.000000 0.026250 0.000000
# 6 0.000000 0.000000 0.000000 -0.125521 0.000000 -0.054727
#
#
# Mechanical properties :
#
#
# Convention : Reuss Voigt Hill
#
# Bulk Modulus (GPa) = 38.84247 47.16211 43.00229
# Shear Modulus (GPa) = -295.23728 28.49664 -133.37032
#
# Velocity S-wave (km/s) = -11.13900 3.46065 -7.48669
# Velocity P-wave (km/s) = 12.21115 5.98236 7.52741
#
# Compressibility (1/GPa) = 0.02574502
#
# Stress axis : x y z
#
# Youngs Moduli (GPa) = 110.74151 77.18625 91.76896
#
# Poissons Ratio (x) = 0.04256 0.39869
# Poissons Ratio (y) = 0.06106 -0.12179
# Poissons Ratio (z) = 0.48112 -0.10243
#
# Static dielectric constant tensor:
#      x y z
#    x 1.900230 0.000000 0.038120 
#    y 0.000000 1.950390 0.000000 
#    z 0.038120 0.000000 1.875820 
# 
# From -- ./inp_files/244702.got.cif
#   From: 2010.05.17/outbox.cif.g08.bks.cpg/sg12_123_cif.got.tgz:244702.got - 2010.06.03 13:09:07.
