data_PCOD9191670
_publ_section_title
;
Structure prediction by ZEFSAII (Michael W. Deem and Ramdas Pophale) SiO2 
 PCOD9191670
Probable space group: C 2/M
;
_chemical_formula_sum "Si O2"
_cell_formula_units_Z 56
_cell_length_a 29.693159
_cell_length_b 9.024814
_cell_length_c 19.068044
_cell_angle_alpha 90.000000
_cell_angle_beta 142.198109
_cell_angle_gamma 90.000000
_cell_volume 3131.943412
_symmetry_space_group_name_H-M "C 2/M"
_symmetry_group_IT_number 12
_symmetry_cell_setting 'monoclinic'
loop_
_space_group_symop_operation_xyz
x,y,z
-x,y,-z
-x,-y,-z
x,-y,z
1/2+x,1/2+y,z
1/2-x,1/2+y,-z
1/2-x,1/2-y,-z
1/2+x,1/2-y,z
loop_
_atom_site_type_symbol
_atom_site_label
_atom_site_fract_x
_atom_site_fract_y
_atom_site_fract_z
Si Si1 0.449625 0.827930 0.588036
Si Si2 0.342274 0.676258 0.345623
Si Si3 0.878969 0.670459 0.245998
Si Si4 0.806106 0.177992 0.865096
Si Si5 0.990040 0.170512 0.775864
Si Si6 0.462018 0.824339 0.028179
Si Si7 0.338100 0.330680 0.060150
O O1 0.399846 0.738819 0.472509
O O2 0.534717 0.823146 0.667809
O O3 0.447382 0.755680 0.662225
O O4 0.427667 0.000000 0.562576
O O5 0.337543 0.500000 0.343474
O O6 0.367177 0.728275 0.298928
O O7 0.262897 0.751325 0.258607
O O8 0.860091 0.500000 0.239685
O O9 0.834487 0.725859 0.123005
O O10 0.882610 0.246369 0.933463
O O11 0.807974 0.000000 0.861859
O O12 0.798778 0.214066 0.939528
O O13 0.075655 0.168767 0.856594
O O14 0.966516 0.000000 0.753448
O O15 0.990560 0.253485 0.850617
O O16 0.453233 0.000000 0.029922
O O17 0.500000 0.802125 0.000000
O O18 0.318586 0.500000 0.054650
#
# Coordination Sequence:
#
# PCOD9191670 Si02
#       7
#     8   8   8   8   8   8   8
#     4  10  20  35  54  75 103 139 181 224 262 304
#     4  12  24  35  50  72 103 142 180 220 265 312
#     4  10  20  33  51  74 100 135 180 225 264 303
#     4  10  21  37  55  76 105 138 174 215 262 316
#     4   9  17  31  53  80 107 136 173 213 255 304
#     4  10  20  35  58  87 114 137 165 205 254 310
#     4   8  16  31  50  72  99 132 170 215 262 306
#
# _framework density 17.880272999999999
#
# number of rings (size 3 to 8) (size 9 to 14) (size 15 to 20)
#    0.000    2.143    0.000    4.714    0.000    9.143 
#    0.000    0.000    0.000    0.857    0.000    0.000 
#    0.000    0.000    0.000    0.000    0.000    0.000 
#
# Total GULP energy -156395.842156 kJ/mol
# GULP energy per Si atom -5585.565791 kJ/mol
# Density = 1.783958 g / cm^3
# Si number density = 17.880273 Si / 1000 Ang^3
#
#
#
# Elastic Constant Matrix: (Units=GPa)
#
#
# Indices 1 2 3 4 5 6 
#
# 1 68.3836 59.6187 32.9456 0.0000 -13.6399 0.0000
# 2 59.6187 142.2105 62.5518 0.0000 -13.3539 0.0000
# 3 32.9456 62.5518 105.3290 0.0000 -8.9007 0.0000
# 4 0.0000 0.0000 0.0000 34.0671 0.0000 -4.1838
# 5 -13.6399 -13.3539 -8.9007 0.0000 20.4030 0.0000
# 6 0.0000 0.0000 0.0000 -4.1838 0.0000 24.8085
#
#
#
# Elastic Compliance Matrix: (Units=1/GPa)
#
#
# Indices 1 2 3 4 5 6 
#
# 1 0.025234 -0.008828 -0.001779 0.000000 0.010316 0.000000
# 2 -0.008828 0.012916 -0.004873 0.000000 0.000426 0.000000
# 3 -0.001779 -0.004873 0.013056 0.000000 0.001317 0.000000
# 4 0.000000 0.000000 0.000000 0.029975 0.000000 0.005055
# 5 0.010316 0.000426 0.001317 0.000000 0.056762 0.000000
# 6 0.000000 0.000000 0.000000 0.005055 0.000000 0.041161
#
#
# Mechanical properties :
#
#
# Convention : Reuss Voigt Hill
#
# Bulk Modulus (GPa) = 49.39072 69.57280 59.48176
# Shear Modulus (GPa) = 23.06130 26.57618 24.81874
#
# Velocity S-wave (km/s) = 3.59522 3.85949 3.72970
# Velocity P-wave (km/s) = 6.70203 7.67175 7.20322
#
# Compressibility (1/GPa) = 0.02024672
#
# Stress axis : x y z
#
# Youngs Moduli (GPa) = 39.62850 77.42144 76.59436
#
# Poissons Ratio (x) = 0.68347 0.13623
# Poissons Ratio (y) = 0.34984 0.37327
# Poissons Ratio (z) = 0.07048 0.37730
#
# Static dielectric constant tensor:
#      x y z
#    x 1.603540 0.000000 0.017930 
#    y 0.000000 1.597520 0.000000 
#    z 0.017930 0.000000 1.612430 
# 
# From -- ./inp_files/287312.got.cif
#   From: 2010.05.17/outbox.cif.g08.bks.cpg/sg12_144_cif.got.tgz:287312.got - 2010.06.03 13:09:07.
