data_PCOD9191145
_publ_section_title
;
Structure prediction by ZEFSAII (Michael W. Deem and Ramdas Pophale) SiO2 
 PCOD9191145
Probable space group: C 2/M
;
_chemical_formula_sum "Si O2"
_cell_formula_units_Z 56
_cell_length_a 20.405416
_cell_length_b 7.502648
_cell_length_c 14.672319
_cell_angle_alpha 90.000000
_cell_angle_beta 86.552261
_cell_angle_gamma 90.000000
_cell_volume 2242.188026
_symmetry_space_group_name_H-M "C 2/M"
_symmetry_group_IT_number 12
_symmetry_cell_setting 'monoclinic'
loop_
_space_group_symop_operation_xyz
x,y,z
-x,y,-z
-x,-y,-z
x,-y,z
1/2+x,1/2+y,z
1/2-x,1/2+y,-z
1/2-x,1/2-y,-z
1/2+x,1/2-y,z
loop_
_atom_site_type_symbol
_atom_site_label
_atom_site_fract_x
_atom_site_fract_y
_atom_site_fract_z
Si Si1 0.300234 0.702500 0.134017
Si Si2 0.526534 0.283205 0.706436
Si Si3 0.984962 0.216757 0.899510
Si Si4 0.756676 0.707262 0.329509
Si Si5 0.864384 0.707232 0.450251
Si Si6 0.886216 0.797695 0.650557
Si Si7 0.839873 0.783340 0.937042
O O1 0.322387 0.500000 0.145638
O O2 0.298262 0.787103 0.233213
O O3 0.224655 0.708957 0.105303
O O4 0.339218 0.774588 0.043360
O O5 0.529077 0.500000 0.702341
O O6 0.530786 0.227975 0.811970
O O7 0.580814 0.216849 0.632499
O O8 0.454756 0.221256 0.678456
O O9 0.908921 0.263390 0.886590
O O10 0.988098 0.000000 0.902047
O O11 0.000000 0.280119 0.000000
O O12 0.745871 0.500000 0.353096
O O13 0.798847 0.784231 0.408676
O O14 0.684389 0.785854 0.319673
O O15 0.854050 0.500000 0.474500
O O16 0.886353 0.800052 0.540772
O O17 0.885321 0.000000 0.688494
O O18 0.833374 0.000000 0.936971
#
# Coordination Sequence:
#
# PCOD9191145 Si02
#       7
#     8   8   8   8   8   8   8
#     4  10  20  32  54  85 112 146 188 232 283 338
#     4  10  21  37  61  87 113 150 195 240 283 335
#     4   9  18  33  57  84 110 146 194 238 272 321
#     4  10  22  39  59  83 116 151 188 234 290 343
#     4  11  24  39  58  87 120 153 185 234 299 350
#     4  10  21  40  63  85 110 151 200 241 282 335
#     4   9  18  34  54  79 112 148 190 236 281 328
#
# _framework density 24.975605000000002
#
# number of rings (size 3 to 8) (size 9 to 14) (size 15 to 20)
#    0.000    2.143    0.000    2.571    2.000    6.857 
#    0.000    2.143    0.000    0.857    0.000    0.000 
#    0.000    0.000    0.000    0.000    0.000    0.000 
#
# Total GULP energy -156593.817443 kJ/mol
# GULP energy per Si atom -5592.636337 kJ/mol
# Density = 2.491876 g / cm^3
# Si number density = 24.975605 Si / 1000 Ang^3
#
#
#
# Elastic Constant Matrix: (Units=GPa)
#
#
# Indices 1 2 3 4 5 6 
#
# 1 64.4831 -3.3036 12.5721 0.0000 -8.8011 0.0000
# 2 -3.3036 71.6363 -6.1494 0.0000 1.5729 0.0000
# 3 12.5721 -6.1494 130.6134 0.0000 -14.4042 0.0000
# 4 0.0000 0.0000 0.0000 11.0039 0.0000 -4.1543
# 5 -8.8011 1.5729 -14.4042 0.0000 46.4340 0.0000
# 6 0.0000 0.0000 0.0000 -4.1543 0.0000 8.3657
#
#
#
# Elastic Compliance Matrix: (Units=1/GPa)
#
#
# Indices 1 2 3 4 5 6 
#
# 1 0.016141 0.000580 -0.001233 0.000000 0.002657 0.000000
# 2 0.000580 0.014040 0.000585 0.000000 -0.000184 0.000000
# 3 -0.001233 0.000585 0.008050 0.000000 0.002244 0.000000
# 4 0.000000 0.000000 0.000000 0.111844 0.000000 0.055539
# 5 0.002657 -0.000184 0.002244 0.000000 0.022742 0.000000
# 6 0.000000 0.000000 0.000000 0.055539 0.000000 0.147115
#
#
# Mechanical properties :
#
#
# Convention : Reuss Voigt Hill
#
# Bulk Modulus (GPa) = 26.25048 30.33010 28.29029
# Shear Modulus (GPa) = 15.02557 30.73499 22.88028
#
# Velocity S-wave (km/s) = 2.45543 3.51180 3.03001
# Velocity P-wave (km/s) = 4.30954 5.34919 4.85726
#
# Compressibility (1/GPa) = 0.03809455
#
# Stress axis : x y z
#
# Youngs Moduli (GPa) = 61.95488 71.22299 124.22598
#
# Poissons Ratio (x) = -0.04132 0.15321
# Poissons Ratio (y) = -0.03594 -0.07266
# Poissons Ratio (z) = 0.07641 -0.04166
#
# Static dielectric constant tensor:
#      x y z
#    x 1.976690 0.000000 0.012900 
#    y 0.000000 2.008180 0.000000 
#    z 0.012900 0.000000 1.951910 
# 
# From -- ./inp_files/231065.got.cif
#   From: 2010.05.17/outbox.cif.g08.bks.cpg/sg12_116_cif.got.tgz:231065.got - 2010.06.03 13:09:07.
