data_PCOD9191147
_publ_section_title
;
Structure prediction by ZEFSAII (Michael W. Deem and Ramdas Pophale) SiO2 
 PCOD9191147
Probable space group: C 2/M
;
_chemical_formula_sum "Si O2"
_cell_formula_units_Z 52
_cell_length_a 28.319695
_cell_length_b 8.963079
_cell_length_c 20.006485
_cell_angle_alpha 90.000000
_cell_angle_beta 147.654377
_cell_angle_gamma 90.000000
_cell_volume 2717.007627
_symmetry_space_group_name_H-M "C 2/M"
_symmetry_group_IT_number 12
_symmetry_cell_setting 'monoclinic'
loop_
_space_group_symop_operation_xyz
x,y,z
-x,y,-z
-x,-y,-z
x,-y,z
1/2+x,1/2+y,z
1/2-x,1/2+y,-z
1/2-x,1/2-y,-z
1/2+x,1/2-y,z
loop_
_atom_site_type_symbol
_atom_site_label
_atom_site_fract_x
_atom_site_fract_y
_atom_site_fract_z
Si Si1 0.889393 0.824770 0.185396
Si Si2 0.261217 0.319180 0.400648
Si Si3 0.811228 0.669646 0.824691
Si Si4 0.000000 0.751329 0.000000
Si Si5 0.780165 0.678480 0.935077
Si Si6 0.555386 0.177248 0.334863
Si Si7 0.084551 0.830250 0.239173
O O1 0.822425 0.805116 0.167154
O O2 0.979223 0.732185 0.293549
O O3 0.909247 0.000000 0.202270
O O4 0.835622 0.766526 0.056610
O O5 0.259377 0.500000 0.401524
O O6 0.244040 0.267542 0.303426
O O7 0.352282 0.253740 0.535750
O O8 0.177800 0.253043 0.340688
O O9 0.780298 0.500000 0.795610
O O10 0.912846 0.668133 0.922222
O O11 0.800363 0.736893 0.884961
O O12 0.964491 0.832142 0.890981
O O13 0.801720 0.500000 0.965906
O O14 0.532580 0.238830 0.233417
O O15 0.562913 0.000000 0.342809
O O16 0.098177 0.000000 0.277845
#
# Coordination Sequence:
#
# PCOD9191147 Si02
#       7
#     8   8   8   4   8   8   8
#     4  10  20  34  55  82 110 142 181 225 270 320
#     4  10  21  38  57  79 108 143 183 223 267 320
#     4   9  18  33  55  81 110 144 180 221 267 318
#     4  10  20  32  54  86 117 144 175 214 263 320
#     4   9  18  35  57  82 112 144 179 220 270 322
#     4  12  24  38  56  78 106 143 185 227 271 319
#     4  11  22  37  56  81 113 145 178 218 267 321
#
# _framework density 19.138701000000001
#
# number of rings (size 3 to 8) (size 9 to 14) (size 15 to 20)
#    0.000    1.846    0.000    4.615    0.000    3.692 
#    0.000    4.615    0.000    4.615    0.000    0.000 
#    0.000    0.000    0.000    0.000    0.000    0.000 
#
# Total GULP energy -145061.542298 kJ/mol
# GULP energy per Si atom -5579.290088 kJ/mol
# Density = 1.909514 g / cm^3
# Si number density = 19.138701 Si / 1000 Ang^3
#
#
#
# Elastic Constant Matrix: (Units=GPa)
#
#
# Indices 1 2 3 4 5 6 
#
# 1 96.7924 23.0250 23.1227 0.0000 -7.1478 0.0000
# 2 23.0250 101.6589 24.0646 0.0000 7.7631 0.0000
# 3 23.1227 24.0646 73.7559 0.0000 4.4674 0.0000
# 4 0.0000 0.0000 0.0000 17.8712 0.0000 5.6027
# 5 -7.1478 7.7631 4.4674 0.0000 26.0272 0.0000
# 6 0.0000 0.0000 0.0000 5.6027 0.0000 16.9002
#
#
#
# Elastic Compliance Matrix: (Units=1/GPa)
#
#
# Indices 1 2 3 4 5 6 
#
# 1 0.011996 -0.002285 -0.003290 0.000000 0.004541 0.000000
# 2 -0.002285 0.011274 -0.002749 0.000000 -0.003518 0.000000
# 3 -0.003290 -0.002749 0.015655 0.000000 -0.002771 0.000000
# 4 0.000000 0.000000 0.000000 0.062446 0.000000 -0.020702
# 5 0.004541 -0.003518 -0.002771 0.000000 0.041193 0.000000
# 6 0.000000 0.000000 0.000000 -0.020702 0.000000 0.066034
#
#
# Mechanical properties :
#
#
# Convention : Reuss Voigt Hill
#
# Bulk Modulus (GPa) = 44.89118 45.84797 45.36958
# Shear Modulus (GPa) = 21.48950 25.62603 23.55776
#
# Velocity S-wave (km/s) = 3.35450 3.66316 3.51222
# Velocity P-wave (km/s) = 6.20566 6.47296 6.34072
#
# Compressibility (1/GPa) = 0.02227609
#
# Stress axis : x y z
#
# Youngs Moduli (GPa) = 83.35901 88.70188 63.87938
#
# Poissons Ratio (x) = 0.20268 0.21019
# Poissons Ratio (y) = 0.19047 0.17560
# Poissons Ratio (z) = 0.27429 0.24383
#
# Static dielectric constant tensor:
#      x y z
#    x 1.698380 0.000000 -0.017850 
#    y 0.000000 1.655590 0.000000 
#    z -0.017850 0.000000 1.672300 
# 
# From -- ./inp_files/329326.got.cif
#   From: 2010.05.17/outbox.cif.g08.bks.cpg/sg12_165_cif.got.tgz:329326.got - 2010.06.03 13:09:07.
