data_PCOD9191777
_publ_section_title
;
Structure prediction by ZEFSAII (Michael W. Deem and Ramdas Pophale) SiO2 
 PCOD9191777
Probable space group: C 2/M
;
_chemical_formula_sum "Si O2"
_cell_formula_units_Z 58
_cell_length_a 18.833670
_cell_length_b 7.608234
_cell_length_c 21.276269
_cell_angle_alpha 90.000000
_cell_angle_beta 107.010244
_cell_angle_gamma 90.000000
_cell_volume 2915.324209
_symmetry_space_group_name_H-M "C 2/M"
_symmetry_group_IT_number 12
_symmetry_cell_setting 'monoclinic'
loop_
_space_group_symop_operation_xyz
x,y,z
-x,y,-z
-x,-y,-z
x,-y,z
1/2+x,1/2+y,z
1/2-x,1/2+y,-z
1/2-x,1/2-y,-z
1/2+x,1/2-y,z
loop_
_atom_site_type_symbol
_atom_site_label
_atom_site_fract_x
_atom_site_fract_y
_atom_site_fract_z
Si Si1 0.401500 0.210068 0.105183
Si Si2 0.667290 0.797803 0.038049
Si Si3 0.000000 0.500000 0.500000
Si Si4 0.430144 0.706603 0.878565
Si Si5 0.715204 0.292642 0.831433
Si Si6 0.375213 0.294811 0.505498
Si Si7 0.222909 0.787020 0.399512
Si Si8 0.687269 0.703678 0.252367
O O1 0.484917 0.270903 0.116892
O O2 0.365930 0.262682 0.162063
O O3 0.401228 0.000000 0.100725
O O4 0.351423 0.281731 0.034272
O O5 0.593500 0.792393 0.061844
O O6 0.729661 0.718118 0.099944
O O7 0.689010 0.000000 0.033094
O O8 0.062278 0.656159 0.498358
O O9 0.414273 0.500000 0.882148
O O10 0.377013 0.779252 0.809420
O O11 0.728863 0.500000 0.829407
O O12 0.738854 0.213208 0.771316
O O13 0.400141 0.500000 0.513823
O O14 0.303052 0.283268 0.441319
O O15 0.339190 0.246586 0.564177
O O16 0.199945 0.721532 0.324529
O O17 0.229755 0.000000 0.399802
O O18 0.666983 0.500000 0.256576
#
# Coordination Sequence:
#
# PCOD9191777 Si02
#       8
#     8   8   2   8   8   8   8   8
#     4  11  21  33  50  70 102 141 177 227 293 351
#     4   9  19  34  51  71  97 133 180 229 285 348
#     4  12  22  40  60  98 144 170 190 264 316 346
#     4  10  20  33  51  77 103 136 179 230 282 340
#     4  10  20  34  51  76 103 135 181 236 284 339
#     4  10  21  37  65  98 132 168 208 252 304 362
#     4   9  18  38  64  92 119 161 213 251 290 361
#     4   9  19  37  60  79 108 146 189 232 275 333
#
# _framework density 19.894870999999998
#
# number of rings (size 3 to 8) (size 9 to 14) (size 15 to 20)
#    0.000    2.207    0.690    2.276    0.966    4.414 
#    0.000    1.379    3.034    3.310    0.000    0.000 
#    0.000    0.000    0.000    0.000    0.000    0.000 
#
# Total GULP energy -161536.347888 kJ/mol
# GULP energy per Si atom -5570.218893 kJ/mol
# Density = 1.984959 g / cm^3
# Si number density = 19.894871 Si / 1000 Ang^3
#
#
#
# Elastic Constant Matrix: (Units=GPa)
#
#
# Indices 1 2 3 4 5 6 
#
# 1 112.8540 28.9563 21.9931 0.0000 -12.3236 0.0000
# 2 28.9563 90.9125 15.1461 0.0000 -0.1350 0.0000
# 3 21.9931 15.1461 97.9871 0.0000 -18.2697 0.0000
# 4 0.0000 0.0000 0.0000 9.7483 0.0000 -0.4001
# 5 -12.3236 -0.1350 -18.2697 0.0000 9.0010 0.0000
# 6 0.0000 0.0000 0.0000 -0.4001 0.0000 30.7463
#
#
#
# Elastic Compliance Matrix: (Units=1/GPa)
#
#
# Indices 1 2 3 4 5 6 
#
# 1 0.011648 -0.003938 0.001539 0.000000 0.019013 0.000000
# 2 -0.003938 0.012789 -0.003318 0.000000 -0.011935 0.000000
# 3 0.001539 -0.003318 0.017306 0.000000 0.037184 0.000000
# 4 0.000000 0.000000 0.000000 0.102636 0.000000 0.001336
# 5 0.019013 -0.011935 0.037184 0.000000 0.212424 0.000000
# 6 0.000000 0.000000 0.000000 0.001336 0.000000 0.032542
#
#
# Mechanical properties :
#
#
# Convention : Reuss Voigt Hill
#
# Bulk Modulus (GPa) = 32.99420 48.21608 40.60514
# Shear Modulus (GPa) = 12.16898 25.60967 18.88933
#
# Velocity S-wave (km/s) = 2.47587 3.59172 3.08467
# Velocity P-wave (km/s) = 4.97931 6.44117 5.75683
#
# Compressibility (1/GPa) = 0.03030835
#
# Stress axis : x y z
#
# Youngs Moduli (GPa) = 85.85433 78.19213 57.78422
#
# Poissons Ratio (x) = 0.30793 -0.08895
# Poissons Ratio (y) = 0.33810 0.19174
# Poissons Ratio (z) = -0.13216 0.25946
#
# Static dielectric constant tensor:
#      x y z
#    x 1.703020 0.000000 0.000750 
#    y 0.000000 1.762040 0.000000 
#    z 0.000750 0.000000 1.721630 
# 
# From -- ./inp_files/275434.got.cif
#   From: 2010.05.17/outbox.cif.g08.bks.cpg/sg12_138_cif.got.tgz:275434.got - 2010.06.03 13:09:07.
