data_PCOD9191130
_publ_section_title
;
Structure prediction by ZEFSAII (Michael W. Deem and Ramdas Pophale) SiO2 
 PCOD9191130
Probable space group: C 2/M
;
_chemical_formula_sum "Si O2"
_cell_formula_units_Z 48
_cell_length_a 9.998371
_cell_length_b 16.544798
_cell_length_c 17.776762
_cell_angle_alpha 90.000000
_cell_angle_beta 125.674407
_cell_angle_gamma 90.000000
_cell_volume 2388.819894
_symmetry_space_group_name_H-M "C 2/M"
_symmetry_group_IT_number 12
_symmetry_cell_setting 'monoclinic'
loop_
_space_group_symop_operation_xyz
x,y,z
-x,y,-z
-x,-y,-z
x,-y,z
1/2+x,1/2+y,z
1/2-x,1/2+y,-z
1/2-x,1/2-y,-z
1/2+x,1/2-y,z
loop_
_atom_site_type_symbol
_atom_site_label
_atom_site_fract_x
_atom_site_fract_y
_atom_site_fract_z
Si Si1 0.601723 0.087964 0.324379
Si Si2 0.372831 0.239859 0.889222
Si Si3 0.636885 0.910848 0.610900
Si Si4 0.115590 0.347640 0.866659
Si Si5 0.302783 0.088230 0.947235
Si Si6 0.695852 0.256204 0.568626
O O1 0.467539 0.096415 0.346954
O O2 0.502048 0.090472 0.213828
O O3 0.719697 0.165170 0.367893
O O4 0.683266 0.000000 0.360581
O O5 0.245320 0.312302 0.849986
O O6 0.490496 0.220228 0.858443
O O7 0.266339 0.160066 0.877323
O O8 0.500000 0.252899 0.000000
O O9 0.500000 0.913351 0.500000
O O10 0.733940 0.828051 0.624877
O O11 0.720699 0.000000 0.638242
O O12 0.210325 0.382322 0.970753
O O13 0.227060 0.000000 0.910631
O O14 0.500000 0.080195 0.000000
O O15 0.500000 0.266357 0.500000
O O16 0.750000 0.250000 0.500000
#
# Coordination Sequence:
#
# PCOD9191130 Si02
#       6
#     8   8   8   8   8   8
#     4  11  23  37  58  86 116 148 190 236 285 338
#     4   9  18  33  54  79 105 144 185 227 267 334
#     4   9  18  36  59  80 108 149 187 220 276 348
#     4  10  20  32  54  80 110 141 181 227 284 327
#     4   8  14  28  50  74 100 135 178 218 262 319
#     4  11  21  37  61  86 111 147 192 233 280 334
#
# _framework density 20.093603999999999
#
# number of rings (size 3 to 8) (size 9 to 14) (size 15 to 20)
#    0.000    2.667    3.333    2.500    2.333    1.000 
#    0.000    0.000    0.000   10.000    0.000    0.000 
#    0.000    0.000    0.000    0.000    0.000    0.000 
#
# Total GULP energy -133606.425205 kJ/mol
# GULP energy per Si atom -5566.934384 kJ/mol
# Density = 2.004787 g / cm^3
# Si number density = 20.093604 Si / 1000 Ang^3
#
#
#
# Elastic Constant Matrix: (Units=GPa)
#
#
# Indices 1 2 3 4 5 6 
#
# 1 68.7834 24.6799 4.8154 0.0000 -5.1759 0.0000
# 2 24.6799 158.5436 0.2205 0.0000 24.7163 0.0000
# 3 4.8154 0.2205 13.4067 0.0000 3.9429 0.0000
# 4 0.0000 0.0000 0.0000 16.1433 0.0000 14.0121
# 5 -5.1759 24.7163 3.9429 0.0000 9.8712 0.0000
# 6 0.0000 0.0000 0.0000 14.0121 0.0000 12.5340
#
#
#
# Elastic Compliance Matrix: (Units=1/GPa)
#
#
# Indices 1 2 3 4 5 6 
#
# 1 0.024395 -0.011885 -0.023887 0.000000 0.052092 0.000000
# 2 -0.011885 0.017054 0.020826 0.000000 -0.057252 0.000000
# 3 -0.023887 0.020826 0.115404 0.000000 -0.110769 0.000000
# 4 0.000000 0.000000 0.000000 2.088909 0.000000 -2.335255
# 5 0.052092 -0.057252 -0.110769 0.000000 0.316219 0.000000
# 6 0.000000 0.000000 0.000000 -2.335255 0.000000 2.690436
#
#
# Mechanical properties :
#
#
# Convention : Reuss Voigt Hill
#
# Bulk Modulus (GPa) = 7.87643 33.35171 20.61407
# Shear Modulus (GPa) = 0.93903 21.77756 11.35830
#
# Velocity S-wave (km/s) = 0.68436 3.29569 2.38012
# Velocity P-wave (km/s) = 2.13374 5.57820 4.22310
#
# Compressibility (1/GPa) = 0.12696101
#
# Stress axis : x y z
#
# Youngs Moduli (GPa) = 40.99178 58.63741 8.66520
#
# Poissons Ratio (x) = 0.69692 0.20699
# Poissons Ratio (y) = 0.48720 -0.18047
# Poissons Ratio (z) = 0.97918 -1.22121
#
# Static dielectric constant tensor:
#      x y z
#    x 1.904390 0.000000 0.227700 
#    y 0.000000 1.826420 0.000000 
#    z 0.227700 0.000000 1.989710 
# 
# From -- ./inp_files/256709.got.cif
#   From: 2010.05.17/outbox.cif.g08.bks.cpg/sg12_129_cif.got.tgz:256709.got - 2010.06.03 13:09:07.
