data_PCOD9191804
_publ_section_title
;
Structure prediction by ZEFSAII (Michael W. Deem and Ramdas Pophale) SiO2 
 PCOD9191804
Probable space group: C 2/M
;
_chemical_formula_sum "Si O2"
_cell_formula_units_Z 50
_cell_length_a 14.226326
_cell_length_b 7.634500
_cell_length_c 24.495852
_cell_angle_alpha 90.000000
_cell_angle_beta 124.017085
_cell_angle_gamma 90.000000
_cell_volume 2205.224153
_symmetry_space_group_name_H-M "C 2/M"
_symmetry_group_IT_number 12
_symmetry_cell_setting 'monoclinic'
loop_
_space_group_symop_operation_xyz
x,y,z
-x,y,-z
-x,-y,-z
x,-y,z
1/2+x,1/2+y,z
1/2-x,1/2+y,-z
1/2-x,1/2-y,-z
1/2+x,1/2-y,z
loop_
_atom_site_type_symbol
_atom_site_label
_atom_site_fract_x
_atom_site_fract_y
_atom_site_fract_z
Si Si1 0.596892 0.294801 0.459632
Si Si2 0.325124 0.207566 0.096838
Si Si3 0.154860 0.203937 0.363341
Si Si4 0.000000 0.500000 0.500000
Si Si5 0.578643 0.200704 0.980240
Si Si6 0.411103 0.712627 0.244624
Si Si7 0.835499 0.796934 0.333063
O O1 0.615259 0.500000 0.481192
O O2 0.669453 0.229433 0.430283
O O3 0.586516 0.153908 0.504059
O O4 0.466629 0.285576 0.393710
O O5 0.410470 0.274053 0.077338
O O6 0.368465 0.233758 0.171718
O O7 0.308928 0.000000 0.082048
O O8 0.204928 0.296002 0.045929
O O9 0.253915 0.217061 0.351615
O O10 0.039208 0.275367 0.298649
O O11 0.132665 0.000000 0.366589
O O12 0.538030 0.000000 0.960324
O O13 0.500000 0.287993 0.000000
O O14 0.410796 0.500000 0.245889
O O15 0.334296 0.773785 0.270831
O O16 0.803646 0.000000 0.320939
#
# Coordination Sequence:
#
# PCOD9191804 Si02
#       7
#     8   8   8   2   8   8   8
#     4   9  21  40  58  84 119 149 186 236 281 332
#     4  10  20  33  51  78 106 132 181 231 265 323
#     4   9  19  36  59  81 112 146 181 227 281 329
#     4  12  22  36  68  86 108 158 198 224 280 334
#     4   9  19  36  54  70  99 146 180 216 277 328
#     4   9  19  36  53  78 109 147 177 220 282 330
#     4   9  19  36  59  80 110 146 182 225 280 333
#
# _framework density 22.673432999999999
#
# number of rings (size 3 to 8) (size 9 to 14) (size 15 to 20)
#    0.000    2.720    0.000    2.640    2.240    3.520 
#    2.880    5.600    0.000    0.000    0.000    0.000 
#    0.000    0.000    0.000    0.000    0.000    0.000 
#
# Total GULP energy -139290.872007 kJ/mol
# GULP energy per Si atom -5571.634880 kJ/mol
# Density = 2.262183 g / cm^3
# Si number density = 22.673433 Si / 1000 Ang^3
#
#
#
# Elastic Constant Matrix: (Units=GPa)
#
#
# Indices 1 2 3 4 5 6 
#
# 1 160.1683 18.0968 46.5909 0.0000 -48.8817 0.0000
# 2 18.0968 75.6286 13.1261 0.0000 -11.1450 0.0000
# 3 46.5909 13.1261 131.8105 0.0000 -41.1619 0.0000
# 4 0.0000 0.0000 0.0000 13.4831 0.0000 -5.9767
# 5 -48.8817 -11.1450 -41.1619 0.0000 30.8897 0.0000
# 6 0.0000 0.0000 0.0000 -5.9767 0.0000 20.4958
#
#
#
# Elastic Compliance Matrix: (Units=1/GPa)
#
#
# Indices 1 2 3 4 5 6 
#
# 1 0.012764 -0.000008 0.003076 0.000000 0.024294 0.000000
# 2 -0.000008 0.013973 0.000311 0.000000 0.005444 0.000000
# 3 0.003076 0.000311 0.013742 0.000000 0.023291 0.000000
# 4 0.000000 0.000000 0.000000 0.085177 0.000000 0.024838
# 5 0.024294 0.005444 0.023291 0.000000 0.103818 0.000000
# 6 0.000000 0.000000 0.000000 0.024838 0.000000 0.056033
#
#
# Mechanical properties :
#
#
# Convention : Reuss Voigt Hill
#
# Bulk Modulus (GPa) = 21.17007 58.13722 39.65365
# Shear Modulus (GPa) = 16.97825 32.29329 24.63577
#
# Velocity S-wave (km/s) = 2.73942 3.77806 3.29986
# Velocity P-wave (km/s) = 4.40035 6.68793 5.66090
#
# Compressibility (1/GPa) = 0.04723650
#
# Stress axis : x y z
#
# Youngs Moduli (GPa) = 78.34554 71.56882 72.77039
#
# Poissons Ratio (x) = 0.00057 -0.22382
# Poissons Ratio (y) = 0.00062 -0.02265
# Poissons Ratio (z) = -0.24097 -0.02228
#
# Static dielectric constant tensor:
#      x y z
#    x 1.894450 0.000000 -0.019010 
#    y 0.000000 1.939070 0.000000 
#    z -0.019010 0.000000 1.856550 
# 
# From -- ./inp_files/338251.got.cif
#   From: 2010.05.17/outbox.cif.g08.bks.cpg/sg12_170_cif.got.tgz:338251.got - 2010.06.03 13:09:07.
