data_PCOD9191523
_publ_section_title
;
Structure prediction by ZEFSAII (Michael W. Deem and Ramdas Pophale) SiO2 
 PCOD9191523
Probable space group: C 2/M
;
_chemical_formula_sum "Si O2"
_cell_formula_units_Z 56
_cell_length_a 20.688836
_cell_length_b 7.303301
_cell_length_c 22.450749
_cell_angle_alpha 90.000000
_cell_angle_beta 38.622389
_cell_angle_gamma 90.000000
_cell_volume 2117.382775
_symmetry_space_group_name_H-M "C 2/M"
_symmetry_group_IT_number 12
_symmetry_cell_setting 'monoclinic'
loop_
_space_group_symop_operation_xyz
x,y,z
-x,y,-z
-x,-y,-z
x,-y,z
1/2+x,1/2+y,z
1/2-x,1/2+y,-z
1/2-x,1/2-y,-z
1/2+x,1/2-y,z
loop_
_atom_site_type_symbol
_atom_site_label
_atom_site_fract_x
_atom_site_fract_y
_atom_site_fract_z
Si Si1 0.622696 0.779862 0.334961
Si Si2 0.916887 0.723352 0.412423
Si Si3 0.781689 0.723137 0.613413
Si Si4 0.348000 0.720286 0.112943
Si Si5 0.929227 0.217305 0.174044
Si Si6 0.750262 0.281473 0.929756
Si Si7 0.525926 0.781172 0.222757
O O1 0.520356 0.719144 0.374297
O O2 0.636783 0.723443 0.393514
O O3 0.733310 0.744504 0.223534
O O4 0.614549 0.000000 0.341294
O O5 0.913811 0.500000 0.414191
O O6 0.819644 0.785086 0.521531
O O7 0.934433 0.785357 0.331879
O O8 0.778416 0.500000 0.615119
O O9 0.671167 0.787525 0.717342
O O10 0.365494 0.500000 0.095831
O O11 0.425424 0.787660 0.109031
O O12 0.335789 0.789625 0.054212
O O13 0.018140 0.239037 0.158623
O O14 0.916504 0.000000 0.176614
O O15 0.748702 0.500000 0.923253
O O16 0.865090 0.215087 0.829757
O O17 0.750000 0.250000 0.000000
O O18 0.526745 0.000000 0.225981
#
# Coordination Sequence:
#
# PCOD9191523 Si02
#       7
#     8   8   8   8   8   8   8
#     4   8  11  19  38  65  95 124 158 202 244 276
#     4   9  14  22  39  66  99 130 161 199 243 282
#     4   8  14  22  38  67  98 128 165 204 234 269
#     4   8  14  29  51  72  96 128 163 200 241 285
#     4   9  18  32  50  72 102 136 167 198 234 280
#     4  10  20  36  57  79  99 121 157 204 251 297
#     4  10  20  33  50  73 102 133 161 196 246 298
#
# _framework density 26.447745999999999
#
# number of rings (size 3 to 8) (size 9 to 14) (size 15 to 20)
#    0.000    3.143    1.429    2.143    0.000    2.857 
#    0.000    1.429    0.000    4.286    0.000    0.000 
#    0.000    3.714    0.000    0.000    0.000    0.000 
#
# Total GULP energy -156360.875440 kJ/mol
# GULP energy per Si atom -5584.316980 kJ/mol
# Density = 2.638755 g / cm^3
# Si number density = 26.447746 Si / 1000 Ang^3
#
#
#
# Elastic Constant Matrix: (Units=GPa)
#
#
# Indices 1 2 3 4 5 6 
#
# 1 189.9271 1.3577 60.1034 0.0002 35.2699 -0.0015
# 2 1.3577 105.4931 -0.9570 -0.0003 2.3479 -0.0040
# 3 60.1034 -0.9570 124.6627 0.0000 40.9084 -0.0012
# 4 0.0002 -0.0003 0.0000 -3.6134 0.0002 5.6935
# 5 35.2699 2.3479 40.9084 0.0002 51.0477 0.0005
# 6 -0.0015 -0.0040 -0.0012 5.6935 0.0005 0.7450
#
#
#
# Elastic Compliance Matrix: (Units=1/GPa)
#
#
# Indices 1 2 3 4 5 6 
#
# 1 0.006472 -0.000044 -0.002244 0.000001 -0.002671 0.000001
# 2 -0.000044 0.009497 0.000309 0.000006 -0.000654 0.000004
# 3 -0.002244 0.000309 0.011671 0.000003 -0.007817 0.000002
# 4 0.000001 0.000006 0.000003 -0.021221 -0.000005 0.162170
# 5 -0.002671 -0.000654 -0.007817 -0.000005 0.027729 -0.000004
# 6 0.000001 0.000004 0.000002 0.162170 -0.000004 0.102921
#
#
# Mechanical properties :
#
#
# Convention : Reuss Voigt Hill
#
# Bulk Modulus (GPa) = 42.22813 60.12121 51.17467
# Shear Modulus (GPa) = 33.57471 33.60780 33.59126
#
# Velocity S-wave (km/s) = 3.56683 3.56859 3.56771
# Velocity P-wave (km/s) = 5.74146 6.30565 6.03016
#
# Compressibility (1/GPa) = 0.02368090
#
# Stress axis : x y z
#
# Youngs Moduli (GPa) = 154.52043 105.29402 85.68305
#
# Poissons Ratio (x) = 0.00465 0.19227
# Poissons Ratio (y) = 0.00683 -0.02645
# Poissons Ratio (z) = 0.34674 -0.03251
#
# Static dielectric constant tensor:
#      x y z
#    x 1.825140 0.000030 0.010650 
#    y 0.000030 2.250080 0.000000 
#    z 0.010650 0.000000 2.098020 
# 
# From -- ./inp_files/276949.got.cif
#   From: 2010.05.17/outbox.cif.g08.bks.cpg/sg12_139_cif.got.tgz:276949.got - 2010.06.03 13:09:07.
