data_PCOD9191768
_publ_section_title
;
Structure prediction by ZEFSAII (Michael W. Deem and Ramdas Pophale) SiO2 
 PCOD9191768
Probable space group: C 2/M
;
_chemical_formula_sum "Si O2"
_cell_formula_units_Z 64
_cell_length_a 26.541517
_cell_length_b 8.343318
_cell_length_c 14.477663
_cell_angle_alpha 90.000000
_cell_angle_beta 75.239861
_cell_angle_gamma 90.000000
_cell_volume 3100.201102
_symmetry_space_group_name_H-M "C 2/M"
_symmetry_group_IT_number 12
_symmetry_cell_setting 'monoclinic'
loop_
_space_group_symop_operation_xyz
x,y,z
-x,y,-z
-x,-y,-z
x,-y,z
1/2+x,1/2+y,z
1/2-x,1/2+y,-z
1/2-x,1/2-y,-z
1/2+x,1/2-y,z
loop_
_atom_site_type_symbol
_atom_site_label
_atom_site_fract_x
_atom_site_fract_y
_atom_site_fract_z
Si Si1 0.902702 0.195141 0.108189
Si Si2 0.578287 0.303856 0.102492
Si Si3 0.715118 0.306327 0.811498
Si Si4 0.972351 0.194561 0.249074
Si Si5 0.177324 0.814177 0.161196
Si Si6 0.052530 0.685370 0.534616
Si Si7 0.248686 0.320811 0.399549
Si Si8 0.647743 0.320204 0.383857
O O1 0.842201 0.245299 0.131093
O O2 0.932243 0.246373 0.187146
O O3 0.903009 0.000000 0.110380
O O4 0.930288 0.242417 0.999860
O O5 0.579740 0.500000 0.105650
O O6 0.530317 0.254844 0.189638
O O7 0.635232 0.245988 0.109274
O O8 0.715687 0.500000 0.808162
O O9 0.765491 0.258405 0.848311
O O10 0.723350 0.243385 0.702416
O O11 0.957217 0.260273 0.356077
O O12 0.971540 0.000000 0.253769
O O13 0.146896 0.807999 0.273704
O O14 0.186251 0.000000 0.132953
O O15 0.069652 0.500000 0.526223
O O16 0.094689 0.791812 0.461802
O O17 0.000000 0.696734 0.500000
O O18 0.269239 0.500000 0.396716
O O19 0.250000 0.250000 0.500000
O O20 0.188680 0.310518 0.398272
O O21 0.667790 0.500000 0.395623
#
# Coordination Sequence:
#
# PCOD9191768 Si02
#       8
#     8   8   8   8   8   8   8   8
#     4   9  18  33  55  83 113 143 178 228 278 326
#     4   9  17  32  56  84 110 139 182 231 279 326
#     4   9  19  34  51  76 111 146 183 225 273 327
#     4  10  20  35  59  85 109 142 185 230 275 329
#     4   9  18  33  54  80 110 143 182 230 274 321
#     4  11  24  39  55  80 114 148 181 224 281 339
#     4  10  20  33  51  76 109 148 187 226 274 329
#     4  10  20  35  55  79 108 142 185 230 274 326
#
# _framework density 20.643822
#
# number of rings (size 3 to 8) (size 9 to 14) (size 15 to 20)
#    0.000    2.375    0.000    2.250    1.750    5.000 
#    0.000    1.250    0.000    3.000    0.000    0.000 
#    0.000    0.000    0.000    0.000    0.000    0.000 
#
# Total GULP energy -178449.842414 kJ/mol
# GULP energy per Si atom -5576.557575 kJ/mol
# Density = 2.059684 g / cm^3
# Si number density = 20.643822 Si / 1000 Ang^3
#
#
#
# Elastic Constant Matrix: (Units=GPa)
#
#
# Indices 1 2 3 4 5 6 
#
# 1 65.4363 3.5194 13.6049 0.0000 8.0709 0.0000
# 2 3.5194 17.5021 6.0151 0.0000 2.9025 0.0000
# 3 13.6049 6.0151 24.4596 0.0000 10.5736 0.0000
# 4 0.0000 0.0000 0.0000 10.8568 0.0000 2.9611
# 5 8.0709 2.9025 10.5736 0.0000 35.9075 0.0000
# 6 0.0000 0.0000 0.0000 2.9611 0.0000 22.6071
#
#
#
# Elastic Compliance Matrix: (Units=1/GPa)
#
#
# Indices 1 2 3 4 5 6 
#
# 1 0.017327 -0.000165 -0.009074 0.000000 -0.001209 0.000000
# 2 -0.000165 0.062424 -0.015004 0.000000 -0.000591 0.000000
# 3 -0.009074 -0.015004 0.055248 0.000000 -0.013016 0.000000
# 4 0.000000 0.000000 0.000000 0.095521 0.000000 -0.012511
# 5 -0.001209 -0.000591 -0.013016 0.000000 0.032002 0.000000
# 6 0.000000 0.000000 0.000000 -0.012511 0.000000 0.045873
#
#
# Mechanical properties :
#
#
# Convention : Reuss Voigt Hill
#
# Bulk Modulus (GPa) = 11.55919 17.07520 14.31719
# Shear Modulus (GPa) = 12.96288 19.49151 16.22719
#
# Velocity S-wave (km/s) = 2.50857 3.07609 2.80671
# Velocity P-wave (km/s) = 3.74193 4.57228 4.17779
#
# Compressibility (1/GPa) = 0.08651126
#
# Stress axis : x y z
#
# Youngs Moduli (GPa) = 57.71454 16.01951 18.10035
#
# Poissons Ratio (x) = 0.00264 0.16424
# Poissons Ratio (y) = 0.00952 0.27158
# Poissons Ratio (z) = 0.52371 0.24036
#
# Static dielectric constant tensor:
#      x y z
#    x 1.751010 0.000000 0.007460 
#    y 0.000000 1.759550 0.000000 
#    z 0.007460 0.000000 1.768110 
# 
# From -- ./inp_files/243772.got.cif
#   From: 2010.05.17/outbox.cif.g08.bks.cpg/sg12_122_cif.got.tgz:243772.got - 2010.06.03 13:09:07.
