data_PCOD9191600
_publ_section_title
;
Structure prediction by ZEFSAII (Michael W. Deem and Ramdas Pophale) SiO2 
 PCOD9191600
Probable space group: C 2/M
;
_chemical_formula_sum "Si O2"
_cell_formula_units_Z 56
_cell_length_a 23.257757
_cell_length_b 15.798587
_cell_length_c 7.956315
_cell_angle_alpha 90.000000
_cell_angle_beta 105.790284
_cell_angle_gamma 90.000000
_cell_volume 2813.146508
_symmetry_space_group_name_H-M "C 2/M"
_symmetry_group_IT_number 12
_symmetry_cell_setting 'monoclinic'
loop_
_space_group_symop_operation_xyz
x,y,z
-x,y,-z
-x,-y,-z
x,-y,z
1/2+x,1/2+y,z
1/2-x,1/2+y,-z
1/2-x,1/2-y,-z
1/2+x,1/2-y,z
loop_
_atom_site_type_symbol
_atom_site_label
_atom_site_fract_x
_atom_site_fract_y
_atom_site_fract_z
Si Si1 0.715701 0.397924 0.914788
Si Si2 0.620903 0.907239 0.694939
Si Si3 0.747100 0.849353 0.695204
Si Si4 0.541275 0.901789 0.195873
Si Si5 0.053709 0.740113 0.445523
Si Si6 0.844056 0.401078 0.899169
Si Si7 0.175452 0.175918 0.557037
O O1 0.716600 0.500000 0.938824
O O2 0.778242 0.367453 0.878179
O O3 0.669887 0.372529 0.731369
O O4 0.715466 0.355462 0.099815
O O5 0.689168 0.907576 0.682672
O O6 0.586019 0.832006 0.582819
O O7 0.594230 0.000000 0.646141
O O8 0.623997 0.892831 0.896269
O O9 0.787497 0.868784 0.564224
O O10 0.714171 0.760061 0.632445
O O11 0.521525 0.821498 0.286638
O O12 0.609806 0.874804 0.205812
O O13 0.541740 0.000000 0.259707
O O14 0.500000 0.905587 0.000000
O O15 0.109307 0.799015 0.440086
O O16 0.000000 0.785679 0.500000
O O17 0.835257 0.500000 0.859152
#
# Coordination Sequence:
#
# PCOD9191600 Si02
#       7
#     8   8   8   8   8   8   8
#     4  10  20  35  59  86 113 146 184 235 289 337
#     4   9  17  31  53  80 113 147 179 222 268 326
#     4   9  19  35  54  85 120 151 186 223 280 344
#     4  10  20  33  50  75 109 150 193 228 261 320
#     4  11  23  37  50  75 108 149 193 227 276 328
#     4   8  16  29  47  75 108 140 175 217 268 317
#     4  10  22  37  55  83 115 152 188 234 285 339
#
# _framework density 19.906535999999999
#
# number of rings (size 3 to 8) (size 9 to 14) (size 15 to 20)
#    0.000    2.429    0.000    3.000    6.000    3.429 
#    2.571    0.000    0.000    0.429    0.000    1.000 
#    0.000    0.000    0.000    0.000    0.000    0.000 
#
# Total GULP energy -155882.011407 kJ/mol
# GULP energy per Si atom -5567.214693 kJ/mol
# Density = 1.986123 g / cm^3
# Si number density = 19.906536 Si / 1000 Ang^3
#
#
#
# Elastic Constant Matrix: (Units=GPa)
#
#
# Indices 1 2 3 4 5 6 
#
# 1 77.3981 8.3436 28.5015 0.0000 -17.6028 0.0000
# 2 8.3436 25.5117 12.6169 0.0000 -5.6988 0.0000
# 3 28.5015 12.6169 73.0459 0.0000 -2.9982 0.0000
# 4 0.0000 0.0000 0.0000 27.0030 0.0000 -0.0243
# 5 -17.6028 -5.6988 -2.9982 0.0000 25.4246 0.0000
# 6 0.0000 0.0000 0.0000 -0.0243 0.0000 11.5276
#
#
#
# Elastic Compliance Matrix: (Units=1/GPa)
#
#
# Indices 1 2 3 4 5 6 
#
# 1 0.017984 -0.000045 -0.006530 0.000000 0.011671 0.000000
# 2 -0.000045 0.044900 -0.007362 0.000000 0.009165 0.000000
# 3 -0.006530 -0.007362 0.017340 0.000000 -0.004127 0.000000
# 4 0.000000 0.000000 0.000000 0.037033 0.000000 0.000078
# 5 0.011671 0.009165 -0.004127 0.000000 0.048980 0.000000
# 6 0.000000 0.000000 0.000000 0.000078 0.000000 0.086748
#
#
# Mechanical properties :
#
#
# Convention : Reuss Voigt Hill
#
# Bulk Modulus (GPa) = 19.10192 30.54217 24.82205
# Shear Modulus (GPa) = 16.76102 21.22395 18.99249
#
# Velocity S-wave (km/s) = 2.90485 3.26878 3.09217
# Velocity P-wave (km/s) = 4.56809 5.44267 5.02445
#
# Compressibility (1/GPa) = 0.05235076
#
# Stress axis : x y z
#
# Youngs Moduli (GPa) = 55.60411 22.27153 57.66926
#
# Poissons Ratio (x) = 0.00100 0.37660
# Poissons Ratio (y) = 0.00250 0.42454
# Poissons Ratio (z) = 0.36312 0.16396
#
# Static dielectric constant tensor:
#      x y z
#    x 1.760090 0.000000 -0.009880 
#    y 0.000000 1.701160 0.000000 
#    z -0.009880 0.000000 1.768800 
# 
# From -- ./inp_files/96462.got.cif
#   From: 2010.05.17/outbox.cif.g08.bks.cpg/sg12_49_cif.got.tgz:96462.got - 2010.06.03 13:09:07.
