data_PCOD9191183
_publ_section_title
;
Structure prediction by ZEFSAII (Michael W. Deem and Ramdas Pophale) SiO2 
 PCOD9191183
Probable space group: C 2/M
;
_chemical_formula_sum "Si O2"
_cell_formula_units_Z 56
_cell_length_a 15.636323
_cell_length_b 24.873887
_cell_length_c 9.206428
_cell_angle_alpha 90.000000
_cell_angle_beta 55.737159
_cell_angle_gamma 90.000000
_cell_volume 2959.328513
_symmetry_space_group_name_H-M "C 2/M"
_symmetry_group_IT_number 12
_symmetry_cell_setting 'monoclinic'
loop_
_space_group_symop_operation_xyz
x,y,z
-x,y,-z
-x,-y,-z
x,-y,z
1/2+x,1/2+y,z
1/2-x,1/2+y,-z
1/2-x,1/2-y,-z
1/2+x,1/2-y,z
loop_
_atom_site_type_symbol
_atom_site_label
_atom_site_fract_x
_atom_site_fract_y
_atom_site_fract_z
Si Si1 0.427112 0.779846 0.692366
Si Si2 0.898562 0.000000 0.997549
Si Si3 0.570393 0.679901 0.659095
Si Si4 0.882675 0.000000 0.662763
Si Si5 0.795179 0.781052 0.226587
Si Si6 0.889425 0.878838 0.963523
Si Si7 0.682811 0.384213 0.299632
Si Si8 0.893721 0.672691 0.032666
O O1 0.500000 0.805468 0.500000
O O2 0.491112 0.727871 0.690540
O O3 0.320232 0.764840 0.712549
O O4 0.402979 0.818682 0.850567
O O5 0.862720 0.062456 0.055128
O O6 0.895556 0.000000 0.824868
O O7 0.000000 0.000000 0.000000
O O8 0.672085 0.703729 0.641640
O O9 0.509604 0.640566 0.830535
O O10 0.611446 0.647459 0.481520
O O11 0.825877 0.052811 0.660653
O O12 0.000000 0.000000 0.500000
O O13 0.870017 0.732498 0.112759
O O14 0.825032 0.832775 0.103491
O O15 0.859286 0.878279 0.822829
O O16 0.798775 0.362614 0.179248
O O17 0.000000 0.653209 0.000000
#
# Coordination Sequence:
#
# PCOD9191183 Si02
#       8
#     8   4   8   4   8   8   8   8
#     4  12  25  39  58  87 125 164 205 251 305 372
#     4  10  20  32  56  85 114 151 204 244 298 359
#     4  12  23  37  59  89 124 160 206 245 311 373
#     4  10  22  42  65  91 126 160 203 260 319 366
#     4  12  23  38  59  86 127 163 202 250 308 371
#     4  11  20  38  56  85 120 162 195 254 307 362
#     4  11  24  40  64  91 121 164 205 255 314 366
#     4  12  23  41  61  88 127 164 207 252 305 372
#
# _framework density 18.923211999999999
#
# number of rings (size 3 to 8) (size 9 to 14) (size 15 to 20)
#    0.000    0.571    4.286    6.429    2.000    1.143 
#    0.000    0.357    0.000    0.000    0.000    1.000 
#    0.000    0.000    0.000    0.000    0.000    0.000 
#
# Total GULP energy -156269.466424 kJ/mol
# GULP energy per Si atom -5581.052372 kJ/mol
# Density = 1.888014 g / cm^3
# Si number density = 18.923212 Si / 1000 Ang^3
#
#
#
# Elastic Constant Matrix: (Units=GPa)
#
#
# Indices 1 2 3 4 5 6 
#
# 1 113.2525 32.2203 30.1035 0.0000 -3.6759 0.0000
# 2 32.2203 134.6962 50.5827 0.0000 -10.4956 0.0000
# 3 30.1035 50.5827 65.5485 0.0000 -10.6853 0.0000
# 4 0.0000 0.0000 0.0000 19.6260 0.0000 1.4186
# 5 -3.6759 -10.4956 -10.6853 0.0000 31.0413 0.0000
# 6 0.0000 0.0000 0.0000 1.4186 0.0000 17.0539
#
#
#
# Elastic Compliance Matrix: (Units=1/GPa)
#
#
# Indices 1 2 3 4 5 6 
#
# 1 0.010151 -0.000966 -0.003998 0.000000 -0.000501 0.000000
# 2 -0.000966 0.010564 -0.007570 0.000000 0.000852 0.000000
# 3 -0.003998 -0.007570 0.023773 0.000000 0.005150 0.000000
# 4 0.000000 0.000000 0.000000 0.051261 0.000000 -0.004264
# 5 -0.000501 0.000852 0.005150 0.000000 0.034217 0.000000
# 6 0.000000 0.000000 0.000000 -0.004264 0.000000 0.058992
#
#
# Mechanical properties :
#
#
# Convention : Reuss Voigt Hill
#
# Bulk Modulus (GPa) = 51.49138 59.92336 55.70737
# Shear Modulus (GPa) = 22.67572 26.91696 24.79634
#
# Velocity S-wave (km/s) = 3.46541 3.77560 3.62383
# Velocity P-wave (km/s) = 6.57889 7.12336 6.85653
#
# Compressibility (1/GPa) = 0.01942073
#
# Stress axis : x y z
#
# Youngs Moduli (GPa) = 98.51130 94.65914 42.06408
#
# Poissons Ratio (x) = 0.09142 0.16819
# Poissons Ratio (y) = 0.09514 0.31842
# Poissons Ratio (z) = 0.39388 0.71656
#
# Static dielectric constant tensor:
#      x y z
#    x 1.727520 0.000000 0.025320 
#    y 0.000000 1.681130 0.000000 
#    z 0.025320 0.000000 1.680040 
# 
# From -- ./inp_files/65808.got.cif
#   From: 2010.05.17/outbox.cif.g08.bks.cpg/sg12_33_cif.got.tgz:65808.got - 2010.06.03 13:09:07.
