data_PCOD9191795
_publ_section_title
;
Structure prediction by ZEFSAII (Michael W. Deem and Ramdas Pophale) SiO2 
 PCOD9191795
Probable space group: C 2/M
;
_chemical_formula_sum "Si O2"
_cell_formula_units_Z 40
_cell_length_a 19.260148
_cell_length_b 7.821900
_cell_length_c 27.681355
_cell_angle_alpha 90.000000
_cell_angle_beta 151.146139
_cell_angle_gamma 90.000000
_cell_volume 2012.454430
_symmetry_space_group_name_H-M "C 2/M"
_symmetry_group_IT_number 12
_symmetry_cell_setting 'monoclinic'
loop_
_space_group_symop_operation_xyz
x,y,z
-x,y,-z
-x,-y,-z
x,-y,z
1/2+x,1/2+y,z
1/2-x,1/2+y,-z
1/2-x,1/2-y,-z
1/2+x,1/2-y,z
loop_
_atom_site_type_symbol
_atom_site_label
_atom_site_fract_x
_atom_site_fract_y
_atom_site_fract_z
Si Si1 0.151494 0.709399 0.183447
Si Si2 0.822476 0.206849 0.192136
Si Si3 0.824756 0.294115 0.995421
Si Si4 0.588914 0.801294 0.414904
Si Si5 0.420492 0.301537 0.405267
O O1 0.152510 0.500000 0.185144
O O2 0.212838 0.758018 0.168212
O O3 0.268250 0.771178 0.293952
O O4 0.989488 0.767893 0.093326
O O5 0.979350 0.268209 0.304049
O O6 0.826513 0.000000 0.194155
O O7 0.765807 0.268042 0.106005
O O8 0.830676 0.500000 0.995159
O O9 0.750000 0.250000 0.000000
O O10 0.750000 0.750000 0.500000
O O11 0.524339 0.705029 0.421995
O O12 0.585133 0.000000 0.424919
O O13 0.500000 0.223125 0.500000
O O14 0.391176 0.500000 0.399541
#
# Coordination Sequence:
#
# PCOD9191795 Si02
#       5
#     8   8   8   8   8
#     4   8  15  31  54  75  98 134 178 214 248 300
#     4   9  18  35  56  75  98 135 183 224 259 308
#     4  10  20  33  51  77 107 138 173 217 266 314
#     4  11  22  36  55  79 108 140 176 219 267 319
#     4   9  18  34  56  81 108 140 178 217 261 317
#
# _framework density 19.876228000000001
#
# number of rings (size 3 to 8) (size 9 to 14) (size 15 to 20)
#    0.000    2.600    0.000    3.600    0.000    5.200 
#    0.000    6.000    0.000    6.000    0.000    0.000 
#    0.000    0.000    0.000    0.000    0.000    0.000 
#
# Total GULP energy -111593.111206 kJ/mol
# GULP energy per Si atom -5579.655560 kJ/mol
# Density = 1.983099 g / cm^3
# Si number density = 19.876228 Si / 1000 Ang^3
#
#
#
# Elastic Constant Matrix: (Units=GPa)
#
#
# Indices 1 2 3 4 5 6 
#
# 1 99.3563 -5.8845 116.8807 0.0000 -7.1393 -0.0002
# 2 -5.8845 30.1339 -0.1344 0.0000 -2.5550 -0.0003
# 3 116.8807 -0.1344 204.2743 -0.0002 -5.5789 0.0000
# 4 0.0000 0.0000 -0.0002 16.0473 0.0000 2.5316
# 5 -7.1393 -2.5550 -5.5789 0.0000 44.4822 0.0000
# 6 -0.0002 -0.0003 0.0000 2.5316 0.0000 21.8159
#
#
#
# Elastic Compliance Matrix: (Units=1/GPa)
#
#
# Indices 1 2 3 4 5 6 
#
# 1 0.032348 0.006511 -0.018416 0.000000 0.003256 0.000000
# 2 0.006511 0.034659 -0.003632 0.000000 0.002580 0.000001
# 3 -0.018416 -0.003632 0.015396 0.000000 -0.001233 0.000000
# 4 0.000000 0.000000 0.000000 0.063478 0.000000 -0.007366
# 5 0.003256 0.002580 -0.001233 0.000000 0.022997 0.000000
# 6 0.000000 0.000001 0.000000 -0.007366 0.000000 0.046693
#
#
# Mechanical properties :
#
#
# Convention : Reuss Voigt Hill
#
# Bulk Modulus (GPa) = 19.48179 61.72089 40.60134
# Shear Modulus (GPa) = 18.95702 31.32927 25.14314
#
# Velocity S-wave (km/s) = 3.09164 3.97447 3.56052
# Velocity P-wave (km/s) = 4.75049 7.22370 6.11347
#
# Compressibility (1/GPa) = 0.05132997
#
# Stress axis : x y z
#
# Youngs Moduli (GPa) = 30.91382 28.85234 64.95107
#
# Poissons Ratio (x) = -0.18785 1.19611
# Poissons Ratio (y) = -0.20128 0.23591
# Poissons Ratio (z) = 0.56929 0.10479
#
# Static dielectric constant tensor:
#      x y z
#    x 1.672610 0.000000 -0.014410 
#    y 0.000000 1.747590 0.000000 
#    z -0.014410 0.000000 1.710370 
# 
# From -- ./inp_files/273944.got.cif
#   From: 2010.05.17/outbox.cif.g08.bks.cpg/sg12_137_cif.got.tgz:273944.got - 2010.06.03 13:09:07.
