data_PCOD9191555
_publ_section_title
;
Structure prediction by ZEFSAII (Michael W. Deem and Ramdas Pophale) SiO2 
 PCOD9191555
Probable space group: C 2/M
;
_chemical_formula_sum "Si O2"
_cell_formula_units_Z 48
_cell_length_a 18.928386
_cell_length_b 8.875554
_cell_length_c 16.879410
_cell_angle_alpha 90.000000
_cell_angle_beta 90.417308
_cell_angle_gamma 90.000000
_cell_volume 2835.664181
_symmetry_space_group_name_H-M "C 2/M"
_symmetry_group_IT_number 12
_symmetry_cell_setting 'monoclinic'
loop_
_space_group_symop_operation_xyz
x,y,z
-x,y,-z
-x,-y,-z
x,-y,z
1/2+x,1/2+y,z
1/2-x,1/2+y,-z
1/2-x,1/2-y,-z
1/2+x,1/2-y,z
loop_
_atom_site_type_symbol
_atom_site_label
_atom_site_fract_x
_atom_site_fract_y
_atom_site_fract_z
Si Si1 0.084831 0.679698 0.663576
Si Si2 0.544874 0.673112 0.418410
Si Si3 0.088581 0.817506 0.829677
Si Si4 0.827734 0.319398 0.494139
Si Si5 0.173308 0.182730 0.988811
Si Si6 0.044452 0.173642 0.082695
O O1 0.081665 0.500000 0.668457
O O2 0.109741 0.749790 0.746205
O O3 0.136551 0.718789 0.590661
O O4 0.007026 0.743873 0.642733
O O5 0.500000 0.673650 0.500000
O O6 0.556570 0.500000 0.394953
O O7 0.618306 0.754078 0.439698
O O8 0.139999 0.778042 0.902987
O O9 0.009831 0.761235 0.853959
O O10 0.086421 0.000000 0.825237
O O11 0.824700 0.500000 0.500604
O O12 0.750000 0.250000 0.500000
O O13 0.174693 0.000000 0.992848
O O14 0.250000 0.250000 0.000000
O O15 0.119356 0.239362 0.056888
O O16 0.057089 0.000000 0.106360
O O17 0.000000 0.169473 0.000000
#
# Coordination Sequence:
#
# PCOD9191555 Si02
#       6
#     8   8   8   8   8   8
#     4  10  20  33  50  74 102 129 160 204 252 293
#     4   9  17  31  52  74  95 124 162 199 238 289
#     4   9  17  31  51  71  92 125 167 204 239 285
#     4  10  20  34  52  74 101 132 166 203 245 294
#     4   9  17  30  49  72  97 125 159 199 243 291
#     4   7  12  26  47  67  87 117 158 196 228 271
#
# _framework density 16.927251999999999
#
# number of rings (size 3 to 8) (size 9 to 14) (size 15 to 20)
#    0.000    3.000    0.000    3.500    0.000    4.667 
#    0.000    2.500    0.000    9.000    0.000    0.000 
#    0.000    0.000    0.000    0.000    0.000    0.000 
#
# Total GULP energy -133617.563632 kJ/mol
# GULP energy per Si atom -5567.398485 kJ/mol
# Density = 1.688872 g / cm^3
# Si number density = 16.927252 Si / 1000 Ang^3
#
#
#
# Elastic Constant Matrix: (Units=GPa)
#
#
# Indices 1 2 3 4 5 6 
#
# 1 147.5647 45.3816 42.6767 0.0000 8.2592 0.0000
# 2 45.3816 42.6268 33.2088 0.0000 1.8406 0.0000
# 3 42.6767 33.2088 75.1413 0.0000 1.1253 0.0000
# 4 0.0000 0.0000 0.0000 22.3709 0.0000 3.9167
# 5 8.2592 1.8406 1.1253 0.0000 16.0610 0.0000
# 6 0.0000 0.0000 0.0000 3.9167 0.0000 31.1673
#
#
#
# Elastic Compliance Matrix: (Units=1/GPa)
#
#
# Indices 1 2 3 4 5 6 
#
# 1 0.010456 -0.009721 -0.001580 0.000000 -0.004152 0.000000
# 2 -0.009721 0.044961 -0.014362 0.000000 0.000853 0.000000
# 3 -0.001580 -0.014362 0.020538 0.000000 0.001019 0.000000
# 4 0.000000 0.000000 0.000000 0.045707 0.000000 -0.005744
# 5 -0.004152 0.000853 0.001019 0.000000 0.064229 0.000000
# 6 0.000000 0.000000 0.000000 -0.005744 0.000000 0.032807
#
#
# Mechanical properties :
#
#
# Convention : Reuss Voigt Hill
#
# Bulk Modulus (GPa) = 40.60443 56.42967 48.51705
# Shear Modulus (GPa) = 17.97064 23.52424 20.74744
#
# Velocity S-wave (km/s) = 3.26182 3.73195 3.50477
# Velocity P-wave (km/s) = 6.18269 7.20964 6.71582
#
# Compressibility (1/GPa) = 0.02462785
#
# Stress axis : x y z
#
# Youngs Moduli (GPa) = 95.64251 22.24148 48.69122
#
# Poissons Ratio (x) = 0.21622 0.07692
# Poissons Ratio (y) = 0.92977 0.69931
# Poissons Ratio (z) = 0.15109 0.31944
#
# Static dielectric constant tensor:
#      x y z
#    x 1.577840 0.000000 -0.018550 
#    y 0.000000 1.573260 0.000000 
#    z -0.018550 0.000000 1.575950 
# 
# From -- ./inp_files/273702.got.cif
#   From: 2010.05.17/outbox.cif.g08.bks.cpg/sg12_137_cif.got.tgz:273702.got - 2010.06.03 13:09:07.
