data_PCOD9191393
_publ_section_title
;
Structure prediction by ZEFSAII (Michael W. Deem and Ramdas Pophale) SiO2 
 PCOD9191393
Probable space group: C 2/M
;
_chemical_formula_sum "Si O2"
_cell_formula_units_Z 64
_cell_length_a 7.418932
_cell_length_b 19.358334
_cell_length_c 22.590987
_cell_angle_alpha 90.000000
_cell_angle_beta 110.576860
_cell_angle_gamma 90.000000
_cell_volume 3037.483546
_symmetry_space_group_name_H-M "C 2/M"
_symmetry_group_IT_number 12
_symmetry_cell_setting 'monoclinic'
loop_
_space_group_symop_operation_xyz
x,y,z
-x,y,-z
-x,-y,-z
x,-y,z
1/2+x,1/2+y,z
1/2-x,1/2+y,-z
1/2-x,1/2-y,-z
1/2+x,1/2-y,z
loop_
_atom_site_type_symbol
_atom_site_label
_atom_site_fract_x
_atom_site_fract_y
_atom_site_fract_z
Si Si1 0.534441 0.823589 0.243176
Si Si2 0.221659 0.084421 0.516183
Si Si3 0.086061 0.843620 0.878594
Si Si4 0.318243 0.422220 0.615225
Si Si5 0.131249 0.835284 0.260792
Si Si6 0.781060 0.077502 0.000910
Si Si7 0.178232 0.685299 0.895260
Si Si8 0.228145 0.576942 0.351772
O O1 0.329359 0.839946 0.248168
O O2 0.588917 0.745445 0.265377
O O3 0.501177 0.829203 0.169192
O O4 0.677629 0.874930 0.291469
O O5 0.282337 0.104689 0.456706
O O6 0.330570 0.104280 0.589522
O O7 0.000000 0.107840 0.500000
O O8 0.223214 0.000000 0.516361
O O9 0.199045 0.901114 0.928323
O O10 0.181158 0.768369 0.900466
O O11 0.037803 0.858442 0.804253
O O12 0.876460 0.835601 0.885600
O O13 0.246537 0.500000 0.620158
O O14 0.330801 0.375796 0.674584
O O15 0.541603 0.428947 0.621553
O O16 0.703349 0.000000 0.983611
O O17 0.673080 0.138563 0.953061
O O18 0.000000 0.076719 0.000000
O O19 0.146877 0.500000 0.334132
#
# Coordination Sequence:
#
# PCOD9191393 Si02
#       8
#     8   8   8   8   8   8   8   8
#     4  10  20  33  49  71  99 129 163 202 242 285
#     4   7  12  26  48  71  94 123 159 195 234 285
#     4   9  18  32  51  71  92 124 161 196 233 278
#     4   9  17  31  52  75  98 126 160 198 241 289
#     4  10  20  33  49  71  99 129 163 202 242 285
#     4   9  17  30  49  73  98 123 154 192 234 279
#     4   9  18  32  51  71  92 124 161 196 233 278
#     4   9  17  31  52  75  98 126 160 198 241 289
#
# _framework density 21.070074000000002
#
# number of rings (size 3 to 8) (size 9 to 14) (size 15 to 20)
#    0.000    3.000    0.000    2.625    0.000    2.500 
#    0.000    3.750    0.000    3.750    0.000    0.000 
#    0.000    0.000    0.000    0.000    0.000    0.000 
#
# Total GULP energy -178368.521840 kJ/mol
# GULP energy per Si atom -5574.016307 kJ/mol
# Density = 2.102212 g / cm^3
# Si number density = 21.070074 Si / 1000 Ang^3
#
#
#
# Elastic Constant Matrix: (Units=GPa)
#
#
# Indices 1 2 3 4 5 6 
#
# 1 31.8100 -10.6248 -3.2770 0.0000 4.2031 0.0000
# 2 -10.6248 50.8996 64.7157 0.0000 0.5781 0.0000
# 3 -3.2770 64.7157 130.3852 0.0000 -6.2389 0.0000
# 4 0.0000 0.0000 0.0000 27.4546 0.0000 -17.4134
# 5 4.2031 0.5781 -6.2389 0.0000 9.2205 0.0000
# 6 0.0000 0.0000 0.0000 -17.4134 0.0000 -10.0818
#
#
#
# Elastic Compliance Matrix: (Units=1/GPa)
#
#
# Indices 1 2 3 4 5 6 
#
# 1 0.042910 0.026507 -0.013531 0.000000 -0.030378 0.000000
# 2 0.026507 0.074295 -0.038249 0.000000 -0.042622 0.000000
# 3 -0.013531 -0.038249 0.027618 0.000000 0.027254 0.000000
# 4 0.000000 0.000000 0.000000 0.017382 0.000000 -0.030022
# 5 -0.030378 -0.042622 0.027254 0.000000 0.143415 0.000000
# 6 0.000000 0.000000 0.000000 -0.030022 0.000000 -0.047334
#
#
# Mechanical properties :
#
#
# Convention : Reuss Voigt Hill
#
# Bulk Modulus (GPa) = 10.60723 34.96918 22.78821
# Shear Modulus (GPa) = 14.69471 16.13739 15.41605
#
# Velocity S-wave (km/s) = 2.64374 2.77048 2.70785
# Velocity P-wave (km/s) = 3.79003 5.18331 4.54043
#
# Compressibility (1/GPa) = 0.09427530
#
# Stress axis : x y z
#
# Youngs Moduli (GPa) = 23.30457 13.45988 36.20802
#
# Poissons Ratio (x) = -0.35677 0.48995
# Poissons Ratio (y) = -0.61772 1.38492
# Poissons Ratio (z) = 0.31534 0.51483
#
# Static dielectric constant tensor:
#      x y z
#    x 1.835610 0.000000 0.003330 
#    y 0.000000 1.698270 0.000000 
#    z 0.003330 0.000000 1.824340 
# 
# From -- ./inp_files/258094.got.cif
#   From: 2010.05.17/outbox.cif.g08.bks.cpg/sg12_130_cif.got.tgz:258094.got - 2010.06.03 13:09:07.
