data_PCOD9191871
_publ_section_title
;
Structure prediction by ZEFSAII (Michael W. Deem and Ramdas Pophale) SiO2 
 PCOD9191871
Probable space group: C 2/M
;
_chemical_formula_sum "Si O2"
_cell_formula_units_Z 64
_cell_length_a 14.717346
_cell_length_b 24.264217
_cell_length_c 9.704075
_cell_angle_alpha 90.000000
_cell_angle_beta 91.674206
_cell_angle_gamma 90.000000
_cell_volume 3463.893191
_symmetry_space_group_name_H-M "C 2/M"
_symmetry_group_IT_number 12
_symmetry_cell_setting 'monoclinic'
loop_
_space_group_symop_operation_xyz
x,y,z
-x,y,-z
-x,-y,-z
x,-y,z
1/2+x,1/2+y,z
1/2-x,1/2+y,-z
1/2-x,1/2-y,-z
1/2+x,1/2-y,z
loop_
_atom_site_type_symbol
_atom_site_label
_atom_site_fract_x
_atom_site_fract_y
_atom_site_fract_z
Si Si1 0.733313 0.364439 0.583511
Si Si2 0.391858 0.347714 0.993157
Si Si3 0.169603 0.231503 0.785715
Si Si4 0.980000 0.266195 0.661418
Si Si5 0.317057 0.683404 0.711082
Si Si6 0.558995 0.888632 0.371693
Si Si7 0.915467 0.436636 0.908978
Si Si8 0.710568 0.565801 0.838336
O O1 0.712971 0.312173 0.680696
O O2 0.694606 0.349908 0.431690
O O3 0.840000 0.375137 0.572204
O O4 0.700709 0.415046 0.678380
O O5 0.337253 0.297242 0.065152
O O6 0.364387 0.401590 0.078343
O O7 0.500000 0.338189 0.000000
O O8 0.357600 0.352510 0.836012
O O9 0.065240 0.240197 0.740926
O O10 0.224901 0.287465 0.761070
O O11 0.000000 0.263056 0.500000
O O12 0.889078 0.232755 0.689436
O O13 0.973243 0.330645 0.694843
O O14 0.500000 0.904022 0.500000
O O15 0.558089 0.932486 0.250195
O O16 0.907242 0.500000 0.954537
O O17 0.810973 0.414743 0.900001
O O18 0.000000 0.411830 0.000000
O O19 0.705972 0.500000 0.848977
#
# Coordination Sequence:
#
# PCOD9191871 Si02
#       8
#     8   8   8   8   8   8   8   8
#     4  10  20  36  60  80 110 155 195 232 289 342
#     4  11  24  39  58  85 115 154 196 235 292 344
#     4  11  21  37  54  80 119 158 191 228 284 341
#     4  11  20  32  55  81 114 153 188 230 277 333
#     4  12  21  36  57  84 118 153 193 234 275 342
#     4  10  20  33  51  85 115 145 192 233 276 334
#     4   9  19  38  61  83 112 151 190 231 289 343
#     4   9  21  42  64  84 114 150 191 244 294 343
#
# _framework density 18.476320999999999
#
# number of rings (size 3 to 8) (size 9 to 14) (size 15 to 20)
#    0.000    1.625    3.750    2.250    0.000    2.500 
#    2.250    0.625    0.000    0.750    0.000    0.000 
#    0.000    0.000    0.000    0.000    0.000    0.000 
#
# Total GULP energy -178357.309917 kJ/mol
# GULP energy per Si atom -5573.665935 kJ/mol
# Density = 1.843427 g / cm^3
# Si number density = 18.476321 Si / 1000 Ang^3
#
#
#
# Elastic Constant Matrix: (Units=GPa)
#
#
# Indices 1 2 3 4 5 6 
#
# 1 83.9303 10.9002 40.5483 0.0000 -5.1104 0.0000
# 2 10.9002 40.7394 14.4487 0.0000 -3.4544 0.0000
# 3 40.5483 14.4487 98.6787 0.0000 4.7758 0.0000
# 4 0.0000 0.0000 0.0000 19.2366 0.0000 -2.2144
# 5 -5.1104 -3.4544 4.7758 0.0000 30.0212 0.0000
# 6 0.0000 0.0000 0.0000 -2.2144 0.0000 9.3059
#
#
#
# Elastic Compliance Matrix: (Units=1/GPa)
#
#
# Indices 1 2 3 4 5 6 
#
# 1 0.015344 -0.001604 -0.006236 0.000000 0.003419 0.000000
# 2 -0.001604 0.026453 -0.003374 0.000000 0.003308 0.000000
# 3 -0.006236 -0.003374 0.013363 0.000000 -0.003576 0.000000
# 4 0.000000 0.000000 0.000000 0.053448 0.000000 0.012719
# 5 0.003419 0.003308 -0.003576 0.000000 0.034841 0.000000
# 6 0.000000 0.000000 0.000000 0.012719 0.000000 0.110486
#
#
# Mechanical properties :
#
#
# Convention : Reuss Voigt Hill
#
# Bulk Modulus (GPa) = 30.55101 39.46030 35.00566
# Shear Modulus (GPa) = 17.40507 22.20950 19.80728
#
# Velocity S-wave (km/s) = 3.07257 3.47082 3.27775
# Velocity P-wave (km/s) = 5.39988 6.12093 5.77167
#
# Compressibility (1/GPa) = 0.03273214
#
# Stress axis : x y z
#
# Youngs Moduli (GPa) = 65.17353 37.80354 74.83202
#
# Poissons Ratio (x) = 0.06063 0.46662
# Poissons Ratio (y) = 0.10453 0.25250
# Poissons Ratio (z) = 0.40639 0.12756
#
# Static dielectric constant tensor:
#      x y z
#    x 1.655870 0.000000 0.005020 
#    y 0.000000 1.716100 0.000000 
#    z 0.005020 0.000000 1.650060 
# 
# From -- ./inp_files/65872.got.cif
#   From: 2010.05.17/outbox.cif.g08.bks.cpg/sg12_33_cif.got.tgz:65872.got - 2010.06.03 13:09:07.
