data_PCOD9191956
_publ_section_title
;
Structure prediction by ZEFSAII (Michael W. Deem and Ramdas Pophale) SiO2 
 PCOD9191956
Probable space group: C 2/M
;
_chemical_formula_sum "Si O2"
_cell_formula_units_Z 48
_cell_length_a 14.453792
_cell_length_b 8.705123
_cell_length_c 20.827428
_cell_angle_alpha 90.000000
_cell_angle_beta 109.090647
_cell_angle_gamma 90.000000
_cell_volume 2476.425268
_symmetry_space_group_name_H-M "C 2/M"
_symmetry_group_IT_number 12
_symmetry_cell_setting 'monoclinic'
loop_
_space_group_symop_operation_xyz
x,y,z
-x,y,-z
-x,-y,-z
x,-y,z
1/2+x,1/2+y,z
1/2-x,1/2+y,-z
1/2-x,1/2-y,-z
1/2+x,1/2-y,z
loop_
_atom_site_type_symbol
_atom_site_label
_atom_site_fract_x
_atom_site_fract_y
_atom_site_fract_z
Si Si1 0.617282 0.323232 0.010746
Si Si2 0.355093 0.815518 0.503958
Si Si3 0.549299 0.683491 0.602774
Si Si4 0.657642 0.185383 0.749615
Si Si5 0.575392 0.182839 0.869774
Si Si6 0.638443 0.314245 0.155222
O O1 0.646662 0.500000 0.008814
O O2 0.662474 0.262949 0.087448
O O3 0.500000 0.320365 0.000000
O O4 0.630370 0.238696 0.946552
O O5 0.250000 0.750000 0.500000
O O6 0.440918 0.754208 0.570159
O O7 0.387077 0.753225 0.441269
O O8 0.354267 0.000000 0.503473
O O9 0.544347 0.500000 0.595102
O O10 0.598751 0.732205 0.680412
O O11 0.619306 0.229923 0.811493
O O12 0.773044 0.223068 0.777310
O O13 0.647670 0.000000 0.740501
O O14 0.464851 0.245207 0.848665
O O15 0.574828 0.000000 0.871397
O O16 0.629450 0.500000 0.149985
#
# Coordination Sequence:
#
# PCOD9191956 Si02
#       6
#     8   8   8   8   8   8
#     4   8  15  30  51  73 100 138 183 230 281 338
#     4  11  22  41  68  94 120 153 189 228 276 330
#     4  11  23  40  61  90 123 153 190 234 279 333
#     4  10  22  39  55  77 113 153 187 226 282 338
#     4  10  20  33  52  78 107 139 182 237 288 332
#     4   9  19  36  55  73 102 146 189 228 279 342
#
# _framework density 19.382777999999998
#
# number of rings (size 3 to 8) (size 9 to 14) (size 15 to 20)
#    0.000    2.167    0.000    5.500    0.000    7.000 
#    0.000    3.333    0.000    0.000    0.000    0.000 
#    0.000    0.000    0.000    0.000    0.000    0.000 
#
# Total GULP energy -134033.518072 kJ/mol
# GULP energy per Si atom -5584.729920 kJ/mol
# Density = 1.933866 g / cm^3
# Si number density = 19.382778 Si / 1000 Ang^3
#
#
#
# Elastic Constant Matrix: (Units=GPa)
#
#
# Indices 1 2 3 4 5 6 
#
# 1 91.7633 33.8178 38.9756 0.0000 14.4365 0.0000
# 2 33.8178 93.4666 44.4192 0.0000 8.7581 0.0000
# 3 38.9756 44.4192 116.5152 0.0000 24.6812 0.0000
# 4 0.0000 0.0000 0.0000 33.5300 0.0000 -2.3764
# 5 14.4365 8.7581 24.6812 0.0000 17.5893 0.0000
# 6 0.0000 0.0000 0.0000 -2.3764 0.0000 20.8736
#
#
#
# Elastic Compliance Matrix: (Units=1/GPa)
#
#
# Indices 1 2 3 4 5 6 
#
# 1 0.014129 -0.003562 -0.001832 0.000000 -0.007252 0.000000
# 2 -0.003562 0.013970 -0.004667 0.000000 0.002517 0.000000
# 3 -0.001832 -0.004667 0.014463 0.000000 -0.016466 0.000000
# 4 0.000000 0.000000 0.000000 0.030067 0.000000 0.003423
# 5 -0.007252 0.002517 -0.016466 0.000000 0.084658 0.000000
# 6 0.000000 0.000000 0.000000 0.003423 0.000000 0.048297
#
#
# Mechanical properties :
#
#
# Convention : Reuss Voigt Hill
#
# Bulk Modulus (GPa) = 44.56510 59.57447 52.06978
# Shear Modulus (GPa) = 21.44199 26.70073 24.07136
#
# Velocity S-wave (km/s) = 3.32963 3.71556 3.52788
# Velocity P-wave (km/s) = 6.15011 7.01496 6.59673
#
# Compressibility (1/GPa) = 0.02243909
#
# Stress axis : x y z
#
# Youngs Moduli (GPa) = 70.77397 71.58131 69.14217
#
# Poissons Ratio (x) = 0.25497 0.12669
# Poissons Ratio (y) = 0.25209 0.32272
# Poissons Ratio (z) = 0.12968 0.33410
#
# Static dielectric constant tensor:
#      x y z
#    x 1.691680 0.000000 0.013540 
#    y 0.000000 1.651480 0.000000 
#    z 0.013540 0.000000 1.679100 
# 
# From -- ./inp_files/308612.got.cif
#   From: 2010.05.17/outbox.cif.g08.bks.cpg/sg12_155_cif.got.tgz:308612.got - 2010.06.03 13:09:07.
