data_PCOD9191342
_publ_section_title
;
Structure prediction by ZEFSAII (Michael W. Deem and Ramdas Pophale) SiO2 
 PCOD9191342
Probable space group: C 2/M
;
_chemical_formula_sum "Si O2"
_cell_formula_units_Z 56
_cell_length_a 9.397553
_cell_length_b 13.785435
_cell_length_c 24.421143
_cell_angle_alpha 90.000000
_cell_angle_beta 124.221022
_cell_angle_gamma 90.000000
_cell_volume 2616.018031
_symmetry_space_group_name_H-M "C 2/M"
_symmetry_group_IT_number 12
_symmetry_cell_setting 'monoclinic'
loop_
_space_group_symop_operation_xyz
x,y,z
-x,y,-z
-x,-y,-z
x,-y,z
1/2+x,1/2+y,z
1/2-x,1/2+y,-z
1/2-x,1/2-y,-z
1/2+x,1/2-y,z
loop_
_atom_site_type_symbol
_atom_site_label
_atom_site_fract_x
_atom_site_fract_y
_atom_site_fract_z
Si Si1 0.657834 0.224167 0.766396
Si Si2 0.429178 0.383190 0.333210
Si Si3 0.018555 0.391074 0.635811
Si Si4 0.342083 0.615780 0.430622
Si Si5 0.540767 0.251753 0.858267
Si Si6 0.186397 0.610361 0.559791
Si Si7 0.113771 0.615259 0.079544
O O1 0.631228 0.333867 0.736514
O O2 0.576615 0.168490 0.699152
O O3 0.566491 0.204929 0.804018
O O4 0.856989 0.195118 0.815650
O O5 0.428668 0.500000 0.326480
O O6 0.318027 0.351850 0.362492
O O7 0.618034 0.353636 0.398316
O O8 0.994038 0.500000 0.650119
O O9 0.155943 0.391379 0.618255
O O10 0.830688 0.361299 0.574094
O O11 0.500000 0.652327 0.500000
O O12 0.367576 0.500000 0.432079
O O13 0.708633 0.323778 0.895712
O O14 0.497172 0.173219 0.897223
O O15 0.193973 0.500000 0.538458
O O16 0.000000 0.648279 0.500000
O O17 0.144748 0.500000 0.099796
O O18 0.000000 0.617310 0.000000
#
# Coordination Sequence:
#
# PCOD9191342 Si02
#       7
#     8   8   8   8   8   8   8
#     4  11  22  37  55  84 122 162 207 250 306 373
#     4  10  20  34  53  75 106 151 202 258 316 380
#     4  10  20  33  49  69 100 140 184 244 308 370
#     4   9  17  31  50  70  95 134 188 254 325 383
#     4  10  23  40  64  96 135 174 210 260 306 364
#     4   9  17  31  50  70  95 134 188 254 325 383
#     4  10  22  44  74 105 137 174 214 256 307 364
#
# _framework density 21.406580000000002
#
# number of rings (size 3 to 8) (size 9 to 14) (size 15 to 20)
#    0.000    2.143    0.000    3.000    0.000    6.857 
#    0.000    6.429    0.000    7.714    0.000    0.000 
#    0.000    0.000    0.000    0.000    0.000    0.000 
#
# Total GULP energy -155900.471313 kJ/mol
# GULP energy per Si atom -5567.873975 kJ/mol
# Density = 2.135786 g / cm^3
# Si number density = 21.406580 Si / 1000 Ang^3
#
#
#
# Elastic Constant Matrix: (Units=GPa)
#
#
# Indices 1 2 3 4 5 6 
#
# 1 118.9328 24.3745 26.1895 0.0000 -14.6002 0.0000
# 2 24.3745 121.4545 27.4572 0.0000 -0.2027 0.0000
# 3 26.1895 27.4572 76.2237 0.0000 -10.2442 0.0000
# 4 0.0000 0.0000 0.0000 24.5813 0.0000 -5.8374
# 5 -14.6002 -0.2027 -10.2442 0.0000 33.3996 0.0000
# 6 0.0000 0.0000 0.0000 -5.8374 0.0000 1.4917
#
#
#
# Elastic Compliance Matrix: (Units=1/GPa)
#
#
# Indices 1 2 3 4 5 6 
#
# 1 0.009638 -0.001400 -0.002339 0.000000 0.003487 0.000000
# 2 -0.001400 0.009197 -0.003032 0.000000 -0.001486 0.000000
# 3 -0.002339 -0.003032 0.015515 0.000000 0.003718 0.000000
# 4 0.000000 0.000000 0.000000 0.575214 0.000000 2.250915
# 5 0.003487 -0.001486 0.003718 0.000000 0.032596 0.000000
# 6 0.000000 0.000000 0.000000 2.250915 0.000000 9.478595
#
#
# Mechanical properties :
#
#
# Convention : Reuss Voigt Hill
#
# Bulk Modulus (GPa) = 48.05465 52.51703 50.28584
# Shear Modulus (GPa) = 0.49304 27.80051 14.14677
#
# Velocity S-wave (km/s) = 0.48044 3.60764 2.57351
# Velocity P-wave (km/s) = 4.77546 6.47610 5.68968
#
# Compressibility (1/GPa) = 0.02080964
#
# Stress axis : x y z
#
# Youngs Moduli (GPa) = 103.75528 108.72673 64.45540
#
# Poissons Ratio (x) = 0.15219 0.15074
# Poissons Ratio (y) = 0.14523 0.19542
# Poissons Ratio (z) = 0.24264 0.32964
#
# Static dielectric constant tensor:
#      x y z
#    x 1.792740 0.000000 -0.000220 
#    y 0.000000 1.944110 0.000000 
#    z -0.000220 0.000000 1.777360 
# 
# From -- ./inp_files/333007.got.cif
#   From: 2010.05.17/outbox.cif.g08.bks.cpg/sg12_167_cif.got.tgz:333007.got - 2010.06.03 13:09:07.
