data_PCOD9191717
_publ_section_title
;
Structure prediction by ZEFSAII (Michael W. Deem and Ramdas Pophale) SiO2 
 PCOD9191717
Probable space group: C 2/M
;
_chemical_formula_sum "Si O2"
_cell_formula_units_Z 64
_cell_length_a 33.888366
_cell_length_b 8.800542
_cell_length_c 17.047337
_cell_angle_alpha 90.000000
_cell_angle_beta 128.626532
_cell_angle_gamma 90.000000
_cell_volume 3971.881976
_symmetry_space_group_name_H-M "C 2/M"
_symmetry_group_IT_number 12
_symmetry_cell_setting 'monoclinic'
loop_
_space_group_symop_operation_xyz
x,y,z
-x,y,-z
-x,-y,-z
x,-y,z
1/2+x,1/2+y,z
1/2-x,1/2+y,-z
1/2-x,1/2-y,-z
1/2+x,1/2-y,z
loop_
_atom_site_type_symbol
_atom_site_label
_atom_site_fract_x
_atom_site_fract_y
_atom_site_fract_z
Si Si1 0.327493 0.818504 0.057088
Si Si2 0.775016 0.679029 0.312567
Si Si3 0.219423 0.181510 0.846436
Si Si4 0.096942 0.180897 0.964973
Si Si5 0.332078 0.173444 0.818112
Si Si6 0.883782 0.673927 0.712452
Si Si7 0.511851 0.681742 0.105001
Si Si8 0.796373 0.180495 0.506646
O O1 0.313178 0.755958 0.124727
O O2 0.376425 0.739615 0.080738
O O3 0.333500 0.000000 0.066054
O O4 0.278278 0.783736 0.941368
O O5 0.784160 0.500000 0.324793
O O6 0.793969 0.752490 0.255027
O O7 0.715370 0.715962 0.238564
O O8 0.794928 0.754986 0.416805
O O9 0.213918 0.000000 0.841075
O O10 0.037738 0.210597 0.904135
O O11 0.104734 0.000000 0.982837
O O12 0.126076 0.268952 0.069967
O O13 0.355077 0.173433 0.760184
O O14 0.316137 0.000000 0.818129
O O15 0.886233 0.500000 0.687134
O O16 0.939171 0.738270 0.798872
O O17 0.848967 0.772622 0.612092
O O18 0.520951 0.500000 0.113699
O O19 0.500000 0.729416 0.000000
O O20 0.710193 0.500000 0.502787
O O21 0.750000 0.250000 0.500000
#
# Coordination Sequence:
#
# PCOD9191717 Si02
#       8
#     8   8   8   8   8   8   8   8
#     4  10  20  33  51  75 107 141 177 219 266 320
#     4  12  23  35  54  78 107 143 181 218 264 317
#     4  10  20  34  52  76 108 140 176 218 264 319
#     4  11  21  33  52  76 106 144 184 222 266 317
#     4  11  21  32  49  74 107 142 180 222 264 312
#     4  11  23  37  54  76 106 141 182 226 269 312
#     4  10  21  36  53  76 106 142 183 222 265 316
#     4  12  24  38  56  77 106 141 181 223 266 315
#
# _framework density 16.113267
#
# number of rings (size 3 to 8) (size 9 to 14) (size 15 to 20)
#    0.000    1.125    3.750    4.125    0.000    3.250 
#    0.000    0.000    0.000    0.000    0.000    0.875 
#    0.000    7.000    0.000    0.000    0.000    0.000 
#
# Total GULP energy -178775.147329 kJ/mol
# GULP energy per Si atom -5586.723354 kJ/mol
# Density = 1.607659 g / cm^3
# Si number density = 16.113267 Si / 1000 Ang^3
#
#
#
# Elastic Constant Matrix: (Units=GPa)
#
#
# Indices 1 2 3 4 5 6 
#
# 1 79.3671 34.8963 37.6889 0.0000 -15.4498 0.0000
# 2 34.8963 87.1211 39.0725 0.0000 -9.8968 0.0000
# 3 37.6889 39.0725 96.4968 0.0000 -12.9087 0.0000
# 4 0.0000 0.0000 0.0000 27.0514 0.0000 -2.1588
# 5 -15.4498 -9.8968 -12.9087 0.0000 25.9829 0.0000
# 6 0.0000 0.0000 0.0000 -2.1588 0.0000 27.7823
#
#
#
# Elastic Compliance Matrix: (Units=1/GPa)
#
#
# Indices 1 2 3 4 5 6 
#
# 1 0.017932 -0.004491 -0.004272 0.000000 0.006830 0.000000
# 2 -0.004491 0.015329 -0.004316 0.000000 0.001024 0.000000
# 3 -0.004272 -0.004316 0.014160 0.000000 0.002851 0.000000
# 4 0.000000 0.000000 0.000000 0.037197 0.000000 0.002890
# 5 0.006830 0.001024 0.002851 0.000000 0.044355 0.000000
# 6 0.000000 0.000000 0.000000 0.002890 0.000000 0.036219
#
#
# Mechanical properties :
#
#
# Convention : Reuss Voigt Hill
#
# Bulk Modulus (GPa) = 47.02653 54.03337 50.52995
# Shear Modulus (GPa) = 25.19678 26.25180 25.72429
#
# Velocity S-wave (km/s) = 3.95869 4.04072 3.99992
# Velocity P-wave (km/s) = 7.08119 7.44151 7.26359
#
# Compressibility (1/GPa) = 0.02126459
#
# Stress axis : x y z
#
# Youngs Moduli (GPa) = 55.76503 65.23538 70.61967
#
# Poissons Ratio (x) = 0.29298 0.30167
# Poissons Ratio (y) = 0.25045 0.30478
# Poissons Ratio (z) = 0.23821 0.28154
#
# Static dielectric constant tensor:
#      x y z
#    x 1.535690 0.000000 -0.014070 
#    y 0.000000 1.545220 0.000000 
#    z -0.014070 0.000000 1.525540 
# 
# From -- ./inp_files/249174.got.cif
#   From: 2010.05.17/outbox.cif.g08.bks.cpg/sg12_125_cif.got.tgz:249174.got - 2010.06.03 13:09:07.
