data_PCOD9191348
_publ_section_title
;
Structure prediction by ZEFSAII (Michael W. Deem and Ramdas Pophale) SiO2 
 PCOD9191348
Probable space group: C 2/M
;
_chemical_formula_sum "Si O2"
_cell_formula_units_Z 64
_cell_length_a 30.744238
_cell_length_b 7.444307
_cell_length_c 22.912164
_cell_angle_alpha 90.000000
_cell_angle_beta 34.574049
_cell_angle_gamma 90.000000
_cell_volume 2975.758517
_symmetry_space_group_name_H-M "C 2/M"
_symmetry_group_IT_number 12
_symmetry_cell_setting 'monoclinic'
loop_
_space_group_symop_operation_xyz
x,y,z
-x,y,-z
-x,-y,-z
x,-y,z
1/2+x,1/2+y,z
1/2-x,1/2+y,-z
1/2-x,1/2-y,-z
1/2+x,1/2-y,z
loop_
_atom_site_type_symbol
_atom_site_label
_atom_site_fract_x
_atom_site_fract_y
_atom_site_fract_z
Si Si1 0.601955 0.793456 0.377110
Si Si2 0.841603 0.715395 0.895836
Si Si3 0.093521 0.718828 0.053021
Si Si4 0.204051 0.286812 0.719186
Si Si5 0.536955 0.780180 0.332212
Si Si6 0.233930 0.282766 0.817269
Si Si7 0.467359 0.219721 0.100503
Si Si8 0.128784 0.715584 0.477826
O O1 0.545375 0.719742 0.390552
O O2 0.684140 0.788403 0.254721
O O3 0.619820 0.713438 0.420903
O O4 0.581385 0.000000 0.410866
O O5 0.847428 0.500000 0.888549
O O6 0.887269 0.779497 0.902996
O O7 0.891687 0.782030 0.785548
O O8 0.750000 0.750000 0.000000
O O9 0.089784 0.500000 0.058986
O O10 0.020785 0.778117 0.095246
O O11 0.167021 0.770565 0.933836
O O12 0.195390 0.500000 0.733213
O O13 0.216462 0.217203 0.771259
O O14 0.120490 0.221026 0.792251
O O15 0.285075 0.259773 0.596744
O O16 0.451782 0.729195 0.403809
O O17 0.539473 0.000000 0.331041
O O18 0.237383 0.500000 0.812845
O O19 0.469731 0.000000 0.097074
O O20 0.500000 0.273200 0.000000
O O21 0.128196 0.500000 0.477388
#
# Coordination Sequence:
#
# PCOD9191348 Si02
#       8
#     8   8   8   8   8   8   8   8
#     4   9  16  26  42  62  83 111 150 186 216 255
#     4  10  20  33  49  69  93 120 153 188 222 262
#     4   9  16  26  43  67  91 118 152 184 216 264
#     4   9  16  26  43  67  91 113 139 177 225 270
#     4   9  17  30  46  62  83 116 154 186 216 259
#     4   9  15  24  39  62  91 115 137 171 220 270
#     4   9  14  24  44  69  94 119 146 180 225 271
#     4   9  17  29  45  62  84 116 151 184 220 262
#
# _framework density 21.507121000000001
#
# number of rings (size 3 to 8) (size 9 to 14) (size 15 to 20)
#    0.000    2.875    1.250    1.125    0.000    1.500 
#    0.000    1.250    0.000    5.625    0.000    0.000 
#    0.000    0.000    0.000    0.000    0.000    0.000 
#
# Total GULP energy -178274.055737 kJ/mol
# GULP energy per Si atom -5571.064242 kJ/mol
# Density = 2.145817 g / cm^3
# Si number density = 21.507121 Si / 1000 Ang^3
#
#
#
# Elastic Constant Matrix: (Units=GPa)
#
#
# Indices 1 2 3 4 5 6 
#
# 1 91.5418 0.7123 45.5596 -0.0086 -23.0219 -0.0109
# 2 0.7123 64.5989 0.5357 -0.1006 -0.2749 0.0105
# 3 45.5596 0.5357 147.2353 -0.0345 -32.7022 -0.0041
# 4 -0.0086 -0.1006 -0.0345 16.3212 0.0117 -5.2779
# 5 -23.0219 -0.2749 -32.7022 0.0117 38.2306 0.0121
# 6 -0.0109 0.0105 -0.0041 -5.2779 0.0121 0.6955
#
#
#
# Elastic Compliance Matrix: (Units=1/GPa)
#
#
# Indices 1 2 3 4 5 6 
#
# 1 0.013876 -0.000103 -0.003009 -0.000020 0.005781 -0.000050
# 2 -0.000103 0.015482 -0.000017 -0.000013 0.000035 -0.000335
# 3 -0.003009 -0.000017 0.009038 0.000013 0.005918 -0.000002
# 4 -0.000020 -0.000013 0.000013 -0.042143 0.000113 -0.319792
# 5 0.005781 0.000035 0.005918 0.000113 0.034701 0.000377
# 6 -0.000050 -0.000335 -0.000002 -0.319792 0.000377 -0.988914
#
#
# Mechanical properties :
#
#
# Convention : Reuss Voigt Hill
#
# Bulk Modulus (GPa) = 31.11694 44.11015 37.61355
# Shear Modulus (GPa) = -5.31356 28.15403 11.42024
#
# Velocity S-wave (km/s) = -1.57352 3.62201 2.30684
# Velocity P-wave (km/s) = 3.34639 6.16815 4.96208
#
# Compressibility (1/GPa) = 0.03213684
#
# Stress axis : x y z
#
# Youngs Moduli (GPa) = 72.06446 64.59284 110.64817
#
# Poissons Ratio (x) = 0.00668 0.33299
# Poissons Ratio (y) = 0.00746 0.00183
# Poissons Ratio (z) = 0.21687 0.00107
#
# Static dielectric constant tensor:
#      x y z
#    x 1.788360 -0.000010 -0.024010 
#    y -0.000010 1.833050 0.000040 
#    z -0.024010 0.000040 1.829080 
# 
# From -- ./inp_files/351760.got.cif
#   From: 2010.05.17/outbox.cif.g08.bks.cpg/sg12_176_cif.got.tgz:351760.got - 2010.06.03 13:09:07.
