data_PCOD9191364
_publ_section_title
;
Structure prediction by ZEFSAII (Michael W. Deem and Ramdas Pophale) SiO2 
 PCOD9191364
Probable space group: C 2/M
;
_chemical_formula_sum "Si O2"
_cell_formula_units_Z 40
_cell_length_a 7.731815
_cell_length_b 13.759905
_cell_length_c 17.166480
_cell_angle_alpha 90.000000
_cell_angle_beta 74.578401
_cell_angle_gamma 90.000000
_cell_volume 1760.568898
_symmetry_space_group_name_H-M "C 2/M"
_symmetry_group_IT_number 12
_symmetry_cell_setting 'monoclinic'
loop_
_space_group_symop_operation_xyz
x,y,z
-x,y,-z
-x,-y,-z
x,-y,z
1/2+x,1/2+y,z
1/2-x,1/2+y,-z
1/2-x,1/2-y,-z
1/2+x,1/2-y,z
loop_
_atom_site_type_symbol
_atom_site_label
_atom_site_fract_x
_atom_site_fract_y
_atom_site_fract_z
Si Si1 0.349180 0.822934 0.885698
Si Si2 0.699904 0.175267 0.772431
Si Si3 0.000000 0.177338 0.000000
Si Si4 0.219156 0.500000 0.555414
Si Si5 0.000000 0.836519 0.500000
Si Si6 0.430859 0.676862 0.336594
Si Si7 0.329339 0.000000 0.624498
O O1 0.528573 0.876504 0.833130
O O2 0.269204 0.756285 0.825993
O O3 0.422577 0.747674 0.941901
O O4 0.175363 0.875795 0.943580
O O5 0.618108 0.231339 0.708858
O O6 0.884077 0.130161 0.718309
O O7 0.343098 0.406634 0.549905
O O8 0.177500 0.500000 0.468475
O O9 0.035735 0.500000 0.624537
O O10 0.939215 0.788876 0.426319
O O11 0.277557 0.596854 0.341641
#
# Coordination Sequence:
#
# PCOD9191364 Si02
#       7
#     8   8   4   4   4   8   4
#     4   8  14  25  42  66  99 125 153 192 242 284
#     4   9  18  30  43  68 108 132 145 198 264 288
#     4   8  12  22  44  68  90 124 164 192 220 284
#     4   8  16  32  52  70  88 112 161 232 258 260
#     4   9  18  32  50  70  90 125 176 210 240 287
#     4  10  20  33  49  69  98 134 168 205 245 288
#     4   9  18  34  54  70  86 122 173 209 244 294
#
# _framework density 22.719927999999999
#
# number of rings (size 3 to 8) (size 9 to 14) (size 15 to 20)
#    0.000    3.200    0.000    0.600    0.000    4.000 
#    0.000    2.000    0.000    0.000    0.000    0.000 
#    0.000  361.600    0.000    0.000    0.000    0.000 
#
# Total GULP energy -111389.551008 kJ/mol
# GULP energy per Si atom -5569.477550 kJ/mol
# Density = 2.266822 g / cm^3
# Si number density = 22.719928 Si / 1000 Ang^3
#
#
#
# Elastic Constant Matrix: (Units=GPa)
#
#
# Indices 1 2 3 4 5 6 
#
# 1 134.1781 19.4808 66.0306 0.0000 -42.7825 0.0000
# 2 19.4808 29.1788 19.6890 0.0000 -8.9479 0.0000
# 3 66.0306 19.6890 120.5129 0.0000 -23.2545 0.0000
# 4 0.0000 0.0000 0.0000 -5.4007 0.0000 -4.5826
# 5 -42.7825 -8.9479 -23.2545 0.0000 91.4267 0.0000
# 6 0.0000 0.0000 0.0000 -4.5826 0.0000 12.5000
#
#
#
# Elastic Compliance Matrix: (Units=1/GPa)
#
#
# Indices 1 2 3 4 5 6 
#
# 1 0.011661 -0.003142 -0.005134 0.000000 0.003843 0.000000
# 2 -0.003142 0.039822 -0.004539 0.000000 0.001273 0.000000
# 3 -0.005134 -0.004539 0.011887 0.000000 0.000177 0.000000
# 4 0.000000 0.000000 0.000000 -0.141228 0.000000 -0.051776
# 5 0.003843 0.001273 0.000177 0.000000 0.012906 0.000000
# 6 0.000000 0.000000 0.000000 -0.051776 0.000000 0.061019
#
#
# Mechanical properties :
#
#
# Convention : Reuss Voigt Hill
#
# Bulk Modulus (GPa) = 26.49768 54.91897 40.70832
# Shear Modulus (GPa) = 145.87439 31.61649 88.74544
#
# Velocity S-wave (km/s) = 8.02153 3.73443 6.25663
# Velocity P-wave (km/s) = 9.87326 6.54364 8.37557
#
# Compressibility (1/GPa) = 0.03773916
#
# Stress axis : x y z
#
# Youngs Moduli (GPa) = 85.75561 25.11165 84.12839
#
# Poissons Ratio (x) = 0.07891 0.43194
# Poissons Ratio (y) = 0.26947 0.38184
# Poissons Ratio (z) = 0.44029 0.11398
#
# Static dielectric constant tensor:
#      x y z
#    x 1.965280 0.000000 -0.077940 
#    y 0.000000 1.831460 0.000000 
#    z -0.077940 0.000000 1.903620 
# 
# From -- ./inp_files/256100.got.cif
#   From: 2010.05.17/outbox.cif.g08.bks.cpg/sg12_129_cif.got.tgz:256100.got - 2010.06.03 13:09:07.
