data_PCOD9191002
_publ_section_title
;
Structure prediction by ZEFSAII (Michael W. Deem and Ramdas Pophale) SiO2 
 PCOD9191002
Probable space group: C 2/M
;
_chemical_formula_sum "Si O2"
_cell_formula_units_Z 40
_cell_length_a 32.844063
_cell_length_b 13.565536
_cell_length_c 9.074152
_cell_angle_alpha 90.000000
_cell_angle_beta 154.734755
_cell_angle_gamma 90.000000
_cell_volume 1725.574991
_symmetry_space_group_name_H-M "C 2/M"
_symmetry_group_IT_number 12
_symmetry_cell_setting 'monoclinic'
loop_
_space_group_symop_operation_xyz
x,y,z
-x,y,-z
-x,-y,-z
x,-y,z
1/2+x,1/2+y,z
1/2-x,1/2+y,-z
1/2-x,1/2-y,-z
1/2+x,1/2-y,z
loop_
_atom_site_type_symbol
_atom_site_label
_atom_site_fract_x
_atom_site_fract_y
_atom_site_fract_z
Si Si1 0.473491 0.118160 0.075162
Si Si2 0.799020 0.381056 0.686416
Si Si3 0.614643 0.618736 0.224659
Si Si4 0.389970 0.617737 0.460404
Si Si5 0.410226 0.234184 0.300382
O O1 0.543516 0.162296 0.426030
O O2 0.481617 0.000000 0.105350
O O3 0.500000 0.152937 0.000000
O O4 0.364980 0.144992 0.763554
O O5 0.803709 0.500000 0.714011
O O6 0.688390 0.351721 0.338343
O O7 0.848734 0.331849 0.989715
O O8 0.616471 0.500000 0.236099
O O9 0.644287 0.647845 0.488272
O O10 0.504130 0.640778 0.835354
O O11 0.376357 0.500000 0.397184
O O12 0.354208 0.681166 0.205797
O O13 0.500000 0.275628 0.500000
#
# Coordination Sequence:
#
# PCOD9191002 Si02
#       5
#     8   8   8   8   8
#     4   9  18  32  52  77 106 138 171 211 261 315
#     4   9  17  33  56  81 107 132 169 217 263 313
#     4   8  16  32  55  78  99 135 181 218 255 301
#     4   9  18  33  54  76 102 141 181 214 252 301
#     4  10  20  32  51  79 105 140 172 209 264 314
#
# _framework density 23.180679000000001
#
# number of rings (size 3 to 8) (size 9 to 14) (size 15 to 20)
#    0.000    3.000    0.000    1.800    2.800    3.600 
#    0.000    4.000    4.400    0.000    0.000    1.400 
#    0.000    0.000    0.000    0.000    0.000    0.000 
#
# Total GULP energy -111759.330392 kJ/mol
# GULP energy per Si atom -5587.966520 kJ/mol
# Density = 2.312792 g / cm^3
# Si number density = 23.180679 Si / 1000 Ang^3
#
#
#
# Elastic Constant Matrix: (Units=GPa)
#
#
# Indices 1 2 3 4 5 6 
#
# 1 166.6585 35.3942 34.9229 0.0000 11.5676 0.0000
# 2 35.3942 97.3375 8.1712 0.0000 -1.5104 0.0000
# 3 34.9229 8.1712 30.8535 0.0000 14.7593 0.0000
# 4 0.0000 0.0000 0.0000 24.6530 0.0000 -10.4970
# 5 11.5676 -1.5104 14.7593 0.0000 30.5886 0.0000
# 6 0.0000 0.0000 0.0000 -10.4970 0.0000 30.9301
#
#
#
# Elastic Compliance Matrix: (Units=1/GPa)
#
#
# Indices 1 2 3 4 5 6 
#
# 1 0.008377 -0.002226 -0.009522 0.000000 0.001317 0.000000
# 2 -0.002226 0.011238 -0.001462 0.000000 0.002102 0.000000
# 3 -0.009522 -0.001462 0.054458 0.000000 -0.022748 0.000000
# 4 0.000000 0.000000 0.000000 0.047415 0.000000 0.016091
# 5 0.001317 0.002102 -0.022748 0.000000 0.043274 0.000000
# 6 0.000000 0.000000 0.000000 0.016091 0.000000 0.037792
#
#
# Mechanical properties :
#
#
# Convention : Reuss Voigt Hill
#
# Bulk Modulus (GPa) = 20.98519 50.20291 35.59405
# Shear Modulus (GPa) = 20.41984 31.65841 26.03912
#
# Velocity S-wave (km/s) = 2.97121 3.69958 3.35522
# Velocity P-wave (km/s) = 4.56545 6.32087 5.51347
#
# Compressibility (1/GPa) = 0.04765265
#
# Stress axis : x y z
#
# Youngs Moduli (GPa) = 119.37333 88.98034 18.36263
#
# Poissons Ratio (x) = 0.19810 0.17485
# Poissons Ratio (y) = 0.26576 0.02685
# Poissons Ratio (z) = 1.13670 0.13010
#
# Static dielectric constant tensor:
#      x y z
#    x 1.883500 0.000000 0.026380 
#    y 0.000000 1.898100 0.000000 
#    z 0.026380 0.000000 1.895220 
# 
# From -- ./inp_files/59071.got.cif
#   From: 2010.05.17/outbox.cif.g08.bks.cpg/sg12_30_cif.got.tgz:59071.got - 2010.06.03 13:09:07.
