data_PCOD9191938
_publ_section_title
;
Structure prediction by ZEFSAII (Michael W. Deem and Ramdas Pophale) SiO2 
 PCOD9191938
Probable space group: C 2/M
;
_chemical_formula_sum "Si O2"
_cell_formula_units_Z 56
_cell_length_a 29.466117
_cell_length_b 7.256464
_cell_length_c 17.259545
_cell_angle_alpha 90.000000
_cell_angle_beta 144.707135
_cell_angle_gamma 90.000000
_cell_volume 2132.169620
_symmetry_space_group_name_H-M "C 2/M"
_symmetry_group_IT_number 12
_symmetry_cell_setting 'monoclinic'
loop_
_space_group_symop_operation_xyz
x,y,z
-x,y,-z
-x,-y,-z
x,-y,z
1/2+x,1/2+y,z
1/2-x,1/2+y,-z
1/2-x,1/2-y,-z
1/2+x,1/2-y,z
loop_
_atom_site_type_symbol
_atom_site_label
_atom_site_fract_x
_atom_site_fract_y
_atom_site_fract_z
Si Si1 0.692595 0.208839 0.308389
Si Si2 0.887784 0.277042 0.069103
Si Si3 0.425087 0.710263 0.298046
Si Si4 0.560672 0.225132 0.019350
Si Si5 0.589692 0.275640 0.487010
Si Si6 0.640730 0.277272 0.397081
Si Si7 0.788485 0.775866 0.219350
O O1 0.645362 0.285647 0.170802
O O2 0.633433 0.206437 0.299829
O O3 0.772985 0.288333 0.453035
O O4 0.713246 0.000000 0.315497
O O5 0.889515 0.500000 0.074615
O O6 0.907409 0.209757 0.181857
O O7 0.944384 0.218128 0.077014
O O8 0.799376 0.217898 0.922908
O O9 0.431235 0.500000 0.334849
O O10 0.512794 0.789547 0.425416
O O11 0.351094 0.786665 0.241397
O O12 0.559692 0.000000 0.019099
O O13 0.500000 0.288126 0.000000
O O14 0.587927 0.500000 0.484064
O O15 0.586635 0.218733 0.392972
O O16 0.669804 0.222106 0.641872
O O17 0.639848 0.500000 0.390001
O O18 0.784826 0.000000 0.214373
#
# Coordination Sequence:
#
# PCOD9191938 Si02
#       7
#     8   8   8   8   8   8   8
#     4   9  17  30  48  68  93 125 162 201 239 282
#     4  10  20  34  54  76 100 133 170 208 251 298
#     4  10  20  33  52  78 105 131 164 208 255 299
#     4   9  18  31  48  70  95 126 165 201 234 282
#     4   9  17  30  51  75 100 130 167 206 245 292
#     4   9  17  29  47  71  96 123 157 199 244 290
#     4   9  17  32  54  77  99 130 173 211 243 292
#
# _framework density 26.264327999999999
#
# number of rings (size 3 to 8) (size 9 to 14) (size 15 to 20)
#    0.000    2.714    0.000    1.714    2.000    5.143 
#    0.000    0.714    0.000    6.857    0.000    0.000 
#    0.000    0.000    0.000    0.000    0.000    0.000 
#
# Total GULP energy -156575.699713 kJ/mol
# GULP energy per Si atom -5591.989275 kJ/mol
# Density = 2.620455 g / cm^3
# Si number density = 26.264328 Si / 1000 Ang^3
#
#
#
# Elastic Constant Matrix: (Units=GPa)
#
#
# Indices 1 2 3 4 5 6 
#
# 1 130.3174 -7.9219 10.4890 0.0000 -12.2541 0.0000
# 2 -7.9219 124.6592 -10.5890 0.0000 3.7318 0.0000
# 3 10.4890 -10.5890 101.0872 0.0000 -11.8272 0.0000
# 4 0.0000 0.0000 0.0000 -1.7771 0.0000 -10.4184
# 5 -12.2541 3.7318 -11.8272 0.0000 49.0299 0.0000
# 6 0.0000 0.0000 0.0000 -10.4184 0.0000 2.9823
#
#
#
# Elastic Compliance Matrix: (Units=1/GPa)
#
#
# Indices 1 2 3 4 5 6 
#
# 1 0.007914 0.000401 -0.000567 0.000000 0.001811 0.000000
# 2 0.000401 0.008123 0.000770 0.000000 -0.000332 0.000000
# 3 -0.000567 0.000770 0.010299 0.000000 0.002284 0.000000
# 4 0.000000 0.000000 0.000000 -0.026197 0.000000 -0.091516
# 5 0.001811 -0.000332 0.002284 0.000000 0.021424 0.000000
# 6 0.000000 0.000000 0.000000 -0.091516 0.000000 0.015611
#
#
# Mechanical properties :
#
#
# Convention : Reuss Voigt Hill
#
# Bulk Modulus (GPa) = 36.30690 37.77999 37.04344
# Shear Modulus (GPa) = 110.74690 34.31939 72.53315
#
# Velocity S-wave (km/s) = 6.50060 3.61874 5.26085
# Velocity P-wave (km/s) = 8.37839 5.64590 7.14400
#
# Compressibility (1/GPa) = 0.02754297
#
# Stress axis : x y z
#
# Youngs Moduli (GPa) = 126.36089 123.11157 97.09445
#
# Poissons Ratio (x) = -0.04931 0.05509
# Poissons Ratio (y) = -0.05061 -0.07480
# Poissons Ratio (z) = 0.07169 -0.09485
#
# Static dielectric constant tensor:
#      x y z
#    x 2.075570 0.000000 0.033190 
#    y 0.000000 2.058490 0.000000 
#    z 0.033190 0.000000 2.004960 
# 
# From -- ./inp_files/245634.got.cif
#   From: 2010.05.17/outbox.cif.g08.bks.cpg/sg12_123_cif.got.tgz:245634.got - 2010.06.03 13:09:07.
