data_PCOD9191921
_publ_section_title
;
Structure prediction by ZEFSAII (Michael W. Deem and Ramdas Pophale) SiO2 
 PCOD9191921
Probable space group: C 2/M
;
_chemical_formula_sum "Si O2"
_cell_formula_units_Z 48
_cell_length_a 14.592941
_cell_length_b 8.690857
_cell_length_c 30.632014
_cell_angle_alpha 90.000000
_cell_angle_beta 134.417246
_cell_angle_gamma 90.000000
_cell_volume 2774.843907
_symmetry_space_group_name_H-M "C 2/M"
_symmetry_group_IT_number 12
_symmetry_cell_setting 'monoclinic'
loop_
_space_group_symop_operation_xyz
x,y,z
-x,y,-z
-x,-y,-z
x,-y,z
1/2+x,1/2+y,z
1/2-x,1/2+y,-z
1/2-x,1/2-y,-z
1/2+x,1/2-y,z
loop_
_atom_site_type_symbol
_atom_site_label
_atom_site_fract_x
_atom_site_fract_y
_atom_site_fract_z
Si Si1 0.603614 0.685483 0.832435
Si Si2 0.391448 0.183987 0.597012
Si Si3 0.101396 0.314470 0.168759
Si Si4 0.886579 0.685776 0.494386
Si Si5 0.395401 0.685630 0.267797
Si Si6 0.896160 0.312384 0.930305
O O1 0.600550 0.500000 0.833026
O O2 0.500635 0.750371 0.831452
O O3 0.577029 0.730557 0.773291
O O4 0.749860 0.734313 0.891780
O O5 0.252373 0.248356 0.564182
O O6 0.412524 0.231084 0.553382
O O7 0.503087 0.245249 0.665147
O O8 0.388415 0.000000 0.597540
O O9 0.097430 0.500000 0.168327
O O10 0.248105 0.268366 0.228296
O O11 0.074285 0.265780 0.109670
O O12 0.879762 0.500000 0.490473
O O13 0.000000 0.736255 0.500000
O O14 0.401432 0.500000 0.271974
O O15 0.897470 0.500000 0.931193
O O16 0.000000 0.258163 0.000000
#
# Coordination Sequence:
#
# PCOD9191921 Si02
#       6
#     8   8   8   8   8   8
#     4   9  18  32  50  71  95 127 164 199 240 290
#     4  10  20  33  52  77  99 123 161 204 239 275
#     4   9  18  32  50  72  97 127 163 202 242 284
#     4   9  19  36  54  72  99 132 160 190 236 292
#     4   9  19  35  50  66  96 134 163 191 238 296
#     4   8  15  30  50  70  96 131 165 195 237 296
#
# _framework density 17.298269999999999
#
# number of rings (size 3 to 8) (size 9 to 14) (size 15 to 20)
#    0.000    3.000    0.000    2.500    0.000    4.333 
#    0.000    7.500    0.000    1.000    0.000    0.000 
#    0.000    0.000    0.000    0.000    0.000    0.000 
#
# Total GULP energy -133782.685091 kJ/mol
# GULP energy per Si atom -5574.278545 kJ/mol
# Density = 1.725890 g / cm^3
# Si number density = 17.298270 Si / 1000 Ang^3
#
#
#
# Elastic Constant Matrix: (Units=GPa)
#
#
# Indices 1 2 3 4 5 6 
#
# 1 184.3917 30.2706 94.9248 0.0000 12.7082 0.0000
# 2 30.2706 8.0660 29.8384 0.0000 2.2015 0.0000
# 3 94.9248 29.8384 180.4200 0.0000 10.9195 0.0000
# 4 0.0000 0.0000 0.0000 21.2760 0.0000 1.4390
# 5 12.7082 2.2015 10.9195 0.0000 8.0874 0.0000
# 6 0.0000 0.0000 0.0000 1.4390 0.0000 31.4791
#
#
#
# Elastic Compliance Matrix: (Units=1/GPa)
#
#
# Indices 1 2 3 4 5 6 
#
# 1 0.015853 -0.072382 0.004296 0.000000 -0.011008 0.000000
# 2 -0.072382 0.652013 -0.071755 0.000000 0.033135 0.000000
# 3 0.004296 -0.071755 0.015655 0.000000 -0.008356 0.000000
# 4 0.000000 0.000000 0.000000 0.047147 0.000000 -0.002155
# 5 -0.011008 0.033135 -0.008356 0.000000 0.143209 0.000000
# 6 0.000000 0.000000 0.000000 -0.002155 0.000000 0.031866
#
#
# Mechanical properties :
#
#
# Convention : Reuss Voigt Hill
#
# Bulk Modulus (GPa) = 2.47623 75.88279 39.17951
# Shear Modulus (GPa) = 3.78778 26.69142 15.23960
#
# Velocity S-wave (km/s) = 1.48136 3.93238 2.97137
# Velocity P-wave (km/s) = 2.08818 8.03621 5.87117
#
# Compressibility (1/GPa) = 0.40383992
#
# Stress axis : x y z
#
# Youngs Moduli (GPa) = 63.08100 1.53371 63.87764
#
# Poissons Ratio (x) = 0.11101 -0.27444
# Poissons Ratio (y) = 4.56590 4.58353
# Poissons Ratio (z) = -0.27102 0.11005
#
# Static dielectric constant tensor:
#      x y z
#    x 1.569370 0.000000 -0.006270 
#    y 0.000000 1.586970 0.000000 
#    z -0.006270 0.000000 1.573690 
# 
# From -- ./inp_files/375159.got.cif
#   From: 2010.05.17/outbox.cif.g08.bks.cpg/sg12_188_cif.got.tgz:375159.got - 2010.06.03 13:09:07.
