data_PCOD9191158
_publ_section_title
;
Structure prediction by ZEFSAII (Michael W. Deem and Ramdas Pophale) SiO2 
 PCOD9191158
Probable space group: C 2/M
;
_chemical_formula_sum "Si O2"
_cell_formula_units_Z 60
_cell_length_a 12.093813
_cell_length_b 25.358823
_cell_length_c 13.221235
_cell_angle_alpha 90.000000
_cell_angle_beta 51.810439
_cell_angle_gamma 90.000000
_cell_volume 3186.912118
_symmetry_space_group_name_H-M "C 2/M"
_symmetry_group_IT_number 12
_symmetry_cell_setting 'monoclinic'
loop_
_space_group_symop_operation_xyz
x,y,z
-x,y,-z
-x,-y,-z
x,-y,z
1/2+x,1/2+y,z
1/2-x,1/2+y,-z
1/2-x,1/2-y,-z
1/2+x,1/2-y,z
loop_
_atom_site_type_symbol
_atom_site_label
_atom_site_fract_x
_atom_site_fract_y
_atom_site_fract_z
Si Si1 0.128827 0.094987 0.363421
Si Si2 0.089001 0.847624 0.045674
Si Si3 0.838622 0.786136 0.295487
Si Si4 0.000000 0.612574 0.000000
Si Si5 0.721759 0.558868 0.099844
Si Si6 0.621303 0.837997 0.731588
Si Si7 0.504561 0.706445 0.380622
Si Si8 0.149147 0.691944 0.228232
O O1 0.177951 0.060271 0.242600
O O2 0.257907 0.118495 0.356290
O O3 0.069296 0.148854 0.347559
O O4 0.000000 0.072182 0.500000
O O5 0.137645 0.896216 0.087014
O O6 0.982423 0.808038 0.162667
O O7 0.227042 0.818474 0.922481
O O8 0.000000 0.867716 0.000000
O O9 0.827546 0.722794 0.291946
O O10 0.716881 0.815636 0.301414
O O11 0.857261 0.796973 0.403982
O O12 0.883788 0.576873 0.011099
O O13 0.930155 0.647952 0.126111
O O14 0.703178 0.500000 0.069553
O O15 0.489469 0.839263 0.729293
O O16 0.500000 0.724373 0.500000
O O17 0.596796 0.747888 0.265902
#
# Coordination Sequence:
#
# PCOD9191158 Si02
#       8
#     8   8   8   4   8   8   8   8
#     4  10  21  39  55  81 117 149 191 240 282 329
#     4  10  21  35  54  84 118 145 186 237 281 345
#     4  10  20  33  53  82 116 153 188 225 271 341
#     4  10  21  34  56  88 116 140 177 242 296 350
#     4  11  22  39  60  83 109 147 194 246 298 335
#     4  10  20  32  55  81 115 153 183 221 287 340
#     4  10  20  34  52  77 111 153 188 229 272 322
#     4  10  20  35  51  82 115 152 191 216 282 348
#
# _framework density 18.827002
#
# number of rings (size 3 to 8) (size 9 to 14) (size 15 to 20)
#    0.000    1.867    4.000    0.200    2.800    3.200 
#    2.400    0.000    0.000    0.000    0.000    0.000 
#    0.000    4.800    0.000    0.000    0.000    0.000 
#
# Total GULP energy -167240.674601 kJ/mol
# GULP energy per Si atom -5574.689153 kJ/mol
# Density = 1.878415 g / cm^3
# Si number density = 18.827002 Si / 1000 Ang^3
#
#
#
# Elastic Constant Matrix: (Units=GPa)
#
#
# Indices 1 2 3 4 5 6 
#
# 1 144.9020 14.2612 30.6992 0.0000 3.4834 0.0000
# 2 14.2612 60.2689 23.0213 0.0000 4.6244 0.0000
# 3 30.6992 23.0213 59.2899 0.0000 -1.2265 0.0000
# 4 0.0000 0.0000 0.0000 9.3280 0.0000 6.4942
# 5 3.4834 4.6244 -1.2265 0.0000 26.5989 0.0000
# 6 0.0000 0.0000 0.0000 6.4942 0.0000 10.9300
#
#
#
# Elastic Compliance Matrix: (Units=1/GPa)
#
#
# Indices 1 2 3 4 5 6 
#
# 1 0.007793 -0.000240 -0.003966 0.000000 -0.001162 0.000000
# 2 -0.000240 0.019868 -0.007668 0.000000 -0.003776 0.000000
# 3 -0.003966 -0.007668 0.021956 0.000000 0.002865 0.000000
# 4 0.000000 0.000000 0.000000 0.182837 0.000000 -0.108635
# 5 -0.001162 -0.003776 0.002865 0.000000 0.038536 0.000000
# 6 0.000000 0.000000 0.000000 -0.108635 0.000000 0.156039
#
#
# Mechanical properties :
#
#
# Convention : Reuss Voigt Hill
#
# Bulk Modulus (GPa) = 38.65617 44.49158 41.57387
# Shear Modulus (GPa) = 10.88373 22.46997 16.67685
#
# Velocity S-wave (km/s) = 2.40696 3.45845 2.97946
# Velocity P-wave (km/s) = 5.31992 6.29531 5.82805
#
# Compressibility (1/GPa) = 0.02586909
#
# Stress axis : x y z
#
# Youngs Moduli (GPa) = 128.32047 50.33234 45.54467
#
# Poissons Ratio (x) = 0.01208 0.18063
# Poissons Ratio (y) = 0.03080 0.34925
# Poissons Ratio (z) = 0.50891 0.38596
#
# Static dielectric constant tensor:
#      x y z
#    x 1.740480 0.000000 -0.020570 
#    y 0.000000 1.610340 0.000000 
#    z -0.020570 0.000000 1.714210 
# 
# From -- ./inp_files/208959.got.cif
#   From: 2010.05.17/outbox.cif.g08.bks.cpg/sg12_105_cif.got.tgz:208959.got - 2010.06.03 13:09:07.
