data_PCOD9191004
_publ_section_title
;
Structure prediction by ZEFSAII (Michael W. Deem and Ramdas Pophale) SiO2 
 PCOD9191004
Probable space group: C 2/M
;
_chemical_formula_sum "Si O2"
_cell_formula_units_Z 64
_cell_length_a 30.106538
_cell_length_b 10.126759
_cell_length_c 17.039766
_cell_angle_alpha 90.000000
_cell_angle_beta 43.667364
_cell_angle_gamma 90.000000
_cell_volume 3587.071580
_symmetry_space_group_name_H-M "C 2/M"
_symmetry_group_IT_number 12
_symmetry_cell_setting 'monoclinic'
loop_
_space_group_symop_operation_xyz
x,y,z
-x,y,-z
-x,-y,-z
x,-y,z
1/2+x,1/2+y,z
1/2-x,1/2+y,-z
1/2-x,1/2-y,-z
1/2+x,1/2-y,z
loop_
_atom_site_type_symbol
_atom_site_label
_atom_site_fract_x
_atom_site_fract_y
_atom_site_fract_z
Si Si1 0.852791 0.153785 0.350689
Si Si2 0.706771 0.853587 0.964509
Si Si3 0.184485 0.347670 0.173036
Si Si4 0.602113 0.147473 0.964227
Si Si5 0.705107 0.157902 0.699311
Si Si6 0.071882 0.657083 0.438674
Si Si7 0.995450 0.144785 0.100059
Si Si8 0.148526 0.843099 0.460849
O O1 0.806966 0.253869 0.362150
O O2 0.859142 0.178609 0.435551
O O3 0.923507 0.166819 0.221986
O O4 0.832013 0.000000 0.367575
O O5 0.679784 0.824210 0.085704
O O6 0.736798 0.000000 0.929022
O O7 0.759453 0.748810 0.871781
O O8 0.649764 0.856509 0.976282
O O9 0.203380 0.500000 0.160513
O O10 0.119720 0.326213 0.303685
O O11 0.646984 0.188678 0.833615
O O12 0.577870 0.000000 0.977766
O O13 0.544331 0.241996 0.059908
O O14 0.774916 0.183610 0.649078
O O15 0.703512 0.000000 0.684182
O O16 0.072462 0.500000 0.460306
O O17 0.102210 0.749654 0.468242
O O18 0.000000 0.689443 0.500000
O O19 0.016063 0.000000 0.102904
O O20 0.000000 0.142557 0.000000
O O21 0.137005 0.000000 0.459648
#
# Coordination Sequence:
#
# PCOD9191004 Si02
#       8
#     8   8   8   8   8   8   8   8
#     4  10  21  37  56  79 109 145 184 224 267 317
#     4   9  18  33  53  79 109 139 174 219 267 313
#     4   9  18  34  55  78 106 139 175 217 266 318
#     4  10  20  32  51  79 108 140 177 216 261 313
#     4  10  20  34  54  81 112 143 179 223 269 317
#     4  10  22  39  58  81 110 143 181 224 271 325
#     4  10  20  35  52  72 103 142 177 212 257 308
#     4  10  22  39  58  82 109 139 181 229 272 320
#
# _framework density 17.841850999999998
#
# number of rings (size 3 to 8) (size 9 to 14) (size 15 to 20)
#    0.000    2.250    1.250    1.125    0.000    5.000 
#    0.000    1.250    0.000    0.000    0.000    0.000 
#    0.000    0.000    0.000    0.000    0.000    0.000 
#
# Total GULP energy -178373.610433 kJ/mol
# GULP energy per Si atom -5574.175326 kJ/mol
# Density = 1.780124 g / cm^3
# Si number density = 17.841851 Si / 1000 Ang^3
#
#
#
# Elastic Constant Matrix: (Units=GPa)
#
#
# Indices 1 2 3 4 5 6 
#
# 1 91.7707 72.1002 27.6721 -0.0001 -6.5361 0.0000
# 2 72.1002 78.7429 39.0681 0.0005 -10.4007 -0.0002
# 3 27.6721 39.0681 52.3695 0.0004 -3.2059 -0.0001
# 4 -0.0001 0.0005 0.0004 59.6888 0.0000 3.8577
# 5 -6.5361 -10.4007 -3.2059 0.0000 18.6955 0.0000
# 6 0.0000 -0.0002 -0.0001 3.8577 0.0000 35.8168
#
#
#
# Elastic Compliance Matrix: (Units=1/GPa)
#
#
# Indices 1 2 3 4 5 6 
#
# 1 0.043356 -0.046391 0.011164 0.000000 -0.008737 0.000000
# 2 -0.046391 0.071318 -0.027543 0.000000 0.018734 0.000000
# 3 0.011164 -0.027543 0.033395 0.000000 -0.005693 0.000000
# 4 0.000000 0.000000 0.000000 0.016871 0.000000 -0.001817
# 5 -0.008737 0.018734 -0.005693 0.000000 0.059880 0.000000
# 6 0.000000 0.000000 0.000000 -0.001817 0.000000 0.028116
#
#
# Mechanical properties :
#
#
# Convention : Reuss Voigt Hill
#
# Bulk Modulus (GPa) = 44.39071 55.61822 50.00447
# Shear Modulus (GPa) = 12.95388 28.44305 20.69846
#
# Velocity S-wave (km/s) = 2.69743 3.99705 3.40973
# Velocity P-wave (km/s) = 5.88521 7.24861 6.60220
#
# Compressibility (1/GPa) = 0.02252724
#
# Stress axis : x y z
#
# Youngs Moduli (GPa) = 23.06498 14.02180 29.94471
#
# Poissons Ratio (x) = 0.65049 -0.33431
# Poissons Ratio (y) = 1.07002 0.82478
# Poissons Ratio (z) = -0.25751 0.38621
#
# Static dielectric constant tensor:
#      x y z
#    x 1.590550 0.000000 0.013170 
#    y 0.000000 1.636860 0.000000 
#    z 0.013170 0.000000 1.616080 
# 
# From -- ./inp_files/295592.got.cif
#   From: 2010.05.17/outbox.cif.g08.bks.cpg/sg12_148_cif.got.tgz:295592.got - 2010.06.03 13:09:07.
