data_PCOD9191958
_publ_section_title
;
Structure prediction by ZEFSAII (Michael W. Deem and Ramdas Pophale) SiO2 
 PCOD9191958
Probable space group: C 2/M
;
_chemical_formula_sum "Si O2"
_cell_formula_units_Z 56
_cell_length_a 18.519660
_cell_length_b 30.134993
_cell_length_c 8.441840
_cell_angle_alpha 90.000000
_cell_angle_beta 42.428978
_cell_angle_gamma 90.000000
_cell_volume 3178.603395
_symmetry_space_group_name_H-M "C 2/M"
_symmetry_group_IT_number 12
_symmetry_cell_setting 'monoclinic'
loop_
_space_group_symop_operation_xyz
x,y,z
-x,y,-z
-x,-y,-z
x,-y,z
1/2+x,1/2+y,z
1/2-x,1/2+y,-z
1/2-x,1/2-y,-z
1/2+x,1/2-y,z
loop_
_atom_site_type_symbol
_atom_site_label
_atom_site_fract_x
_atom_site_fract_y
_atom_site_fract_z
Si Si1 0.666486 0.948066 0.838704
Si Si2 0.926663 0.552331 0.357875
Si Si3 0.647682 0.698587 0.554736
Si Si4 0.750847 0.787853 0.271879
Si Si5 0.068204 0.809643 0.249063
Si Si6 0.218257 0.128928 0.197490
Si Si7 0.881907 0.634263 0.650462
O O1 0.639610 0.939104 0.697069
O O2 0.761883 0.919018 0.757295
O O3 0.690002 0.000000 0.815562
O O4 0.552245 0.940207 0.112402
O O5 0.914531 0.500000 0.418474
O O6 0.890664 0.586380 0.551334
O O7 0.678973 0.744977 0.420505
O O8 0.679228 0.703839 0.684839
O O9 0.524429 0.684408 0.730729
O O10 0.717116 0.662509 0.346878
O O11 0.677535 0.830626 0.363906
O O12 0.832416 0.784428 0.991125
O O13 0.117906 0.853914 0.252254
O O14 0.000000 0.786836 0.500000
O O15 0.315908 0.133448 0.918958
O O16 0.000000 0.649813 0.500000
#
# Coordination Sequence:
#
# PCOD9191958 Si02
#       7
#     8   8   8   8   8   8   8
#     4   9  17  32  53  77 108 145 185 222 266 325
#     4   9  18  32  51  76 111 151 179 215 273 328
#     4  10  21  39  57  76 105 141 185 231 267 320
#     4  10  22  37  57  80 102 141 189 223 270 323
#     4   9  20  36  56  77 104 136 172 220 274 319
#     4  10  20  33  52  78 107 144 180 214 275 327
#     4  11  21  32  48  79 114 143 175 221 268 326
#
# _framework density 17.617799999999999
#
# number of rings (size 3 to 8) (size 9 to 14) (size 15 to 20)
#    0.000    2.286    1.429    2.143    0.000    8.857 
#    0.000    1.429    0.000    3.857    0.000    0.000 
#    0.000   38.857    0.000    0.000    0.000    0.000 
#
# Total GULP energy -155908.735239 kJ/mol
# GULP energy per Si atom -5568.169116 kJ/mol
# Density = 1.757770 g / cm^3
# Si number density = 17.617800 Si / 1000 Ang^3
#
#
#
# Elastic Constant Matrix: (Units=GPa)
#
#
# Indices 1 2 3 4 5 6 
#
# 1 90.4785 33.1402 23.8665 0.0000 -16.2138 0.0000
# 2 33.1402 72.4493 26.3313 0.0000 -2.8091 0.0000
# 3 23.8665 26.3313 89.1451 0.0000 2.2688 0.0000
# 4 0.0000 0.0000 0.0000 7.8415 0.0000 -2.6501
# 5 -16.2138 -2.8091 2.2688 0.0000 16.5811 0.0000
# 6 0.0000 0.0000 0.0000 -2.6501 0.0000 116.4321
#
#
#
# Elastic Compliance Matrix: (Units=1/GPa)
#
#
# Indices 1 2 3 4 5 6 
#
# 1 0.016946 -0.005976 -0.003179 0.000000 0.015993 0.000000
# 2 -0.005976 0.017747 -0.003582 0.000000 -0.002347 0.000000
# 3 -0.003179 -0.003582 0.013268 0.000000 -0.005531 0.000000
# 4 0.000000 0.000000 0.000000 0.128516 0.000000 0.002925
# 5 0.015993 -0.002347 -0.005531 0.000000 0.076307 0.000000
# 6 0.000000 0.000000 0.000000 0.002925 0.000000 0.008655
#
#
# Mechanical properties :
#
#
# Convention : Reuss Voigt Hill
#
# Bulk Modulus (GPa) = 44.47148 46.52766 45.49957
# Shear Modulus (GPa) = 16.98320 39.41993 28.20156
#
# Velocity S-wave (km/s) = 3.10817 4.73536 4.00527
# Velocity P-wave (km/s) = 6.17884 7.50766 6.87543
#
# Compressibility (1/GPa) = 0.02248632
#
# Stress axis : x y z
#
# Youngs Moduli (GPa) = 59.01225 56.34634 75.37155
#
# Poissons Ratio (x) = 0.33673 0.23958
# Poissons Ratio (y) = 0.35266 0.27002
# Poissons Ratio (z) = 0.18758 0.20186
#
# Static dielectric constant tensor:
#      x y z
#    x 1.644030 0.000000 0.012090 
#    y 0.000000 1.593140 0.000000 
#    z 0.012090 0.000000 1.603020 
# 
# From -- ./inp_files/54793.got.cif
#   From: 2010.05.17/outbox.cif.g08.bks.cpg/sg12_28_cif.got.tgz:54793.got - 2010.06.03 13:09:07.
