data_PCOD9191637
_publ_section_title
;
Structure prediction by ZEFSAII (Michael W. Deem and Ramdas Pophale) SiO2 
 PCOD9191637
Probable space group: C 2/M
;
_chemical_formula_sum "Si O2"
_cell_formula_units_Z 60
_cell_length_a 12.363634
_cell_length_b 18.830221
_cell_length_c 16.880951
_cell_angle_alpha 90.000000
_cell_angle_beta 56.078183
_cell_angle_gamma 90.000000
_cell_volume 3261.157826
_symmetry_space_group_name_H-M "C 2/M"
_symmetry_group_IT_number 12
_symmetry_cell_setting 'monoclinic'
loop_
_space_group_symop_operation_xyz
x,y,z
-x,y,-z
-x,-y,-z
x,-y,z
1/2+x,1/2+y,z
1/2-x,1/2+y,-z
1/2-x,1/2-y,-z
1/2+x,1/2-y,z
loop_
_atom_site_type_symbol
_atom_site_label
_atom_site_fract_x
_atom_site_fract_y
_atom_site_fract_z
Si Si1 0.829158 0.806961 0.290967
Si Si2 0.500000 0.626926 0.000000
Si Si3 0.198008 0.382951 0.938052
Si Si4 0.265888 0.725156 0.136003
Si Si5 0.470818 0.175406 0.287797
Si Si6 0.083599 0.584508 0.385857
Si Si7 0.012203 0.925024 0.167351
Si Si8 0.472682 0.080539 0.142350
O O1 0.813006 0.774717 0.208766
O O2 0.707169 0.861862 0.350078
O O3 0.870004 0.742132 0.332540
O O4 0.952042 0.859287 0.237698
O O5 0.368962 0.674525 0.048498
O O6 0.479473 0.583323 0.088152
O O7 0.220596 0.300891 0.909925
O O8 0.333860 0.421222 0.890898
O O9 0.122383 0.414445 0.893681
O O10 0.109233 0.392111 0.051323
O O11 0.114998 0.702838 0.202625
O O12 0.500111 0.125104 0.351467
O O13 0.423842 0.126673 0.234858
O O14 0.114204 0.500000 0.353317
O O15 0.000000 0.582715 0.500000
O O16 0.961483 0.000000 0.218606
O O17 0.489407 0.000000 0.161309
#
# Coordination Sequence:
#
# PCOD9191637 Si02
#       8
#     8   4   8   8   8   8   8   8
#     4  10  21  37  58  85 112 143 183 232 283 345
#     4  10  21  32  48  70 105 150 204 242 273 320
#     4  11  20  32  50  72 113 152 199 235 271 319
#     4  10  20  33  50  79 107 150 191 238 276 317
#     4  11  21  37  61  84 114 148 192 234 288 347
#     4  10  23  44  67  90 116 144 180 234 301 363
#     4  11  21  33  50  74 108 150 192 237 285 330
#     4  11  22  33  49  77 113 155 200 239 273 319
#
# _framework density 18.398372999999999
#
# number of rings (size 3 to 8) (size 9 to 14) (size 15 to 20)
#    0.000    1.467    2.667    4.200    1.867    1.600 
#    0.000    4.000    0.000    0.000    0.000    0.000 
#    0.000   11.200    0.000    0.000    0.000    0.000 
#
# Total GULP energy -167263.907137 kJ/mol
# GULP energy per Si atom -5575.463571 kJ/mol
# Density = 1.835650 g / cm^3
# Si number density = 18.398373 Si / 1000 Ang^3
#
#
#
# Elastic Constant Matrix: (Units=GPa)
#
#
# Indices 1 2 3 4 5 6 
#
# 1 59.7521 33.1570 11.5288 0.0000 2.4384 0.0000
# 2 33.1570 147.6097 37.2723 0.0000 9.1111 0.0000
# 3 11.5288 37.2723 42.1671 0.0000 1.4307 0.0000
# 4 0.0000 0.0000 0.0000 26.8260 0.0000 -4.1970
# 5 2.4384 9.1111 1.4307 0.0000 9.8462 0.0000
# 6 0.0000 0.0000 0.0000 -4.1970 0.0000 -17.7400
#
#
#
# Elastic Compliance Matrix: (Units=1/GPa)
#
#
# Indices 1 2 3 4 5 6 
#
# 1 0.019240 -0.003786 -0.001880 0.000000 -0.000988 0.000000
# 2 -0.003786 0.009972 -0.007535 0.000000 -0.007195 0.000000
# 3 -0.001880 -0.007535 0.030789 0.000000 0.002964 0.000000
# 4 0.000000 0.000000 0.000000 0.035947 0.000000 -0.008504
# 5 -0.000988 -0.007195 0.002964 0.000000 0.108034 0.000000
# 6 0.000000 0.000000 0.000000 -0.008504 0.000000 -0.054358
#
#
# Mechanical properties :
#
#
# Convention : Reuss Voigt Hill
#
# Bulk Modulus (GPa) = 29.76361 45.93835 37.85098
# Shear Modulus (GPa) = 26.70578 14.95782 20.83180
#
# Velocity S-wave (km/s) = 3.81403 2.85440 3.36856
# Velocity P-wave (km/s) = 5.96726 5.99053 5.97890
#
# Compressibility (1/GPa) = 0.03359807
#
# Stress axis : x y z
#
# Youngs Moduli (GPa) = 51.97555 100.28296 32.47916
#
# Poissons Ratio (x) = 0.37967 0.06107
# Poissons Ratio (y) = 0.19678 0.24473
# Poissons Ratio (z) = 0.09773 0.75563
#
# Static dielectric constant tensor:
#      x y z
#    x 1.659620 0.000000 -0.002820 
#    y 0.000000 1.686920 0.000000 
#    z -0.002820 0.000000 1.590890 
# 
# From -- ./inp_files/264251.got.cif
#   From: 2010.05.17/outbox.cif.g08.bks.cpg/sg12_133_cif.got.tgz:264251.got - 2010.06.03 13:09:07.
