data_PCOD9191842
_publ_section_title
;
Structure prediction by ZEFSAII (Michael W. Deem and Ramdas Pophale) SiO2 
 PCOD9191842
Probable space group: C 2/M
;
_chemical_formula_sum "Si O2"
_cell_formula_units_Z 64
_cell_length_a 31.593953
_cell_length_b 17.702445
_cell_length_c 12.359932
_cell_angle_alpha 90.000000
_cell_angle_beta 28.880854
_cell_angle_gamma 90.000000
_cell_volume 3338.806663
_symmetry_space_group_name_H-M "C 2/M"
_symmetry_group_IT_number 12
_symmetry_cell_setting 'monoclinic'
loop_
_space_group_symop_operation_xyz
x,y,z
-x,y,-z
-x,-y,-z
x,-y,z
1/2+x,1/2+y,z
1/2-x,1/2+y,-z
1/2-x,1/2-y,-z
1/2+x,1/2-y,z
loop_
_atom_site_type_symbol
_atom_site_label
_atom_site_fract_x
_atom_site_fract_y
_atom_site_fract_z
Si Si1 0.260427 0.410900 0.621535
Si Si2 0.826052 0.731883 0.244919
Si Si3 0.460585 0.419003 0.774494
Si Si4 0.417108 0.370310 0.111372
Si Si5 0.154921 0.135281 0.339429
Si Si6 0.903245 0.277439 0.664822
Si Si7 0.182337 0.809543 0.964462
Si Si8 0.797123 0.411691 0.841172
O O1 0.241984 0.500000 0.677604
O O2 0.178646 0.357138 0.770635
O O3 0.332535 0.399979 0.365257
O O4 0.303266 0.376061 0.635379
O O5 0.750000 0.750000 0.500000
O O6 0.907627 0.780104 0.107913
O O7 0.804596 0.773499 0.180649
O O8 0.433160 0.500000 0.792035
O O9 0.564320 0.410776 0.538453
O O10 0.430242 0.409791 0.966647
O O11 0.409664 0.354228 0.825675
O O12 0.500000 0.385197 0.000000
O O13 0.121166 0.218952 0.377614
O O14 0.223866 0.103329 0.098082
O O15 0.882805 0.363032 0.677773
O O16 0.000000 0.270715 0.500000
O O17 0.830778 0.255061 0.917523
O O18 0.255514 0.869914 0.830698
O O19 0.811617 0.500000 0.795483
#
# Coordination Sequence:
#
# PCOD9191842 Si02
#       8
#     8   8   8   8   8   8   8   8
#     4  11  20  33  54  79 111 142 180 229 272 317
#     4   9  20  36  55  80 106 146 186 215 265 327
#     4  11  20  31  52  82 115 143 176 223 279 331
#     4  10  20  33  51  79 111 144 178 220 273 330
#     4  11  21  35  54  81 110 144 182 218 274 334
#     4  11  22  39  56  79 109 146 185 221 269 326
#     4  10  20  38  55  79 112 144 180 224 271 328
#     4  11  23  37  57  81 107 141 185 230 270 314
#
# _framework density 19.168526
#
# number of rings (size 3 to 8) (size 9 to 14) (size 15 to 20)
#    0.000    1.500    2.500    4.875    0.000    0.750 
#    0.000    2.500    0.000    0.375    0.000    0.000 
#    0.000    0.000    0.000    0.000    0.000    0.000 
#
# Total GULP energy -178494.809467 kJ/mol
# GULP energy per Si atom -5577.962796 kJ/mol
# Density = 1.912490 g / cm^3
# Si number density = 19.168526 Si / 1000 Ang^3
#
#
#
# Elastic Constant Matrix: (Units=GPa)
#
#
# Indices 1 2 3 4 5 6 
#
# 1 33.2811 19.0360 1.1394 0.0000 2.4094 0.0000
# 2 19.0360 137.3896 17.6248 0.0000 -7.5960 0.0000
# 3 1.1394 17.6248 36.8594 0.0000 7.3358 0.0000
# 4 0.0000 0.0000 0.0000 16.6594 0.0000 -4.2219
# 5 2.4094 -7.5960 7.3358 0.0000 26.0497 0.0000
# 6 0.0000 0.0000 0.0000 -4.2219 0.0000 8.9721
#
#
#
# Elastic Compliance Matrix: (Units=1/GPa)
#
#
# Indices 1 2 3 4 5 6 
#
# 1 0.033343 -0.005239 0.002535 0.000000 -0.005326 0.000000
# 2 -0.005239 0.008891 -0.004981 0.000000 0.004480 0.000000
# 3 0.002535 -0.004981 0.031537 0.000000 -0.010568 0.000000
# 4 0.000000 0.000000 0.000000 0.068154 0.000000 0.032071
# 5 -0.005326 0.004480 -0.010568 0.000000 0.043163 0.000000
# 6 0.000000 0.000000 0.000000 0.032071 0.000000 0.126548
#
#
# Mechanical properties :
#
#
# Convention : Reuss Voigt Hill
#
# Bulk Modulus (GPa) = 17.12364 31.45892 24.29128
# Shear Modulus (GPa) = 14.43112 21.65157 18.04134
#
# Velocity S-wave (km/s) = 2.74680 3.36451 3.07122
# Velocity P-wave (km/s) = 4.36033 5.61610 5.02758
#
# Compressibility (1/GPa) = 0.05839879
#
# Stress axis : x y z
#
# Youngs Moduli (GPa) = 29.99160 112.47088 31.70897
#
# Poissons Ratio (x) = 0.58928 -0.08037
# Poissons Ratio (y) = 0.15714 0.15795
# Poissons Ratio (z) = -0.07601 0.56023
#
# Static dielectric constant tensor:
#      x y z
#    x 1.686580 0.000000 -0.004620 
#    y 0.000000 1.718960 0.000000 
#    z -0.004620 0.000000 1.655100 
# 
# From -- ./inp_files/190006.got.cif
#   From: 2010.05.17/outbox.cif.g08.bks.cpg/sg12_96_cif.got.tgz:190006.got - 2010.06.03 13:09:07.
