data_PCOD9191765
_publ_section_title
;
Structure prediction by ZEFSAII (Michael W. Deem and Ramdas Pophale) SiO2 
 PCOD9191765
Probable space group: C 2/M
;
_chemical_formula_sum "Si O2"
_cell_formula_units_Z 36
_cell_length_a 12.917292
_cell_length_b 30.243691
_cell_length_c 5.055173
_cell_angle_alpha 90.000000
_cell_angle_beta 80.167152
_cell_angle_gamma 90.000000
_cell_volume 1945.876399
_symmetry_space_group_name_H-M "C 2/M"
_symmetry_group_IT_number 12
_symmetry_cell_setting 'monoclinic'
loop_
_space_group_symop_operation_xyz
x,y,z
-x,y,-z
-x,-y,-z
x,-y,z
1/2+x,1/2+y,z
1/2-x,1/2+y,-z
1/2-x,1/2-y,-z
1/2+x,1/2-y,z
loop_
_atom_site_type_symbol
_atom_site_label
_atom_site_fract_x
_atom_site_fract_y
_atom_site_fract_z
Si Si1 0.072597 0.326094 0.726339
Si Si2 0.423026 0.500000 0.785129
Si Si3 0.927056 0.224475 0.273589
Si Si4 0.794232 0.857687 0.471040
Si Si5 0.881643 0.095794 0.934849
O O1 0.106158 0.275021 0.767809
O O2 0.176051 0.354173 0.626744
O O3 0.000000 0.325767 0.500000
O O4 0.000000 0.341067 0.000000
O O5 0.500000 0.500000 0.500000
O O6 0.361597 0.546003 0.838453
O O7 0.500000 0.500000 0.000000
O O8 0.833193 0.190480 0.358385
O O9 0.000000 0.224803 0.500000
O O10 0.000000 0.209266 0.000000
O O11 0.865219 0.873397 0.686814
O O12 0.809563 0.889372 0.211587
O O13 0.000000 0.098273 0.000000
#
# Coordination Sequence:
#
# PCOD9191765 Si02
#       5
#     8   4   8   8   8
#     4  10  22  38  52  73 106 146 186 223 261 300
#     4  10  20  36  54  78 116 146 160 198 264 334
#     4  10  20  33  51  76 109 140 172 217 267 316
#     4  12  21  34  56  81 105 141 182 221 258 307
#     4  11  22  35  55  84 112 138 168 208 264 328
#
# _framework density 18.500662999999999
#
# number of rings (size 3 to 8) (size 9 to 14) (size 15 to 20)
#    0.000    1.333    0.000    8.667    0.000    0.000 
#    0.000    8.889    0.000    0.000    0.000   15.556 
#    0.000    0.000    0.000    0.000    0.000    0.000 
#
# Total GULP energy -100570.872896 kJ/mol
# GULP energy per Si atom -5587.270716 kJ/mol
# Density = 1.845855 g / cm^3
# Si number density = 18.500663 Si / 1000 Ang^3
#
#
#
# Elastic Constant Matrix: (Units=GPa)
#
#
# Indices 1 2 3 4 5 6 
#
# 1 45.9562 25.0862 32.6497 0.0000 -19.1788 0.0000
# 2 25.0862 70.3938 35.3170 0.0000 -20.9803 0.0000
# 3 32.6497 35.3170 164.9796 0.0000 -20.7210 0.0000
# 4 0.0000 0.0000 0.0000 31.5369 0.0000 -3.3973
# 5 -19.1788 -20.9803 -20.7210 0.0000 37.0955 0.0000
# 6 0.0000 0.0000 0.0000 -3.3973 0.0000 11.4994
#
#
#
# Elastic Compliance Matrix: (Units=1/GPa)
#
#
# Indices 1 2 3 4 5 6 
#
# 1 0.032517 -0.006435 -0.003660 0.000000 0.011128 0.000000
# 2 -0.006435 0.019489 -0.002078 0.000000 0.006535 0.000000
# 3 -0.003660 -0.002078 0.007362 0.000000 0.001045 0.000000
# 4 0.000000 0.000000 0.000000 0.032751 0.000000 0.009676
# 5 0.011128 0.006535 0.001045 0.000000 0.036990 0.000000
# 6 0.000000 0.000000 0.000000 0.009676 0.000000 0.089819
#
#
# Mechanical properties :
#
#
# Convention : Reuss Voigt Hill
#
# Bulk Modulus (GPa) = 28.55369 51.93726 40.24547
# Shear Modulus (GPa) = 19.61185 28.57815 24.09500
#
# Velocity S-wave (km/s) = 3.25939 3.93454 3.61277
# Velocity P-wave (km/s) = 5.44355 6.98391 6.26128
#
# Compressibility (1/GPa) = 0.03502174
#
# Stress axis : x y z
#
# Youngs Moduli (GPa) = 30.75339 51.31042 135.83901
#
# Poissons Ratio (x) = 0.33020 0.49716
# Poissons Ratio (y) = 0.19791 0.28224
# Poissons Ratio (z) = 0.11255 0.10661
#
# Static dielectric constant tensor:
#      x y z
#    x 1.578100 0.000000 -0.008210 
#    y 0.000000 1.702960 0.000000 
#    z -0.008210 0.000000 1.629610 
# 
# From -- ./inp_files/7515.got.cif
#   From: 2010.05.17/outbox.cif.g08.bks.cpg/sg12_4_cif.got.tgz:7515.got - 2010.06.03 13:09:07.
