data_PCOD9191783
_publ_section_title
;
Structure prediction by ZEFSAII (Michael W. Deem and Ramdas Pophale) SiO2 
 PCOD9191783
Probable space group: C 2/M
;
_chemical_formula_sum "Si O2"
_cell_formula_units_Z 40
_cell_length_a 10.811208
_cell_length_b 28.254249
_cell_length_c 8.590888
_cell_angle_alpha 90.000000
_cell_angle_beta 138.028844
_cell_angle_gamma 90.000000
_cell_volume 1754.946992
_symmetry_space_group_name_H-M "C 2/M"
_symmetry_group_IT_number 12
_symmetry_cell_setting 'monoclinic'
loop_
_space_group_symop_operation_xyz
x,y,z
-x,y,-z
-x,-y,-z
x,-y,z
1/2+x,1/2+y,z
1/2-x,1/2+y,-z
1/2-x,1/2-y,-z
1/2+x,1/2-y,z
loop_
_atom_site_type_symbol
_atom_site_label
_atom_site_fract_x
_atom_site_fract_y
_atom_site_fract_z
Si Si1 0.966510 0.500000 0.650680
Si Si2 0.534849 0.401850 0.349129
Si Si3 0.473218 0.098975 0.790839
Si Si4 0.534322 0.300186 0.344636
Si Si5 0.028928 0.000000 0.210161
Si Si6 0.468850 0.197901 0.656690
O O1 0.043404 0.548786 0.792361
O O2 0.744425 0.500000 0.463159
O O3 0.000000 0.500000 0.500000
O O4 0.500000 0.403750 0.500000
O O5 0.756877 0.400935 0.540099
O O6 0.463611 0.351217 0.219982
O O7 0.456761 0.449857 0.204795
O O8 0.547533 0.149145 0.798607
O O9 0.500000 0.098780 0.000000
O O10 0.500000 0.300695 0.500000
O O11 0.459803 0.249347 0.218359
O O12 0.752179 0.300813 0.504196
O O13 0.000000 0.000000 0.000000
O O14 0.500000 0.196398 0.500000
#
# Coordination Sequence:
#
# PCOD9191783 Si02
#       6
#     4   8   8   8   4   8
#     4  10  21  36  52  72 102 136 169 212 263 307
#     4   9  18  34  53  71  97 134 169 204 251 305
#     4  10  20  33  51  77 105 134 171 212 257 311
#     4   8  15  29  51  73  98 135 173 208 255 307
#     4  10  21  34  50  74  98 124 165 212 254 299
#     4   9  16  29  51  75 100 134 173 212 254 302
#
# _framework density 22.792712000000002
#
# number of rings (size 3 to 8) (size 9 to 14) (size 15 to 20)
#    0.000    2.800    0.000    1.200    0.000    1.600 
#    0.000    1.000    0.000   40.800    0.000    0.000 
#    0.000    0.000    0.000    0.000    0.000    0.000 
#
# Total GULP energy -111468.908673 kJ/mol
# GULP energy per Si atom -5573.445434 kJ/mol
# Density = 2.274083 g / cm^3
# Si number density = 22.792712 Si / 1000 Ang^3
#
#
#
# Elastic Constant Matrix: (Units=GPa)
#
#
# Indices 1 2 3 4 5 6 
#
# 1 104.2620 40.9080 24.3468 0.0000 8.3420 0.0000
# 2 40.9080 359.3995 62.3844 0.0000 -32.9433 0.0000
# 3 24.3468 62.3844 57.6649 0.0000 10.4937 0.0000
# 4 0.0000 0.0000 0.0000 -14.4277 0.0000 -35.4778
# 5 8.3420 -32.9433 10.4937 0.0000 49.6634 0.0000
# 6 0.0000 0.0000 0.0000 -35.4778 0.0000 26.7890
#
#
#
# Elastic Compliance Matrix: (Units=1/GPa)
#
#
# Indices 1 2 3 4 5 6 
#
# 1 0.010829 -0.000786 -0.003428 0.000000 -0.001616 0.000000
# 2 -0.000786 0.004044 -0.004737 0.000000 0.003815 0.000000
# 3 -0.003428 -0.004737 0.025356 0.000000 -0.007924 0.000000
# 4 0.000000 0.000000 0.000000 -0.016283 0.000000 -0.021565
# 5 -0.001616 0.003815 -0.007924 0.000000 0.024612 0.000000
# 6 0.000000 0.000000 0.000000 -0.021565 0.000000 0.008770
#
#
# Mechanical properties :
#
#
# Convention : Reuss Voigt Hill
#
# Bulk Modulus (GPa) = 44.78944 86.28941 65.53942
# Shear Modulus (GPa) = 60.47915 38.65074 49.56495
#
# Velocity S-wave (km/s) = 5.15675 4.12242 4.66832
# Velocity P-wave (km/s) = 7.42627 7.78457 7.60753
#
# Compressibility (1/GPa) = 0.02232669
#
# Stress axis : x y z
#
# Youngs Moduli (GPa) = 92.34197 247.28587 39.43796
#
# Poissons Ratio (x) = 0.19428 0.13520
# Poissons Ratio (y) = 0.07255 0.18684
# Poissons Ratio (z) = 0.31657 1.17151
#
# Static dielectric constant tensor:
#      x y z
#    x 1.741320 0.000000 -0.024160 
#    y 0.000000 1.933450 0.000000 
#    z -0.024160 0.000000 1.709290 
# 
# From -- ./inp_files/8374.got.cif
#   From: 2010.05.17/outbox.cif.g08.bks.cpg/sg12_5_cif.got.tgz:8374.got - 2010.06.03 13:09:07.
