data_PCOD9191736
_publ_section_title
;
Structure prediction by ZEFSAII (Michael W. Deem and Ramdas Pophale) SiO2 
 PCOD9191736
Probable space group: C 2/M
;
_chemical_formula_sum "Si O2"
_cell_formula_units_Z 48
_cell_length_a 14.594365
_cell_length_b 8.577751
_cell_length_c 19.827676
_cell_angle_alpha 90.000000
_cell_angle_beta 90.475236
_cell_angle_gamma 90.000000
_cell_volume 2482.078501
_symmetry_space_group_name_H-M "C 2/M"
_symmetry_group_IT_number 12
_symmetry_cell_setting 'monoclinic'
loop_
_space_group_symop_operation_xyz
x,y,z
-x,y,-z
-x,-y,-z
x,-y,z
1/2+x,1/2+y,z
1/2-x,1/2+y,-z
1/2-x,1/2-y,-z
1/2+x,1/2-y,z
loop_
_atom_site_type_symbol
_atom_site_label
_atom_site_fract_x
_atom_site_fract_y
_atom_site_fract_z
Si Si1 0.109574 0.180757 0.517717
Si Si2 0.639309 0.687420 0.372469
Si Si3 0.894961 0.688453 0.003346
Si Si4 0.275720 0.188423 0.256441
Si Si5 0.060824 0.684396 0.654058
Si Si6 0.752709 0.813608 0.107662
O O1 0.155467 0.244421 0.449452
O O2 0.117375 0.277745 0.586040
O O3 0.000000 0.181364 0.500000
O O4 0.135092 0.000000 0.529618
O O5 0.646314 0.500000 0.376710
O O6 0.706765 0.743768 0.314653
O O7 0.535878 0.730266 0.351360
O O8 0.894065 0.500000 0.006602
O O9 0.835237 0.736047 0.937628
O O10 0.841101 0.751988 0.067765
O O11 0.000000 0.740463 0.000000
O O12 0.377272 0.232456 0.282292
O O13 0.251322 0.251466 0.183278
O O14 0.271790 0.000000 0.254905
O O15 0.044611 0.500000 0.656607
O O16 0.754618 0.000000 0.108633
#
# Coordination Sequence:
#
# PCOD9191736 Si02
#       6
#     8   8   8   8   8   8
#     4   8  15  30  51  72  98 134 175 220 268 316
#     4   9  19  36  54  72 100 141 181 216 264 321
#     4   9  19  38  62  84 109 141 171 205 255 307
#     4  10  22  38  53  73 108 147 175 209 263 316
#     4  10  20  33  51  76 103 134 176 224 270 312
#     4  10  21  36  56  84 112 137 173 215 251 301
#
# _framework density 19.338630999999999
#
# number of rings (size 3 to 8) (size 9 to 14) (size 15 to 20)
#    0.000    2.667    0.000    2.000    0.000    8.000 
#    0.000    5.000    0.000    0.000    0.000    0.000 
#    0.000    0.000    0.000    0.000    0.000    0.000 
#
# Total GULP energy -133927.506776 kJ/mol
# GULP energy per Si atom -5580.312782 kJ/mol
# Density = 1.929462 g / cm^3
# Si number density = 19.338631 Si / 1000 Ang^3
#
#
#
# Elastic Constant Matrix: (Units=GPa)
#
#
# Indices 1 2 3 4 5 6 
#
# 1 86.8288 1.7845 36.6499 0.0000 -2.6105 0.0000
# 2 1.7845 2.2975 6.9148 0.0000 1.7529 0.0000
# 3 36.6499 6.9148 108.1409 0.0000 4.2311 0.0000
# 4 0.0000 0.0000 0.0000 33.6835 0.0000 -0.5522
# 5 -2.6105 1.7529 4.2311 0.0000 13.5823 0.0000
# 6 0.0000 0.0000 0.0000 -0.5522 0.0000 18.0601
#
#
#
# Elastic Compliance Matrix: (Units=1/GPa)
#
#
# Indices 1 2 3 4 5 6 
#
# 1 0.013665 0.000906 -0.004846 0.000000 0.004019 0.000000
# 2 0.000906 0.591216 -0.035566 0.000000 -0.065049 0.000000
# 3 -0.004846 -0.035566 0.013181 0.000000 -0.000447 0.000000
# 4 0.000000 0.000000 0.000000 0.029703 0.000000 0.000908
# 5 0.004019 -0.065049 -0.000447 0.000000 0.082932 0.000000
# 6 0.000000 0.000000 0.000000 0.000908 0.000000 0.055399
#
#
# Mechanical properties :
#
#
# Convention : Reuss Voigt Hill
#
# Bulk Modulus (GPa) = 1.85512 31.99618 16.92565
# Shear Modulus (GPa) = 4.78564 23.19303 13.98934
#
# Velocity S-wave (km/s) = 1.57481 3.46686 2.69251
# Velocity P-wave (km/s) = 2.06593 5.71022 4.29387
#
# Compressibility (1/GPa) = 0.53904962
#
# Stress axis : x y z
#
# Youngs Moduli (GPa) = 73.18121 1.69143 75.86492
#
# Poissons Ratio (x) = -0.00153 0.36766
# Poissons Ratio (y) = -0.06630 2.69820
# Poissons Ratio (z) = 0.35466 0.06016
#
# Static dielectric constant tensor:
#      x y z
#    x 1.698360 0.000000 0.000470 
#    y 0.000000 1.650600 0.000000 
#    z 0.000470 0.000000 1.667530 
# 
# From -- ./inp_files/267641.got.cif
#   From: 2010.05.17/outbox.cif.g08.bks.cpg/sg12_134_cif.got.tgz:267641.got - 2010.06.03 13:09:07.
