data_PCOD9191602
_publ_section_title
;
Structure prediction by ZEFSAII (Michael W. Deem and Ramdas Pophale) SiO2 
 PCOD9191602
Probable space group: C 2/M
;
_chemical_formula_sum "Si O2"
_cell_formula_units_Z 56
_cell_length_a 19.707597
_cell_length_b 28.610197
_cell_length_c 9.575148
_cell_angle_alpha 90.000000
_cell_angle_beta 33.860896
_cell_angle_gamma 90.000000
_cell_volume 3008.114528
_symmetry_space_group_name_H-M "C 2/M"
_symmetry_group_IT_number 12
_symmetry_cell_setting 'monoclinic'
loop_
_space_group_symop_operation_xyz
x,y,z
-x,y,-z
-x,-y,-z
x,-y,z
1/2+x,1/2+y,z
1/2-x,1/2+y,-z
1/2-x,1/2-y,-z
1/2+x,1/2-y,z
loop_
_atom_site_type_symbol
_atom_site_label
_atom_site_fract_x
_atom_site_fract_y
_atom_site_fract_z
Si Si1 0.246119 0.866577 0.217889
Si Si2 0.348570 0.444891 0.110194
Si Si3 0.765927 0.143650 0.091739
Si Si4 0.134078 0.705441 0.819250
Si Si5 0.362764 0.445416 0.414149
Si Si6 0.177507 0.281661 0.439731
Si Si7 0.014837 0.200091 0.638018
O O1 0.358235 0.840597 0.100236
O O2 0.213447 0.915328 0.345940
O O3 0.128302 0.835025 0.457511
O O4 0.257959 0.864660 0.031042
O O5 0.319415 0.500000 0.137107
O O6 0.274896 0.406441 0.150561
O O7 0.334918 0.434952 0.298978
O O8 0.490984 0.438556 0.824625
O O9 0.675285 0.178675 0.326564
O O10 0.894989 0.171589 0.886464
O O11 0.197584 0.697310 0.559728
O O12 0.207984 0.746209 0.771343
O O13 0.000000 0.717853 0.000000
O O14 0.339327 0.500000 0.476557
O O15 0.059609 0.248001 0.632024
O O16 0.000000 0.211211 0.500000
#
# Coordination Sequence:
#
# PCOD9191602 Si02
#       7
#     8   8   8   8   8   8   8
#     4  10  20  33  50  76 104 142 175 210 267 318
#     4   9  18  31  52  80 109 141 172 210 263 316
#     4  11  20  33  53  77 112 144 172 218 262 316
#     4  10  21  37  52  71 102 134 184 228 259 306
#     4   9  17  32  52  79 110 138 173 213 258 319
#     4  10  21  34  52  76  98 139 185 216 266 311
#     4   9  19  32  48  72 106 137 175 213 262 309
#
# _framework density 18.616312000000001
#
# number of rings (size 3 to 8) (size 9 to 14) (size 15 to 20)
#    0.000    2.286    1.429    2.571    0.000    6.857 
#    2.571    1.429    0.000    0.429    0.000    0.000 
#    0.000    5.143    0.000    0.000    0.000    0.000 
#
# Total GULP energy -156048.510079 kJ/mol
# GULP energy per Si atom -5573.161074 kJ/mol
# Density = 1.857394 g / cm^3
# Si number density = 18.616312 Si / 1000 Ang^3
#
#
#
# Elastic Constant Matrix: (Units=GPa)
#
#
# Indices 1 2 3 4 5 6 
#
# 1 42.2343 43.4929 13.5991 0.0000 10.8116 -0.0001
# 2 43.4929 102.4726 32.3511 0.0000 29.2152 0.0000
# 3 13.5991 32.3511 31.0763 0.0001 14.8279 -0.0001
# 4 0.0000 0.0000 0.0001 28.6095 0.0000 7.1988
# 5 10.8116 29.2152 14.8279 0.0000 24.9000 0.0000
# 6 -0.0001 0.0000 -0.0001 7.1988 0.0000 24.5807
#
#
#
# Elastic Compliance Matrix: (Units=1/GPa)
#
#
# Indices 1 2 3 4 5 6 
#
# 1 0.042349 -0.018933 -0.000905 0.000000 0.004365 0.000000
# 2 -0.018933 0.025663 -0.011156 0.000000 -0.015247 0.000000
# 3 -0.000905 -0.011156 0.052741 0.000000 -0.017925 0.000000
# 4 0.000000 0.000000 0.000000 0.037734 0.000000 -0.011051
# 5 0.004365 -0.015247 -0.017925 0.000000 0.066829 0.000000
# 6 0.000000 0.000000 0.000000 -0.011051 0.000000 0.043919
#
#
# Mechanical properties :
#
#
# Convention : Reuss Voigt Hill
#
# Bulk Modulus (GPa) = 17.01693 39.40768 28.21231
# Shear Modulus (GPa) = 14.25267 21.37405 17.81336
#
# Velocity S-wave (km/s) = 2.76995 3.39209 3.09669
# Velocity P-wave (km/s) = 4.40351 6.04616 5.28899
#
# Compressibility (1/GPa) = 0.05876501
#
# Stress axis : x y z
#
# Youngs Moduli (GPa) = 23.61351 38.96586 18.96049
#
# Poissons Ratio (x) = 0.73774 0.01716
# Poissons Ratio (y) = 0.44708 0.21153
# Poissons Ratio (z) = 0.02137 0.43471
#
# Static dielectric constant tensor:
#      x y z
#    x 1.660030 0.000000 -0.013000 
#    y 0.000000 1.641450 0.000000 
#    z -0.013000 0.000000 1.684740 
# 
# From -- ./inp_files/53150.got.cif
#   From: 2010.05.17/outbox.cif.g08.bks.cpg/sg12_27_cif.got.tgz:53150.got - 2010.06.03 13:09:07.
