data_PCOD9191999
_publ_section_title
;
Structure prediction by ZEFSAII (Michael W. Deem and Ramdas Pophale) SiO2 
 PCOD9191999
Probable space group: C 2/M
;
_chemical_formula_sum "Si O2"
_cell_formula_units_Z 48
_cell_length_a 16.924616
_cell_length_b 8.501632
_cell_length_c 15.079604
_cell_angle_alpha 90.000000
_cell_angle_beta 100.893692
_cell_angle_gamma 90.000000
_cell_volume 2130.656776
_symmetry_space_group_name_H-M "C 2/M"
_symmetry_group_IT_number 12
_symmetry_cell_setting 'monoclinic'
loop_
_space_group_symop_operation_xyz
x,y,z
-x,y,-z
-x,-y,-z
x,-y,z
1/2+x,1/2+y,z
1/2-x,1/2+y,-z
1/2-x,1/2-y,-z
1/2+x,1/2-y,z
loop_
_atom_site_type_symbol
_atom_site_label
_atom_site_fract_x
_atom_site_fract_y
_atom_site_fract_z
Si Si1 0.318642 0.189753 0.950026
Si Si2 0.882921 0.308807 0.786342
Si Si3 0.117996 0.185004 0.711206
Si Si4 0.182459 0.312446 0.552208
Si Si5 0.437703 0.188577 0.120843
Si Si6 0.444664 0.809864 0.616008
O O1 0.321559 0.246460 0.848958
O O2 0.314078 0.000000 0.947182
O O3 0.250000 0.250000 0.000000
O O4 0.400588 0.235386 0.019153
O O5 0.879039 0.500000 0.785752
O O6 0.883893 0.263723 0.683525
O O7 0.971726 0.259309 0.839494
O O8 0.180376 0.245064 0.650743
O O9 0.118341 0.257269 0.809541
O O10 0.029604 0.231226 0.654742
O O11 0.126608 0.000000 0.721341
O O12 0.187563 0.500000 0.557762
O O13 0.250000 0.250000 0.500000
O O14 0.098256 0.271298 0.484907
O O15 0.440157 0.000000 0.122795
O O16 0.456806 0.000000 0.621925
#
# Coordination Sequence:
#
# PCOD9191999 Si02
#       6
#     8   8   8   8   8   8
#     4  10  20  33  52  79 110 143 176 216 269 327
#     4   8  15  32  57  79  99 131 179 222 256 309
#     4  11  22  36  57  83 109 141 183 231 277 320
#     4  11  23  38  56  81 114 149 183 221 270 328
#     4   9  18  35  57  78 102 139 185 226 266 317
#     4   9  19  37  60  82 106 141 181 222 272 329
#
# _framework density 22.528262999999999
#
# number of rings (size 3 to 8) (size 9 to 14) (size 15 to 20)
#    0.000    2.333    0.000    4.000    0.000    7.333 
#    0.000    5.000    0.000    5.000    0.000    0.000 
#    0.000    0.000    0.000    0.000    0.000    0.000 
#
# Total GULP energy -134043.999148 kJ/mol
# GULP energy per Si atom -5585.166631 kJ/mol
# Density = 2.247699 g / cm^3
# Si number density = 22.528263 Si / 1000 Ang^3
#
#
#
# Elastic Constant Matrix: (Units=GPa)
#
#
# Indices 1 2 3 4 5 6 
#
# 1 45.7771 -9.5537 6.5464 0.0000 -23.1537 0.0000
# 2 -9.5537 -22.6068 -5.5714 0.0000 9.9675 0.0000
# 3 6.5464 -5.5714 125.3352 0.0000 -31.5144 0.0000
# 4 0.0000 0.0000 0.0000 15.5851 0.0000 -11.7515
# 5 -23.1537 9.9675 -31.5144 0.0000 41.6136 0.0000
# 6 0.0000 0.0000 0.0000 -11.7515 0.0000 23.6544
#
#
#
# Elastic Compliance Matrix: (Units=1/GPa)
#
#
# Indices 1 2 3 4 5 6 
#
# 1 0.030979 -0.004695 0.003446 0.000000 0.020971 0.000000
# 2 -0.004695 -0.039236 0.000256 0.000000 0.006980 0.000000
# 3 0.003446 0.000256 0.010223 0.000000 0.009598 0.000000
# 4 0.000000 0.000000 0.000000 0.102597 0.000000 0.050970
# 5 0.020971 0.006980 0.009598 0.000000 0.041296 0.000000
# 6 0.000000 0.000000 0.000000 0.050970 0.000000 0.067597
#
#
# Mechanical properties :
#
#
# Convention : Reuss Voigt Hill
#
# Bulk Modulus (GPa) = -54606.70051 14.59424 -27296.05314
# Shear Modulus (GPa) = 23.20874 26.64289 24.92582
#
# Velocity S-wave (km/s) = 3.21316 3.44269 3.32990
# Velocity P-wave (km/s) = 155.81416 4.72176 110.12665
#
# Compressibility (1/GPa) = -0.00001831
#
# Stress axis : x y z
#
# Youngs Moduli (GPa) = 32.27944 -25.48671 97.81454
#
# Poissons Ratio (x) = -0.11966 -0.33710
# Poissons Ratio (y) = 0.15155 -0.02505
# Poissons Ratio (z) = -0.11124 0.00653
#
# Static dielectric constant tensor:
#      x y z
#    x 1.896440 0.000000 -0.003390 
#    y 0.000000 1.768020 0.000000 
#    z -0.003390 0.000000 1.808460 
# 
# From -- ./inp_files/221662.got.cif
#   From: 2010.05.17/outbox.cif.g08.bks.cpg/sg12_111_cif.got.tgz:221662.got - 2010.06.03 13:09:07.
