data_PCOD9191401
_publ_section_title
;
Structure prediction by ZEFSAII (Michael W. Deem and Ramdas Pophale) SiO2 
 PCOD9191401
Probable space group: C 2/M
;
_chemical_formula_sum "Si O2"
_cell_formula_units_Z 48
_cell_length_a 33.098245
_cell_length_b 8.547006
_cell_length_c 16.570351
_cell_angle_alpha 90.000000
_cell_angle_beta 35.511417
_cell_angle_gamma 90.000000
_cell_volume 2722.864425
_symmetry_space_group_name_H-M "C 2/M"
_symmetry_group_IT_number 12
_symmetry_cell_setting 'monoclinic'
loop_
_space_group_symop_operation_xyz
x,y,z
-x,y,-z
-x,-y,-z
x,-y,z
1/2+x,1/2+y,z
1/2-x,1/2+y,-z
1/2-x,1/2-y,-z
1/2+x,1/2-y,z
loop_
_atom_site_type_symbol
_atom_site_label
_atom_site_fract_x
_atom_site_fract_y
_atom_site_fract_z
Si Si1 0.733010 0.312857 0.276521
Si Si2 0.100607 0.310920 0.396732
Si Si3 0.279838 0.687204 0.367967
Si Si4 0.067878 0.810999 0.938355
Si Si5 0.385108 0.189029 0.970528
Si Si6 0.552783 0.190489 0.299952
O O1 0.732850 0.500000 0.281023
O O2 0.666702 0.255775 0.334968
O O3 0.736384 0.246306 0.361588
O O4 0.805198 0.262406 0.116150
O O5 0.103941 0.500000 0.393138
O O6 0.094139 0.261652 0.313433
O O7 0.027691 0.263757 0.557075
O O8 0.278654 0.500000 0.371067
O O9 0.250000 0.750000 0.500000
O O10 0.359849 0.738384 0.221869
O O11 0.067252 0.000000 0.941667
O O12 0.071282 0.749346 0.024070
O O13 0.000000 0.757955 0.000000
O O14 0.414422 0.244974 0.837167
O O15 0.387087 0.000000 0.967639
O O16 0.553744 0.000000 0.297798
#
# Coordination Sequence:
#
# PCOD9191401 Si02
#       6
#     8   8   8   8   8   8
#     4  10  20  33  49  72 102 131 162 202 244 288
#     4   9  17  32  53  73  97 130 166 203 244 291
#     4  10  20  35  54  74  99 130 163 200 243 292
#     4   9  19  35  52  72  99 128 159 199 246 290
#     4   9  18  33  51  71  97 129 165 202 239 286
#     4   8  16  32  52  73  97 128 166 205 244 289
#
# _framework density 17.628495000000001
#
# number of rings (size 3 to 8) (size 9 to 14) (size 15 to 20)
#    0.000    2.833    0.000    2.000    0.000    3.667 
#    0.000    6.667    0.000    0.000    0.000    0.000 
#    0.000    0.000    0.000    0.000    0.000    0.000 
#
# Total GULP energy -133827.112943 kJ/mol
# GULP energy per Si atom -5576.129706 kJ/mol
# Density = 1.758837 g / cm^3
# Si number density = 17.628495 Si / 1000 Ang^3
#
#
#
# Elastic Constant Matrix: (Units=GPa)
#
#
# Indices 1 2 3 4 5 6 
#
# 1 201.4088 30.7678 116.5371 0.0000 1.2308 0.0000
# 2 30.7678 16.6761 24.9416 0.0009 2.7017 0.0000
# 3 116.5371 24.9416 130.4895 0.0006 33.1677 0.0000
# 4 0.0000 0.0009 0.0006 15.6195 -0.0001 -0.7735
# 5 1.2308 2.7017 33.1677 -0.0001 30.8801 0.0000
# 6 0.0000 0.0000 0.0000 -0.7735 0.0000 29.7706
#
#
#
# Elastic Compliance Matrix: (Units=1/GPa)
#
#
# Indices 1 2 3 4 5 6 
#
# 1 0.016642 -0.005723 -0.018882 0.000001 0.020118 0.000000
# 2 -0.005723 0.090313 -0.014032 -0.000005 0.007398 0.000000
# 3 -0.018882 -0.014032 0.036734 -0.000001 -0.037475 0.000000
# 4 0.000001 -0.000005 -0.000001 0.064105 0.000002 0.001666
# 5 0.020118 0.007398 -0.037475 0.000002 0.071185 0.000000
# 6 0.000000 0.000000 0.000000 0.001666 0.000000 0.033633
#
#
# Mechanical properties :
#
#
# Convention : Reuss Voigt Hill
#
# Bulk Modulus (GPa) = 15.05681 77.00748 46.03214
# Shear Modulus (GPa) = 12.13522 27.00924 19.57223
#
# Velocity S-wave (km/s) = 2.62656 3.91850 3.33567
# Velocity P-wave (km/s) = 4.21404 8.01568 6.40349
#
# Compressibility (1/GPa) = 0.06641514
#
# Stress axis : x y z
#
# Youngs Moduli (GPa) = 60.09030 11.07262 27.22278
#
# Poissons Ratio (x) = 0.06336 0.51402
# Poissons Ratio (y) = 0.34388 0.38199
# Poissons Ratio (z) = 1.13463 0.15537
#
# Static dielectric constant tensor:
#      x y z
#    x 1.570240 0.000000 -0.002670 
#    y 0.000000 1.598390 0.000000 
#    z -0.002670 0.000000 1.599870 
# 
# From -- ./inp_files/229886.got.cif
#   From: 2010.05.17/outbox.cif.g08.bks.cpg/sg12_115_cif.got.tgz:229886.got - 2010.06.03 13:09:07.
