data_PCOD9191671
_publ_section_title
;
Structure prediction by ZEFSAII (Michael W. Deem and Ramdas Pophale) SiO2 
 PCOD9191671
Probable space group: C 2/M
;
_chemical_formula_sum "Si O2"
_cell_formula_units_Z 56
_cell_length_a 15.037895
_cell_length_b 7.747559
_cell_length_c 25.516667
_cell_angle_alpha 90.000000
_cell_angle_beta 63.665264
_cell_angle_gamma 90.000000
_cell_volume 2664.338369
_symmetry_space_group_name_H-M "C 2/M"
_symmetry_group_IT_number 12
_symmetry_cell_setting 'monoclinic'
loop_
_space_group_symop_operation_xyz
x,y,z
-x,y,-z
-x,-y,-z
x,-y,z
1/2+x,1/2+y,z
1/2-x,1/2+y,-z
1/2-x,1/2-y,-z
1/2+x,1/2-y,z
loop_
_atom_site_type_symbol
_atom_site_label
_atom_site_fract_x
_atom_site_fract_y
_atom_site_fract_z
Si Si1 0.643763 0.709300 0.690368
Si Si2 0.427939 0.709450 0.779484
Si Si3 0.585324 0.291113 0.436442
Si Si4 0.677548 0.796310 0.085314
Si Si5 0.103771 0.201676 0.994116
Si Si6 0.714321 0.688945 0.566057
Si Si7 0.853277 0.205235 0.687962
O O1 0.644138 0.500000 0.686363
O O2 0.543060 0.762279 0.745117
O O3 0.647497 0.776012 0.628814
O O4 0.742047 0.760402 0.696487
O O5 0.425161 0.500000 0.781171
O O6 0.373595 0.770472 0.845699
O O7 0.376552 0.774350 0.739295
O O8 0.500000 0.251910 0.500000
O O9 0.602959 0.500000 0.434390
O O10 0.681928 0.191593 0.430229
O O11 0.573184 0.241947 0.378812
O O12 0.615195 0.715520 0.053890
O O13 0.682776 0.000000 0.072255
O O14 0.790931 0.726326 0.054571
O O15 0.103007 0.000000 0.978893
O O16 0.000000 0.277032 0.000000
O O17 0.670395 0.500000 0.567748
O O18 0.750000 0.750000 0.500000
O O19 0.865323 0.000000 0.688930
#
# Coordination Sequence:
#
# PCOD9191671 Si02
#       7
#     8   8   8   8   8   8   8
#     4   9  20  37  55  74 103 141 182 225 274 334
#     4  10  21  37  57  78 108 152 188 221 271 332
#     4   9  18  32  53  75  99 133 173 221 277 338
#     4  10  21  36  56  87 118 144 184 231 266 310
#     4   9  19  38  62  85 115 153 185 217 263 320
#     4  10  20  33  51  74 101 131 172 225 279 335
#     4   9  19  35  54  77 105 138 182 229 275 328
#
# _framework density 21.018352
#
# number of rings (size 3 to 8) (size 9 to 14) (size 15 to 20)
#    0.000    2.571    0.000    0.857    2.000    4.000 
#    0.000    4.286    0.000    0.000    0.000    0.000 
#    0.000    0.000    0.000    0.000    0.000    0.000 
#
# Total GULP energy -156031.497121 kJ/mol
# GULP energy per Si atom -5572.553469 kJ/mol
# Density = 2.097051 g / cm^3
# Si number density = 21.018352 Si / 1000 Ang^3
#
#
#
# Elastic Constant Matrix: (Units=GPa)
#
#
# Indices 1 2 3 4 5 6 
#
# 1 108.3568 -9.4740 62.9218 0.0000 -1.2689 0.0000
# 2 -9.4740 23.0846 -7.7870 0.0000 -4.0720 0.0000
# 3 62.9218 -7.7870 182.3932 0.0000 -3.7709 0.0000
# 4 0.0000 0.0000 0.0000 22.0582 0.0000 2.2273
# 5 -1.2689 -4.0720 -3.7709 0.0000 19.5538 0.0000
# 6 0.0000 0.0000 0.0000 2.2273 0.0000 16.6563
#
#
#
# Elastic Compliance Matrix: (Units=1/GPa)
#
#
# Indices 1 2 3 4 5 6 
#
# 1 0.011828 0.003674 -0.003908 0.000000 0.000779 0.000000
# 2 0.003674 0.046945 0.000948 0.000000 0.010197 0.000000
# 3 -0.003908 0.000948 0.006897 0.000000 0.001274 0.000000
# 4 0.000000 0.000000 0.000000 0.045955 0.000000 -0.006145
# 5 0.000779 0.010197 0.001274 0.000000 0.053561 0.000000
# 6 0.000000 0.000000 0.000000 -0.006145 0.000000 0.060859
#
#
# Mechanical properties :
#
#
# Convention : Reuss Voigt Hill
#
# Bulk Modulus (GPa) = 14.90351 45.01734 29.96042
# Shear Modulus (GPa) = 20.24426 29.53194 24.88810
#
# Velocity S-wave (km/s) = 3.10687 3.75247 3.44483
# Velocity P-wave (km/s) = 4.46948 6.34345 5.48706
#
# Compressibility (1/GPa) = 0.06709830
#
# Stress axis : x y z
#
# Youngs Moduli (GPa) = 84.54406 21.30155 144.98070
#
# Poissons Ratio (x) = -0.07825 0.56651
# Poissons Ratio (y) = -0.31058 -0.13740
# Poissons Ratio (z) = 0.33036 -0.02019
#
# Static dielectric constant tensor:
#      x y z
#    x 1.750610 0.000000 -0.003720 
#    y 0.000000 1.804960 0.000000 
#    z -0.003720 0.000000 1.776970 
# 
# From -- ./inp_files/338583.got.cif
#   From: 2010.05.17/outbox.cif.g08.bks.cpg/sg12_170_cif.got.tgz:338583.got - 2010.06.03 13:09:07.
