data_PCOD9191501
_publ_section_title
;
Structure prediction by ZEFSAII (Michael W. Deem and Ramdas Pophale) SiO2 
 PCOD9191501
Probable space group: C 2/M
;
_chemical_formula_sum "Si O2"
_cell_formula_units_Z 56
_cell_length_a 29.775241
_cell_length_b 9.261944
_cell_length_c 19.430682
_cell_angle_alpha 90.000000
_cell_angle_beta 143.434744
_cell_angle_gamma 90.000000
_cell_volume 3192.278251
_symmetry_space_group_name_H-M "C 2/M"
_symmetry_group_IT_number 12
_symmetry_cell_setting 'monoclinic'
loop_
_space_group_symop_operation_xyz
x,y,z
-x,y,-z
-x,-y,-z
x,-y,z
1/2+x,1/2+y,z
1/2-x,1/2+y,-z
1/2-x,1/2-y,-z
1/2+x,1/2-y,z
loop_
_atom_site_type_symbol
_atom_site_label
_atom_site_fract_x
_atom_site_fract_y
_atom_site_fract_z
Si Si1 0.563956 0.166494 0.425455
Si Si2 0.845253 0.166002 0.071297
Si Si3 0.648784 0.331182 0.649312
Si Si4 0.977715 0.835529 0.755158
Si Si5 0.816510 0.668965 0.899859
Si Si6 0.388876 0.832312 0.257055
Si Si7 0.036476 0.826983 0.971316
O O1 0.613089 0.259257 0.538455
O O2 0.564300 0.231932 0.349319
O O3 0.477031 0.172634 0.344231
O O4 0.587567 0.000000 0.455268
O O5 0.934102 0.163358 0.159162
O O6 0.843183 0.253352 0.139835
O O7 0.820582 0.000000 0.048764
O O8 0.807079 0.247325 0.960581
O O9 0.628269 0.500000 0.628086
O O10 0.739280 0.319670 0.762769
O O11 0.620391 0.249321 0.682520
O O12 0.949848 0.000000 0.714526
O O13 0.981002 0.792040 0.839135
O O14 0.831842 0.500000 0.932734
O O15 0.886559 0.741192 0.947078
O O16 0.366958 0.000000 0.236139
O O17 0.051361 0.000000 0.984871
O O18 0.000000 0.796305 0.000000
#
# Coordination Sequence:
#
# PCOD9191501 Si02
#       7
#     8   8   8   8   8   8   8
#     4  10  20  33  50  72  98 130 171 214 250 287
#     4   9  17  31  51  72  97 132 169 206 251 299
#     4  11  23  35  48  68  98 137 175 210 250 296
#     4   8  15  29  50  75 101 128 158 195 241 292
#     4  10  21  35  50  73 103 133 166 204 250 300
#     4  10  20  33  50  73  99 129 171 219 258 292
#     4   9  18  34  58  85 107 128 157 195 244 303
#
# _framework density 17.542331000000001
#
# number of rings (size 3 to 8) (size 9 to 14) (size 15 to 20)
#    0.000    2.429    0.000    3.429    0.000   10.000 
#    0.000    0.000    0.000    0.857    0.000    0.000 
#    0.000    0.000    0.000    0.000    0.000    0.000 
#
# Total GULP energy -156296.905242 kJ/mol
# GULP energy per Si atom -5582.032330 kJ/mol
# Density = 1.750240 g / cm^3
# Si number density = 17.542331 Si / 1000 Ang^3
#
#
#
# Elastic Constant Matrix: (Units=GPa)
#
#
# Indices 1 2 3 4 5 6 
#
# 1 73.0919 61.0340 49.5687 0.0000 -32.9282 0.0000
# 2 61.0340 147.8292 80.3726 0.0000 -20.9065 0.0000
# 3 49.5687 80.3726 102.9438 0.0000 -27.1297 0.0000
# 4 0.0000 0.0000 0.0000 30.3798 0.0000 -3.2556
# 5 -32.9282 -20.9065 -27.1297 0.0000 26.2094 0.0000
# 6 0.0000 0.0000 0.0000 -3.2556 0.0000 18.4654
#
#
#
# Elastic Compliance Matrix: (Units=1/GPa)
#
#
# Indices 1 2 3 4 5 6 
#
# 1 0.044433 -0.011814 0.000078 0.000000 0.046481 0.000000
# 2 -0.011814 0.014896 -0.009243 0.000000 -0.012528 0.000000
# 3 0.000078 -0.009243 0.020593 0.000000 0.014042 0.000000
# 4 0.000000 0.000000 0.000000 0.033551 0.000000 0.005915
# 5 0.046481 -0.012528 0.014042 0.000000 0.101092 0.000000
# 6 0.000000 0.000000 0.000000 0.005915 0.000000 0.055198
#
#
# Mechanical properties :
#
#
# Convention : Reuss Voigt Hill
#
# Bulk Modulus (GPa) = 26.34016 78.42393 52.38205
# Shear Modulus (GPa) = 15.41426 23.87022 19.64224
#
# Velocity S-wave (km/s) = 2.96749 3.69280 3.34983
# Velocity P-wave (km/s) = 5.17582 7.93630 6.69978
#
# Compressibility (1/GPa) = 0.03796484
#
# Stress axis : x y z
#
# Youngs Moduli (GPa) = 22.50559 67.13428 48.56009
#
# Poissons Ratio (x) = 0.79313 -0.00379
# Poissons Ratio (y) = 0.26588 0.44882
# Poissons Ratio (z) = -0.00176 0.62049
#
# Static dielectric constant tensor:
#      x y z
#    x 1.583460 0.000000 0.007650 
#    y 0.000000 1.595590 0.000000 
#    z 0.007650 0.000000 1.594520 
# 
# From -- ./inp_files/280969.got.cif
#   From: 2010.05.17/outbox.cif.g08.bks.cpg/sg12_141_cif.got.tgz:280969.got - 2010.06.03 13:09:07.
