data_PCOD9191522
_publ_section_title
;
Structure prediction by ZEFSAII (Michael W. Deem and Ramdas Pophale) SiO2 
 PCOD9191522
Probable space group: C 2/M
;
_chemical_formula_sum "Si O2"
_cell_formula_units_Z 64
_cell_length_a 25.723563
_cell_length_b 13.218414
_cell_length_c 14.761315
_cell_angle_alpha 90.000000
_cell_angle_beta 135.569084
_cell_angle_gamma 90.000000
_cell_volume 3513.692975
_symmetry_space_group_name_H-M "C 2/M"
_symmetry_group_IT_number 12
_symmetry_cell_setting 'monoclinic'
loop_
_space_group_symop_operation_xyz
x,y,z
-x,y,-z
-x,-y,-z
x,-y,z
1/2+x,1/2+y,z
1/2-x,1/2+y,-z
1/2-x,1/2-y,-z
1/2+x,1/2-y,z
loop_
_atom_site_type_symbol
_atom_site_label
_atom_site_fract_x
_atom_site_fract_y
_atom_site_fract_z
Si Si1 0.250765 0.390732 0.940573
Si Si2 0.057094 0.117771 0.317243
Si Si3 0.287033 0.321211 0.181561
Si Si4 0.182245 0.255096 0.203974
Si Si5 0.166487 0.712281 0.381385
Si Si6 0.825838 0.617013 0.424122
Si Si7 0.404618 0.386335 0.021571
Si Si8 0.925614 0.790517 0.463750
O O1 0.217724 0.500000 0.876893
O O2 0.263596 0.381753 0.063729
O O3 0.331449 0.384139 0.993816
O O4 0.206707 0.294566 0.848288
O O5 0.113369 0.193272 0.337517
O O6 0.057751 0.147963 0.423733
O O7 0.976474 0.132246 0.171961
O O8 0.077984 0.000000 0.332978
O O9 0.222965 0.321305 0.177977
O O10 0.364384 0.347213 0.325478
O O11 0.161774 0.313662 0.269838
O O12 0.245549 0.169808 0.305946
O O13 0.112192 0.196634 0.075173
O O14 0.250000 0.750000 0.500000
O O15 0.154968 0.629791 0.445318
O O16 0.824669 0.500000 0.396964
O O17 0.885080 0.686848 0.445091
O O18 0.410612 0.500000 0.990218
O O19 0.000000 0.773475 0.500000
#
# Coordination Sequence:
#
# PCOD9191522 Si02
#       8
#     8   8   8   8   8   8   8   8
#     4   9  17  31  50  71  99 129 155 195 247 292
#     4  10  21  34  49  75 106 130 156 195 243 298
#     4   9  18  31  48  71  96 126 166 200 234 291
#     4   9  17  31  50  72  98 127 162 204 246 291
#     4   9  19  34  49  69  97 130 164 199 242 286
#     4   9  18  33  51  71  97 129 168 210 246 282
#     4   9  17  29  48  74 100 127 157 190 243 303
#     4  10  20  33  50  73 101 133 166 200 241 290
#
# _framework density 18.214455000000001
#
# number of rings (size 3 to 8) (size 9 to 14) (size 15 to 20)
#    0.000    2.750    0.000    1.875    0.000    7.000 
#    0.000    1.875    0.000    0.000    0.000    7.000 
#    0.000    0.000    0.000    0.000    0.000    0.000 
#
# Total GULP energy -178363.235647 kJ/mol
# GULP energy per Si atom -5573.851114 kJ/mol
# Density = 1.817300 g / cm^3
# Si number density = 18.214455 Si / 1000 Ang^3
#
#
#
# Elastic Constant Matrix: (Units=GPa)
#
#
# Indices 1 2 3 4 5 6 
#
# 1 54.8846 -4.3716 16.4607 0.0000 -18.8755 0.0000
# 2 -4.3716 36.5560 -0.5351 0.0000 2.8655 0.0000
# 3 16.4607 -0.5351 86.0364 0.0000 -9.4692 0.0000
# 4 0.0000 0.0000 0.0000 13.6623 0.0000 3.4334
# 5 -18.8755 2.8655 -9.4692 0.0000 35.8996 0.0000
# 6 0.0000 0.0000 0.0000 3.4334 0.0000 7.2416
#
#
#
# Elastic Compliance Matrix: (Units=1/GPa)
#
#
# Indices 1 2 3 4 5 6 
#
# 1 0.023174 0.001847 -0.003190 0.000000 0.011196 0.000000
# 2 0.001847 0.027675 -0.000327 0.000000 -0.001324 0.000000
# 3 -0.003190 -0.000327 0.012410 0.000000 0.001622 0.000000
# 4 0.000000 0.000000 0.000000 0.083095 0.000000 -0.039397
# 5 0.011196 -0.001324 0.001622 0.000000 0.034276 0.000000
# 6 0.000000 0.000000 0.000000 -0.039397 0.000000 0.156770
#
#
# Mechanical properties :
#
#
# Convention : Reuss Voigt Hill
#
# Bulk Modulus (GPa) = 16.68913 22.28723 19.48818
# Shear Modulus (GPa) = 13.86145 22.42222 18.14184
#
# Velocity S-wave (km/s) = 2.76164 3.51239 3.15939
# Velocity P-wave (km/s) = 4.39902 5.35833 4.90220
#
# Compressibility (1/GPa) = 0.05991925
#
# Stress axis : x y z
#
# Youngs Moduli (GPa) = 43.15119 36.13349 80.58133
#
# Poissons Ratio (x) = -0.06674 0.25706
# Poissons Ratio (y) = -0.07970 0.02635
# Poissons Ratio (z) = 0.13766 0.01182
#
# Static dielectric constant tensor:
#      x y z
#    x 1.630690 0.000000 -0.036440 
#    y 0.000000 1.631500 0.000000 
#    z -0.036440 0.000000 1.638900 
# 
# From -- ./inp_files/246391.got.cif
#   From: 2010.05.17/outbox.cif.g08.bks.cpg/sg12_124_cif.got.tgz:246391.got - 2010.06.03 13:09:07.
