data_PCOD9191296
_publ_section_title
;
Structure prediction by ZEFSAII (Michael W. Deem and Ramdas Pophale) SiO2 
 PCOD9191296
Probable space group: C 2/M
;
_chemical_formula_sum "Si O2"
_cell_formula_units_Z 40
_cell_length_a 20.294800
_cell_length_b 7.382037
_cell_length_c 15.322756
_cell_angle_alpha 90.000000
_cell_angle_beta 58.090022
_cell_angle_gamma 90.000000
_cell_volume 1948.695583
_symmetry_space_group_name_H-M "C 2/M"
_symmetry_group_IT_number 12
_symmetry_cell_setting 'monoclinic'
loop_
_space_group_symop_operation_xyz
x,y,z
-x,y,-z
-x,-y,-z
x,-y,z
1/2+x,1/2+y,z
1/2-x,1/2+y,-z
1/2-x,1/2-y,-z
1/2+x,1/2-y,z
loop_
_atom_site_type_symbol
_atom_site_label
_atom_site_fract_x
_atom_site_fract_y
_atom_site_fract_z
Si Si1 0.702704 0.214978 0.944709
Si Si2 0.993607 0.777737 0.720875
Si Si3 0.837311 0.778505 0.727540
Si Si4 0.581445 0.712345 0.496202
Si Si5 0.475076 0.706150 0.925927
O O1 0.757159 0.279230 0.827282
O O2 0.691805 0.000000 0.943148
O O3 0.750000 0.250000 0.000000
O O4 0.618069 0.298456 0.010043
O O5 0.909924 0.725727 0.738661
O O6 0.000989 0.714480 0.814939
O O7 0.059888 0.715675 0.606728
O O8 0.993635 0.000000 0.721099
O O9 0.855875 0.714765 0.616298
O O10 0.837887 0.000000 0.726020
O O11 0.500000 0.722431 0.500000
O O12 0.599435 0.500000 0.495406
O O13 0.506021 0.500000 0.905197
O O14 0.500000 0.792179 0.000000
#
# Coordination Sequence:
#
# PCOD9191296 Si02
#       5
#     8   8   8   8   8
#     4  11  20  31  49  71  97 124 154 193 236 279
#     4   8  12  22  40  63  90 116 148 188 226 266
#     4   8  13  22  39  65  91 112 144 190 233 269
#     4   7  10  17  34  61  88 111 140 186 231 262
#     4  10  20  33  48  68  96 128 159 191 229 276
#
# _framework density 20.526551999999999
#
# number of rings (size 3 to 8) (size 9 to 14) (size 15 to 20)
#    0.000    3.200    2.000    3.000    0.000    0.400 
#    0.000    0.000    0.000    1.200    0.000    4.200 
#    0.000    0.000    0.000    0.000    0.000    0.200 
#
# Total GULP energy -111442.579321 kJ/mol
# GULP energy per Si atom -5572.128966 kJ/mol
# Density = 2.047983 g / cm^3
# Si number density = 20.526552 Si / 1000 Ang^3
#
#
#
# Elastic Constant Matrix: (Units=GPa)
#
#
# Indices 1 2 3 4 5 6 
#
# 1 48.9191 -6.2018 41.4161 0.0000 21.5822 0.0001
# 2 -6.2018 74.6713 7.2748 0.0000 3.2859 0.0001
# 3 41.4161 7.2748 231.3907 0.0000 27.2213 0.0000
# 4 0.0000 0.0000 0.0000 -0.1137 0.0000 -7.0675
# 5 21.5822 3.2859 27.2213 0.0000 29.0496 0.0000
# 6 0.0001 0.0001 0.0000 -7.0675 0.0000 2.5871
#
#
#
# Elastic Compliance Matrix: (Units=1/GPa)
#
#
# Indices 1 2 3 4 5 6 
#
# 1 0.033791 0.004132 -0.003562 0.000000 -0.022234 0.000000
# 2 0.004132 0.013980 -0.000710 0.000000 -0.003986 0.000000
# 3 -0.003562 -0.000710 0.005238 0.000000 -0.002182 0.000000
# 4 0.000000 0.000000 0.000000 -0.051491 0.000000 -0.140664
# 5 -0.022234 -0.003986 -0.002182 0.000000 0.053438 0.000000
# 6 0.000000 0.000000 0.000000 -0.140664 0.000000 0.002262
#
#
# Mechanical properties :
#
#
# Convention : Reuss Voigt Hill
#
# Bulk Modulus (GPa) = 18.96535 48.88437 33.92486
# Shear Modulus (GPa) = 66.59990 27.13740 46.86865
#
# Velocity S-wave (km/s) = 5.70230 3.63996 4.78359
# Velocity P-wave (km/s) = 7.25358 6.44458 6.86101
#
# Compressibility (1/GPa) = 0.05272773
#
# Stress axis : x y z
#
# Youngs Moduli (GPa) = 29.59366 71.53184 190.90152
#
# Poissons Ratio (x) = -0.29557 0.68007
# Poissons Ratio (y) = -0.12228 0.13558
# Poissons Ratio (z) = 0.10543 0.05080
#
# Static dielectric constant tensor:
#      x y z
#    x 1.681190 0.000000 0.009980 
#    y 0.000000 1.796200 0.000000 
#    z 0.009980 0.000000 1.798980 
# 
# From -- ./inp_files/212098.got.cif
#   From: 2010.05.17/outbox.cif.g08.bks.cpg/sg12_107_cif.got.tgz:212098.got - 2010.06.03 13:09:07.
