data_PCOD9191381
_publ_section_title
;
Structure prediction by ZEFSAII (Michael W. Deem and Ramdas Pophale) SiO2 
 PCOD9191381
Probable space group: C 2/M
;
_chemical_formula_sum "Si O2"
_cell_formula_units_Z 56
_cell_length_a 29.212539
_cell_length_b 14.109660
_cell_length_c 9.000755
_cell_angle_alpha 90.000000
_cell_angle_beta 63.770559
_cell_angle_gamma 90.000000
_cell_volume 3327.916595
_symmetry_space_group_name_H-M "C 2/M"
_symmetry_group_IT_number 12
_symmetry_cell_setting 'monoclinic'
loop_
_space_group_symop_operation_xyz
x,y,z
-x,y,-z
-x,-y,-z
x,-y,z
1/2+x,1/2+y,z
1/2-x,1/2+y,-z
1/2-x,1/2-y,-z
1/2+x,1/2-y,z
loop_
_atom_site_type_symbol
_atom_site_label
_atom_site_fract_x
_atom_site_fract_y
_atom_site_fract_z
Si Si1 0.444270 0.611255 0.138357
Si Si2 0.643257 0.389387 0.986011
Si Si3 0.214684 0.887225 0.624093
Si Si4 0.274117 0.887420 0.073983
Si Si5 0.628404 0.270153 0.583730
Si Si6 0.672539 0.261894 0.203451
Si Si7 0.321621 0.889451 0.331740
O O1 0.445203 0.500000 0.178314
O O2 0.402818 0.620972 0.064943
O O3 0.422866 0.673736 0.303621
O O4 0.500000 0.637830 0.000000
O O5 0.645217 0.500000 0.028713
O O6 0.695049 0.366821 0.818453
O O7 0.640383 0.318130 0.125500
O O8 0.174888 0.837280 0.572565
O O9 0.272296 0.861375 0.502652
O O10 0.210092 0.000000 0.609210
O O11 0.220671 0.831757 0.165392
O O12 0.304388 0.876660 0.186261
O O13 0.266631 0.000000 0.058361
O O14 0.305202 0.834253 0.899817
O O15 0.639811 0.246662 0.397689
O O16 0.633359 0.177777 0.680074
O O17 0.332108 0.000000 0.340548
#
# Coordination Sequence:
#
# PCOD9191381 Si02
#       7
#     8   8   8   8   8   8   8
#     4   9  19  37  59  78  96 125 167 213 257 300
#     4   9  18  31  49  72 102 133 164 202 249 300
#     4   9  17  29  47  69  96 134 172 206 238 283
#     4  10  21  33  44  65 104 145 176 202 234 285
#     4  11  20  31  52  73 101 129 171 213 250 296
#     4  11  22  30  46  73 104 138 168 200 250 298
#     4  10  20  33  49  70  99 138 180 211 238 282
#
# _framework density 16.827345000000001
#
# number of rings (size 3 to 8) (size 9 to 14) (size 15 to 20)
#    0.000    2.143    1.429    3.857    4.000    2.286 
#    0.000    0.714    0.000    3.000    0.000    0.000 
#    0.000    4.571    0.000    0.000    0.000    0.000 
#
# Total GULP energy -156285.710971 kJ/mol
# GULP energy per Si atom -5581.632535 kJ/mol
# Density = 1.678904 g / cm^3
# Si number density = 16.827345 Si / 1000 Ang^3
#
#
#
# Elastic Constant Matrix: (Units=GPa)
#
#
# Indices 1 2 3 4 5 6 
#
# 1 29.7658 23.5112 33.4446 0.0000 -10.0725 0.0000
# 2 23.5112 85.6762 48.0519 0.0000 -6.8391 0.0000
# 3 33.4446 48.0519 90.3857 0.0000 -8.1058 0.0000
# 4 0.0000 0.0000 0.0000 23.6415 0.0000 -0.8739
# 5 -10.0725 -6.8391 -8.1058 0.0000 22.1531 0.0000
# 6 0.0000 0.0000 0.0000 -0.8739 0.0000 19.0085
#
#
#
# Elastic Compliance Matrix: (Units=1/GPa)
#
#
# Indices 1 2 3 4 5 6 
#
# 1 0.068236 -0.005584 -0.020319 0.000000 0.021867 0.000000
# 2 -0.005584 0.017170 -0.007046 0.000000 0.000184 0.000000
# 3 -0.020319 -0.007046 0.022027 0.000000 -0.003354 0.000000
# 4 0.000000 0.000000 0.000000 0.042370 0.000000 0.001948
# 5 0.021867 0.000184 -0.003354 0.000000 0.053912 0.000000
# 6 0.000000 0.000000 0.000000 0.001948 0.000000 0.052697
#
#
# Mechanical properties :
#
#
# Convention : Reuss Voigt Hill
#
# Bulk Modulus (GPa) = 24.07535 46.20478 35.14006
# Shear Modulus (GPa) = 14.87403 19.68198 17.27800
#
# Velocity S-wave (km/s) = 2.97631 3.42371 3.20782
# Velocity P-wave (km/s) = 5.11366 6.56863 5.88627
#
# Compressibility (1/GPa) = 0.04153627
#
# Stress axis : x y z
#
# Youngs Moduli (GPa) = 14.65506 58.23958 45.39835
#
# Poissons Ratio (x) = 0.32518 0.92246
# Poissons Ratio (y) = 0.08183 0.31987
# Poissons Ratio (z) = 0.29778 0.41035
#
# Static dielectric constant tensor:
#      x y z
#    x 1.551930 0.000000 0.008690 
#    y 0.000000 1.596050 0.000000 
#    z 0.008690 0.000000 1.592550 
# 
# From -- ./inp_files/110809.got.cif
#   From: 2010.05.17/outbox.cif.g08.bks.cpg/sg12_56_cif.got.tgz:110809.got - 2010.06.03 13:09:07.
