data_PCOD9191012
_publ_section_title
;
Structure prediction by ZEFSAII (Michael W. Deem and Ramdas Pophale) SiO2 
 PCOD9191012
Probable space group: C 2/M
;
_chemical_formula_sum "Si O2"
_cell_formula_units_Z 60
_cell_length_a 9.866939
_cell_length_b 24.755220
_cell_length_c 23.352113
_cell_angle_alpha 90.000000
_cell_angle_beta 143.363693
_cell_angle_gamma 90.000000
_cell_volume 3403.735649
_symmetry_space_group_name_H-M "C 2/M"
_symmetry_group_IT_number 12
_symmetry_cell_setting 'monoclinic'
loop_
_space_group_symop_operation_xyz
x,y,z
-x,y,-z
-x,-y,-z
x,-y,z
1/2+x,1/2+y,z
1/2-x,1/2+y,-z
1/2-x,1/2-y,-z
1/2+x,1/2-y,z
loop_
_atom_site_type_symbol
_atom_site_label
_atom_site_fract_x
_atom_site_fract_y
_atom_site_fract_z
Si Si1 0.433019 0.667483 0.765958
Si Si2 0.768397 0.813149 0.021198
Si Si3 0.339065 0.856703 0.825943
Si Si4 0.501543 0.136923 0.318985
Si Si5 0.629360 0.699758 0.488291
Si Si6 0.670933 0.211689 0.284370
Si Si7 0.500000 0.381586 0.000000
Si Si8 0.036788 0.436023 0.802346
O O1 0.590252 0.644365 0.768946
O O2 0.228309 0.632507 0.722768
O O3 0.322140 0.724268 0.708983
O O4 0.602199 0.680614 0.875353
O O5 0.528242 0.844812 0.938174
O O6 0.750000 0.750000 0.000000
O O7 0.911023 0.843457 0.020383
O O8 0.389316 0.807176 0.799257
O O9 0.389635 0.908291 0.803155
O O10 0.704095 0.153137 0.431662
O O11 0.500861 0.188477 0.274838
O O12 0.528710 0.088863 0.282198
O O13 0.500000 0.722010 0.500000
O O14 0.750000 0.750000 0.500000
O O15 0.415643 0.683332 0.377299
O O16 0.706852 0.416974 0.095174
O O17 0.017569 0.500000 0.795733
#
# Coordination Sequence:
#
# PCOD9191012 Si02
#       8
#     8   8   8   8   8   8   4   8
#     4  12  20  32  52  80 119 152 183 224 272 341
#     4  11  22  30  49  80 123 155 179 214 275 343
#     4  10  23  34  51  79 110 148 191 229 282 339
#     4  10  21  36  53  83 111 146 195 228 271 345
#     4  10  20  32  51  80 119 151 181 216 273 339
#     4  10  20  33  51  77 120 152 182 214 271 344
#     4  10  21  36  56  86 106 152 201 232 268 350
#     4  10  21  42  62  75 104 149 200 254 293 321
#
# _framework density 17.627690999999999
#
# number of rings (size 3 to 8) (size 9 to 14) (size 15 to 20)
#    0.000    1.600    4.000    1.400    3.733    0.000 
#    0.000    0.667    0.000   11.600    0.000    0.000 
#    0.000   18.667    0.000    0.000    0.000    0.000 
#
# Total GULP energy -167192.985015 kJ/mol
# GULP energy per Si atom -5573.099500 kJ/mol
# Density = 1.758757 g / cm^3
# Si number density = 17.627691 Si / 1000 Ang^3
#
#
#
# Elastic Constant Matrix: (Units=GPa)
#
#
# Indices 1 2 3 4 5 6 
#
# 1 105.6285 43.4418 30.0318 -0.0001 20.5093 0.0000
# 2 43.4418 114.7764 31.2613 0.0000 3.1448 0.0000
# 3 30.0318 31.2613 95.9813 -0.0001 1.1127 -0.0003
# 4 -0.0001 0.0000 -0.0001 14.7407 -0.0001 -1.2933
# 5 20.5093 3.1448 1.1127 -0.0001 23.5024 -0.0001
# 6 0.0000 0.0000 -0.0003 -1.2933 -0.0001 9.2741
#
#
#
# Elastic Compliance Matrix: (Units=1/GPa)
#
#
# Indices 1 2 3 4 5 6 
#
# 1 0.014379 -0.004313 -0.002957 0.000000 -0.011830 0.000000
# 2 -0.004313 0.010884 -0.002224 0.000000 0.002412 0.000000
# 3 -0.002957 -0.002224 0.012041 0.000000 0.002308 0.000000
# 4 0.000000 0.000000 0.000000 0.068680 0.000000 0.009577
# 5 -0.011830 0.002412 0.002308 0.000000 0.052441 0.000001
# 6 0.000000 0.000000 0.000000 0.009577 0.000001 0.109163
#
#
# Mechanical properties :
#
#
# Convention : Reuss Voigt Hill
#
# Bulk Modulus (GPa) = 54.59225 58.42844 56.51035
# Shear Modulus (GPa) = 17.08349 23.61353 20.34851
#
# Velocity S-wave (km/s) = 3.11646 3.66398 3.40126
# Velocity P-wave (km/s) = 6.63224 7.14965 6.89580
#
# Compressibility (1/GPa) = 0.01831762
#
# Stress axis : x y z
#
# Youngs Moduli (GPa) = 69.54794 91.87439 83.04637
#
# Poissons Ratio (x) = 0.39622 0.24558
# Poissons Ratio (y) = 0.29993 0.18467
# Poissons Ratio (z) = 0.20567 0.20430
#
# Static dielectric constant tensor:
#      x y z
#    x 1.675340 0.000000 0.015760 
#    y 0.000000 1.558220 0.000000 
#    z 0.015760 0.000000 1.713500 
# 
# From -- ./inp_files/334091.got.cif
#   From: 2010.05.17/outbox.cif.g08.bks.cpg/sg12_168_cif.got.tgz:334091.got - 2010.06.03 13:09:07.
