data_PCOD9191759
_publ_section_title
;
Structure prediction by ZEFSAII (Michael W. Deem and Ramdas Pophale) SiO2 
 PCOD9191759
Probable space group: C 2/M
;
_chemical_formula_sum "Si O2"
_cell_formula_units_Z 50
_cell_length_a 29.457725
_cell_length_b 12.402881
_cell_length_c 10.468471
_cell_angle_alpha 90.000000
_cell_angle_beta 44.499607
_cell_angle_gamma 90.000000
_cell_volume 2680.796227
_symmetry_space_group_name_H-M "C 2/M"
_symmetry_group_IT_number 12
_symmetry_cell_setting 'monoclinic'
loop_
_space_group_symop_operation_xyz
x,y,z
-x,y,-z
-x,-y,-z
x,-y,z
1/2+x,1/2+y,z
1/2-x,1/2+y,-z
1/2-x,1/2-y,-z
1/2+x,1/2-y,z
loop_
_atom_site_type_symbol
_atom_site_label
_atom_site_fract_x
_atom_site_fract_y
_atom_site_fract_z
Si Si1 0.668601 0.781160 0.043140
Si Si2 0.500724 0.656152 0.746585
Si Si3 0.471351 0.120101 0.700007
Si Si4 0.000000 0.000000 0.500000
Si Si5 0.634788 0.624905 0.603314
Si Si6 0.145604 0.874480 0.865822
Si Si7 0.808584 0.872876 0.776570
O O1 0.604921 0.852208 0.152846
O O2 0.679033 0.704875 0.899230
O O3 0.658106 0.697958 0.180965
O O4 0.731960 0.852158 0.942170
O O5 0.502728 0.783630 0.716514
O O6 0.507358 0.593110 0.598973
O O7 0.558566 0.628039 0.725903
O O8 0.430526 0.627822 0.944172
O O9 0.500000 0.123543 0.500000
O O10 0.481729 0.000000 0.730854
O O11 0.654756 0.500000 0.569242
O O12 0.668856 0.667781 0.407504
O O13 0.651582 0.668155 0.709087
O O14 0.166800 0.000000 0.834206
O O15 0.824827 0.000000 0.758855
#
# Coordination Sequence:
#
# PCOD9191759 Si02
#       7
#     8   8   8   2   8   8   8
#     4  10  21  35  54  77 101 136 177 220 262 311
#     4  11  20  31  53  81 114 137 172 219 272 311
#     4  10  20  33  51  76 107 141 173 210 260 316
#     4  12  20  28  52  92 112 140 166 230 270 322
#     4  10  20  33  52  78 108 137 170 217 273 321
#     4  10  20  33  52  78 108 137 170 217 270 322
#     4  10  21  35  54  77 104 135 174 223 269 316
#
# _framework density 18.651174999999999
#
# number of rings (size 3 to 8) (size 9 to 14) (size 15 to 20)
#    0.000    1.760    2.400    2.400    2.240    1.920 
#    0.000    0.000    0.000    9.600    0.000    0.000 
#    0.000    0.000    0.000    0.000    0.000    0.000 
#
# Total GULP energy -139245.307666 kJ/mol
# GULP energy per Si atom -5569.812307 kJ/mol
# Density = 1.860872 g / cm^3
# Si number density = 18.651175 Si / 1000 Ang^3
#
#
#
# Elastic Constant Matrix: (Units=GPa)
#
#
# Indices 1 2 3 4 5 6 
#
# 1 22.0379 5.9680 11.6245 0.0000 17.5579 0.0000
# 2 5.9680 97.9870 16.3883 0.0000 16.8728 0.0000
# 3 11.6245 16.3883 43.6366 0.0000 27.8906 0.0000
# 4 0.0000 0.0000 0.0000 -4.8597 0.0000 6.0401
# 5 17.5579 16.8728 27.8906 0.0000 38.0124 0.0000
# 6 0.0000 0.0000 0.0000 6.0401 0.0000 11.4562
#
#
#
# Elastic Compliance Matrix: (Units=1/GPa)
#
#
# Indices 1 2 3 4 5 6 
#
# 1 0.072303 0.001295 0.003702 0.000000 -0.036687 0.000000
# 2 0.001295 0.011159 -0.001860 0.000000 -0.004186 0.000000
# 3 0.003702 -0.001860 0.043677 0.000000 -0.032931 0.000000
# 4 0.000000 0.000000 0.000000 -0.124313 0.000000 0.065542
# 5 -0.036687 -0.004186 -0.032931 0.000000 0.069273 0.000000
# 6 0.000000 0.000000 0.000000 0.065542 0.000000 0.052733
#
#
# Mechanical properties :
#
#
# Convention : Reuss Voigt Hill
#
# Bulk Modulus (GPa) = 7.49565 25.73590 16.61577
# Shear Modulus (GPa) = 30.66931 17.56716 24.11824
#
# Velocity S-wave (km/s) = 4.05947 3.07234 3.59990
# Velocity P-wave (km/s) = 5.09902 5.13947 5.11929
#
# Compressibility (1/GPa) = 0.13341076
#
# Stress axis : x y z
#
# Youngs Moduli (GPa) = 13.83078 89.61763 22.89536
#
# Poissons Ratio (x) = -0.11601 -0.08475
# Poissons Ratio (y) = -0.01790 0.04258
# Poissons Ratio (z) = -0.05120 0.16668
#
# Static dielectric constant tensor:
#      x y z
#    x 1.634550 0.000000 -0.001760 
#    y 0.000000 1.640410 0.000000 
#    z -0.001760 0.000000 1.674230 
# 
# From -- ./inp_files/103067.got.cif
#   From: 2010.05.17/outbox.cif.g08.bks.cpg/sg12_52_cif.got.tgz:103067.got - 2010.06.03 13:09:07.
