data_PCOD9191983
_publ_section_title
;
Structure prediction by ZEFSAII (Michael W. Deem and Ramdas Pophale) SiO2 
 PCOD9191983
Probable space group: C 2/M
;
_chemical_formula_sum "Si O2"
_cell_formula_units_Z 64
_cell_length_a 20.705191
_cell_length_b 8.054014
_cell_length_c 20.098701
_cell_angle_alpha 90.000000
_cell_angle_beta 130.101398
_cell_angle_gamma 90.000000
_cell_volume 2563.701745
_symmetry_space_group_name_H-M "C 2/M"
_symmetry_group_IT_number 12
_symmetry_cell_setting 'monoclinic'
loop_
_space_group_symop_operation_xyz
x,y,z
-x,y,-z
-x,-y,-z
x,-y,z
1/2+x,1/2+y,z
1/2-x,1/2+y,-z
1/2-x,1/2-y,-z
1/2+x,1/2-y,z
loop_
_atom_site_type_symbol
_atom_site_label
_atom_site_fract_x
_atom_site_fract_y
_atom_site_fract_z
Si Si1 0.919441 0.300622 0.097125
Si Si2 0.888258 0.805788 0.409837
Si Si3 0.232400 0.810441 0.224870
Si Si4 0.843503 0.695540 0.178480
Si Si5 0.734844 0.697881 0.565853
Si Si6 0.099875 0.312962 0.059576
Si Si7 0.501591 0.692394 0.635977
Si Si8 0.083389 0.198900 0.289439
O O1 0.921154 0.500000 0.089359
O O2 0.849397 0.257257 0.106016
O O3 0.009302 0.255695 0.190749
O O4 0.895564 0.227906 0.010003
O O5 0.800928 0.792602 0.310161
O O6 0.852396 0.739190 0.456957
O O7 0.963255 0.736564 0.411566
O O8 0.907276 0.000000 0.428969
O O9 0.259319 0.790238 0.164890
O O10 0.135518 0.768100 0.150852
O O11 0.244983 0.000000 0.254013
O O12 0.868999 0.500000 0.200456
O O13 0.912692 0.801133 0.263625
O O14 0.729604 0.500000 0.564259
O O15 0.750000 0.750000 0.500000
O O16 0.820156 0.751414 0.661315
O O17 0.136948 0.500000 0.083354
O O18 0.000000 0.327331 0.000000
O O19 0.477308 0.500000 0.609236
O O20 0.438122 0.764905 0.649559
O O21 0.080541 0.000000 0.290325
#
# Coordination Sequence:
#
# PCOD9191983 Si02
#       8
#     8   8   8   8   8   8   8   8
#     4   9  18  34  54  75 103 144 186 224 266 317
#     4   9  19  37  61  83 108 146 188 223 265 324
#     4  10  20  33  52  79 107 137 174 225 281 324
#     4   8  15  29  49  74 103 133 173 222 273 322
#     4  11  24  41  61  85 114 146 181 222 267 322
#     4  10  22  36  48  67 102 145 190 230 264 313
#     4   8  15  31  55  83 109 139 181 224 263 315
#     4  10  20  35  59  87 115 144 179 225 277 329
#
# _framework density 24.963902999999998
#
# number of rings (size 3 to 8) (size 9 to 14) (size 15 to 20)
#    0.000    2.625    0.000    1.125    1.750    3.250 
#    0.000    0.625    0.000    3.750    0.000    0.000 
#    0.000    0.000    0.000    0.000    0.000    0.000 
#
# Total GULP energy -178475.094527 kJ/mol
# GULP energy per Si atom -5577.346704 kJ/mol
# Density = 2.490708 g / cm^3
# Si number density = 24.963903 Si / 1000 Ang^3
#
#
#
# Elastic Constant Matrix: (Units=GPa)
#
#
# Indices 1 2 3 4 5 6 
#
# 1 124.2099 -5.1604 10.3032 0.0000 -12.6352 0.0000
# 2 -5.1604 30.9708 10.0765 0.0000 1.1885 0.0000
# 3 10.3032 10.0765 114.6210 0.0000 -4.1107 0.0000
# 4 0.0000 0.0000 0.0000 14.5374 0.0000 -5.9440
# 5 -12.6352 1.1885 -4.1107 0.0000 48.7349 0.0000
# 6 0.0000 0.0000 0.0000 -5.9440 0.0000 4.0492
#
#
#
# Elastic Compliance Matrix: (Units=1/GPa)
#
#
# Indices 1 2 3 4 5 6 
#
# 1 0.008395 0.001586 -0.000820 0.000000 0.002069 0.000000
# 2 0.001586 0.033594 -0.003120 0.000000 -0.000671 0.000000
# 3 -0.000820 -0.003120 0.009095 0.000000 0.000631 0.000000
# 4 0.000000 0.000000 0.000000 0.172059 0.000000 0.252574
# 5 0.002069 -0.000671 0.000631 0.000000 0.021125 0.000000
# 6 0.000000 0.000000 0.000000 0.252574 0.000000 0.617731
#
#
# Mechanical properties :
#
#
# Convention : Reuss Voigt Hill
#
# Bulk Modulus (GPa) = 21.56259 33.36004 27.46132
# Shear Modulus (GPa) = 5.66787 30.43646 18.05217
#
# Velocity S-wave (km/s) = 1.50843 3.49552 2.69203
# Velocity P-wave (km/s) = 3.41907 5.44829 4.54829
#
# Compressibility (1/GPa) = 0.04637661
#
# Stress axis : x y z
#
# Youngs Moduli (GPa) = 119.11518 29.76756 109.95060
#
# Poissons Ratio (x) = -0.04722 0.09015
# Poissons Ratio (y) = -0.18894 0.34304
# Poissons Ratio (z) = 0.09766 0.09287
#
# Static dielectric constant tensor:
#      x y z
#    x 2.167370 0.000000 -0.010240 
#    y 0.000000 1.919480 0.000000 
#    z -0.010240 0.000000 2.042340 
# 
# From -- ./inp_files/324351.got.cif
#   From: 2010.05.17/outbox.cif.g08.bks.cpg/sg12_163_cif.got.tgz:324351.got - 2010.06.03 13:09:07.
