data_PCOD9191161
_publ_section_title
;
Structure prediction by ZEFSAII (Michael W. Deem and Ramdas Pophale) SiO2 
 PCOD9191161
Probable space group: C 2/M
;
_chemical_formula_sum "Si O2"
_cell_formula_units_Z 52
_cell_length_a 26.226434
_cell_length_b 20.329324
_cell_length_c 5.280558
_cell_angle_alpha 90.000000
_cell_angle_beta 90.142192
_cell_angle_gamma 90.000000
_cell_volume 2815.403596
_symmetry_space_group_name_H-M "C 2/M"
_symmetry_group_IT_number 12
_symmetry_cell_setting 'monoclinic'
loop_
_space_group_symop_operation_xyz
x,y,z
-x,y,-z
-x,-y,-z
x,-y,z
1/2+x,1/2+y,z
1/2-x,1/2+y,-z
1/2-x,1/2-y,-z
1/2+x,1/2-y,z
loop_
_atom_site_type_symbol
_atom_site_label
_atom_site_fract_x
_atom_site_fract_y
_atom_site_fract_z
Si Si1 0.810057 0.172942 0.408301
Si Si2 0.465163 0.000000 0.249896
Si Si3 0.899032 0.078219 0.421645
Si Si4 0.118699 0.738495 0.943180
Si Si5 0.442386 0.643094 0.910154
Si Si6 0.713116 0.212584 0.194410
Si Si7 0.035358 0.645541 0.748426
O O1 0.843534 0.110158 0.480338
O O2 0.845085 0.210780 0.204762
O O3 0.752058 0.160296 0.316109
O O4 0.802890 0.228958 0.617903
O O5 0.500000 0.000000 0.500000
O O6 0.440045 0.927967 0.252434
O O7 0.500000 0.000000 0.000000
O O8 0.916970 0.103229 0.144710
O O9 0.897746 0.000000 0.425066
O O10 0.935551 0.105040 0.646103
O O11 0.085121 0.786148 0.119426
O O12 0.079559 0.699302 0.768344
O O13 0.159444 0.690412 0.077495
O O14 0.500000 0.653553 0.000000
O O15 0.750000 0.250000 0.000000
O O16 0.000000 0.653284 0.500000
O O17 0.000000 0.650966 0.000000
#
# Coordination Sequence:
#
# PCOD9191161 Si02
#       7
#     8   4   8   8   8   8   8
#     4   9  19  34  56  81 107 135 186 228 283 329
#     4   8  16  34  50  72 104 146 184 208 242 316
#     4  11  23  39  58  80 111 154 194 229 279 337
#     4  10  20  32  55  83 113 142 182 232 284 322
#     4  11  23  37  54  81 118 150 193 238 272 321
#     4   9  17  34  56  80 102 134 170 228 281 336
#     4  10  21  33  54  81 113 149 184 217 265 323
#
# _framework density 18.469822000000001
#
# number of rings (size 3 to 8) (size 9 to 14) (size 15 to 20)
#    0.000    2.154    1.538    1.385    2.154    4.308 
#    0.000    0.000    1.692    0.000   16.000    0.000 
#    0.000    0.000    0.000    0.000    0.000    0.000 
#
# Total GULP energy -144743.026466 kJ/mol
# GULP energy per Si atom -5567.039479 kJ/mol
# Density = 1.842778 g / cm^3
# Si number density = 18.469822 Si / 1000 Ang^3
#
#
#
# Elastic Constant Matrix: (Units=GPa)
#
#
# Indices 1 2 3 4 5 6 
#
# 1 110.0939 37.4023 14.6502 0.0000 26.6584 0.0000
# 2 37.4023 59.6076 -3.2653 0.0000 12.0084 0.0000
# 3 14.6502 -3.2653 67.5493 0.0000 11.3024 0.0000
# 4 0.0000 0.0000 0.0000 20.9076 0.0000 6.4099
# 5 26.6584 12.0084 11.3024 0.0000 30.2428 0.0000
# 6 0.0000 0.0000 0.0000 6.4099 0.0000 15.2504
#
#
#
# Elastic Compliance Matrix: (Units=1/GPa)
#
#
# Indices 1 2 3 4 5 6 
#
# 1 0.013826 -0.007028 -0.001884 0.000000 -0.008693 0.000000
# 2 -0.007028 0.022128 0.003229 0.000000 -0.003799 0.000000
# 3 -0.001884 0.003229 0.016326 0.000000 -0.005723 0.000000
# 4 0.000000 0.000000 0.000000 0.054904 0.000000 -0.023077
# 5 -0.008693 -0.003799 -0.005723 0.000000 0.044376 0.000000
# 6 0.000000 0.000000 0.000000 -0.023077 0.000000 0.075272
#
#
# Mechanical properties :
#
#
# Convention : Reuss Voigt Hill
#
# Bulk Modulus (GPa) = 24.43986 37.20279 30.82133
# Shear Modulus (GPa) = 19.85425 25.84441 22.84933
#
# Velocity S-wave (km/s) = 3.28221 3.74475 3.52108
# Velocity P-wave (km/s) = 5.25594 6.23568 5.76666
#
# Compressibility (1/GPa) = 0.04091676
#
# Stress axis : x y z
#
# Youngs Moduli (GPa) = 72.32601 45.19127 61.25089
#
# Poissons Ratio (x) = 0.31758 0.11539
# Poissons Ratio (y) = 0.50828 -0.19780
# Poissons Ratio (z) = 0.13625 -0.14594
#
# Static dielectric constant tensor:
#      x y z
#    x 1.615580 0.000000 0.112220 
#    y 0.000000 1.641650 0.000000 
#    z 0.112220 0.000000 1.607000 
# 
# From -- ./inp_files/28545.got.cif
#   From: 2010.05.17/outbox.cif.g08.bks.cpg/sg12_15_cif.got.tgz:28545.got - 2010.06.03 13:09:07.
