data_PCOD9191392
_publ_section_title
;
Structure prediction by ZEFSAII (Michael W. Deem and Ramdas Pophale) SiO2 
 PCOD9191392
Probable space group: C 2/M
;
_chemical_formula_sum "Si O2"
_cell_formula_units_Z 64
_cell_length_a 20.455238
_cell_length_b 8.233447
_cell_length_c 23.320580
_cell_angle_alpha 90.000000
_cell_angle_beta 64.145694
_cell_angle_gamma 90.000000
_cell_volume 3534.456591
_symmetry_space_group_name_H-M "C 2/M"
_symmetry_group_IT_number 12
_symmetry_cell_setting 'monoclinic'
loop_
_space_group_symop_operation_xyz
x,y,z
-x,y,-z
-x,-y,-z
x,-y,z
1/2+x,1/2+y,z
1/2-x,1/2+y,-z
1/2-x,1/2-y,-z
1/2+x,1/2-y,z
loop_
_atom_site_type_symbol
_atom_site_label
_atom_site_fract_x
_atom_site_fract_y
_atom_site_fract_z
Si Si1 0.201019 0.801605 0.197650
Si Si2 0.226353 0.695539 0.946579
Si Si3 0.850590 0.304230 0.197885
Si Si4 0.577026 0.198419 0.946615
Si Si5 0.397178 0.306275 0.305268
Si Si6 0.546751 0.303641 0.304441
Si Si7 0.173190 0.693575 0.553462
Si Si8 0.523870 0.803626 0.553620
O O1 0.220401 0.750440 0.125354
O O2 0.269198 0.751630 0.211092
O O3 0.123513 0.745046 0.250430
O O4 0.199988 0.000000 0.198258
O O5 0.226130 0.500000 0.945663
O O6 0.145167 0.749007 0.959856
O O7 0.250000 0.750000 0.000000
O O8 0.850465 0.500000 0.197810
O O9 0.903675 0.251295 0.125730
O O10 0.874889 0.247337 0.250670
O O11 0.575825 0.000000 0.947284
O O12 0.500000 0.255524 0.000000
O O13 0.398476 0.500000 0.306532
O O14 0.477496 0.246753 0.293471
O O15 0.342235 0.247294 0.375542
O O16 0.547443 0.500000 0.302802
O O17 0.530800 0.249958 0.375400
O O18 0.171627 0.500000 0.552269
O O19 0.250000 0.750000 0.500000
O O20 0.104137 0.754079 0.542399
O O21 0.500000 0.745957 0.500000
O O22 0.525151 0.000000 0.552068
#
# Coordination Sequence:
#
# PCOD9191392 Si02
#       8
#     8   8   8   8   8   8   8   8
#     4   8  16  32  50  68  93 126 161 196 237 284
#     4   9  17  30  48  69  95 125 157 196 240 285
#     4   9  17  31  51  71  93 125 164 202 239 283
#     4   8  15  29  48  69  94 126 163 200 238 285
#     4  10  20  33  49  71  99 127 157 196 240 284
#     4   9  18  33  51  69  92 125 162 194 228 279
#     4  10  20  35  54  74  99 129 160 195 235 282
#     4   9  19  35  52  72  99 126 153 192 240 279
#
# _framework density 18.107451000000001
#
# number of rings (size 3 to 8) (size 9 to 14) (size 15 to 20)
#    0.000    3.000    0.000    2.250    0.000    3.250 
#    0.000    6.250    0.000    0.750    0.000    0.000 
#    0.000    0.000    0.000    0.000    0.000    0.000 
#
# Total GULP energy -178382.806079 kJ/mol
# GULP energy per Si atom -5574.462690 kJ/mol
# Density = 1.806624 g / cm^3
# Si number density = 18.107451 Si / 1000 Ang^3
#
#
#
# Elastic Constant Matrix: (Units=GPa)
#
#
# Indices 1 2 3 4 5 6 
#
# 1 128.7355 16.2974 145.5552 0.0002 -2.1190 0.0006
# 2 16.2974 9.5159 18.6998 0.0005 -0.6082 0.0010
# 3 145.5552 18.6998 199.9139 0.0000 -2.5238 0.0000
# 4 0.0002 0.0005 0.0000 23.2632 0.0001 7.1470
# 5 -2.1190 -0.6082 -2.5238 0.0001 44.0217 0.0002
# 6 0.0006 0.0010 0.0000 7.1470 0.0002 16.8578
#
#
#
# Elastic Compliance Matrix: (Units=1/GPa)
#
#
# Indices 1 2 3 4 5 6 
#
# 1 0.045805 -0.015812 -0.031869 0.000000 0.000159 -0.000001
# 2 -0.015812 0.134264 -0.001034 0.000000 0.001035 -0.000007
# 3 -0.031869 -0.001034 0.028304 0.000000 0.000074 0.000001
# 4 0.000000 0.000000 0.000000 0.049424 0.000000 -0.020954
# 5 0.000159 0.001035 0.000074 0.000000 0.022742 0.000000
# 6 -0.000001 -0.000007 0.000001 -0.020954 0.000000 0.068203
#
#
# Mechanical properties :
#
#
# Convention : Reuss Voigt Hill
#
# Bulk Modulus (GPa) = 9.01360 77.69669 43.35515
# Shear Modulus (GPa) = 10.34869 27.33607 18.84238
#
# Velocity S-wave (km/s) = 2.39323 3.88965 3.22931
# Velocity P-wave (km/s) = 3.55322 7.94823 6.15629
#
# Compressibility (1/GPa) = 0.11094344
#
# Stress axis : x y z
#
# Youngs Moduli (GPa) = 21.83145 7.44803 35.33120
#
# Poissons Ratio (x) = 0.11777 1.12599
# Poissons Ratio (y) = 0.34519 0.03652
# Poissons Ratio (z) = 0.69576 0.00770
#
# Static dielectric constant tensor:
#      x y z
#    x 1.619750 0.000000 -0.000090 
#    y 0.000000 1.631750 0.000000 
#    z -0.000090 0.000000 1.573680 
# 
# From -- ./inp_files/319912.got.cif
#   From: 2010.05.17/outbox.cif.g08.bks.cpg/sg12_160_cif.got.tgz:319912.got - 2010.06.03 13:09:07.
