data_PCOD9191035
_publ_section_title
;
Structure prediction by ZEFSAII (Michael W. Deem and Ramdas Pophale) SiO2 
 PCOD9191035
Probable space group: C 2/M
;
_chemical_formula_sum "Si O2"
_cell_formula_units_Z 64
_cell_length_a 12.242998
_cell_length_b 13.170801
_cell_length_c 26.353155
_cell_angle_alpha 90.000000
_cell_angle_beta 49.621369
_cell_angle_gamma 90.000000
_cell_volume 3237.144875
_symmetry_space_group_name_H-M "C 2/M"
_symmetry_group_IT_number 12
_symmetry_cell_setting 'monoclinic'
loop_
_space_group_symop_operation_xyz
x,y,z
-x,y,-z
-x,-y,-z
x,-y,z
1/2+x,1/2+y,z
1/2-x,1/2+y,-z
1/2-x,1/2-y,-z
1/2+x,1/2-y,z
loop_
_atom_site_type_symbol
_atom_site_label
_atom_site_fract_x
_atom_site_fract_y
_atom_site_fract_z
Si Si1 0.124531 0.384485 0.111966
Si Si2 0.167198 0.197540 0.453072
Si Si3 0.848024 0.884652 0.429990
Si Si4 0.687303 0.614286 0.337688
Si Si5 0.852718 0.119169 0.961921
Si Si6 0.338240 0.616070 0.844086
Si Si7 0.664502 0.691741 0.868369
Si Si8 0.390348 0.271413 0.221858
O O1 0.078633 0.500000 0.118559
O O2 0.234887 0.374516 0.125717
O O3 0.994318 0.311654 0.164171
O O4 0.214782 0.349423 0.035808
O O5 0.185947 0.138134 0.500398
O O6 0.266109 0.297195 0.424202
O O7 0.196797 0.128354 0.395481
O O8 0.000000 0.228356 0.500000
O O9 0.020067 0.876260 0.373050
O O10 0.806281 0.000000 0.429692
O O11 0.736129 0.500000 0.308828
O O12 0.777037 0.705954 0.286696
O O13 0.830751 0.123311 0.907896
O O14 0.999272 0.175148 0.932347
O O15 0.875147 0.000000 0.967789
O O16 0.317421 0.500000 0.835047
O O17 0.221795 0.693833 0.858087
O O18 0.497413 0.657108 0.782177
O O19 0.677101 0.666902 0.804825
#
# Coordination Sequence:
#
# PCOD9191035 Si02
#       8
#     8   8   8   8   8   8   8   8
#     4  10  20  34  53  76 100 129 170 218 268 320
#     4   9  18  34  57  84 113 145 181 217 256 304
#     4   9  18  33  57  87 115 143 176 218 262 303
#     4  10  20  36  56  77 106 143 180 214 256 308
#     4   9  18  34  54  75  99 128 166 216 273 327
#     4   9  20  37  54  73 101 136 171 214 269 324
#     4  10  20  32  52  74  96 128 169 214 262 313
#     4  10  22  36  51  73 103 137 175 216 255 306
#
# _framework density 19.770508
#
# number of rings (size 3 to 8) (size 9 to 14) (size 15 to 20)
#    0.000    2.500    0.000    1.500    0.000   11.750 
#    0.000    1.875    0.000   12.000    0.000    0.000 
#    0.000    0.000    0.000    0.000    0.000    0.000 
#
# Total GULP energy -178623.197992 kJ/mol
# GULP energy per Si atom -5581.974937 kJ/mol
# Density = 1.972551 g / cm^3
# Si number density = 19.770508 Si / 1000 Ang^3
#
#
#
# Elastic Constant Matrix: (Units=GPa)
#
#
# Indices 1 2 3 4 5 6 
#
# 1 49.9186 -0.7652 -6.2161 0.0000 -5.1566 0.0000
# 2 -0.7652 84.3727 4.9096 0.0000 -14.8836 0.0000
# 3 -6.2161 4.9096 55.7143 0.0000 -5.8669 0.0000
# 4 0.0000 0.0000 0.0000 26.3168 0.0000 -0.8878
# 5 -5.1566 -14.8836 -5.8669 0.0000 9.7079 0.0000
# 6 0.0000 0.0000 0.0000 -0.8878 0.0000 19.2934
#
#
#
# Elastic Compliance Matrix: (Units=1/GPa)
#
#
# Indices 1 2 3 4 5 6 
#
# 1 0.022693 0.003484 0.004332 0.000000 0.020014 0.000000
# 2 0.003484 0.016866 0.001944 0.000000 0.028883 0.000000
# 3 0.004332 0.001944 0.020096 0.000000 0.017426 0.000000
# 4 0.000000 0.000000 0.000000 0.038058 0.000000 0.001751
# 5 0.020014 0.028883 0.017426 0.000000 0.168452 0.000000
# 6 0.000000 0.000000 0.000000 0.001751 0.000000 0.051912
#
#
# Mechanical properties :
#
#
# Convention : Reuss Voigt Hill
#
# Bulk Modulus (GPa) = 12.63017 20.65135 16.64076
# Shear Modulus (GPa) = 15.38714 23.86878 19.62796
#
# Velocity S-wave (km/s) = 2.79281 3.47838 3.15427
# Velocity P-wave (km/s) = 4.09902 5.15756 4.65845
#
# Compressibility (1/GPa) = 0.07917550
#
# Stress axis : x y z
#
# Youngs Moduli (GPa) = 44.06654 59.29191 49.76169
#
# Poissons Ratio (x) = -0.20659 -0.21558
# Poissons Ratio (y) = -0.15354 -0.09674
# Poissons Ratio (z) = -0.19091 -0.11526
#
# Static dielectric constant tensor:
#      x y z
#    x 1.700060 0.000000 0.022560 
#    y 0.000000 1.722410 0.000000 
#    z 0.022560 0.000000 1.695020 
# 
# From -- ./inp_files/358432.got.cif
#   From: 2010.05.17/outbox.cif.g08.bks.cpg/sg12_180_cif.got.tgz:358432.got - 2010.06.03 13:09:07.
