data_PCOD9191456
_publ_section_title
;
Structure prediction by ZEFSAII (Michael W. Deem and Ramdas Pophale) SiO2 
 PCOD9191456
Probable space group: C 2/M
;
_chemical_formula_sum "Si O2"
_cell_formula_units_Z 48
_cell_length_a 29.251987
_cell_length_b 8.453190
_cell_length_c 11.596712
_cell_angle_alpha 90.000000
_cell_angle_beta 77.449926
_cell_angle_gamma 90.000000
_cell_volume 2799.033318
_symmetry_space_group_name_H-M "C 2/M"
_symmetry_group_IT_number 12
_symmetry_cell_setting 'monoclinic'
loop_
_space_group_symop_operation_xyz
x,y,z
-x,y,-z
-x,-y,-z
x,-y,z
1/2+x,1/2+y,z
1/2-x,1/2+y,-z
1/2-x,1/2-y,-z
1/2+x,1/2-y,z
loop_
_atom_site_type_symbol
_atom_site_label
_atom_site_fract_x
_atom_site_fract_y
_atom_site_fract_z
Si Si1 0.705554 0.189139 0.595482
Si Si2 0.180151 0.189319 0.098509
Si Si3 0.509637 0.183485 0.632885
Si Si4 0.728084 0.310691 0.834784
Si Si5 0.591496 0.191791 0.274201
Si Si6 0.609872 0.806221 0.528336
O O1 0.750000 0.250000 0.500000
O O2 0.710526 0.241807 0.724556
O O3 0.657146 0.246447 0.564209
O O4 0.705385 0.000000 0.589997
O O5 0.219199 0.256323 0.164605
O O6 0.129273 0.248101 0.163127
O O7 0.181824 0.000000 0.102099
O O8 0.196575 0.240079 0.961638
O O9 0.500000 0.182490 0.500000
O O10 0.461994 0.250932 0.713048
O O11 0.561799 0.251561 0.615416
O O12 0.512240 0.000000 0.668624
O O13 0.727557 0.500000 0.828496
O O14 0.607770 0.238900 0.394617
O O15 0.590452 0.000000 0.272830
O O16 0.608516 0.000000 0.530998
#
# Coordination Sequence:
#
# PCOD9191456 Si02
#       6
#     8   8   8   8   8   8
#     4  11  21  32  49  72  99 129 159 192 232 280
#     4  10  20  33  50  70  93 121 154 197 243 285
#     4   7  11  22  42  68  94 120 152 188 227 271
#     4  10  21  36  50  66  92 125 161 197 234 279
#     4   9  15  26  49  75  96 120 152 191 234 280
#     4   8  15  27  44  69  98 125 153 188 229 274
#
# _framework density 17.148778
#
# number of rings (size 3 to 8) (size 9 to 14) (size 15 to 20)
#    0.000    2.833    0.000    4.500    0.000    3.333 
#    0.000    0.833    0.000    7.500    0.000    7.000 
#    0.000    0.000    0.000    0.000    0.000    0.000 
#
# Total GULP energy -133717.408192 kJ/mol
# GULP energy per Si atom -5571.558675 kJ/mol
# Density = 1.710975 g / cm^3
# Si number density = 17.148778 Si / 1000 Ang^3
#
#
#
# Elastic Constant Matrix: (Units=GPa)
#
#
# Indices 1 2 3 4 5 6 
#
# 1 163.3502 20.0195 63.3714 0.0000 -21.4126 0.0000
# 2 20.0195 19.2304 12.5605 0.0000 -1.3255 0.0000
# 3 63.3714 12.5605 62.1748 0.0000 -9.3372 0.0000
# 4 0.0000 0.0000 0.0000 23.5547 0.0000 -2.6175
# 5 -21.4126 -1.3255 -9.3372 0.0000 32.2336 0.0000
# 6 0.0000 0.0000 0.0000 -2.6175 0.0000 18.9903
#
#
#
# Elastic Compliance Matrix: (Units=1/GPa)
#
#
# Indices 1 2 3 4 5 6 
#
# 1 0.011006 -0.004904 -0.009576 0.000000 0.004336 0.000000
# 2 -0.004904 0.062128 -0.008006 0.000000 -0.003022 0.000000
# 3 -0.009576 -0.008006 0.027660 0.000000 0.001322 0.000000
# 4 0.000000 0.000000 0.000000 0.043115 0.000000 0.005943
# 5 0.004336 -0.003022 0.001322 0.000000 0.034162 0.000000
# 6 0.000000 0.000000 0.000000 0.005943 0.000000 0.053478
#
#
# Mechanical properties :
#
#
# Convention : Reuss Voigt Hill
#
# Bulk Modulus (GPa) = 17.91451 48.51757 33.21604
# Shear Modulus (GPa) = 16.94174 24.87597 20.90885
#
# Velocity S-wave (km/s) = 3.14654 3.81280 3.49558
# Velocity P-wave (km/s) = 4.86520 6.90919 5.97524
#
# Compressibility (1/GPa) = 0.05582067
#
# Stress axis : x y z
#
# Youngs Moduli (GPa) = 90.85708 16.09591 36.15310
#
# Poissons Ratio (x) = 0.07894 0.34621
# Poissons Ratio (y) = 0.44559 0.28945
# Poissons Ratio (z) = 0.87007 0.12887
#
# Static dielectric constant tensor:
#      x y z
#    x 1.604110 0.000000 -0.022580 
#    y 0.000000 1.595470 0.000000 
#    z -0.022580 0.000000 1.564700 
# 
# From -- ./inp_files/179232.got.cif
#   From: 2010.05.17/outbox.cif.g08.bks.cpg/sg12_90_cif.got.tgz:179232.got - 2010.06.03 13:09:07.
