data_PCOD9191104
_publ_section_title
;
Structure prediction by ZEFSAII (Michael W. Deem and Ramdas Pophale) SiO2 
 PCOD9191104
Probable space group: C 2/M
;
_chemical_formula_sum "Si O2"
_cell_formula_units_Z 60
_cell_length_a 8.334491
_cell_length_b 18.241459
_cell_length_c 18.481475
_cell_angle_alpha 90.000000
_cell_angle_beta 109.174226
_cell_angle_gamma 90.000000
_cell_volume 2653.923364
_symmetry_space_group_name_H-M "C 2/M"
_symmetry_group_IT_number 12
_symmetry_cell_setting 'monoclinic'
loop_
_space_group_symop_operation_xyz
x,y,z
-x,y,-z
-x,-y,-z
x,-y,z
1/2+x,1/2+y,z
1/2-x,1/2+y,-z
1/2-x,1/2-y,-z
1/2+x,1/2-y,z
loop_
_atom_site_type_symbol
_atom_site_label
_atom_site_fract_x
_atom_site_fract_y
_atom_site_fract_z
Si Si1 0.500000 0.172259 0.500000
Si Si2 0.400315 0.645763 0.917828
Si Si3 0.965091 0.303854 0.077503
Si Si4 0.874923 0.422570 0.805443
Si Si5 0.317306 0.581233 0.360540
Si Si6 0.067599 0.716812 0.353550
Si Si7 0.688939 0.888042 0.753174
Si Si8 0.820021 0.880198 0.621003
O O1 0.523528 0.219738 0.431816
O O2 0.335320 0.125003 0.457445
O O3 0.508048 0.717359 0.912320
O O4 0.341442 0.609991 0.833843
O O5 0.500000 0.608197 0.000000
O O6 0.778267 0.673644 0.075149
O O7 0.096168 0.350906 0.143760
O O8 0.000000 0.323085 0.000000
O O9 0.875617 0.500000 0.846919
O O10 0.032304 0.424986 0.772015
O O11 0.712114 0.417962 0.730793
O O12 0.261087 0.500000 0.378324
O O13 0.207736 0.651378 0.369486
O O14 0.518053 0.589171 0.396806
O O15 0.128626 0.797795 0.344885
O O16 0.907017 0.689519 0.281932
O O17 0.751724 0.916439 0.684921
#
# Coordination Sequence:
#
# PCOD9191104 Si02
#       8
#     4   8   8   8   8   8   8   8
#     4  10  22  40  57  86 119 154 192 234 300 346
#     4  10  20  33  50  81 118 146 180 238 290 329
#     4  10  20  32  53  79 109 145 184 234 287 340
#     4   9  20  38  56  76 110 150 190 235 285 341
#     4  10  22  39  59  88 120 151 196 247 292 340
#     4  10  21  39  61  88 117 155 194 243 291 351
#     4   9  21  34  56  82 110 153 189 234 284 349
#     4  11  22  36  62  89 116 154 194 244 290 351
#
# _framework density 22.608035999999998
#
# number of rings (size 3 to 8) (size 9 to 14) (size 15 to 20)
#    0.000    2.133    0.000    3.600    7.467    2.400 
#    0.000    4.000    0.000    6.400    0.000    0.000 
#    0.000    0.533    0.000    0.000    0.000    0.000 
#
# Total GULP energy -167299.572431 kJ/mol
# GULP energy per Si atom -5576.652414 kJ/mol
# Density = 2.255658 g / cm^3
# Si number density = 22.608036 Si / 1000 Ang^3
#
#
#
# Elastic Constant Matrix: (Units=GPa)
#
#
# Indices 1 2 3 4 5 6 
#
# 1 37.6985 -6.1953 -0.7347 0.0000 8.5580 0.0000
# 2 -6.1953 76.7956 7.0068 0.0000 0.9432 0.0000
# 3 -0.7347 7.0068 100.8755 0.0000 19.1903 0.0000
# 4 0.0000 0.0000 0.0000 -23.0261 0.0000 1.7746
# 5 8.5580 0.9432 19.1903 0.0000 37.2748 0.0000
# 6 0.0000 0.0000 0.0000 1.7746 0.0000 3.4135
#
#
#
# Elastic Compliance Matrix: (Units=1/GPa)
#
#
# Indices 1 2 3 4 5 6 
#
# 1 0.028600 0.002265 0.001453 0.000000 -0.007372 0.000000
# 2 0.002265 0.013285 -0.000824 0.000000 -0.000432 0.000000
# 3 0.001453 -0.000824 0.011131 0.000000 -0.006043 0.000000
# 4 0.000000 0.000000 0.000000 -0.041756 0.000000 0.021708
# 5 -0.007372 -0.000432 -0.006043 0.000000 0.031643 0.000000
# 6 0.000000 0.000000 0.000000 0.021708 0.000000 0.281668
#
#
# Mechanical properties :
#
#
# Convention : Reuss Voigt Hill
#
# Bulk Modulus (GPa) = 17.00540 23.94702 20.47621
# Shear Modulus (GPa) = 14.77614 17.88529 16.33072
#
# Velocity S-wave (km/s) = 2.55929 2.81571 2.69056
# Velocity P-wave (km/s) = 4.03379 4.60285 4.32768
#
# Compressibility (1/GPa) = 0.05880487
#
# Stress axis : x y z
#
# Youngs Moduli (GPa) = 34.96461 75.27396 89.84160
#
# Poissons Ratio (x) = -0.17051 -0.13058
# Poissons Ratio (y) = -0.07920 0.07404
# Poissons Ratio (z) = -0.05082 0.06203
#
# Static dielectric constant tensor:
#      x y z
#    x 1.880220 0.000000 0.029240 
#    y 0.000000 1.897900 0.000000 
#    z 0.029240 0.000000 1.857050 
# 
# From -- ./inp_files/258519.got.cif
#   From: 2010.05.17/outbox.cif.g08.bks.cpg/sg12_130_cif.got.tgz:258519.got - 2010.06.03 13:09:07.
