data_PCOD9191922
_publ_section_title
;
Structure prediction by ZEFSAII (Michael W. Deem and Ramdas Pophale) SiO2 
 PCOD9191922
Probable space group: C 2/M
;
_chemical_formula_sum "Si O2"
_cell_formula_units_Z 56
_cell_length_a 18.585580
_cell_length_b 12.299763
_cell_length_c 16.048075
_cell_angle_alpha 90.000000
_cell_angle_beta 61.043232
_cell_angle_gamma 90.000000
_cell_volume 3209.937287
_symmetry_space_group_name_H-M "C 2/M"
_symmetry_group_IT_number 12
_symmetry_cell_setting 'monoclinic'
loop_
_space_group_symop_operation_xyz
x,y,z
-x,y,-z
-x,-y,-z
x,-y,z
1/2+x,1/2+y,z
1/2-x,1/2+y,-z
1/2-x,1/2-y,-z
1/2+x,1/2-y,z
loop_
_atom_site_type_symbol
_atom_site_label
_atom_site_fract_x
_atom_site_fract_y
_atom_site_fract_z
Si Si1 0.005444 0.775327 0.902175
Si Si2 0.337867 0.619793 0.941068
Si Si3 0.048441 0.627663 0.551273
Si Si4 0.520486 0.123068 0.239669
Si Si5 0.258663 0.130969 0.543574
Si Si6 0.794326 0.683774 0.848684
Si Si7 0.316896 0.627145 0.234508
O O1 0.925881 0.850510 0.931096
O O2 0.997331 0.684801 0.835599
O O3 0.091701 0.835380 0.839962
O O4 0.000000 0.733852 0.000000
O O5 0.340309 0.500000 0.905256
O O6 0.314531 0.702036 0.880984
O O7 0.269664 0.628836 0.051564
O O8 0.023211 0.500000 0.570566
O O9 0.145537 0.631090 0.484695
O O10 0.000000 0.675922 0.500000
O O11 0.023673 0.674913 0.654993
O O12 0.617894 0.125113 0.203768
O O13 0.491169 0.000000 0.246336
O O14 0.250000 0.250000 0.500000
O O15 0.202469 0.140678 0.657131
O O16 0.245669 0.000000 0.518945
O O17 0.749432 0.689242 0.785451
O O18 0.306902 0.500000 0.219816
#
# Coordination Sequence:
#
# PCOD9191922 Si02
#       7
#     8   8   8   8   8   8   8
#     4  11  22  34  50  76 107 143 184 217 258 318
#     4  10  20  35  52  71 103 140 173 216 263 308
#     4   9  17  32  56  82 104 133 178 230 279 325
#     4  10  20  34  52  75 107 141 173 219 272 321
#     4  10  21  37  58  83 112 144 181 227 279 331
#     4  10  20  33  52  78 101 132 179 218 260 313
#     4  11  21  35  57  81 105 138 182 226 265 315
#
# _framework density 17.445824000000002
#
# number of rings (size 3 to 8) (size 9 to 14) (size 15 to 20)
#    0.000    1.857    1.429    3.429    0.000    3.143 
#    0.000    1.429    0.000    0.429    0.000    0.000 
#    0.000    0.000    0.000    0.000    0.000    0.000 
#
# Total GULP energy -155895.507678 kJ/mol
# GULP energy per Si atom -5567.696703 kJ/mol
# Density = 1.740612 g / cm^3
# Si number density = 17.445824 Si / 1000 Ang^3
#
#
#
# Elastic Constant Matrix: (Units=GPa)
#
#
# Indices 1 2 3 4 5 6 
#
# 1 80.5592 25.2506 31.8437 0.0000 5.8615 0.0000
# 2 25.2506 69.3231 19.0358 0.0000 16.7016 0.0000
# 3 31.8437 19.0358 100.2983 0.0000 -0.6507 0.0000
# 4 0.0000 0.0000 0.0000 41.8341 0.0000 0.8319
# 5 5.8615 16.7016 -0.6507 0.0000 21.5023 0.0000
# 6 0.0000 0.0000 0.0000 0.8319 0.0000 7.6500
#
#
#
# Elastic Compliance Matrix: (Units=1/GPa)
#
#
# Indices 1 2 3 4 5 6 
#
# 1 0.015442 -0.004249 -0.004103 0.000000 -0.001033 0.000000
# 2 -0.004249 0.020201 -0.002580 0.000000 -0.014611 0.000000
# 3 -0.004103 -0.002580 0.011785 0.000000 0.003479 0.000000
# 4 0.000000 0.000000 0.000000 0.023956 0.000000 -0.002605
# 5 -0.001033 -0.014611 0.003479 0.000000 0.058242 0.000000
# 6 0.000000 0.000000 0.000000 -0.002605 0.000000 0.131003
#
#
# Mechanical properties :
#
#
# Convention : Reuss Voigt Hill
#
# Bulk Modulus (GPa) = 39.11621 44.71564 41.91592
# Shear Modulus (GPa) = 17.18125 25.80064 21.49095
#
# Velocity S-wave (km/s) = 3.14161 3.84982 3.51360
# Velocity P-wave (km/s) = 5.96907 6.74153 6.36703
#
# Compressibility (1/GPa) = 0.02556485
#
# Stress axis : x y z
#
# Youngs Moduli (GPa) = 64.75806 49.50141 84.85296
#
# Poissons Ratio (x) = 0.21034 0.34815
# Poissons Ratio (y) = 0.27517 0.21890
# Poissons Ratio (z) = 0.26570 0.12770
#
# Static dielectric constant tensor:
#      x y z
#    x 1.584510 0.000000 0.004910 
#    y 0.000000 1.620780 0.000000 
#    z 0.004910 0.000000 1.612960 
# 
# From -- ./inp_files/223105.got.cif
#   From: 2010.05.17/outbox.cif.g08.bks.cpg/sg12_112_cif.got.tgz:223105.got - 2010.06.03 13:09:07.
