data_PCOD9191220
_publ_section_title
;
Structure prediction by ZEFSAII (Michael W. Deem and Ramdas Pophale) SiO2 
 PCOD9191220
Probable space group: C 2/M
;
_chemical_formula_sum "Si O2"
_cell_formula_units_Z 46
_cell_length_a 19.426364
_cell_length_b 14.614325
_cell_length_c 9.247544
_cell_angle_alpha 90.000000
_cell_angle_beta 46.070854
_cell_angle_gamma 90.000000
_cell_volume 1890.813851
_symmetry_space_group_name_H-M "C 2/M"
_symmetry_group_IT_number 12
_symmetry_cell_setting 'monoclinic'
loop_
_space_group_symop_operation_xyz
x,y,z
-x,y,-z
-x,-y,-z
x,-y,z
1/2+x,1/2+y,z
1/2-x,1/2+y,-z
1/2-x,1/2-y,-z
1/2+x,1/2-y,z
loop_
_atom_site_type_symbol
_atom_site_label
_atom_site_fract_x
_atom_site_fract_y
_atom_site_fract_z
Si Si1 0.446119 0.343077 0.389312
Si Si2 0.162011 0.846844 0.002196
Si Si3 0.500000 0.500000 0.500000
Si Si4 0.103017 0.602855 0.833845
Si Si5 0.834099 0.369013 0.938076
Si Si6 0.216023 0.110954 0.598051
Si Si7 0.500000 0.172722 0.500000
O O1 0.430321 0.419031 0.534508
O O2 0.367841 0.351650 0.380894
O O3 0.451380 0.243616 0.456582
O O4 0.550917 0.373017 0.176334
O O5 0.236086 0.894582 0.002690
O O6 0.198911 0.860773 0.786992
O O7 0.164808 0.740479 0.039824
O O8 0.083398 0.500000 0.805130
O O9 0.182594 0.643728 0.613658
O O10 0.147341 0.595732 0.928794
O O11 0.000000 0.651087 0.000000
O O12 0.922025 0.385035 0.700550
O O13 0.214289 0.000000 0.591659
#
# Coordination Sequence:
#
# PCOD9191220 Si02
#       7
#     8   8   2   8   8   8   4
#     4  10  21  37  60  94 131 162 205 247 308 378
#     4  10  24  39  61  96 130 159 207 253 304 382
#     4  10  20  32  62  88 128 178 192 240 312 374
#     4  10  25  45  64  89 121 161 215 263 311 368
#     4  10  23  43  65  90 122 168 207 259 313 365
#     4  11  24  40  63  94 129 166 204 256 314 368
#     4   9  22  39  63  90 125 158 218 256 303 364
#
# _framework density 24.328147000000001
#
# number of rings (size 3 to 8) (size 9 to 14) (size 15 to 20)
#    0.000    1.913    0.870    0.522   13.391    4.870 
#    0.000    0.435    0.000    0.000    0.000    0.000 
#    0.000    0.000    0.000    0.000    0.000    0.000 
#
# Total GULP energy -128506.101551 kJ/mol
# GULP energy per Si atom -5587.221807 kJ/mol
# Density = 2.427277 g / cm^3
# Si number density = 24.328147 Si / 1000 Ang^3
#
#
#
# Elastic Constant Matrix: (Units=GPa)
#
#
# Indices 1 2 3 4 5 6 
#
# 1 153.1319 0.3850 74.9593 0.0000 -5.1671 0.0000
# 2 0.3850 56.7383 5.1008 0.0000 -13.3557 0.0000
# 3 74.9593 5.1008 220.8043 0.0000 -13.0231 0.0000
# 4 0.0000 0.0000 0.0000 -4.6456 0.0000 6.8740
# 5 -5.1671 -13.3557 -13.0231 0.0000 36.6673 0.0000
# 6 0.0000 0.0000 0.0000 6.8740 0.0000 22.0932
#
#
#
# Elastic Compliance Matrix: (Units=1/GPa)
#
#
# Indices 1 2 3 4 5 6 
#
# 1 0.007836 0.000244 -0.002651 0.000000 0.000252 0.000000
# 2 0.000244 0.019285 -0.000115 0.000000 0.007018 0.000000
# 3 -0.002651 -0.000115 0.005523 0.000000 0.001546 0.000000
# 4 0.000000 0.000000 0.000000 -0.147398 0.000000 0.045861
# 5 0.000252 0.007018 0.001546 0.000000 0.030413 0.000000
# 6 0.000000 0.000000 0.000000 0.045861 0.000000 0.030994
#
#
# Mechanical properties :
#
#
# Convention : Reuss Voigt Hill
#
# Bulk Modulus (GPa) = 36.22950 65.72943 50.97946
# Shear Modulus (GPa) = -127.86308 34.17161 -46.84573
#
# Velocity S-wave (km/s) = -7.25753 3.75188 -4.39290
# Velocity P-wave (km/s) = 7.43671 6.77092 2.17478
#
# Compressibility (1/GPa) = 0.02760182
#
# Stress axis : x y z
#
# Youngs Moduli (GPa) = 127.61850 51.85255 181.07121
#
# Poissons Ratio (x) = -0.01267 0.48001
# Poissons Ratio (y) = -0.03119 0.02074
# Poissons Ratio (z) = 0.33831 0.00594
#
# Static dielectric constant tensor:
#      x y z
#    x 1.908740 0.000000 -0.028900 
#    y 0.000000 1.991480 0.000000 
#    z -0.028900 0.000000 1.987340 
# 
# From -- ./inp_files/77319.got.cif
#   From: 2010.05.17/outbox.cif.g08.bks.cpg/sg12_39_cif.got.tgz:77319.got - 2010.06.03 13:09:07.
