data_PCOD9191176
_publ_section_title
;
Structure prediction by ZEFSAII (Michael W. Deem and Ramdas Pophale) SiO2 
 PCOD9191176
Probable space group: C 2/M
;
_chemical_formula_sum "Si O2"
_cell_formula_units_Z 48
_cell_length_a 11.201999
_cell_length_b 23.312546
_cell_length_c 11.016522
_cell_angle_alpha 90.000000
_cell_angle_beta 126.555038
_cell_angle_gamma 90.000000
_cell_volume 2310.997399
_symmetry_space_group_name_H-M "C 2/M"
_symmetry_group_IT_number 12
_symmetry_cell_setting 'monoclinic'
loop_
_space_group_symop_operation_xyz
x,y,z
-x,y,-z
-x,-y,-z
x,-y,z
1/2+x,1/2+y,z
1/2-x,1/2+y,-z
1/2-x,1/2-y,-z
1/2+x,1/2-y,z
loop_
_atom_site_type_symbol
_atom_site_label
_atom_site_fract_x
_atom_site_fract_y
_atom_site_fract_z
Si Si1 0.318165 0.935907 0.615610
Si Si2 0.849480 0.716541 0.962745
Si Si3 0.430208 0.435850 0.185978
Si Si4 0.864513 0.843164 0.346911
Si Si5 0.241139 0.566071 0.701268
Si Si6 0.132839 0.601495 0.875683
O O1 0.223322 0.885544 0.616944
O O2 0.322416 0.926955 0.472882
O O3 0.479343 0.932594 0.775285
O O4 0.255804 0.000000 0.596781
O O5 0.745389 0.699664 0.787041
O O6 0.750000 0.750000 0.000000
O O7 0.893555 0.658097 0.060564
O O8 0.000000 0.744106 0.000000
O O9 0.435896 0.500000 0.242625
O O10 0.429410 0.386002 0.284284
O O11 0.580169 0.429514 0.198854
O O12 0.276413 0.429323 0.020135
O O13 0.000000 0.814655 0.500000
O O14 0.205045 0.500000 0.716903
O O15 0.177764 0.609420 0.762021
#
# Coordination Sequence:
#
# PCOD9191176 Si02
#       6
#     8   8   8   8   8   8
#     4  11  21  35  61  94 139 177 208 250 307 378
#     4  11  26  50  73  94 122 163 218 289 344 388
#     4  10  20  32  55  89 130 176 216 253 299 370
#     4  11  22  41  64  94 131 165 212 260 320 391
#     4  10  20  34  55  91 135 178 211 246 302 379
#     4  11  22  38  61  89 127 165 220 262 318 377
#
# _framework density 20.770254000000001
#
# number of rings (size 3 to 8) (size 9 to 14) (size 15 to 20)
#    0.000    1.333    3.333    3.000    0.000    6.000 
#    0.000    5.000    0.000    0.000    0.000    0.000 
#    0.000    0.000    0.000    0.000    0.000    0.000 
#
# Total GULP energy -134054.988309 kJ/mol
# GULP energy per Si atom -5585.624513 kJ/mol
# Density = 2.072298 g / cm^3
# Si number density = 20.770254 Si / 1000 Ang^3
#
#
#
# Elastic Constant Matrix: (Units=GPa)
#
#
# Indices 1 2 3 4 5 6 
#
# 1 83.1233 13.8812 33.0941 0.0000 5.5996 0.0000
# 2 13.8812 16.6580 21.1493 0.0000 4.7228 0.0000
# 3 33.0941 21.1493 140.4740 0.0000 17.4622 0.0000
# 4 0.0000 0.0000 0.0000 -0.6661 0.0000 -7.9284
# 5 5.5996 4.7228 17.4622 0.0000 35.6940 0.0000
# 6 0.0000 0.0000 0.0000 -7.9284 0.0000 31.0912
#
#
#
# Elastic Compliance Matrix: (Units=1/GPa)
#
#
# Indices 1 2 3 4 5 6 
#
# 1 0.014399 -0.009503 -0.001956 0.000000 -0.000045 0.000000
# 2 -0.009503 0.081216 -0.009411 0.000000 -0.004651 0.000000
# 3 -0.001956 -0.009411 0.009374 0.000000 -0.003034 0.000000
# 4 0.000000 0.000000 0.000000 -0.372050 0.000000 -0.094874
# 5 -0.000045 -0.004651 -0.003034 0.000000 0.030123 0.000000
# 6 0.000000 0.000000 0.000000 -0.094874 0.000000 0.007970
#
#
# Mechanical properties :
#
#
# Convention : Reuss Voigt Hill
#
# Bulk Modulus (GPa) = 15.81024 41.83383 28.82203
# Shear Modulus (GPa) = -30.09399 24.69922 -2.69739
#
# Velocity S-wave (km/s) = -3.81057 3.45217 -1.14083
# Velocity P-wave (km/s) = 3.42522 6.00624 3.48875
#
# Compressibility (1/GPa) = 0.06325015
#
# Stress axis : x y z
#
# Youngs Moduli (GPa) = 69.44938 12.31278 106.68343
#
# Poissons Ratio (x) = 0.11700 0.20867
# Poissons Ratio (y) = 0.65995 1.00397
# Poissons Ratio (z) = 0.13584 0.11587
#
# Static dielectric constant tensor:
#      x y z
#    x 1.772870 0.000000 0.014460 
#    y 0.000000 1.695390 0.000000 
#    z 0.014460 0.000000 1.763690 
# 
# From -- ./inp_files/133739.got.cif
#   From: 2010.05.17/outbox.cif.g08.bks.cpg/sg12_67_cif.got.tgz:133739.got - 2010.06.03 13:09:07.
