data_PCOD9191907
_publ_section_title
;
Structure prediction by ZEFSAII (Michael W. Deem and Ramdas Pophale) SiO2 
 PCOD9191907
Probable space group: C 2/M
;
_chemical_formula_sum "Si O2"
_cell_formula_units_Z 64
_cell_length_a 22.828931
_cell_length_b 9.178459
_cell_length_c 24.109498
_cell_angle_alpha 90.000000
_cell_angle_beta 45.906967
_cell_angle_gamma 90.000000
_cell_volume 3628.235895
_symmetry_space_group_name_H-M "C 2/M"
_symmetry_group_IT_number 12
_symmetry_cell_setting 'monoclinic'
loop_
_space_group_symop_operation_xyz
x,y,z
-x,y,-z
-x,-y,-z
x,-y,z
1/2+x,1/2+y,z
1/2-x,1/2+y,-z
1/2-x,1/2-y,-z
1/2+x,1/2-y,z
loop_
_atom_site_type_symbol
_atom_site_label
_atom_site_fract_x
_atom_site_fract_y
_atom_site_fract_z
Si Si1 0.409698 0.825589 0.035602
Si Si2 0.311957 0.668350 0.419210
Si Si3 0.426897 0.333263 0.504878
Si Si4 0.784768 0.825986 0.033535
Si Si5 0.728503 0.171868 0.781086
Si Si6 0.485113 0.325015 0.343088
Si Si7 0.733095 0.167990 0.351785
Si Si8 0.848678 0.670987 0.781572
O O1 0.364737 0.745327 0.012454
O O2 0.347952 0.802999 0.127918
O O3 0.412916 0.000000 0.021160
O O4 0.500000 0.782600 0.000000
O O5 0.312178 0.500000 0.437121
O O6 0.250000 0.750000 0.500000
O O7 0.404248 0.720144 0.363679
O O8 0.282497 0.676218 0.376116
O O9 0.500000 0.332493 0.500000
O O10 0.396118 0.500000 0.519425
O O11 0.463195 0.289190 0.421435
O O12 0.354689 0.234708 0.575500
O O13 0.711400 0.810495 0.126504
O O14 0.798925 0.000000 0.015111
O O15 0.750000 0.750000 0.000000
O O16 0.721894 0.242292 0.725442
O O17 0.805620 0.247318 0.759122
O O18 0.741949 0.000000 0.767932
O O19 0.497924 0.500000 0.331060
O O20 0.563742 0.243104 0.269145
O O21 0.725137 0.000000 0.339847
O O22 0.856003 0.500000 0.765322
#
# Coordination Sequence:
#
# PCOD9191907 Si02
#       8
#     8   8   8   8   8   8   8   8
#     4   9  19  38  63  89 119 152 190 237 288 346
#     4  10  21  37  55  75 104 146 186 227 275 325
#     4  10  20  33  52  77 103 136 180 225 270 325
#     4  10  21  38  61  89 121 156 193 235 284 342
#     4  10  20  36  59  83 110 148 183 220 278 336
#     4  10  20  35  54  77 109 145 183 223 272 332
#     4  11  22  35  53  78 108 140 182 231 274 320
#     4  10  21  37  58  85 114 143 181 231 278 322
#
# _framework density 17.639427000000001
#
# number of rings (size 3 to 8) (size 9 to 14) (size 15 to 20)
#    0.000    2.000    1.250    2.250    0.000    5.000 
#    2.250    0.000    0.000    0.000    0.000    0.000 
#    0.000    0.000    0.000    0.000    0.000    0.000 
#
# Total GULP energy -178451.485861 kJ/mol
# GULP energy per Si atom -5576.608933 kJ/mol
# Density = 1.759928 g / cm^3
# Si number density = 17.639427 Si / 1000 Ang^3
#
#
#
# Elastic Constant Matrix: (Units=GPa)
#
#
# Indices 1 2 3 4 5 6 
#
# 1 113.3284 61.9969 42.6189 -0.0001 -17.5295 0.0001
# 2 61.9969 89.0745 51.7206 -0.0003 -3.6594 0.0003
# 3 42.6189 51.7206 53.0381 -0.0001 -10.3635 0.0001
# 4 -0.0001 -0.0003 -0.0001 30.7523 0.0001 1.7708
# 5 -17.5295 -3.6594 -10.3635 0.0001 30.1330 -0.0001
# 6 0.0001 0.0003 0.0001 1.7708 -0.0001 42.4338
#
#
#
# Elastic Compliance Matrix: (Units=1/GPa)
#
#
# Indices 1 2 3 4 5 6 
#
# 1 0.016029 -0.009725 -0.001935 0.000000 0.007478 0.000000
# 2 -0.009725 0.032812 -0.026274 0.000000 -0.010709 0.000000
# 3 -0.001935 -0.026274 0.048443 0.000000 0.012344 0.000000
# 4 0.000000 0.000000 0.000000 0.032596 0.000000 -0.001360
# 5 0.007478 -0.010709 0.012344 0.000000 0.040481 0.000000
# 6 0.000000 0.000000 0.000000 -0.001360 0.000000 0.023623
#
#
# Mechanical properties :
#
#
# Convention : Reuss Voigt Hill
#
# Bulk Modulus (GPa) = 46.69847 63.12377 54.91112
# Shear Modulus (GPa) = 18.05119 27.27080 22.66099
#
# Velocity S-wave (km/s) = 3.20244 3.93620 3.58813
# Velocity P-wave (km/s) = 6.34079 7.51808 6.95439
#
# Compressibility (1/GPa) = 0.02141398
#
# Stress axis : x y z
#
# Youngs Moduli (GPa) = 62.38879 30.47706 20.64294
#
# Poissons Ratio (x) = 0.29640 0.03994
# Poissons Ratio (y) = 0.60676 0.54238
# Poissons Ratio (z) = 0.12071 0.80076
#
# Static dielectric constant tensor:
#      x y z
#    x 1.614520 0.000000 0.001130 
#    y 0.000000 1.608970 0.000000 
#    z 0.001130 0.000000 1.570640 
# 
# From -- ./inp_files/345980.got.cif
#   From: 2010.05.17/outbox.cif.g08.bks.cpg/sg12_173_cif.got.tgz:345980.got - 2010.06.03 13:09:07.
