data_PCOD9191526
_publ_section_title
;
Structure prediction by ZEFSAII (Michael W. Deem and Ramdas Pophale) SiO2 
 PCOD9191526
Probable space group: C 2/M
;
_chemical_formula_sum "Si O2"
_cell_formula_units_Z 56
_cell_length_a 17.472016
_cell_length_b 24.822569
_cell_length_c 14.156796
_cell_angle_alpha 90.000000
_cell_angle_beta 23.580621
_cell_angle_gamma 90.000000
_cell_volume 2456.162684
_symmetry_space_group_name_H-M "C 2/M"
_symmetry_group_IT_number 12
_symmetry_cell_setting 'monoclinic'
loop_
_space_group_symop_operation_xyz
x,y,z
-x,y,-z
-x,-y,-z
x,-y,z
1/2+x,1/2+y,z
1/2-x,1/2+y,-z
1/2-x,1/2-y,-z
1/2+x,1/2-y,z
loop_
_atom_site_type_symbol
_atom_site_label
_atom_site_fract_x
_atom_site_fract_y
_atom_site_fract_z
Si Si1 0.503811 0.167015 0.768290
Si Si2 0.099467 0.773406 0.029752
Si Si3 0.313929 0.773972 0.609369
Si Si4 0.923808 0.563137 0.760321
Si Si5 0.496678 0.439693 0.252120
Si Si6 0.684961 0.437198 0.743338
Si Si7 0.086938 0.168281 0.589248
O O1 0.375366 0.211363 0.966457
O O2 0.551445 0.191710 0.611300
O O3 0.430660 0.106711 0.836676
O O4 0.704625 0.167136 0.596671
O O5 0.894168 0.775382 0.207889
O O6 0.063224 0.809270 0.162896
O O7 0.264675 0.790643 0.771178
O O8 0.389866 0.712664 0.517424
O O9 0.957721 0.500000 0.748237
O O10 0.095600 0.579443 0.495661
O O11 0.708237 0.565123 0.967108
O O12 0.477981 0.500000 0.310938
O O13 0.354858 0.433198 0.323925
O O14 0.466268 0.393677 0.363578
O O15 0.683217 0.500000 0.774507
O O16 0.500000 0.409840 0.000000
#
# Coordination Sequence:
#
# PCOD9191526 Si02
#       7
#     8   8   8   8   8   8   8
#     4   9  16  29  50  75 101 133 172 209 254 309
#     4   8  15  28  48  74 102 132 168 213 260 304
#     4   8  15  28  48  74 102 132 168 213 260 304
#     4  10  20  33  50  73 102 136 171 209 254 301
#     4  10  20  33  50  73 102 136 171 209 254 301
#     4   9  18  32  48  67  95 133 173 209 247 296
#     4   9  16  29  50  75 101 133 172 209 254 309
#
# _framework density 22.799793999999999
#
# number of rings (size 3 to 8) (size 9 to 14) (size 15 to 20)
#    0.000    3.000    1.429    1.714    0.000    1.714 
#    0.000    5.714    0.000    3.429    0.000    6.000 
#    0.000    0.000    0.000    0.000    0.000    0.000 
#
# Total GULP energy -156242.748531 kJ/mol
# GULP energy per Si atom -5580.098162 kJ/mol
# Density = 2.274790 g / cm^3
# Si number density = 22.799794 Si / 1000 Ang^3
#
#
#
# Elastic Constant Matrix: (Units=GPa)
#
#
# Indices 1 2 3 4 5 6 
#
# 1 49.6770 -0.9173 7.7325 0.0432 -14.8155 -0.0213
# 2 -0.9173 104.6153 -1.3090 -0.0114 -2.5346 -0.0364
# 3 7.7325 -1.3090 48.2209 0.0072 -9.2663 -0.0260
# 4 0.0432 -0.0114 0.0072 15.5003 -0.0465 -1.4893
# 5 -14.8155 -2.5346 -9.2663 -0.0465 25.5087 0.0339
# 6 -0.0213 -0.0364 -0.0260 -1.4893 0.0339 9.3100
#
#
#
# Elastic Compliance Matrix: (Units=1/GPa)
#
#
# Indices 1 2 3 4 5 6 
#
# 1 0.024450 0.000533 -0.001255 -0.000026 0.013798 0.000000
# 2 0.000533 0.009604 0.000449 0.000013 0.001427 0.000037
# 3 -0.001255 0.000449 0.022382 0.000019 0.007446 0.000037
# 4 -0.000026 0.000013 0.000019 0.065522 0.000099 0.010481
# 5 0.013798 0.001427 0.007446 0.000099 0.050063 -0.000109
# 6 0.000000 0.000037 0.000037 0.010481 -0.000109 0.109089
#
#
# Mechanical properties :
#
#
# Convention : Reuss Voigt Hill
#
# Bulk Modulus (GPa) = 17.89183 23.72506 20.80845
# Shear Modulus (GPa) = 16.65083 23.19761 19.92422
#
# Velocity S-wave (km/s) = 2.70535 3.19321 2.95935
# Velocity P-wave (km/s) = 4.19797 4.90141 4.56327
#
# Compressibility (1/GPa) = 0.05589143
#
# Stress axis : x y z
#
# Youngs Moduli (GPa) = 40.89939 104.12634 44.67828
#
# Poissons Ratio (x) = -0.05550 0.05606
# Poissons Ratio (y) = -0.02180 -0.02008
# Poissons Ratio (z) = 0.05132 -0.04680
#
# Static dielectric constant tensor:
#      x y z
#    x 1.866670 -0.000010 -0.048710 
#    y -0.000010 1.884990 0.000060 
#    z -0.048710 0.000060 1.874010 
# 
# From -- ./inp_files/291148.got.cif
#   From: 2010.05.17/outbox.cif.g08.bks.cpg/sg12_146_cif.got.tgz:291148.got - 2010.06.03 13:09:07.
