data_PCOD9191211
_publ_section_title
;
Structure prediction by ZEFSAII (Michael W. Deem and Ramdas Pophale) SiO2 
 PCOD9191211
Probable space group: C 2/M
;
_chemical_formula_sum "Si O2"
_cell_formula_units_Z 38
_cell_length_a 9.782848
_cell_length_b 30.360163
_cell_length_c 7.557780
_cell_angle_alpha 90.000000
_cell_angle_beta 51.390915
_cell_angle_gamma 90.000000
_cell_volume 1754.078511
_symmetry_space_group_name_H-M "C 2/M"
_symmetry_group_IT_number 12
_symmetry_cell_setting 'monoclinic'
loop_
_space_group_symop_operation_xyz
x,y,z
-x,y,-z
-x,-y,-z
x,-y,z
1/2+x,1/2+y,z
1/2-x,1/2+y,-z
1/2-x,1/2-y,-z
1/2+x,1/2-y,z
loop_
_atom_site_type_symbol
_atom_site_label
_atom_site_fract_x
_atom_site_fract_y
_atom_site_fract_z
Si Si1 0.439693 0.376916 0.254089
Si Si2 0.000000 0.500000 0.000000
Si Si3 0.500000 0.156463 0.000000
Si Si4 0.291518 0.048012 0.661101
Si Si5 0.684364 0.707443 0.448475
Si Si6 0.222182 0.579685 0.937684
O O1 0.288729 0.413171 0.385253
O O2 0.367271 0.330866 0.374344
O O3 0.599449 0.394533 0.243957
O O4 0.500000 0.373630 0.000000
O O5 0.148894 0.540035 0.877930
O O6 0.657366 0.186768 0.798090
O O7 0.584528 0.120444 0.067463
O O8 0.500000 0.048403 0.500000
O O9 0.233055 0.000000 0.647071
O O10 0.241463 0.055696 0.905136
O O11 0.500000 0.717671 0.500000
O O12 0.750000 0.750000 0.500000
#
# Coordination Sequence:
#
# PCOD9191211 Si02
#       6
#     8   2   4   8   8   8
#     4  10  23  42  69 101 141 181 231 292 354 420
#     4  10  20  32  60 102 134 194 224 276 344 404
#     4  11  24  45  74  96 142 186 219 298 355 422
#     4  10  20  35  60  95 137 181 232 274 336 412
#     4  12  28  49  75 106 138 180 244 299 370 434
#     4  10  20  38  65  94 141 181 228 275 340 414
#
# _framework density 21.663796999999999
#
# number of rings (size 3 to 8) (size 9 to 14) (size 15 to 20)
#    0.000    1.474    3.158    1.263    2.947    6.316 
#    0.000    0.000    0.000    4.421    0.000    0.000 
#    0.000    0.000    0.000    0.000    0.000    0.000 
#
# Total GULP energy -105778.636793 kJ/mol
# GULP energy per Si atom -5567.296673 kJ/mol
# Density = 2.161449 g / cm^3
# Si number density = 21.663797 Si / 1000 Ang^3
#
#
#
# Elastic Constant Matrix: (Units=GPa)
#
#
# Indices 1 2 3 4 5 6 
#
# 1 97.8584 91.5556 36.2716 0.0000 -26.0410 0.0000
# 2 91.5556 238.1408 64.4871 0.0000 -23.7124 0.0000
# 3 36.2716 64.4871 96.0329 0.0000 -19.1210 0.0000
# 4 0.0000 0.0000 0.0000 51.5692 0.0000 -23.8318
# 5 -26.0410 -23.7124 -19.1210 0.0000 25.2342 0.0000
# 6 0.0000 0.0000 0.0000 -23.8318 0.0000 63.0227
#
#
#
# Elastic Compliance Matrix: (Units=1/GPa)
#
#
# Indices 1 2 3 4 5 6 
#
# 1 0.019970 -0.006081 -0.000581 0.000000 0.014454 0.000000
# 2 -0.006081 0.007134 -0.002836 0.000000 -0.001721 0.000000
# 3 -0.000581 -0.002836 0.013999 0.000000 0.007343 0.000000
# 4 0.000000 0.000000 0.000000 0.023498 0.000000 0.008886
# 5 0.014454 -0.001721 0.007343 0.000000 0.058491 0.000000
# 6 0.000000 0.000000 0.000000 0.008886 0.000000 0.019227
#
#
# Mechanical properties :
#
#
# Convention : Reuss Voigt Hill
#
# Bulk Modulus (GPa) = 45.23724 90.74007 67.98865
# Shear Modulus (GPa) = 29.64107 43.94641 36.79374
#
# Velocity S-wave (km/s) = 3.70297 4.50885 4.12563
# Velocity P-wave (km/s) = 6.26175 8.31160 7.35841
#
# Compressibility (1/GPa) = 0.02210568
#
# Stress axis : x y z
#
# Youngs Moduli (GPa) = 50.07535 140.17802 71.43240
#
# Poissons Ratio (x) = 0.85243 0.04152
# Poissons Ratio (y) = 0.30451 0.20260
# Poissons Ratio (z) = 0.02911 0.39759
#
# Static dielectric constant tensor:
#      x y z
#    x 1.836910 0.000000 0.067370 
#    y 0.000000 1.660370 0.000000 
#    z 0.067370 0.000000 1.608970 
# 
# From -- ./inp_files/54017.got.cif
#   From: 2010.05.17/outbox.cif.g08.bks.cpg/sg12_28_cif.got.tgz:54017.got - 2010.06.03 13:09:07.
