data_PCOD9191029
_publ_section_title
;
Structure prediction by ZEFSAII (Michael W. Deem and Ramdas Pophale) SiO2 
 PCOD9191029
Probable space group: C 2/M
;
_chemical_formula_sum "Si O2"
_cell_formula_units_Z 32
_cell_length_a 8.755115
_cell_length_b 25.464613
_cell_length_c 8.494877
_cell_angle_alpha 90.000000
_cell_angle_beta 63.460648
_cell_angle_gamma 90.000000
_cell_volume 1694.331431
_symmetry_space_group_name_H-M "C 2/M"
_symmetry_group_IT_number 12
_symmetry_cell_setting 'monoclinic'
loop_
_space_group_symop_operation_xyz
x,y,z
-x,y,-z
-x,-y,-z
x,-y,z
1/2+x,1/2+y,z
1/2-x,1/2+y,-z
1/2-x,1/2-y,-z
1/2+x,1/2-y,z
loop_
_atom_site_type_symbol
_atom_site_label
_atom_site_fract_x
_atom_site_fract_y
_atom_site_fract_z
Si Si1 0.029538 0.902536 0.676436
Si Si2 0.185095 0.192701 0.491510
Si Si3 0.656328 0.500000 0.804928
Si Si4 0.023723 0.500000 0.800206
Si Si5 0.843490 0.390531 0.190157
O O1 0.136831 0.849121 0.649810
O O2 0.833709 0.898902 0.823768
O O3 0.000000 0.909779 0.500000
O O4 0.127782 0.949553 0.709657
O O5 0.250000 0.250000 0.500000
O O6 0.307745 0.159291 0.318970
O O7 0.000000 0.200805 0.500000
O O8 0.840836 0.500000 0.800962
O O9 0.500000 0.500000 0.000000
O O10 0.119721 0.444529 0.729598
O O11 0.000000 0.500000 0.000000
O O12 0.000000 0.382032 0.000000
#
# Coordination Sequence:
#
# PCOD9191029 Si02
#       5
#     8   8   4   4   8
#     4   9  20  38  56  78 113 150 180 223 277 326
#     4   9  20  37  55  75 107 145 181 224 274 323
#     4  12  21  32  56  87 113 146 186 223 268 330
#     4  10  20  32  51  83 116 140 171 225 277 318
#     4   9  17  35  57  77 106 144 179 224 275 320
#
# _framework density 18.886507000000002
#
# number of rings (size 3 to 8) (size 9 to 14) (size 15 to 20)
#    0.000    3.000    0.000    4.125    0.000    5.000 
#    0.000   15.625    0.000    0.000    0.000    0.000 
#    0.000    0.000    0.000    0.000    0.000    0.000 
#
# Total GULP energy -89104.508573 kJ/mol
# GULP energy per Si atom -5569.031786 kJ/mol
# Density = 1.884352 g / cm^3
# Si number density = 18.886507 Si / 1000 Ang^3
#
#
#
# Elastic Constant Matrix: (Units=GPa)
#
#
# Indices 1 2 3 4 5 6 
#
# 1 104.7988 91.3623 44.0543 0.0000 -19.1078 0.0000
# 2 91.3623 235.8198 51.6058 0.0000 -7.0015 0.0000
# 3 44.0543 51.6058 62.4247 0.0000 -24.4444 0.0000
# 4 0.0000 0.0000 0.0000 15.1819 0.0000 -3.2113
# 5 -19.1078 -7.0015 -24.4444 0.0000 34.4513 0.0000
# 6 0.0000 0.0000 0.0000 -3.2113 0.0000 37.3676
#
#
#
# Elastic Compliance Matrix: (Units=1/GPa)
#
#
# Indices 1 2 3 4 5 6 
#
# 1 0.017616 -0.005293 -0.006441 0.000000 0.004124 0.000000
# 2 -0.005293 0.006962 -0.003622 0.000000 -0.004091 0.000000
# 3 -0.006441 -0.003622 0.030288 0.000000 0.017181 0.000000
# 4 0.000000 0.000000 0.000000 0.067088 0.000000 0.005765
# 5 0.004124 -0.004091 0.017181 0.000000 0.042673 0.000000
# 6 0.000000 0.000000 0.000000 0.005765 0.000000 0.027257
#
#
# Mechanical properties :
#
#
# Convention : Reuss Voigt Hill
#
# Bulk Modulus (GPa) = 41.40306 86.34312 63.87309
# Shear Modulus (GPa) = 21.67808 31.80154 26.73981
#
# Velocity S-wave (km/s) = 3.39161 4.10789 3.76681
# Velocity P-wave (km/s) = 6.10794 8.26534 7.26714
#
# Compressibility (1/GPa) = 0.02415281
#
# Stress axis : x y z
#
# Youngs Moduli (GPa) = 56.76624 143.63015 33.01683
#
# Poissons Ratio (x) = 0.76021 0.21268
# Poissons Ratio (y) = 0.30045 0.11960
# Poissons Ratio (z) = 0.36566 0.52027
#
# Static dielectric constant tensor:
#      x y z
#    x 1.660610 0.000000 -0.027060 
#    y 0.000000 1.701230 0.000000 
#    z -0.027060 0.000000 1.728580 
# 
# From -- ./inp_files/39781.got.cif
#   From: 2010.05.17/outbox.cif.g08.bks.cpg/sg12_20_cif.got.tgz:39781.got - 2010.06.03 13:09:07.
