data_PCOD9191810
_publ_section_title
;
Structure prediction by ZEFSAII (Michael W. Deem and Ramdas Pophale) SiO2 
 PCOD9191810
Probable space group: C 2/M
;
_chemical_formula_sum "Si O2"
_cell_formula_units_Z 56
_cell_length_a 13.713235
_cell_length_b 11.524525
_cell_length_c 28.868169
_cell_angle_alpha 90.000000
_cell_angle_beta 33.658275
_cell_angle_gamma 90.000000
_cell_volume 2528.592347
_symmetry_space_group_name_H-M "C 2/M"
_symmetry_group_IT_number 12
_symmetry_cell_setting 'monoclinic'
loop_
_space_group_symop_operation_xyz
x,y,z
-x,y,-z
-x,-y,-z
x,-y,z
1/2+x,1/2+y,z
1/2-x,1/2+y,-z
1/2-x,1/2-y,-z
1/2+x,1/2-y,z
loop_
_atom_site_type_symbol
_atom_site_label
_atom_site_fract_x
_atom_site_fract_y
_atom_site_fract_z
Si Si1 0.911483 0.674268 0.805216
Si Si2 0.801006 0.129894 0.618856
Si Si3 0.973866 0.870574 0.061493
Si Si4 0.836677 0.294699 0.419013
Si Si5 0.173169 0.629771 0.334098
Si Si6 0.939827 0.258454 0.164822
Si Si7 0.591844 0.366962 0.262804
O O1 0.738415 0.619582 0.852394
O O2 0.903261 0.804164 0.788341
O O3 0.093723 0.624345 0.714437
O O4 0.925220 0.676682 0.854934
O O5 0.797858 0.148843 0.564498
O O6 0.852715 0.253402 0.623349
O O7 0.872844 0.000000 0.602911
O O8 0.024074 0.795128 0.085719
O O9 0.051079 0.000000 0.031693
O O10 0.000000 0.818010 0.000000
O O11 0.750000 0.250000 0.500000
O O12 0.000598 0.372965 0.369893
O O13 0.933299 0.190106 0.354059
O O14 0.192382 0.500000 0.347800
O O15 0.339436 0.660961 0.235616
O O16 0.776732 0.340353 0.214850
O O17 0.563058 0.500000 0.269624
#
# Coordination Sequence:
#
# PCOD9191810 Si02
#       7
#     8   8   8   8   8   8   8
#     4   9  19  34  55  77 104 141 178 222 271 324
#     4  10  21  38  59  83 110 143 187 234 278 326
#     4  10  20  33  51  78 108 136 172 218 267 325
#     4  10  22  37  54  80 112 150 184 220 278 339
#     4  10  21  38  59  83 110 143 187 234 278 326
#     4   9  19  34  55  77 104 141 178 222 271 324
#     4   9  19  34  53  79 105 134 181 233 269 314
#
# _framework density 22.146709999999999
#
# number of rings (size 3 to 8) (size 9 to 14) (size 15 to 20)
#    0.000    2.429    0.000    2.143    0.000   13.714 
#    0.000    1.429    0.000    6.857    0.000    0.000 
#    0.000    0.000    0.000    0.000    0.000    0.000 
#
# Total GULP energy -156159.053619 kJ/mol
# GULP energy per Si atom -5577.109058 kJ/mol
# Density = 2.209630 g / cm^3
# Si number density = 22.146710 Si / 1000 Ang^3
#
#
#
# Elastic Constant Matrix: (Units=GPa)
#
#
# Indices 1 2 3 4 5 6 
#
# 1 88.8292 27.6610 0.8846 0.0000 19.6221 0.0000
# 2 27.6610 173.0715 14.5412 0.0000 12.6135 0.0000
# 3 0.8846 14.5412 53.3469 -0.0001 27.3758 0.0000
# 4 0.0000 0.0000 -0.0001 6.8061 0.0001 6.5374
# 5 19.6221 12.6135 27.3758 0.0001 38.6177 0.0000
# 6 0.0000 0.0000 0.0000 6.5374 0.0000 1.4564
#
#
#
# Elastic Compliance Matrix: (Units=1/GPa)
#
#
# Indices 1 2 3 4 5 6 
#
# 1 0.014164 -0.001973 0.005761 0.000000 -0.010637 0.000000
# 2 -0.001973 0.006226 -0.001784 0.000000 0.000234 0.000000
# 3 0.005761 -0.001784 0.031969 0.000000 -0.025007 0.000001
# 4 0.000000 0.000000 0.000000 -0.044368 0.000001 0.199158
# 5 -0.010637 0.000234 -0.025007 0.000001 0.048950 -0.000002
# 6 0.000000 0.000000 0.000001 0.199158 -0.000002 -0.207345
#
#
# Mechanical properties :
#
#
# Convention : Reuss Voigt Hill
#
# Bulk Modulus (GPa) = 17.74069 44.60236 31.17152
# Shear Modulus (GPa) = -36.86686 27.52009 -4.67338
#
# Velocity S-wave (km/s) = -4.08446 3.52892 -1.45423
# Velocity P-wave (km/s) = 3.77039 6.06527 3.35944
#
# Compressibility (1/GPa) = 0.05636760
#
# Stress axis : x y z
#
# Youngs Moduli (GPa) = 70.60124 160.61374 31.28059
#
# Poissons Ratio (x) = 0.31683 -0.18021
# Poissons Ratio (y) = 0.13927 0.05581
# Poissons Ratio (z) = -0.40675 0.28657
#
# Static dielectric constant tensor:
#      x y z
#    x 1.888830 0.000000 -0.018130 
#    y 0.000000 1.828020 0.000000 
#    z -0.018130 0.000000 1.863460 
# 
# From -- ./inp_files/360772.got.cif
#   From: 2010.05.17/outbox.cif.g08.bks.cpg/sg12_181_cif.got.tgz:360772.got - 2010.06.03 13:09:07.
