data_PCOD9191141
_publ_section_title
;
Structure prediction by ZEFSAII (Michael W. Deem and Ramdas Pophale) SiO2 
 PCOD9191141
Probable space group: C 2/M
;
_chemical_formula_sum "Si O2"
_cell_formula_units_Z 58
_cell_length_a 22.344611
_cell_length_b 7.316417
_cell_length_c 26.101326
_cell_angle_alpha 90.000000
_cell_angle_beta 146.752605
_cell_angle_gamma 90.000000
_cell_volume 2339.465172
_symmetry_space_group_name_H-M "C 2/M"
_symmetry_group_IT_number 12
_symmetry_cell_setting 'monoclinic'
loop_
_space_group_symop_operation_xyz
x,y,z
-x,y,-z
-x,-y,-z
x,-y,z
1/2+x,1/2+y,z
1/2-x,1/2+y,-z
1/2-x,1/2-y,-z
1/2+x,1/2-y,z
loop_
_atom_site_type_symbol
_atom_site_label
_atom_site_fract_x
_atom_site_fract_y
_atom_site_fract_z
Si Si1 0.350706 0.206549 0.174770
Si Si2 0.385143 0.721067 0.979368
Si Si3 0.419705 0.209642 0.692672
Si Si4 0.333008 0.289115 0.366636
Si Si5 0.184616 0.222951 0.529040
Si Si6 0.554759 0.278575 0.653436
Si Si7 0.000000 0.500000 0.000000
Si Si8 0.908262 0.781294 0.803976
O O1 0.229947 0.277031 0.077770
O O2 0.463958 0.296372 0.238021
O O3 0.363905 0.206209 0.245585
O O4 0.351754 0.000000 0.154762
O O5 0.384633 0.500000 0.971333
O O6 0.487371 0.775272 0.088471
O O7 0.408387 0.838438 0.945935
O O8 0.301656 0.289507 0.592273
O O9 0.415069 0.209342 0.751086
O O10 0.422494 0.000000 0.676527
O O11 0.365234 0.500000 0.396402
O O12 0.328531 0.214087 0.421047
O O13 0.411674 0.214285 0.379183
O O14 0.208443 0.279346 0.257922
O O15 0.069675 0.272855 0.421647
O O16 0.191221 0.000000 0.534068
O O17 0.560737 0.500000 0.657876
O O18 0.908564 0.000000 0.801972
#
# Coordination Sequence:
#
# PCOD9191141 Si02
#       8
#     8   8   8   8   8   8   2   8
#     4  10  23  41  55  80 119 157 193 245 304 350
#     4  10  25  43  61  93 131 160 201 250 297 354
#     4   9  19  38  63  81 109 153 200 244 296 363
#     4   9  18  32  55  81 113 150 193 236 291 362
#     4   8  15  32  55  83 110 144 193 250 295 345
#     4  10  20  32  54  83 114 149 197 244 292 358
#     4  12  26  40  72  90 124 170 206 236 296 374
#     4  10  21  37  58  86 115 150 191 248 307 344
#
# _framework density 24.791992
#
# number of rings (size 3 to 8) (size 9 to 14) (size 15 to 20)
#    0.000    2.483    0.000    1.862    4.828    3.862 
#    0.000    2.759    0.000    4.138    0.000    0.000 
#    0.000    0.000    0.000    0.000    0.000    0.000 
#
# Total GULP energy -161750.386810 kJ/mol
# GULP energy per Si atom -5577.599545 kJ/mol
# Density = 2.473556 g / cm^3
# Si number density = 24.791992 Si / 1000 Ang^3
#
#
#
# Elastic Constant Matrix: (Units=GPa)
#
#
# Indices 1 2 3 4 5 6 
#
# 1 88.0513 8.7063 23.8224 0.0000 40.2961 0.0001
# 2 8.7063 119.1446 2.5574 0.0004 8.3381 0.0013
# 3 23.8224 2.5574 150.5355 0.0001 38.7287 0.0002
# 4 0.0000 0.0004 0.0001 3.0088 0.0002 -8.1913
# 5 40.2961 8.3381 38.7287 0.0002 53.1531 0.0006
# 6 0.0001 0.0013 0.0002 -8.1913 0.0006 -0.0392
#
#
#
# Elastic Compliance Matrix: (Units=1/GPa)
#
#
# Indices 1 2 3 4 5 6 
#
# 1 0.017480 -0.000330 0.000782 -0.000001 -0.013770 -0.000001
# 2 -0.000330 0.008500 0.000229 0.000001 -0.001250 0.000001
# 3 0.000782 0.000229 0.008218 0.000000 -0.006616 0.000000
# 4 -0.000001 0.000001 0.000000 0.000584 0.000002 -0.121866
# 5 -0.013770 -0.001250 -0.006616 0.000002 0.034269 0.000001
# 6 -0.000001 0.000001 0.000000 -0.121866 0.000001 -0.044763
#
#
# Mechanical properties :
#
#
# Convention : Reuss Voigt Hill
#
# Bulk Modulus (GPa) = 28.12225 47.54485 37.83355
# Shear Modulus (GPa) = 143.76809 32.73421 88.25115
#
# Velocity S-wave (km/s) = 7.62336 3.63761 5.97276
# Velocity P-wave (km/s) = 9.42631 6.07141 7.92835
#
# Compressibility (1/GPa) = 0.03555904
#
# Stress axis : x y z
#
# Youngs Moduli (GPa) = 57.20934 117.64896 121.69151
#
# Poissons Ratio (x) = 0.03888 -0.09516
# Poissons Ratio (y) = 0.01891 -0.02793
# Poissons Ratio (z) = -0.04474 -0.02700
#
# Static dielectric constant tensor:
#      x y z
#    x 1.996290 0.000000 -0.002860 
#    y 0.000000 1.911760 0.000000 
#    z -0.002860 0.000000 1.979290 
# 
# From -- ./inp_files/382065.got.cif
#   From: 2010.05.17/outbox.cif.g08.bks.cpg/sg12_192_cif.got.tgz:382065.got - 2010.06.03 13:09:07.
