data_PCOD9191545
_publ_section_title
;
Structure prediction by ZEFSAII (Michael W. Deem and Ramdas Pophale) SiO2 
 PCOD9191545
Probable space group: C 2/M
;
_chemical_formula_sum "Si O2"
_cell_formula_units_Z 44
_cell_length_a 10.540089
_cell_length_b 14.229816
_cell_length_c 24.346522
_cell_angle_alpha 90.000000
_cell_angle_beta 32.339076
_cell_angle_gamma 90.000000
_cell_volume 1953.333459
_symmetry_space_group_name_H-M "C 2/M"
_symmetry_group_IT_number 12
_symmetry_cell_setting 'monoclinic'
loop_
_space_group_symop_operation_xyz
x,y,z
-x,y,-z
-x,-y,-z
x,-y,z
1/2+x,1/2+y,z
1/2-x,1/2+y,-z
1/2-x,1/2-y,-z
1/2+x,1/2-y,z
loop_
_atom_site_type_symbol
_atom_site_label
_atom_site_fract_x
_atom_site_fract_y
_atom_site_fract_z
Si Si1 0.283056 0.105502 0.457033
Si Si2 0.379733 0.607897 0.983347
Si Si3 0.403317 0.115091 0.207450
Si Si4 0.500000 0.242326 0.500000
Si Si5 0.123780 0.894352 0.637389
Si Si6 0.856942 0.386437 0.766026
O O1 0.104247 0.186856 0.506537
O O2 0.271434 0.099263 0.526319
O O3 0.519597 0.130048 0.337209
O O4 0.213696 0.000000 0.462978
O O5 0.342437 0.500000 0.978570
O O6 0.588958 0.650764 0.870035
O O7 0.500000 0.604998 0.000000
O O8 0.117896 0.647477 0.089249
O O9 0.478831 0.142882 0.242027
O O10 0.141663 0.137649 0.280879
O O11 0.404843 0.000000 0.207653
O O12 0.714057 0.183270 0.394166
O O13 0.117733 0.000000 0.663854
O O14 0.837196 0.500000 0.778837
#
# Coordination Sequence:
#
# PCOD9191545 Si02
#       6
#     8   8   8   4   8   8
#     4  10  20  33  50  73  98 124 158 199 242 285
#     4   7  10  18  36  64  93 119 149 187 232 279
#     4   8  13  23  41  66  95 123 154 193 234 278
#     4  12  22  34  50  70  98 132 166 196 234 284
#     4  10  21  35  50  71  98 128 162 199 238 281
#     4   8  13  23  42  68  96 122 150 191 239 282
#
# _framework density 22.525596
#
# number of rings (size 3 to 8) (size 9 to 14) (size 15 to 20)
#    0.000    3.091    0.000    4.364    0.000    2.909 
#    0.000    0.000    0.000    1.091    0.000    3.818 
#    0.000    8.727    0.000    0.000    0.000   16.909 
#
# Total GULP energy -122582.528218 kJ/mol
# GULP energy per Si atom -5571.933101 kJ/mol
# Density = 2.247433 g / cm^3
# Si number density = 22.525596 Si / 1000 Ang^3
#
#
#
# Elastic Constant Matrix: (Units=GPa)
#
#
# Indices 1 2 3 4 5 6 
#
# 1 28.4785 24.0178 42.9727 0.0025 -19.4948 0.0004
# 2 24.0178 86.5531 33.4958 0.0013 -21.2149 0.0008
# 3 42.9727 33.4958 183.6323 0.0013 -28.7589 -0.0040
# 4 0.0025 0.0013 0.0013 -0.1548 -0.0033 -22.4515
# 5 -19.4948 -21.2149 -28.7589 -0.0033 29.8109 -0.0006
# 6 0.0004 0.0008 -0.0040 -22.4515 -0.0006 9.6618
#
#
#
# Elastic Compliance Matrix: (Units=1/GPa)
#
#
# Indices 1 2 3 4 5 6 
#
# 1 0.090533 -0.010453 -0.013161 0.000004 0.039069 0.000003
# 2 -0.010453 0.015418 0.000332 0.000000 0.004457 -0.000001
# 3 -0.013161 0.000332 0.008427 -0.000002 -0.000241 -0.000001
# 4 0.000004 0.000000 -0.000002 -0.019111 -0.000003 -0.044409
# 5 0.039069 0.004457 -0.000241 -0.000003 0.062034 -0.000005
# 6 0.000003 -0.000001 -0.000001 -0.044409 -0.000005 0.000306
#
#
# Mechanical properties :
#
#
# Convention : Reuss Voigt Hill
#
# Bulk Modulus (GPa) = 14.74601 55.51515 35.13058
# Shear Modulus (GPa) = 22.04812 21.07543 21.56178
#
# Velocity S-wave (km/s) = 3.13198 3.06211 3.09724
# Velocity P-wave (km/s) = 4.43166 6.09925 5.33106
#
# Compressibility (1/GPa) = 0.06781495
#
# Stress axis : x y z
#
# Youngs Moduli (GPa) = 11.04565 64.85847 118.66175
#
# Poissons Ratio (x) = 0.67796 1.56169
# Poissons Ratio (y) = 0.11546 -0.03936
# Poissons Ratio (z) = 0.14537 -0.02151
#
# Static dielectric constant tensor:
#      x y z
#    x 1.848880 0.000000 -0.025830 
#    y 0.000000 1.947410 0.000000 
#    z -0.025830 0.000000 1.882440 
# 
# From -- ./inp_files/358125.got.cif
#   From: 2010.05.17/outbox.cif.g08.bks.cpg/sg12_180_cif.got.tgz:358125.got - 2010.06.03 13:09:07.
