data_PCOD9191525
_publ_section_title
;
Structure prediction by ZEFSAII (Michael W. Deem and Ramdas Pophale) SiO2 
 PCOD9191525
Probable space group: C 2/M
;
_chemical_formula_sum "Si O2"
_cell_formula_units_Z 64
_cell_length_a 20.004767
_cell_length_b 7.663648
_cell_length_c 31.979360
_cell_angle_alpha 90.000000
_cell_angle_beta 39.775448
_cell_angle_gamma 90.000000
_cell_volume 3136.676713
_symmetry_space_group_name_H-M "C 2/M"
_symmetry_group_IT_number 12
_symmetry_cell_setting 'monoclinic'
loop_
_space_group_symop_operation_xyz
x,y,z
-x,y,-z
-x,-y,-z
x,-y,z
1/2+x,1/2+y,z
1/2-x,1/2+y,-z
1/2-x,1/2-y,-z
1/2+x,1/2-y,z
loop_
_atom_site_type_symbol
_atom_site_label
_atom_site_fract_x
_atom_site_fract_y
_atom_site_fract_z
Si Si1 0.129049 0.707725 0.053857
Si Si2 0.297862 0.796203 0.207003
Si Si3 0.667353 0.212999 0.425755
Si Si4 0.026747 0.201941 0.941792
Si Si5 0.598168 0.705241 0.679205
Si Si6 0.545769 0.211706 0.798063
Si Si7 0.019327 0.288710 0.423370
Si Si8 0.567955 0.704160 0.306381
O O1 0.116310 0.500000 0.056332
O O2 0.074275 0.786847 0.039404
O O3 0.060121 0.764167 0.126969
O O4 0.250000 0.750000 0.000000
O O5 0.378431 0.784739 0.129780
O O6 0.359033 0.724127 0.218085
O O7 0.185015 0.718311 0.250805
O O8 0.280561 0.000000 0.224839
O O9 0.784056 0.278433 0.377369
O O10 0.585170 0.262740 0.501293
O O11 0.616838 0.266807 0.405708
O O12 0.668859 0.000000 0.424169
O O13 0.055962 0.000000 0.933719
O O14 0.000000 0.278036 0.000000
O O15 0.609812 0.500000 0.663462
O O16 0.555354 0.722478 0.746677
O O17 0.515725 0.781073 0.685787
O O18 0.548673 0.000000 0.795547
O O19 0.020664 0.500000 0.420419
O O20 0.026430 0.217429 0.373516
O O21 0.579225 0.500000 0.289158
#
# Coordination Sequence:
#
# PCOD9191525 Si02
#       8
#     8   8   8   8   8   8   8   8
#     4  10  21  37  57  81 110 142 175 216 265 314
#     4   9  19  36  54  72  99 136 173 210 257 310
#     4   8  16  32  52  74  99 128 169 213 248 295
#     4  10  21  36  55  81 109 137 175 221 263 309
#     4  10  20  33  50  73 102 135 167 205 256 309
#     4   9  19  35  53  73  98 129 168 213 251 291
#     4   9  17  32  54  74  95 131 173 209 249 300
#     4  10  21  34  48  73 106 132 162 209 259 305
#
# _framework density 20.403760999999999
#
# number of rings (size 3 to 8) (size 9 to 14) (size 15 to 20)
#    0.000    2.625    0.000    3.000    0.000    6.000 
#    0.000    4.375    0.000    0.000    0.000    0.000 
#    0.000    0.000    0.000    0.000    0.000    0.000 
#
# Total GULP energy -178576.423523 kJ/mol
# GULP energy per Si atom -5580.513235 kJ/mol
# Density = 2.035732 g / cm^3
# Si number density = 20.403761 Si / 1000 Ang^3
#
#
#
# Elastic Constant Matrix: (Units=GPa)
#
#
# Indices 1 2 3 4 5 6 
#
# 1 175.1821 -6.1877 108.8898 0.0126 -13.1486 0.0452
# 2 -6.1877 35.4088 -13.3070 0.0247 -7.5040 0.0171
# 3 108.8898 -13.3070 107.6887 0.0125 -12.6842 0.0119
# 4 0.0126 0.0247 0.0125 19.9711 0.0002 10.8101
# 5 -13.1486 -7.5040 -12.6842 0.0002 34.6035 0.0042
# 6 0.0452 0.0171 0.0119 10.8101 0.0042 4.1981
#
#
#
# Elastic Compliance Matrix: (Units=1/GPa)
#
#
# Indices 1 2 3 4 5 6 
#
# 1 0.015766 -0.003619 -0.016488 -0.000160 -0.000838 0.000305
# 2 -0.003619 0.032801 0.008767 -0.000065 0.008951 0.000039
# 3 -0.016488 0.008767 0.027724 0.000125 0.005799 -0.000263
# 4 -0.000160 -0.000065 0.000125 -0.127140 -0.000068 0.327390
# 5 -0.000838 0.008951 0.005799 -0.000068 0.032647 0.000099
# 6 0.000305 0.000039 -0.000263 0.327390 0.000099 -0.604835
#
#
# Mechanical properties :
#
#
# Convention : Reuss Voigt Hill
#
# Bulk Modulus (GPa) = 18.65283 55.22998 36.94140
# Shear Modulus (GPa) = -8.58388 27.01352 9.21482
#
# Velocity S-wave (km/s) = -2.05333 3.64256 2.12745
# Velocity P-wave (km/s) = 1.88154 6.69464 4.91724
#
# Compressibility (1/GPa) = 0.05361117
#
# Stress axis : x y z
#
# Youngs Moduli (GPa) = 63.42745 30.48702 36.06989
#
# Poissons Ratio (x) = 0.11032 0.59471
# Poissons Ratio (y) = 0.22953 -0.31621
# Poissons Ratio (z) = 1.04578 -0.26727
#
# Static dielectric constant tensor:
#      x y z
#    x 1.720390 -0.000010 -0.026330 
#    y -0.000010 1.766790 0.000000 
#    z -0.026330 0.000000 1.708870 
# 
# From -- ./inp_files/378243.got.cif
#   From: 2010.05.17/outbox.cif.g08.bks.cpg/sg12_190_cif.got.tgz:378243.got - 2010.06.03 13:09:07.
