data_PCOD9191909
_publ_section_title
;
Structure prediction by ZEFSAII (Michael W. Deem and Ramdas Pophale) SiO2 
 PCOD9191909
Probable space group: C 2/M
;
_chemical_formula_sum "Si O2"
_cell_formula_units_Z 64
_cell_length_a 32.447236
_cell_length_b 14.068127
_cell_length_c 17.152607
_cell_angle_alpha 90.000000
_cell_angle_beta 30.214264
_cell_angle_gamma 90.000000
_cell_volume 3940.170781
_symmetry_space_group_name_H-M "C 2/M"
_symmetry_group_IT_number 12
_symmetry_cell_setting 'monoclinic'
loop_
_space_group_symop_operation_xyz
x,y,z
-x,y,-z
-x,-y,-z
x,-y,z
1/2+x,1/2+y,z
1/2-x,1/2+y,-z
1/2-x,1/2-y,-z
1/2+x,1/2-y,z
loop_
_atom_site_type_symbol
_atom_site_label
_atom_site_fract_x
_atom_site_fract_y
_atom_site_fract_z
Si Si1 0.796582 0.387379 0.783650
Si Si2 0.981262 0.261321 0.234043
Si Si3 0.674608 0.226878 0.934690
Si Si4 0.540007 0.888430 0.581816
Si Si5 0.197179 0.388764 0.742461
Si Si6 0.351610 0.112535 0.865313
Si Si7 0.863990 0.890035 0.371678
Si Si8 0.081880 0.736757 0.824176
O O1 0.778196 0.500000 0.806461
O O2 0.729144 0.320784 0.854478
O O3 0.885041 0.371276 0.598948
O O4 0.805728 0.363909 0.860276
O O5 0.953800 0.322145 0.352793
O O6 0.936974 0.159185 0.301568
O O7 0.949606 0.309484 0.205479
O O8 0.078820 0.252108 0.075664
O O9 0.704294 0.162409 0.814192
O O10 0.677162 0.170065 0.012221
O O11 0.449474 0.871461 0.694589
O O12 0.542663 0.000000 0.599864
O O13 0.177113 0.500000 0.785460
O O14 0.281196 0.381610 0.556360
O O15 0.129204 0.334260 0.802657
O O16 0.341134 0.000000 0.896966
O O17 0.862616 0.824570 0.296357
O O18 0.879065 0.000000 0.329845
O O19 0.000000 0.773538 0.000000
#
# Coordination Sequence:
#
# PCOD9191909 Si02
#       8
#     8   8   8   8   8   8   8   8
#     4  10  20  33  52  77 104 135 170 210 255 298
#     4   9  20  34  52  73 103 134 172 203 250 298
#     4  11  20  34  51  77 107 136 169 207 255 299
#     4   9  17  32  53  77 103 133 167 211 257 301
#     4  11  21  35  55  78 102 132 168 210 256 300
#     4   9  18  33  53  77 103 134 170 209 255 307
#     4   9  20  36  53  72  98 136 174 207 246 293
#     4  10  20  38  53  76 101 133 168 210 250 301
#
# _framework density 16.24295
#
# number of rings (size 3 to 8) (size 9 to 14) (size 15 to 20)
#    0.750    1.500    1.250    2.250    0.000    3.500 
#    0.000    0.625    0.000    0.000    0.000    0.000 
#    0.000   18.000    0.000    0.000    0.000    0.000 
#
# Total GULP energy -178197.119019 kJ/mol
# GULP energy per Si atom -5568.659969 kJ/mol
# Density = 1.620598 g / cm^3
# Si number density = 16.242950 Si / 1000 Ang^3
#
#
#
# Elastic Constant Matrix: (Units=GPa)
#
#
# Indices 1 2 3 4 5 6 
#
# 1 88.7968 60.5505 34.3340 0.0000 14.6028 0.0000
# 2 60.5505 95.4590 51.3315 0.0000 5.2334 0.0000
# 3 34.3340 51.3315 75.4702 0.0000 9.8882 0.0000
# 4 0.0000 0.0000 0.0000 17.1278 0.0000 -0.1311
# 5 14.6028 5.2334 9.8882 0.0000 15.1637 0.0000
# 6 0.0000 0.0000 0.0000 -0.1311 0.0000 29.4822
#
#
#
# Elastic Compliance Matrix: (Units=1/GPa)
#
#
# Indices 1 2 3 4 5 6 
#
# 1 0.024072 -0.015262 0.001942 0.000000 -0.019181 0.000000
# 2 -0.015262 0.026237 -0.012729 0.000000 0.013943 0.000000
# 3 0.001942 -0.012729 0.022627 0.000000 -0.012232 0.000000
# 4 0.000000 0.000000 0.000000 0.058387 0.000000 0.000260
# 5 -0.019181 0.013943 -0.012232 0.000000 0.087583 0.000000
# 6 0.000000 0.000000 0.000000 0.000260 0.000000 0.033920
#
#
# Mechanical properties :
#
#
# Convention : Reuss Voigt Hill
#
# Bulk Modulus (GPa) = 47.98668 61.35087 54.66877
# Shear Modulus (GPa) = 16.03240 19.92208 17.97724
#
# Velocity S-wave (km/s) = 3.14512 3.50595 3.33043
# Velocity P-wave (km/s) = 6.54189 7.36490 6.96556
#
# Compressibility (1/GPa) = 0.02083912
#
# Stress axis : x y z
#
# Youngs Moduli (GPa) = 41.54164 38.11437 44.19559
#
# Poissons Ratio (x) = 0.58171 -0.08585
# Poissons Ratio (y) = 0.63402 0.56255
# Poissons Ratio (z) = -0.08069 0.48514
#
# Static dielectric constant tensor:
#      x y z
#    x 1.538850 0.000000 0.006110 
#    y 0.000000 1.520900 0.000000 
#    z 0.006110 0.000000 1.542990 
# 
# From -- ./inp_files/246340.got.cif
#   From: 2010.05.17/outbox.cif.g08.bks.cpg/sg12_124_cif.got.tgz:246340.got - 2010.06.03 13:09:07.
