data_PCOD9191285
_publ_section_title
;
Structure prediction by ZEFSAII (Michael W. Deem and Ramdas Pophale) SiO2 
 PCOD9191285
Probable space group: C 2/M
;
_chemical_formula_sum "Si O2"
_cell_formula_units_Z 64
_cell_length_a 30.666379
_cell_length_b 8.436948
_cell_length_c 14.566108
_cell_angle_alpha 90.000000
_cell_angle_beta 88.435242
_cell_angle_gamma 90.000000
_cell_volume 3767.293171
_symmetry_space_group_name_H-M "C 2/M"
_symmetry_group_IT_number 12
_symmetry_cell_setting 'monoclinic'
loop_
_space_group_symop_operation_xyz
x,y,z
-x,y,-z
-x,-y,-z
x,-y,z
1/2+x,1/2+y,z
1/2-x,1/2+y,-z
1/2-x,1/2-y,-z
1/2+x,1/2-y,z
loop_
_atom_site_type_symbol
_atom_site_label
_atom_site_fract_x
_atom_site_fract_y
_atom_site_fract_z
Si Si1 0.700046 0.307312 0.511850
Si Si2 0.451480 0.807682 0.984153
Si Si3 0.627852 0.812324 0.884329
Si Si4 0.755039 0.188981 0.808118
Si Si5 0.613216 0.812632 0.163631
Si Si6 0.829023 0.813887 0.287966
Si Si7 0.159467 0.812551 0.324327
Si Si8 0.310747 0.313927 0.968219
O O1 0.701315 0.500000 0.511699
O O2 0.750000 0.250000 0.500000
O O3 0.678824 0.251367 0.608741
O O4 0.671658 0.256551 0.425481
O O5 0.432424 0.775447 0.883532
O O6 0.452844 0.000000 0.992463
O O7 0.500000 0.747136 0.000000
O O8 0.414867 0.750613 0.059173
O O9 0.634035 0.756448 0.780129
O O10 0.625457 0.000000 0.885287
O O11 0.670686 0.766361 0.941634
O O12 0.715705 0.279699 0.763849
O O13 0.796297 0.207623 0.737800
O O14 0.770322 0.245988 0.908283
O O15 0.745316 0.000000 0.813934
O O16 0.621474 0.772661 0.269099
O O17 0.648814 0.712729 0.104646
O O18 0.622040 0.000000 0.147844
O O19 0.836424 0.000000 0.294244
O O20 0.149876 0.000000 0.327905
O O21 0.304545 0.500000 0.985170
#
# Coordination Sequence:
#
# PCOD9191285 Si02
#       8
#     8   8   8   8   8   8   8   8
#     4  10  20  33  48  67  89 123 167 208 244 273
#     4   8  15  30  52  76  98 119 146 183 229 282
#     4  10  20  33  49  68  92 122 153 188 231 282
#     4   9  17  29  45  63  86 121 160 197 234 270
#     4   9  16  26  45  73  98 121 152 187 229 282
#     4  11  22  32  45  65  91 123 159 199 239 275
#     4   9  17  30  46  64  93 126 158 200 242 273
#     4   9  17  30  46  63  90 124 156 192 230 270
#
# _framework density 16.988325
#
# number of rings (size 3 to 8) (size 9 to 14) (size 15 to 20)
#    0.000    2.625    1.250    3.000    0.000    4.000 
#    0.000    0.000    0.000   13.500    0.000    0.875 
#    0.000    7.000    0.000    0.000    0.000    0.000 
#
# Total GULP energy -178300.720940 kJ/mol
# GULP energy per Si atom -5571.897529 kJ/mol
# Density = 1.694966 g / cm^3
# Si number density = 16.988325 Si / 1000 Ang^3
#
#
#
# Elastic Constant Matrix: (Units=GPa)
#
#
# Indices 1 2 3 4 5 6 
#
# 1 79.3121 10.4067 48.6226 0.0000 13.2298 0.0000
# 2 10.4067 18.4474 20.3707 0.0000 -1.5179 0.0000
# 3 48.6226 20.3707 154.9863 0.0000 8.8806 0.0000
# 4 0.0000 0.0000 0.0000 19.6951 0.0000 -0.2777
# 5 13.2298 -1.5179 8.8806 0.0000 17.3170 0.0000
# 6 0.0000 0.0000 0.0000 -0.2777 0.0000 12.0173
#
#
#
# Elastic Compliance Matrix: (Units=1/GPa)
#
#
# Indices 1 2 3 4 5 6 
#
# 1 0.018030 -0.006681 -0.004075 0.000000 -0.012270 0.000000
# 2 -0.006681 0.067660 -0.007654 0.000000 0.014960 0.000000
# 3 -0.004075 -0.007654 0.008857 0.000000 -0.002100 0.000000
# 4 0.000000 0.000000 0.000000 0.050791 0.000000 0.001174
# 5 -0.012270 0.014960 -0.002100 0.000000 0.069509 0.000000
# 6 0.000000 0.000000 0.000000 0.001174 0.000000 0.083240
#
#
# Mechanical properties :
#
#
# Convention : Reuss Voigt Hill
#
# Bulk Modulus (GPa) = 17.32298 45.72730 31.52514
# Shear Modulus (GPa) = 14.11832 21.36228 17.74030
#
# Velocity S-wave (km/s) = 2.88594 3.54993 3.23501
# Velocity P-wave (km/s) = 4.61779 6.61649 5.70535
#
# Compressibility (1/GPa) = 0.05772679
#
# Stress axis : x y z
#
# Youngs Moduli (GPa) = 55.46267 14.77975 112.90465
#
# Poissons Ratio (x) = 0.09874 0.46012
# Poissons Ratio (y) = 0.37053 0.86420
# Poissons Ratio (z) = 0.22603 0.11313
#
# Static dielectric constant tensor:
#      x y z
#    x 1.581800 0.000000 -0.005640 
#    y 0.000000 1.588530 0.000000 
#    z -0.005640 0.000000 1.628330 
# 
# From -- ./inp_files/248416.got.cif
#   From: 2010.05.17/outbox.cif.g08.bks.cpg/sg12_125_cif.got.tgz:248416.got - 2010.06.03 13:09:07.
