data_PCOD9191754
_publ_section_title
;
Structure prediction by ZEFSAII (Michael W. Deem and Ramdas Pophale) SiO2 
 PCOD9191754
Probable space group: C 2/M
;
_chemical_formula_sum "Si O2"
_cell_formula_units_Z 56
_cell_length_a 24.714034
_cell_length_b 7.640655
_cell_length_c 14.797896
_cell_angle_alpha 90.000000
_cell_angle_beta 110.445858
_cell_angle_gamma 90.000000
_cell_volume 2618.273704
_symmetry_space_group_name_H-M "C 2/M"
_symmetry_group_IT_number 12
_symmetry_cell_setting 'monoclinic'
loop_
_space_group_symop_operation_xyz
x,y,z
-x,y,-z
-x,-y,-z
x,-y,z
1/2+x,1/2+y,z
1/2-x,1/2+y,-z
1/2-x,1/2-y,-z
1/2+x,1/2-y,z
loop_
_atom_site_type_symbol
_atom_site_label
_atom_site_fract_x
_atom_site_fract_y
_atom_site_fract_z
Si Si1 0.067931 0.788466 0.692237
Si Si2 0.181250 0.797014 0.854903
Si Si3 0.760749 0.290277 0.401107
Si Si4 0.051934 0.796714 0.305838
Si Si5 0.610094 0.791716 0.526131
Si Si6 0.851702 0.788716 0.770716
Si Si7 0.810236 0.708183 0.937476
O O1 0.127367 0.718946 0.770189
O O2 0.069529 0.746394 0.587361
O O3 0.010898 0.719767 0.709036
O O4 0.067378 0.000000 0.700049
O O5 0.245418 0.721375 0.878173
O O6 0.184806 0.000000 0.829669
O O7 0.170318 0.786397 0.955937
O O8 0.761271 0.500000 0.390420
O O9 0.750000 0.250000 0.500000
O O10 0.824945 0.226243 0.414386
O O11 0.707502 0.221980 0.310628
O O12 0.087242 0.788898 0.420202
O O13 0.093083 0.720659 0.252329
O O14 0.042595 0.000000 0.276512
O O15 0.612624 0.000000 0.513506
O O16 0.849771 0.744490 0.874791
O O17 0.851430 0.000000 0.761708
O O18 0.805770 0.500000 0.948954
#
# Coordination Sequence:
#
# PCOD9191754 Si02
#       7
#     8   8   8   8   8   8   8
#     4  10  21  37  57  78 102 140 186 224 260 310
#     4   9  19  37  58  81 107 134 171 220 266 312
#     4  10  20  33  51  76 106 139 175 215 261 310
#     4  10  21  37  55  75 104 145 188 221 255 310
#     4  11  22  34  52  80 110 142 178 221 273 318
#     4  10  20  35  54  77 107 142 177 217 263 310
#     4  10  20  34  57  85 108 134 168 213 271 327
#
# _framework density 21.388138000000001
#
# number of rings (size 3 to 8) (size 9 to 14) (size 15 to 20)
#    0.000    2.000    1.429    2.143    0.000    5.143 
#    0.000    0.714    0.000    4.286    0.000    0.000 
#    0.000    0.000    0.000    0.000    0.000    0.000 
#
# Total GULP energy -156423.486553 kJ/mol
# GULP energy per Si atom -5586.553091 kJ/mol
# Density = 2.133946 g / cm^3
# Si number density = 21.388138 Si / 1000 Ang^3
#
#
#
# Elastic Constant Matrix: (Units=GPa)
#
#
# Indices 1 2 3 4 5 6 
#
# 1 107.0479 -5.8505 38.0896 0.0000 -22.9316 0.0000
# 2 -5.8505 45.0507 -15.6222 0.0000 7.6385 0.0000
# 3 38.0896 -15.6222 55.4241 0.0000 -26.4690 0.0000
# 4 0.0000 0.0000 0.0000 19.0143 0.0000 -4.9516
# 5 -22.9316 7.6385 -26.4690 0.0000 29.7613 0.0000
# 6 0.0000 0.0000 0.0000 -4.9516 0.0000 11.0339
#
#
#
# Elastic Compliance Matrix: (Units=1/GPa)
#
#
# Indices 1 2 3 4 5 6 
#
# 1 0.012665 -0.001538 -0.007455 0.000000 0.003523 0.000000
# 2 -0.001538 0.024790 0.007718 0.000000 -0.000683 0.000000
# 3 -0.007455 0.007718 0.037639 0.000000 0.025750 0.000000
# 4 0.000000 0.000000 0.000000 0.059552 0.000000 0.026725
# 5 0.003523 -0.000683 0.025750 0.000000 0.059392 0.000000
# 6 0.000000 0.000000 0.000000 0.026725 0.000000 0.102623
#
#
# Mechanical properties :
#
#
# Convention : Reuss Voigt Hill
#
# Bulk Modulus (GPa) = 13.78469 26.75073 20.26771
# Shear Modulus (GPa) = 15.46120 24.68895 20.07507
#
# Velocity S-wave (km/s) = 2.69157 3.40123 3.06699
# Velocity P-wave (km/s) = 4.01478 5.28762 4.69453
#
# Compressibility (1/GPa) = 0.07254425
#
# Stress axis : x y z
#
# Youngs Moduli (GPa) = 78.95914 40.33938 26.56836
#
# Poissons Ratio (x) = 0.06203 0.19806
# Poissons Ratio (y) = 0.12141 -0.20505
# Poissons Ratio (z) = 0.58861 -0.31133
#
# Static dielectric constant tensor:
#      x y z
#    x 1.804420 0.000000 0.019910 
#    y 0.000000 1.842500 0.000000 
#    z 0.019910 0.000000 1.734850 
# 
# From -- ./inp_files/237350.got.cif
#   From: 2010.05.17/outbox.cif.g08.bks.cpg/sg12_119_cif.got.tgz:237350.got - 2010.06.03 13:09:07.
