data_PCOD9191677
_publ_section_title
;
Structure prediction by ZEFSAII (Michael W. Deem and Ramdas Pophale) SiO2 
 PCOD9191677
Probable space group: C 2/M
;
_chemical_formula_sum "Si O2"
_cell_formula_units_Z 64
_cell_length_a 30.463792
_cell_length_b 8.684996
_cell_length_c 15.481185
_cell_angle_alpha 90.000000
_cell_angle_beta 79.526337
_cell_angle_gamma 90.000000
_cell_volume 4027.734726
_symmetry_space_group_name_H-M "C 2/M"
_symmetry_group_IT_number 12
_symmetry_cell_setting 'monoclinic'
loop_
_space_group_symop_operation_xyz
x,y,z
-x,y,-z
-x,-y,-z
x,-y,z
1/2+x,1/2+y,z
1/2-x,1/2+y,-z
1/2-x,1/2-y,-z
1/2+x,1/2-y,z
loop_
_atom_site_type_symbol
_atom_site_label
_atom_site_fract_x
_atom_site_fract_y
_atom_site_fract_z
Si Si1 0.561903 0.316093 0.623180
Si Si2 0.286671 0.683569 0.371069
Si Si3 0.436038 0.186755 0.083800
Si Si4 0.097385 0.682479 0.432002
Si Si5 0.041032 0.816380 0.296361
Si Si6 0.965211 0.313653 0.887665
Si Si7 0.628005 0.815322 0.744196
Si Si8 0.307872 0.316581 0.563238
O O1 0.568083 0.500000 0.628074
O O2 0.574376 0.263327 0.522634
O O3 0.510586 0.278409 0.662841
O O4 0.594598 0.234738 0.679456
O O5 0.281880 0.500000 0.367734
O O6 0.324102 0.742689 0.292407
O O7 0.303772 0.721219 0.462314
O O8 0.238568 0.762056 0.378663
O O9 0.483225 0.230816 0.110821
O O10 0.395331 0.237294 0.158331
O O11 0.435886 0.000000 0.083497
O O12 0.437856 0.234057 0.983076
O O13 0.093985 0.500000 0.443399
O O14 0.072758 0.736224 0.354347
O O15 0.148950 0.733628 0.414535
O O16 0.049814 0.760402 0.196036
O O17 0.046105 0.000000 0.300975
O O18 0.963731 0.500000 0.881169
O O19 0.631698 0.000000 0.743118
O O20 0.312929 0.500000 0.569209
#
# Coordination Sequence:
#
# PCOD9191677 Si02
#       8
#     8   8   8   8   8   8   8   8
#     4  11  22  35  48  69 103 139 172 211 251 292
#     4  10  20  33  51  74 103 134 166 206 253 300
#     4   8  16  29  50  75 101 131 167 211 254 298
#     4  12  24  36  53  73  97 134 177 213 249 299
#     4  11  23  36  50  71 102 137 174 214 255 296
#     4   9  16  32  52  72  98 132 172 212 252 295
#     4  11  19  30  51  77 103 136 172 206 250 303
#     4  10  20  35  53  73 101 132 165 209 254 297
#
# _framework density 15.889825
#
# number of rings (size 3 to 8) (size 9 to 14) (size 15 to 20)
#    0.000    1.750    2.500    4.125    0.000    4.000 
#    0.000    2.500    0.000    0.000    0.000    0.875 
#    0.000    0.000    0.000    0.000    0.000    0.000 
#
# Total GULP energy -178664.489095 kJ/mol
# GULP energy per Si atom -5583.265284 kJ/mol
# Density = 1.585366 g / cm^3
# Si number density = 15.889825 Si / 1000 Ang^3
#
#
#
# Elastic Constant Matrix: (Units=GPa)
#
#
# Indices 1 2 3 4 5 6 
#
# 1 54.7087 13.6426 39.2794 0.0000 -10.9325 0.0000
# 2 13.6426 23.2461 5.5696 0.0000 -3.4735 0.0000
# 3 39.2794 5.5696 99.7461 0.0000 -16.7323 0.0000
# 4 0.0000 0.0000 0.0000 12.5636 0.0000 -8.4299
# 5 -10.9325 -3.4735 -16.7323 0.0000 24.5866 0.0000
# 6 0.0000 0.0000 0.0000 -8.4299 0.0000 19.4790
#
#
#
# Elastic Compliance Matrix: (Units=1/GPa)
#
#
# Indices 1 2 3 4 5 6 
#
# 1 0.030225 -0.014610 -0.010361 0.000000 0.004324 0.000000
# 2 -0.014610 0.051233 0.003406 0.000000 0.003060 0.000000
# 3 -0.010361 0.003406 0.014927 0.000000 0.006033 0.000000
# 4 0.000000 0.000000 0.000000 0.112165 0.000000 0.048542
# 5 0.004324 0.003060 0.006033 0.000000 0.047133 0.000000
# 6 0.000000 0.000000 0.000000 0.048542 0.000000 0.072345
#
#
# Mechanical properties :
#
#
# Convention : Reuss Voigt Hill
#
# Bulk Modulus (GPa) = 18.77751 32.74267 25.76009
# Shear Modulus (GPa) = 12.85641 19.27314 16.06477
#
# Velocity S-wave (km/s) = 2.84755 3.48648 3.18309
# Velocity P-wave (km/s) = 4.75966 6.07110 5.45493
#
# Compressibility (1/GPa) = 0.05325519
#
# Stress axis : x y z
#
# Youngs Moduli (GPa) = 33.08517 19.51861 66.99052
#
# Poissons Ratio (x) = 0.28516 0.69411
# Poissons Ratio (y) = 0.48336 -0.22815
# Poissons Ratio (z) = 0.34280 -0.06647
#
# Static dielectric constant tensor:
#      x y z
#    x 1.511810 0.000000 -0.018390 
#    y 0.000000 1.529940 0.000000 
#    z -0.018390 0.000000 1.527420 
# 
# From -- ./inp_files/244000.got.cif
#   From: 2010.05.17/outbox.cif.g08.bks.cpg/sg12_122_cif.got.tgz:244000.got - 2010.06.03 13:09:07.
