data_PCOD9191775
_publ_section_title
;
Structure prediction by ZEFSAII (Michael W. Deem and Ramdas Pophale) SiO2 
 PCOD9191775
Probable space group: C 2/M
;
_chemical_formula_sum "Si O2"
_cell_formula_units_Z 64
_cell_length_a 28.527690
_cell_length_b 14.180821
_cell_length_c 10.103644
_cell_angle_alpha 90.000000
_cell_angle_beta 106.789707
_cell_angle_gamma 90.000000
_cell_volume 3913.149761
_symmetry_space_group_name_H-M "C 2/M"
_symmetry_group_IT_number 12
_symmetry_cell_setting 'monoclinic'
loop_
_space_group_symop_operation_xyz
x,y,z
-x,y,-z
-x,-y,-z
x,-y,z
1/2+x,1/2+y,z
1/2-x,1/2+y,-z
1/2-x,1/2-y,-z
1/2+x,1/2-y,z
loop_
_atom_site_type_symbol
_atom_site_label
_atom_site_fract_x
_atom_site_fract_y
_atom_site_fract_z
Si Si1 0.691456 0.110974 0.607381
Si Si2 0.803608 0.892394 0.775350
Si Si3 0.635709 0.796586 0.796705
Si Si4 0.817488 0.890239 0.098611
Si Si5 0.565019 0.110774 0.184547
Si Si6 0.046627 0.610975 0.856030
Si Si7 0.295502 0.112440 0.921297
Si Si8 0.665296 0.203570 0.316605
O O1 0.744940 0.119175 0.717448
O O2 0.652088 0.156099 0.673601
O O3 0.691004 0.165840 0.468998
O O4 0.681657 0.000000 0.578270
O O5 0.818789 0.878827 0.940458
O O6 0.827888 0.814070 0.703486
O O7 0.815006 0.000000 0.746280
O O8 0.581352 0.825585 0.794911
O O9 0.646654 0.685433 0.807128
O O10 0.671516 0.840244 0.938805
O O11 0.827658 0.000000 0.137300
O O12 0.761747 0.869340 0.098228
O O13 0.511247 0.130803 0.198632
O O14 0.608710 0.173085 0.275197
O O15 0.575844 0.000000 0.216406
O O16 0.561368 0.123440 0.022501
O O17 0.054394 0.500000 0.831522
O O18 0.311400 0.152739 0.792863
O O19 0.303447 0.000000 0.932270
#
# Coordination Sequence:
#
# PCOD9191775 Si02
#       8
#     8   8   8   8   8   8   8   8
#     4  11  23  34  48  75 111 136 163 207 254 303
#     4  10  20  35  51  73 103 136 172 212 250 291
#     4  12  19  33  53  73  98 137 172 202 253 302
#     4  10  20  33  51  77 103 129 172 220 249 284
#     4   9  17  30  49  75 103 124 161 215 258 299
#     4   9  17  29  50  77  98 125 165 212 258 302
#     4  11  19  29  51  75  97 128 171 206 242 303
#     4  12  21  34  51  74 102 141 170 203 253 302
#
# _framework density 16.355111000000001
#
# number of rings (size 3 to 8) (size 9 to 14) (size 15 to 20)
#    0.000    1.500    3.750    4.500    0.000    0.000 
#    0.000    2.500    0.000    3.000    0.000    3.500 
#    0.000    2.000    0.000    0.000    0.000    0.000 
#
# Total GULP energy -178713.950433 kJ/mol
# GULP energy per Si atom -5584.810951 kJ/mol
# Density = 1.631789 g / cm^3
# Si number density = 16.355111 Si / 1000 Ang^3
#
#
#
# Elastic Constant Matrix: (Units=GPa)
#
#
# Indices 1 2 3 4 5 6 
#
# 1 68.5059 47.2583 3.7715 0.0000 -8.0793 0.0000
# 2 47.2583 91.6172 14.7744 0.0000 -6.4047 0.0000
# 3 3.7715 14.7744 36.4956 0.0000 -17.6545 0.0000
# 4 0.0000 0.0000 0.0000 12.3290 0.0000 -2.4645
# 5 -8.0793 -6.4047 -17.6545 0.0000 16.7641 0.0000
# 6 0.0000 0.0000 0.0000 -2.4645 0.0000 23.8408
#
#
#
# Elastic Compliance Matrix: (Units=1/GPa)
#
#
# Indices 1 2 3 4 5 6 
#
# 1 0.026102 -0.014122 0.013240 0.000000 0.021127 0.000000
# 2 -0.014122 0.019327 -0.012404 0.000000 -0.012485 0.000000
# 3 0.013240 -0.012404 0.064922 0.000000 0.070012 0.000000
# 4 0.000000 0.000000 0.000000 0.082821 0.000000 0.008561
# 5 0.021127 -0.012485 0.070012 0.000000 0.138794 0.000000
# 6 0.000000 0.000000 0.000000 0.008561 0.000000 0.042830
#
#
# Mechanical properties :
#
#
# Convention : Reuss Voigt Hill
#
# Bulk Modulus (GPa) = 11.93643 36.46966 24.20305
# Shear Modulus (GPa) = 11.64701 19.30774 15.47737
#
# Velocity S-wave (km/s) = 2.67148 3.43962 3.07959
# Velocity P-wave (km/s) = 4.10242 6.17427 5.24173
#
# Compressibility (1/GPa) = 0.08377712
#
# Stress axis : x y z
#
# Youngs Moduli (GPa) = 38.31108 51.74085 15.40318
#
# Poissons Ratio (x) = 0.73069 -0.20394
# Poissons Ratio (y) = 0.54104 0.19107
# Poissons Ratio (z) = -0.50723 0.64182
#
# Static dielectric constant tensor:
#      x y z
#    x 1.538980 0.000000 -0.000370 
#    y 0.000000 1.559290 0.000000 
#    z -0.000370 0.000000 1.543290 
# 
# From -- ./inp_files/104504.got.cif
#   From: 2010.05.17/outbox.cif.g08.bks.cpg/sg12_53_cif.got.tgz:104504.got - 2010.06.03 13:09:07.
