data_PCOD9191919
_publ_section_title
;
Structure prediction by ZEFSAII (Michael W. Deem and Ramdas Pophale) SiO2 
 PCOD9191919
Probable space group: C 2/M
;
_chemical_formula_sum "Si O2"
_cell_formula_units_Z 64
_cell_length_a 24.072491
_cell_length_b 14.072085
_cell_length_c 10.048595
_cell_angle_alpha 90.000000
_cell_angle_beta 59.859580
_cell_angle_gamma 90.000000
_cell_volume 2943.738345
_symmetry_space_group_name_H-M "C 2/M"
_symmetry_group_IT_number 12
_symmetry_cell_setting 'monoclinic'
loop_
_space_group_symop_operation_xyz
x,y,z
-x,y,-z
-x,-y,-z
x,-y,z
1/2+x,1/2+y,z
1/2-x,1/2+y,-z
1/2-x,1/2-y,-z
1/2+x,1/2-y,z
loop_
_atom_site_type_symbol
_atom_site_label
_atom_site_fract_x
_atom_site_fract_y
_atom_site_fract_z
Si Si1 0.787983 0.107804 0.396366
Si Si2 0.654093 0.812224 0.615899
Si Si3 0.926501 0.762569 0.836816
Si Si4 0.400370 0.890655 0.061993
Si Si5 0.860611 0.235039 0.633998
Si Si6 0.190927 0.892726 0.935787
Si Si7 0.745982 0.109395 0.864770
Si Si8 0.966098 0.103941 0.397473
O O1 0.720236 0.128418 0.549161
O O2 0.830272 0.201168 0.374687
O O3 0.780377 0.111530 0.245450
O O4 0.810065 0.000000 0.402218
O O5 0.604597 0.850206 0.783162
O O6 0.636843 0.815697 0.480952
O O7 0.896970 0.738622 0.726598
O O8 0.989616 0.825910 0.740377
O O9 0.940467 0.673769 0.913508
O O10 0.869140 0.823291 0.973438
O O11 0.327302 0.882870 0.091232
O O12 0.419337 0.000000 0.039284
O O13 0.790734 0.190226 0.746477
O O14 0.899151 0.148349 0.520175
O O15 0.165842 0.000000 0.986776
O O16 0.242684 0.876906 0.990441
O O17 0.767050 0.000000 0.808748
O O18 0.000000 0.095753 0.500000
O O19 0.961457 0.000000 0.341305
#
# Coordination Sequence:
#
# PCOD9191919 Si02
#       8
#     8   8   8   8   8   8   8   8
#     4  10  20  33  52  77 116 159 190 225 276 337
#     4  11  22  36  51  80 115 155 188 229 277 337
#     4  10  20  36  59  84 112 146 187 231 280 331
#     4  11  23  39  57  79 113 153 191 232 283 339
#     4  10  21  33  59  85 115 146 184 231 278 334
#     4   9  17  30  52  83 114 146 182 227 277 332
#     4   9  18  31  52  84 117 147 183 224 276 335
#     4   9  18  36  62  91 118 145 181 228 282 335
#
# _framework density 21.741061999999999
#
# number of rings (size 3 to 8) (size 9 to 14) (size 15 to 20)
#    0.000    2.125    1.250    2.625    1.750    6.000 
#    0.000    1.250    0.000    6.375    0.000    0.000 
#    0.000    0.000    0.000    0.000    0.000    0.000 
#
# Total GULP energy -178781.927601 kJ/mol
# GULP energy per Si atom -5586.935238 kJ/mol
# Density = 2.169158 g / cm^3
# Si number density = 21.741062 Si / 1000 Ang^3
#
#
#
# Elastic Constant Matrix: (Units=GPa)
#
#
# Indices 1 2 3 4 5 6 
#
# 1 21.7452 8.5328 11.5534 0.0000 3.8862 0.0000
# 2 8.5328 134.6872 58.8310 0.0000 -4.2214 0.0000
# 3 11.5534 58.8310 116.2952 0.0000 10.7197 0.0000
# 4 0.0000 0.0000 0.0000 18.8027 0.0000 16.1599
# 5 3.8862 -4.2214 10.7197 0.0000 19.7929 0.0000
# 6 0.0000 0.0000 0.0000 16.1599 0.0000 -8.8886
#
#
#
# Elastic Compliance Matrix: (Units=1/GPa)
#
#
# Indices 1 2 3 4 5 6 
#
# 1 0.049992 -0.002068 -0.003131 0.000000 -0.008561 0.000000
# 2 -0.002068 0.010088 -0.005403 0.000000 0.005484 0.000000
# 3 -0.003131 -0.005403 0.012307 0.000000 -0.007203 0.000000
# 4 0.000000 0.000000 0.000000 0.020755 0.000000 0.037733
# 5 -0.008561 0.005484 -0.007203 0.000000 0.057275 0.000000
# 6 0.000000 0.000000 0.000000 0.037733 0.000000 -0.043903
#
#
# Mechanical properties :
#
#
# Convention : Reuss Voigt Hill
#
# Bulk Modulus (GPa) = 19.53795 47.84022 33.68909
# Shear Modulus (GPa) = 34.53572 18.86209 26.69890
#
# Velocity S-wave (km/s) = 3.98993 2.94866 3.50814
# Velocity P-wave (km/s) = 5.49838 5.80044 5.65143
#
# Compressibility (1/GPa) = 0.05118244
#
# Stress axis : x y z
#
# Youngs Moduli (GPa) = 20.00317 99.13229 81.25354
#
# Poissons Ratio (x) = 0.20497 0.25444
# Poissons Ratio (y) = 0.04136 0.43902
# Poissons Ratio (z) = 0.06264 0.53562
#
# Static dielectric constant tensor:
#      x y z
#    x 1.834410 0.000000 0.034480 
#    y 0.000000 1.807780 0.000000 
#    z 0.034480 0.000000 1.790340 
# 
# From -- ./inp_files/111611.got.cif
#   From: 2010.05.17/outbox.cif.g08.bks.cpg/sg12_56_cif.got.tgz:111611.got - 2010.06.03 13:09:07.
