data_PCOD9191065
_publ_section_title
;
Structure prediction by ZEFSAII (Michael W. Deem and Ramdas Pophale) SiO2 
 PCOD9191065
Probable space group: C 2/M
;
_chemical_formula_sum "Si O2"
_cell_formula_units_Z 56
_cell_length_a 12.001338
_cell_length_b 26.334951
_cell_length_c 19.073426
_cell_angle_alpha 90.000000
_cell_angle_beta 151.992872
_cell_angle_gamma 90.000000
_cell_volume 2830.751725
_symmetry_space_group_name_H-M "C 2/M"
_symmetry_group_IT_number 12
_symmetry_cell_setting 'monoclinic'
loop_
_space_group_symop_operation_xyz
x,y,z
-x,y,-z
-x,-y,-z
x,-y,z
1/2+x,1/2+y,z
1/2-x,1/2+y,-z
1/2-x,1/2-y,-z
1/2+x,1/2-y,z
loop_
_atom_site_type_symbol
_atom_site_label
_atom_site_fract_x
_atom_site_fract_y
_atom_site_fract_z
Si Si1 0.042394 0.943277 0.439994
Si Si2 0.903775 0.788053 0.168664
Si Si3 0.546471 0.851073 0.875683
Si Si4 0.767723 0.315086 0.157910
Si Si5 0.515513 0.056104 0.085815
Si Si6 0.387248 0.228066 0.367314
Si Si7 0.985892 0.834446 0.361965
O O1 0.788077 0.947720 0.260371
O O2 0.122625 0.886490 0.459100
O O3 0.000000 0.939108 0.500000
O O4 0.159389 0.000000 0.493654
O O5 0.764476 0.743118 0.129458
O O6 0.992634 0.823310 0.282464
O O7 0.116536 0.763178 0.241979
O O8 0.735082 0.816844 0.021324
O O9 0.561032 0.842514 0.801470
O O10 0.612563 0.908788 0.929985
O O11 0.286974 0.843175 0.764623
O O12 0.868097 0.310072 0.291695
O O13 0.500000 0.335155 0.000000
O O14 0.411325 0.000000 0.023513
O O15 0.500000 0.079973 0.000000
O O16 0.500000 0.206107 0.500000
O O17 0.529799 0.279546 0.424491
#
# Coordination Sequence:
#
# PCOD9191065 Si02
#       7
#     8   8   8   8   8   8   8
#     4   9  17  31  49  73 107 136 164 208 258 315
#     4  11  20  34  52  75 106 138 174 219 255 305
#     4  11  18  33  55  79 104 134 174 216 257 312
#     4  11  21  34  54  74 100 139 178 214 254 305
#     4   9  18  32  52  79 108 134 166 213 268 316
#     4  11  23  37  49  72 109 142 179 213 257 307
#     4  10  20  32  52  80 104 138 172 213 265 310
#
# _framework density 19.782731999999999
#
# number of rings (size 3 to 8) (size 9 to 14) (size 15 to 20)
#    0.000    1.714    2.857    4.714    0.000    2.286 
#    5.143    0.000    0.000    0.429    0.000    0.000 
#    0.000    2.857    0.000    0.000    0.000    0.000 
#
# Total GULP energy -156049.913583 kJ/mol
# GULP energy per Si atom -5573.211199 kJ/mol
# Density = 1.973771 g / cm^3
# Si number density = 19.782732 Si / 1000 Ang^3
#
#
#
# Elastic Constant Matrix: (Units=GPa)
#
#
# Indices 1 2 3 4 5 6 
#
# 1 107.4481 43.1121 31.6211 0.0001 -34.5985 -0.0002
# 2 43.1121 87.3652 11.4243 0.0023 -9.8909 0.0002
# 3 31.6211 11.4243 42.7302 0.0153 -20.8063 0.0053
# 4 0.0001 0.0023 0.0153 9.4715 -0.0011 -9.5545
# 5 -34.5985 -9.8909 -20.8063 -0.0011 40.2002 0.0002
# 6 -0.0002 0.0002 0.0053 -9.5545 0.0002 31.2374
#
#
#
# Elastic Compliance Matrix: (Units=1/GPa)
#
#
# Indices 1 2 3 4 5 6 
#
# 1 0.016770 -0.006391 -0.005935 0.000019 0.009789 0.000007
# 2 -0.006391 0.014385 -0.000095 -0.000005 -0.002011 -0.000002
# 3 -0.005935 -0.000095 0.033853 -0.000085 0.012390 -0.000032
# 4 0.000019 -0.000005 -0.000085 0.152694 -0.000025 0.046704
# 5 0.009789 -0.002011 0.012390 -0.000025 0.039218 -0.000010
# 6 0.000007 -0.000002 -0.000032 0.046704 -0.000010 0.046298
#
#
# Mechanical properties :
#
#
# Convention : Reuss Voigt Hill
#
# Bulk Modulus (GPa) = 24.89738 45.53985 35.21862
# Shear Modulus (GPa) = 14.64347 26.27421 20.45884
#
# Velocity S-wave (km/s) = 2.72364 3.64832 3.21935
# Velocity P-wave (km/s) = 4.74381 6.38881 5.62675
#
# Compressibility (1/GPa) = 0.04016487
#
# Stress axis : x y z
#
# Youngs Moduli (GPa) = 59.63120 69.51755 29.53953
#
# Poissons Ratio (x) = 0.44429 0.17531
# Poissons Ratio (y) = 0.38111 0.00282
# Poissons Ratio (z) = 0.35390 0.00663
#
# Static dielectric constant tensor:
#      x y z
#    x 1.712010 0.000000 -0.019560 
#    y 0.000000 1.810460 0.000000 
#    z -0.019560 0.000000 1.750190 
# 
# From -- ./inp_files/307437.got.cif
#   From: 2010.05.17/outbox.cif.g08.bks.cpg/sg12_154_cif.got.tgz:307437.got - 2010.06.03 13:09:07.
