data_PCOD9191764
_publ_section_title
;
Structure prediction by ZEFSAII (Michael W. Deem and Ramdas Pophale) SiO2 
 PCOD9191764
Probable space group: C 2/M
;
_chemical_formula_sum "Si O2"
_cell_formula_units_Z 64
_cell_length_a 9.055684
_cell_length_b 23.089535
_cell_length_c 31.529363
_cell_angle_alpha 90.000000
_cell_angle_beta 151.637850
_cell_angle_gamma 90.000000
_cell_volume 3131.731846
_symmetry_space_group_name_H-M "C 2/M"
_symmetry_group_IT_number 12
_symmetry_cell_setting 'monoclinic'
loop_
_space_group_symop_operation_xyz
x,y,z
-x,y,-z
-x,-y,-z
x,-y,z
1/2+x,1/2+y,z
1/2-x,1/2+y,-z
1/2-x,1/2-y,-z
1/2+x,1/2-y,z
loop_
_atom_site_type_symbol
_atom_site_label
_atom_site_fract_x
_atom_site_fract_y
_atom_site_fract_z
Si Si1 0.676560 0.567603 0.214285
Si Si2 0.355242 0.109358 0.594339
Si Si3 0.814086 0.820329 0.129343
Si Si4 0.145846 0.287234 0.914522
Si Si5 0.172228 0.720317 0.673045
Si Si6 0.245939 0.567789 0.301300
Si Si7 0.164476 0.431270 0.499519
Si Si8 0.123977 0.176617 0.715928
O O1 0.590688 0.500000 0.193378
O O2 0.389438 0.612182 0.141687
O O3 0.908521 0.580373 0.312799
O O4 0.897024 0.578927 0.229156
O O5 0.377653 0.178670 0.605160
O O6 0.471056 0.096549 0.576310
O O7 0.000000 0.088098 0.500000
O O8 0.846694 0.781323 0.095563
O O9 0.510713 0.803441 0.080229
O O10 0.091263 0.800105 0.230456
O O11 0.925470 0.313085 0.821957
O O12 0.500000 0.307769 0.000000
O O13 0.128696 0.787272 0.672992
O O14 0.344940 0.704366 0.673040
O O15 0.280006 0.500000 0.298951
O O16 0.471995 0.578214 0.398883
O O17 0.358142 0.609942 0.292820
O O18 0.115042 0.500000 0.483989
O O19 0.000000 0.408897 0.500000
#
# Coordination Sequence:
#
# PCOD9191764 Si02
#       8
#     8   8   8   8   8   8   8   8
#     4  10  21  36  58  84 114 157 201 236 282 339
#     4  11  20  34  55  81 114 147 199 248 290 331
#     4   9  20  35  58  87 118 148 183 232 279 340
#     4  10  20  37  63  97 116 144 183 230 291 339
#     4   9  21  35  54  82 109 154 183 230 295 338
#     4  10  21  36  57  81 109 154 199 239 285 339
#     4  10  20  33  51  76 108 146 194 248 291 327
#     4  10  21  38  60  82 117 147 187 235 281 352
#
# _framework density 20.435977000000001
#
# number of rings (size 3 to 8) (size 9 to 14) (size 15 to 20)
#    0.000    2.125    1.250    1.500    8.750    0.500 
#    0.000   10.000    0.000    1.875    0.000    0.000 
#    0.000    0.000    0.000    0.000    0.000    0.000 
#
# Total GULP energy -178370.048637 kJ/mol
# GULP energy per Si atom -5574.064020 kJ/mol
# Density = 2.038946 g / cm^3
# Si number density = 20.435977 Si / 1000 Ang^3
#
#
#
# Elastic Constant Matrix: (Units=GPa)
#
#
# Indices 1 2 3 4 5 6 
#
# 1 91.4712 50.9396 23.9160 0.0116 -0.4421 0.0196
# 2 50.9396 102.2380 16.8861 0.0037 1.9966 0.0039
# 3 23.9160 16.8861 35.2907 0.0176 1.8522 0.0035
# 4 0.0116 0.0037 0.0176 9.7693 0.0114 1.0366
# 5 -0.4421 1.9966 1.8522 0.0114 28.2170 0.0071
# 6 0.0196 0.0039 0.0035 1.0366 0.0071 21.4457
#
#
#
# Elastic Compliance Matrix: (Units=1/GPa)
#
#
# Indices 1 2 3 4 5 6 
#
# 1 0.017085 -0.007182 -0.008211 -0.000003 0.001315 -0.000013
# 2 -0.007182 0.013645 -0.001610 0.000007 -0.000972 0.000004
# 3 -0.008211 -0.001610 0.034792 -0.000050 -0.002298 0.000005
# 4 -0.000003 0.000007 -0.000050 0.102889 -0.000038 -0.004973
# 5 0.001315 -0.000972 -0.002298 -0.000038 0.035680 -0.000011
# 6 -0.000013 0.000004 0.000005 -0.004973 -0.000011 0.046870
#
#
# Mechanical properties :
#
#
# Convention : Reuss Voigt Hill
#
# Bulk Modulus (GPa) = 31.73141 45.83148 38.78144
# Shear Modulus (GPa) = 16.92206 21.03697 18.97952
#
# Velocity S-wave (km/s) = 2.88071 3.21192 3.05081
# Velocity P-wave (km/s) = 5.16000 6.01920 5.60609
#
# Compressibility (1/GPa) = 0.03151451
#
# Stress axis : x y z
#
# Youngs Moduli (GPa) = 58.52995 73.28934 28.74252
#
# Poissons Ratio (x) = 0.52638 0.23600
# Poissons Ratio (y) = 0.42037 0.04629
# Poissons Ratio (z) = 0.48058 0.11803
#
# Static dielectric constant tensor:
#      x y z
#    x 1.809440 0.000000 0.035450 
#    y 0.000000 1.732410 -0.000010 
#    z 0.035450 -0.000010 1.737650 
# 
# From -- ./inp_files/373281.got.cif
#   From: 2010.05.17/outbox.cif.g08.bks.cpg/sg12_187_cif.got.tgz:373281.got - 2010.06.03 13:09:07.
