data_PCOD9191994
_publ_section_title
;
Structure prediction by ZEFSAII (Michael W. Deem and Ramdas Pophale) SiO2 
 PCOD9191994
Probable space group: C 2/M
;
_chemical_formula_sum "Si O2"
_cell_formula_units_Z 64
_cell_length_a 22.933288
_cell_length_b 20.046002
_cell_length_c 8.860472
_cell_angle_alpha 90.000000
_cell_angle_beta 67.271887
_cell_angle_gamma 90.000000
_cell_volume 3757.042068
_symmetry_space_group_name_H-M "C 2/M"
_symmetry_group_IT_number 12
_symmetry_cell_setting 'monoclinic'
loop_
_space_group_symop_operation_xyz
x,y,z
-x,y,-z
-x,-y,-z
x,-y,z
1/2+x,1/2+y,z
1/2-x,1/2+y,-z
1/2-x,1/2-y,-z
1/2+x,1/2-y,z
loop_
_atom_site_type_symbol
_atom_site_label
_atom_site_fract_x
_atom_site_fract_y
_atom_site_fract_z
Si Si1 0.688690 0.286105 0.991591
Si Si2 0.570865 0.209589 0.609197
Si Si3 0.617466 0.075743 0.702458
Si Si4 0.311310 0.713895 0.368972
Si Si5 0.117466 0.424257 0.062609
Si Si6 0.744098 0.425114 0.576475
Si Si7 0.570865 0.790411 0.249072
Si Si8 0.755902 0.074886 0.064672
O O1 0.625630 0.253988 0.121161
O O2 0.697236 0.364664 0.017145
O O3 0.750000 0.250000 0.000000
O O4 0.689330 0.276995 0.810670
O O5 0.579801 0.134168 0.659022
O O6 0.625630 0.253988 0.627579
O O7 0.500000 0.232586 0.718346
O O8 0.578388 0.210243 0.421612
O O9 0.612318 0.083026 0.887682
O O10 0.690652 0.083291 0.579293
O O11 0.598095 0.000000 0.681321
O O12 0.250000 0.750000 0.500000
O O13 0.302764 0.635336 0.411618
O O14 0.098095 0.500000 0.122490
O O15 0.190652 0.416709 0.039403
O O16 0.079801 0.365832 0.181377
O O17 0.719832 0.500000 0.571453
O O18 0.759137 0.420601 0.740863
O O19 0.780168 0.000000 0.011117
#
# Coordination Sequence:
#
# PCOD9191994 Si02
#       8
#     8   8   8   8   8   8   8   8
#     4  11  21  34  57  84 110 141 179 225 272 323
#     4  11  24  39  54  75 107 148 189 227 271 323
#     4  10  20  33  52  79 109 142 180 222 269 322
#     4  11  21  34  57  84 110 141 179 225 272 323
#     4  10  20  33  52  79 109 142 180 222 269 322
#     4   9  18  33  54  80 109 140 175 217 267 323
#     4  11  24  39  54  75 107 148 189 227 271 323
#     4   9  18  33  54  80 109 140 175 217 267 323
#
# _framework density 17.034676999999999
#
# number of rings (size 3 to 8) (size 9 to 14) (size 15 to 20)
#    0.000    1.750    2.500    2.250    0.000    5.000 
#    0.000    2.500    0.000    0.750    0.000    5.250 
#    0.000    0.000    0.000    0.000    0.000    0.000 
#
# Total GULP energy -178650.510967 kJ/mol
# GULP energy per Si atom -5582.828468 kJ/mol
# Density = 1.699590 g / cm^3
# Si number density = 17.034677 Si / 1000 Ang^3
#
#
#
# Elastic Constant Matrix: (Units=GPa)
#
#
# Indices 1 2 3 4 5 6 
#
# 1 110.3060 65.8069 46.3515 0.0000 -9.9344 0.0000
# 2 65.8069 111.5319 51.9882 0.0000 -10.1171 0.0000
# 3 46.3515 51.9882 73.4233 0.0000 -17.0685 0.0000
# 4 0.0000 0.0000 0.0000 24.8959 0.0000 2.0307
# 5 -9.9344 -10.1171 -17.0685 0.0000 19.9696 0.0000
# 6 0.0000 0.0000 0.0000 2.0307 0.0000 22.1223
#
#
#
# Elastic Compliance Matrix: (Units=1/GPa)
#
#
# Indices 1 2 3 4 5 6 
#
# 1 0.015042 -0.006641 -0.004787 0.000000 0.000027 0.000000
# 2 -0.006641 0.016359 -0.007777 0.000000 -0.001663 0.000000
# 3 -0.004787 -0.007777 0.025807 0.000000 0.015736 0.000000
# 4 0.000000 0.000000 0.000000 0.040470 0.000000 -0.003715
# 5 0.000027 -0.001663 0.015736 0.000000 0.062697 0.000000
# 6 0.000000 0.000000 0.000000 -0.003715 0.000000 0.045544
#
#
# Mechanical properties :
#
#
# Convention : Reuss Voigt Hill
#
# Bulk Modulus (GPa) = 53.20280 69.28382 61.24331
# Shear Modulus (GPa) = 19.95254 22.13852 21.04553
#
# Velocity S-wave (km/s) = 3.42612 3.60893 3.51871
# Velocity P-wave (km/s) = 6.85208 7.62406 7.24835
#
# Compressibility (1/GPa) = 0.01879600
#
# Stress axis : x y z
#
# Youngs Moduli (GPa) = 66.48170 61.12914 38.74988
#
# Poissons Ratio (x) = 0.40597 0.18550
# Poissons Ratio (y) = 0.44152 0.30136
# Poissons Ratio (z) = 0.31826 0.47541
#
# Static dielectric constant tensor:
#      x y z
#    x 1.553910 0.000000 0.007890 
#    y 0.000000 1.598460 0.000000 
#    z 0.007890 0.000000 1.564680 
# 
# From -- ./inp_files/89568.got.cif
#   From: 2010.05.17/outbox.cif.g08.bks.cpg/sg12_45_cif.got.tgz:89568.got - 2010.06.03 13:09:07.
