data_PCOD9191388
_publ_section_title
;
Structure prediction by ZEFSAII (Michael W. Deem and Ramdas Pophale) SiO2 
 PCOD9191388
Probable space group: C 2/M
;
_chemical_formula_sum "Si O2"
_cell_formula_units_Z 56
_cell_length_a 11.039887
_cell_length_b 23.237518
_cell_length_c 16.184853
_cell_angle_alpha 90.000000
_cell_angle_beta 38.023663
_cell_angle_gamma 90.000000
_cell_volume 2557.611530
_symmetry_space_group_name_H-M "C 2/M"
_symmetry_group_IT_number 12
_symmetry_cell_setting 'monoclinic'
loop_
_space_group_symop_operation_xyz
x,y,z
-x,y,-z
-x,-y,-z
x,-y,z
1/2+x,1/2+y,z
1/2-x,1/2+y,-z
1/2-x,1/2-y,-z
1/2+x,1/2-y,z
loop_
_atom_site_type_symbol
_atom_site_label
_atom_site_fract_x
_atom_site_fract_y
_atom_site_fract_z
Si Si1 0.314432 0.411021 0.871082
Si Si2 0.321519 0.565354 0.547206
Si Si3 0.389877 0.568104 0.139820
Si Si4 0.930409 0.276445 0.163140
Si Si5 0.525458 0.070661 0.581078
Si Si6 0.183987 0.226508 0.153056
Si Si7 0.400330 0.085507 0.174599
O O1 0.491996 0.426713 0.836875
O O2 0.326354 0.342204 0.853417
O O3 0.267561 0.431516 0.802448
O O4 0.115508 0.430168 0.025655
O O5 0.500000 0.595104 0.500000
O O6 0.384152 0.500000 0.493329
O O7 0.151567 0.562861 0.707783
O O8 0.224359 0.591510 0.518186
O O9 0.369045 0.500000 0.136431
O O10 0.170101 0.591335 0.267408
O O11 0.500000 0.593006 0.000000
O O12 0.988939 0.254013 0.220919
O O13 0.739168 0.256202 0.216437
O O14 0.912611 0.345257 0.172755
O O15 0.120525 0.258228 0.005742
O O16 0.500000 0.086463 0.500000
O O17 0.531974 0.000000 0.581276
#
# Coordination Sequence:
#
# PCOD9191388 Si02
#       7
#     8   8   8   8   8   8   8
#     4   9  18  31  48  74 104 135 166 203 252 315
#     4  10  21  35  53  74  97 131 179 217 247 299
#     4  10  20  33  49  71 105 140 170 207 259 309
#     4   8  14  27  45  65  98 129 156 199 251 298
#     4   9  19  35  52  70  98 133 170 216 257 292
#     4   8  14  27  43  68  97 127 162 197 242 301
#     4   9  18  32  49  72 106 133 162 212 261 299
#
# _framework density 21.895427999999999
#
# number of rings (size 3 to 8) (size 9 to 14) (size 15 to 20)
#    0.000    3.000    0.000    2.571    2.000    2.286 
#   10.286    1.429    0.000    0.000    0.000    5.000 
#    0.000    0.000    0.000    0.000    0.000    0.000 
#
# Total GULP energy -156004.928873 kJ/mol
# GULP energy per Si atom -5571.604603 kJ/mol
# Density = 2.184559 g / cm^3
# Si number density = 21.895428 Si / 1000 Ang^3
#
#
#
# Elastic Constant Matrix: (Units=GPa)
#
#
# Indices 1 2 3 4 5 6 
#
# 1 193.8510 29.7308 29.4782 -0.0497 -5.8591 -0.0612
# 2 29.7308 26.7844 2.1754 0.0420 -0.7183 0.0486
# 3 29.4782 2.1754 38.8933 0.0709 -0.7652 0.0739
# 4 -0.0497 0.0420 0.0709 -106.3022 -0.0276 -138.4342
# 5 -5.8591 -0.7183 -0.7652 -0.0276 24.0273 -0.0305
# 6 -0.0612 0.0486 0.0739 -138.4342 -0.0305 -147.3297
#
#
#
# Elastic Compliance Matrix: (Units=1/GPa)
#
#
# Indices 1 2 3 4 5 6 
#
# 1 0.007089 -0.007432 -0.004931 -0.000003 0.001349 -0.000005
# 2 -0.007432 0.045324 0.003091 0.000009 -0.000359 0.000011
# 3 -0.004931 0.003091 0.029272 0.000000 -0.000178 0.000017
# 4 -0.000003 0.000009 0.000000 0.042063 -0.000002 -0.039524
# 5 0.001349 -0.000359 -0.000178 -0.000002 0.041932 -0.000007
# 6 -0.000005 0.000011 0.000017 -0.039524 -0.000007 0.030350
#
#
# Mechanical properties :
#
#
# Convention : Reuss Voigt Hill
#
# Bulk Modulus (GPa) = 15.83751 42.47750 29.15750
# Shear Modulus (GPa) = 21.22046 -32.71129 -5.74541
#
# Velocity S-wave (km/s) = 3.11653 -3.86939 -1.62164
# Velocity P-wave (km/s) = 4.49436 0.72157 3.13677
#
# Compressibility (1/GPa) = 0.06314126
#
# Stress axis : x y z
#
# Youngs Moduli (GPa) = 141.06262 22.06324 34.16229
#
# Poissons Ratio (x) = 0.16398 0.16844
# Poissons Ratio (y) = 1.04841 -0.10559
# Poissons Ratio (z) = 0.69554 -0.06819
#
# Static dielectric constant tensor:
#      x y z
#    x 1.873950 0.000000 0.009300 
#    y 0.000000 1.768320 0.000000 
#    z 0.009300 0.000000 1.822950 
# 
# From -- ./inp_files/200836.got.cif
#   From: 2010.05.17/outbox.cif.g08.bks.cpg/sg12_101_cif.got.tgz:200836.got - 2010.06.03 13:09:07.
