data_PCOD9191761
_publ_section_title
;
Structure prediction by ZEFSAII (Michael W. Deem and Ramdas Pophale) SiO2 
 PCOD9191761
Probable space group: C 2/M
;
_chemical_formula_sum "Si O2"
_cell_formula_units_Z 48
_cell_length_a 21.009286
_cell_length_b 8.167954
_cell_length_c 32.764740
_cell_angle_alpha 90.000000
_cell_angle_beta 27.680606
_cell_angle_gamma 90.000000
_cell_volume 2611.900267
_symmetry_space_group_name_H-M "C 2/M"
_symmetry_group_IT_number 12
_symmetry_cell_setting 'monoclinic'
loop_
_space_group_symop_operation_xyz
x,y,z
-x,y,-z
-x,-y,-z
x,-y,z
1/2+x,1/2+y,z
1/2-x,1/2+y,-z
1/2-x,1/2-y,-z
1/2+x,1/2-y,z
loop_
_atom_site_type_symbol
_atom_site_label
_atom_site_fract_x
_atom_site_fract_y
_atom_site_fract_z
Si Si1 0.041054 0.805044 0.931905
Si Si2 0.815176 0.802587 0.734457
Si Si3 0.882305 0.197805 0.449743
Si Si4 0.398493 0.804864 0.930278
Si Si5 0.137386 0.799943 0.445907
Si Si6 0.668372 0.800879 0.733780
O O1 0.197279 0.761757 0.831223
O O2 0.944432 0.743798 0.949878
O O3 0.028187 0.000000 0.939930
O O4 0.000000 0.740601 0.000000
O O5 0.767810 0.759402 0.715250
O O6 0.971266 0.746003 0.651538
O O7 0.811732 0.000000 0.739032
O O8 0.750000 0.250000 0.500000
O O9 0.867531 0.255982 0.504822
O O10 0.887907 0.000000 0.447414
O O11 0.518215 0.741481 0.831956
O O12 0.402392 0.000000 0.926498
O O13 0.250000 0.750000 0.000000
O O14 0.266411 0.744374 0.345602
O O15 0.000000 0.752380 0.500000
O O16 0.139115 0.000000 0.445676
O O17 0.664358 0.000000 0.734488
#
# Coordination Sequence:
#
# PCOD9191761 Si02
#       6
#     8   8   8   8   8   8
#     4  10  21  37  57  80 104 135 181 229 269 321
#     4   9  17  32  54  77 102 136 175 216 263 316
#     4  10  20  33  51  76 108 140 171 211 260 312
#     4  10  20  35  56  80 111 143 173 217 269 319
#     4   9  14  26  52  78  97 125 172 216 245 290
#     4   8  14  27  50  78  99 125 171 217 251 294
#
# _framework density 18.377424000000001
#
# number of rings (size 3 to 8) (size 9 to 14) (size 15 to 20)
#    0.000    2.667    1.667    2.000    0.000    2.000 
#    3.000    0.000    0.000    4.500    0.000    0.000 
#    0.000    0.000    0.000    0.000    0.000    0.000 
#
# Total GULP energy -133786.541578 kJ/mol
# GULP energy per Si atom -5574.439232 kJ/mol
# Density = 1.833560 g / cm^3
# Si number density = 18.377424 Si / 1000 Ang^3
#
#
#
# Elastic Constant Matrix: (Units=GPa)
#
#
# Indices 1 2 3 4 5 6 
#
# 1 126.5432 13.0859 104.6695 0.0339 -2.2570 -0.0456
# 2 13.0859 18.5881 17.9155 0.0357 -1.0228 0.0028
# 3 104.6695 17.9155 173.8605 0.0079 -5.1180 -0.0044
# 4 0.0339 0.0357 0.0079 16.0020 -0.0061 -9.0510
# 5 -2.2570 -1.0228 -5.1180 -0.0061 38.0301 0.0088
# 6 -0.0456 0.0028 -0.0044 -9.0510 0.0088 21.0146
#
#
#
# Elastic Compliance Matrix: (Units=1/GPa)
#
#
# Indices 1 2 3 4 5 6 
#
# 1 0.015825 -0.002185 -0.009313 -0.000007 -0.000373 0.000030
# 2 -0.002185 0.060055 -0.004848 -0.000178 0.000833 -0.000091
# 3 -0.009313 -0.004848 0.011885 0.000020 0.000916 -0.000009
# 4 -0.000007 -0.000178 0.000020 0.082620 0.000003 0.035584
# 5 -0.000373 0.000833 0.000916 0.000003 0.026419 -0.000011
# 6 0.000030 -0.000091 -0.000009 0.035584 -0.000011 0.062912
#
#
# Mechanical properties :
#
#
# Convention : Reuss Voigt Hill
#
# Bulk Modulus (GPa) = 18.15796 65.59262 41.87529
# Shear Modulus (GPa) = 16.08929 27.23073 21.66001
#
# Velocity S-wave (km/s) = 2.96208 3.85353 3.43683
# Velocity P-wave (km/s) = 4.64764 7.45446 6.21167
#
# Compressibility (1/GPa) = 0.05507226
#
# Stress axis : x y z
#
# Youngs Moduli (GPa) = 63.19175 16.65133 84.14011
#
# Poissons Ratio (x) = 0.03639 0.78358
# Poissons Ratio (y) = 0.13809 0.40794
# Poissons Ratio (z) = 0.58850 0.08073
#
# Static dielectric constant tensor:
#      x y z
#    x 1.615350 -0.000010 0.004600 
#    y -0.000010 1.655120 0.000000 
#    z 0.004600 0.000000 1.665350 
# 
# From -- ./inp_files/280074.got.cif
#   From: 2010.05.17/outbox.cif.g08.bks.cpg/sg12_141_cif.got.tgz:280074.got - 2010.06.03 13:09:07.
