data_PCOD9191071
_publ_section_title
;
Structure prediction by ZEFSAII (Michael W. Deem and Ramdas Pophale) SiO2 
 PCOD9191071
Probable space group: C 2/M
;
_chemical_formula_sum "Si O2"
_cell_formula_units_Z 56
_cell_length_a 8.976948
_cell_length_b 28.542019
_cell_length_c 12.536084
_cell_angle_alpha 90.000000
_cell_angle_beta 104.436897
_cell_angle_gamma 90.000000
_cell_volume 3110.572329
_symmetry_space_group_name_H-M "C 2/M"
_symmetry_group_IT_number 12
_symmetry_cell_setting 'monoclinic'
loop_
_space_group_symop_operation_xyz
x,y,z
-x,y,-z
-x,-y,-z
x,-y,z
1/2+x,1/2+y,z
1/2-x,1/2+y,-z
1/2-x,1/2-y,-z
1/2+x,1/2-y,z
loop_
_atom_site_type_symbol
_atom_site_label
_atom_site_fract_x
_atom_site_fract_y
_atom_site_fract_z
Si Si1 0.219913 0.604228 0.786329
Si Si2 0.556005 0.946490 0.388071
Si Si3 0.683033 0.628914 0.538486
Si Si4 0.174216 0.445498 0.995927
Si Si5 0.481408 0.553901 0.126534
Si Si6 0.405739 0.716282 0.371586
Si Si7 0.788722 0.189475 0.670992
O O1 0.194622 0.590524 0.903930
O O2 0.389981 0.583547 0.791292
O O3 0.234408 0.658237 0.759821
O O4 0.081971 0.578670 0.700043
O O5 0.500000 0.948852 0.500000
O O6 0.708652 0.914579 0.415691
O O7 0.580031 0.000000 0.353469
O O8 0.500000 0.616792 0.500000
O O9 0.696795 0.670010 0.629278
O O10 0.731075 0.654772 0.435778
O O11 0.205520 0.500000 0.966769
O O12 0.301524 0.435054 0.109078
O O13 0.000000 0.443967 0.000000
O O14 0.508471 0.500000 0.158964
O O15 0.500000 0.558648 0.000000
O O16 0.500000 0.719986 0.500000
O O17 0.311143 0.763629 0.348249
O O18 0.533585 0.705721 0.305156
#
# Coordination Sequence:
#
# PCOD9191071 Si02
#       7
#     8   8   8   8   8   8   8
#     4  11  20  32  54  80 112 143 184 219 276 336
#     4  11  22  33  50  76 116 159 187 212 258 340
#     4   9  19  37  52  72 108 151 193 231 268 308
#     4   9  18  36  58  83 107 135 184 240 284 322
#     4   8  15  31  54  74 101 135 172 223 271 317
#     4   9  19  33  55  74 105 143 193 241 276 302
#     4  10  20  32  52  81 104 141 185 235 275 324
#
# _framework density 18.003119000000002
#
# number of rings (size 3 to 8) (size 9 to 14) (size 15 to 20)
#    0.000    2.714    1.429    3.857    4.000    0.286 
#    5.143    0.000    0.000    0.000    0.000   13.000 
#    0.000    0.000    0.000    0.000    0.000    0.000 
#
# Total GULP energy -155931.723366 kJ/mol
# GULP energy per Si atom -5568.990120 kJ/mol
# Density = 1.796214 g / cm^3
# Si number density = 18.003119 Si / 1000 Ang^3
#
#
#
# Elastic Constant Matrix: (Units=GPa)
#
#
# Indices 1 2 3 4 5 6 
#
# 1 104.0996 70.1275 21.3200 0.0000 20.3309 0.0000
# 2 70.1275 123.6478 22.8044 0.0000 10.4938 0.0000
# 3 21.3200 22.8044 22.4672 0.0000 11.3753 0.0000
# 4 0.0000 0.0000 0.0000 26.9782 0.0000 36.2950
# 5 20.3309 10.4938 11.3753 0.0000 26.5238 0.0000
# 6 0.0000 0.0000 0.0000 36.2950 0.0000 166.7076
#
#
#
# Elastic Compliance Matrix: (Units=1/GPa)
#
#
# Indices 1 2 3 4 5 6 
#
# 1 0.017981 -0.008766 -0.003759 0.000000 -0.008702 0.000000
# 2 -0.008766 0.014229 -0.008528 0.000000 0.004747 0.000000
# 3 -0.003759 -0.008528 0.068422 0.000000 -0.023089 0.000000
# 4 0.000000 0.000000 0.000000 0.052421 0.000000 -0.011413
# 5 -0.008702 0.004747 -0.023089 0.000000 0.052397 0.000000
# 6 0.000000 0.000000 0.000000 -0.011413 0.000000 0.008483
#
#
# Mechanical properties :
#
#
# Convention : Reuss Voigt Hill
#
# Bulk Modulus (GPa) = 17.08628 53.19093 35.13860
# Shear Modulus (GPa) = 18.14566 53.10610 35.62588
#
# Velocity S-wave (km/s) = 3.17822 5.43712 4.45328
# Velocity P-wave (km/s) = 4.79368 8.30819 6.78253
#
# Compressibility (1/GPa) = 0.05852648
#
# Stress axis : x y z
#
# Youngs Moduli (GPa) = 55.61385 70.27812 14.61520
#
# Poissons Ratio (x) = 0.61608 0.05494
# Poissons Ratio (y) = 0.48753 0.12463
# Poissons Ratio (z) = 0.20906 0.59930
#
# Static dielectric constant tensor:
#      x y z
#    x 1.696450 0.000000 -0.007870 
#    y 0.000000 1.620740 0.000000 
#    z -0.007870 0.000000 1.633960 
# 
# From -- ./inp_files/199411.got.cif
#   From: 2010.05.17/outbox.cif.g08.bks.cpg/sg12_100_cif.got.tgz:199411.got - 2010.06.03 13:09:07.
