data_PCOD9191416
_publ_section_title
;
Structure prediction by ZEFSAII (Michael W. Deem and Ramdas Pophale) SiO2 
 PCOD9191416
Probable space group: C 2/M
;
_chemical_formula_sum "Si O2"
_cell_formula_units_Z 56
_cell_length_a 29.152631
_cell_length_b 8.993874
_cell_length_c 19.387903
_cell_angle_alpha 90.000000
_cell_angle_beta 39.742969
_cell_angle_gamma 90.000000
_cell_volume 3250.052884
_symmetry_space_group_name_H-M "C 2/M"
_symmetry_group_IT_number 12
_symmetry_cell_setting 'monoclinic'
loop_
_space_group_symop_operation_xyz
x,y,z
-x,y,-z
-x,-y,-z
x,-y,z
1/2+x,1/2+y,z
1/2-x,1/2+y,-z
1/2-x,1/2-y,-z
1/2+x,1/2-y,z
loop_
_atom_site_type_symbol
_atom_site_label
_atom_site_fract_x
_atom_site_fract_y
_atom_site_fract_z
Si Si1 0.288443 0.324986 0.165194
Si Si2 0.160140 0.177230 0.373321
Si Si3 0.456821 0.675720 0.981745
Si Si4 0.466280 0.176564 0.825279
Si Si5 0.798040 0.321280 0.005076
Si Si6 0.066292 0.332729 0.370183
Si Si7 0.967663 0.177614 0.376505
O O1 0.273295 0.500000 0.174707
O O2 0.236868 0.254811 0.282276
O O3 0.371409 0.306785 0.089722
O O4 0.277715 0.244363 0.103704
O O5 0.123407 0.236410 0.345513
O O6 0.105957 0.218071 0.498237
O O7 0.166421 0.000000 0.364644
O O8 0.470430 0.500000 0.952958
O O9 0.500000 0.719504 0.000000
O O10 0.476210 0.768898 0.891786
O O11 0.522153 0.258563 0.711073
O O12 0.474428 0.000000 0.810081
O O13 0.383490 0.212907 0.899396
O O14 0.789582 0.500000 0.014582
O O15 0.750000 0.250000 0.000000
O O16 0.091524 0.500000 0.324347
O O17 0.000000 0.345482 0.500000
O O18 0.033111 0.249479 0.343706
O O19 0.973364 0.000000 0.371115
#
# Coordination Sequence:
#
# PCOD9191416 Si02
#       7
#     8   8   8   8   8   8   8
#     4  10  20  34  54  79 105 135 173 215 263 315
#     4  10  20  33  49  72 104 142 181 219 258 306
#     4   9  19  38  62  84 105 131 167 213 267 326
#     4  10  21  35  53  79 107 136 175 218 263 313
#     4  10  21  35  50  71 103 141 177 215 260 309
#     4   9  17  29  45  66  95 135 181 221 253 292
#     4  10  20  33  50  72 103 143 182 218 259 306
#
# _framework density 17.23049
#
# number of rings (size 3 to 8) (size 9 to 14) (size 15 to 20)
#    0.000    2.286    0.000    2.571    2.000    6.000 
#    0.000    0.000    0.000    0.857    0.000    0.000 
#    0.000    0.000    0.000    0.000    0.000    0.000 
#
# Total GULP energy -156206.326942 kJ/mol
# GULP energy per Si atom -5578.797391 kJ/mol
# Density = 1.719127 g / cm^3
# Si number density = 17.230490 Si / 1000 Ang^3
#
#
#
# Elastic Constant Matrix: (Units=GPa)
#
#
# Indices 1 2 3 4 5 6 
#
# 1 87.8492 37.7375 37.5949 -0.0015 11.1866 0.0013
# 2 37.7375 75.1491 57.0853 -0.0024 4.0438 0.0031
# 3 37.5949 57.0853 117.6884 0.0019 6.3244 0.0011
# 4 -0.0015 -0.0024 0.0019 28.8235 -0.0004 1.6741
# 5 11.1866 4.0438 6.3244 -0.0004 12.4556 0.0002
# 6 0.0013 0.0031 0.0011 1.6741 0.0002 21.5263
#
#
#
# Elastic Compliance Matrix: (Units=1/GPa)
#
#
# Indices 1 2 3 4 5 6 
#
# 1 0.016267 -0.006442 -0.001438 0.000000 -0.011788 0.000000
# 2 -0.006442 0.023657 -0.009576 0.000002 0.002968 -0.000003
# 3 -0.001438 -0.009576 0.013740 -0.000002 -0.002576 0.000001
# 4 0.000000 0.000002 -0.000002 0.034851 0.000001 -0.002710
# 5 -0.011788 0.002968 -0.002576 0.000001 0.091217 0.000000
# 6 0.000000 -0.000003 0.000001 -0.002710 0.000000 0.046666
#
#
# Mechanical properties :
#
#
# Convention : Reuss Voigt Hill
#
# Bulk Modulus (GPa) = 53.33216 60.61355 56.97286
# Shear Modulus (GPa) = 18.68738 22.44568 20.56653
#
# Velocity S-wave (km/s) = 3.29683 3.61317 3.45862
# Velocity P-wave (km/s) = 6.74622 7.25680 7.00616
#
# Compressibility (1/GPa) = 0.01875041
#
# Stress axis : x y z
#
# Youngs Moduli (GPa) = 61.47435 42.27157 72.78061
#
# Poissons Ratio (x) = 0.27231 0.10468
# Poissons Ratio (y) = 0.39601 0.69697
# Poissons Ratio (z) = 0.08842 0.40481
#
# Static dielectric constant tensor:
#      x y z
#    x 1.563600 0.000000 -0.015990 
#    y 0.000000 1.577220 0.000000 
#    z -0.015990 0.000000 1.614000 
# 
# From -- ./inp_files/288249.got.cif
#   From: 2010.05.17/outbox.cif.g08.bks.cpg/sg12_145_cif.got.tgz:288249.got - 2010.06.03 13:09:07.
