data_PCOD9191696
_publ_section_title
;
Structure prediction by ZEFSAII (Michael W. Deem and Ramdas Pophale) SiO2 
 PCOD9191696
Probable space group: C 2/M
;
_chemical_formula_sum "Si O2"
_cell_formula_units_Z 56
_cell_length_a 20.610911
_cell_length_b 8.953787
_cell_length_c 19.541089
_cell_angle_alpha 90.000000
_cell_angle_beta 96.443947
_cell_angle_gamma 90.000000
_cell_volume 3583.440422
_symmetry_space_group_name_H-M "C 2/M"
_symmetry_group_IT_number 12
_symmetry_cell_setting 'monoclinic'
loop_
_space_group_symop_operation_xyz
x,y,z
-x,y,-z
-x,-y,-z
x,-y,z
1/2+x,1/2+y,z
1/2-x,1/2+y,-z
1/2-x,1/2-y,-z
1/2+x,1/2-y,z
loop_
_atom_site_type_symbol
_atom_site_label
_atom_site_fract_x
_atom_site_fract_y
_atom_site_fract_z
Si Si1 0.979467 0.179342 0.574887
Si Si2 0.289938 0.822179 0.403582
Si Si3 0.659675 0.177533 0.436191
Si Si4 0.609682 0.822359 0.832180
Si Si5 0.895291 0.820925 0.317241
Si Si6 0.306224 0.326358 0.049809
Si Si7 0.951172 0.174702 0.052357
O O1 0.911887 0.257975 0.586075
O O2 0.000000 0.222341 0.500000
O O3 0.039005 0.215712 0.632497
O O4 0.969798 0.000000 0.574259
O O5 0.323198 0.793212 0.481726
O O6 0.217133 0.756227 0.400313
O O7 0.334111 0.744136 0.351873
O O8 0.287961 0.000000 0.392808
O O9 0.661709 0.000000 0.425720
O O10 0.602202 0.749723 0.757484
O O11 0.674676 0.758776 0.877883
O O12 0.552848 0.766412 0.877605
O O13 0.611374 0.000000 0.828771
O O14 0.890272 0.000000 0.312360
O O15 0.291838 0.500000 0.061489
O O16 0.375849 0.319368 0.018366
O O17 0.250000 0.250000 0.000000
O O18 0.965873 0.000000 0.068646
O O19 0.000000 0.229185 0.000000
#
# Coordination Sequence:
#
# PCOD9191696 Si02
#       7
#     8   8   8   8   8   8   8
#     4  10  20  34  53  77 103 136 178 224 271 320
#     4  10  20  33  52  75 101 134 172 215 267 320
#     4  10  20  33  51  75 102 131 170 221 268 316
#     4  10  20  33  52  79 110 140 175 214 259 314
#     4  11  21  35  55  76 104 140 178 221 270 319
#     4   9  17  31  53  80 106 134 168 208 253 302
#     4   8  16  32  54  78 105 137 172 209 251 303
#
# _framework density 15.62744
#
# number of rings (size 3 to 8) (size 9 to 14) (size 15 to 20)
#    0.857    1.429    1.429    2.571    0.000    2.857 
#    0.000    0.000    3.143    0.000    0.000    0.000 
#    0.000    0.000    0.000    0.000    0.000    0.000 
#
# Total GULP energy -155920.859066 kJ/mol
# GULP energy per Si atom -5568.602110 kJ/mol
# Density = 1.559187 g / cm^3
# Si number density = 15.627440 Si / 1000 Ang^3
#
#
#
# Elastic Constant Matrix: (Units=GPa)
#
#
# Indices 1 2 3 4 5 6 
#
# 1 114.5939 61.5362 72.7638 0.0000 -9.2912 0.0000
# 2 61.5362 88.8619 71.7031 0.0000 -6.0183 0.0000
# 3 72.7638 71.7031 126.2255 0.0000 -3.7223 0.0000
# 4 0.0000 0.0000 0.0000 26.4772 0.0000 -0.3365
# 5 -9.2912 -6.0183 -3.7223 0.0000 24.2979 0.0000
# 6 0.0000 0.0000 0.0000 -0.3365 0.0000 29.3066
#
#
#
# Elastic Compliance Matrix: (Units=1/GPa)
#
#
# Indices 1 2 3 4 5 6 
#
# 1 0.015899 -0.006376 -0.005435 0.000000 0.003668 0.000000
# 2 -0.006376 0.023609 -0.009679 0.000000 0.001927 0.000000
# 3 -0.005435 -0.009679 0.016496 0.000000 -0.001949 0.000000
# 4 0.000000 0.000000 0.000000 0.037774 0.000000 0.000434
# 5 0.003668 0.001927 -0.001949 0.000000 0.042737 0.000000
# 6 0.000000 0.000000 0.000000 0.000434 0.000000 0.034127
#
#
# Mechanical properties :
#
#
# Convention : Reuss Voigt Hill
#
# Bulk Modulus (GPa) = 76.77974 82.40973 79.59474
# Shear Modulus (GPa) = 22.93966 24.26156 23.60061
#
# Velocity S-wave (km/s) = 3.83549 3.94445 3.89035
# Velocity P-wave (km/s) = 8.29775 8.57866 8.43937
#
# Compressibility (1/GPa) = 0.01302427
#
# Stress axis : x y z
#
# Youngs Moduli (GPa) = 62.89842 42.35627 60.62013
#
# Poissons Ratio (x) = 0.27006 0.32947
# Poissons Ratio (y) = 0.40103 0.58675
# Poissons Ratio (z) = 0.34185 0.40997
#
# Static dielectric constant tensor:
#      x y z
#    x 1.507900 0.000000 -0.003210 
#    y 0.000000 1.521220 0.000000 
#    z -0.003210 0.000000 1.498310 
# 
# From -- ./inp_files/280286.got.cif
#   From: 2010.05.17/outbox.cif.g08.bks.cpg/sg12_141_cif.got.tgz:280286.got - 2010.06.03 13:09:07.
