data_PCOD9191106
_publ_section_title
;
Structure prediction by ZEFSAII (Michael W. Deem and Ramdas Pophale) SiO2 
 PCOD9191106
Probable space group: C 2/M
;
_chemical_formula_sum "Si O2"
_cell_formula_units_Z 40
_cell_length_a 9.279830
_cell_length_b 22.635898
_cell_length_c 12.212749
_cell_angle_alpha 90.000000
_cell_angle_beta 125.265075
_cell_angle_gamma 90.000000
_cell_volume 2094.603753
_symmetry_space_group_name_H-M "C 2/M"
_symmetry_group_IT_number 12
_symmetry_cell_setting 'monoclinic'
loop_
_space_group_symop_operation_xyz
x,y,z
-x,y,-z
-x,-y,-z
x,-y,z
1/2+x,1/2+y,z
1/2-x,1/2+y,-z
1/2-x,1/2-y,-z
1/2+x,1/2-y,z
loop_
_atom_site_type_symbol
_atom_site_label
_atom_site_fract_x
_atom_site_fract_y
_atom_site_fract_z
Si Si1 0.137916 0.168591 0.739140
Si Si2 0.788744 0.934258 0.385715
Si Si3 0.270298 0.845165 0.473075
Si Si4 0.388254 0.196442 0.292796
Si Si5 0.177184 0.186185 0.004203
O O1 0.235441 0.117204 0.715250
O O2 0.191508 0.236981 0.741904
O O3 0.935927 0.167807 0.609320
O O4 0.145617 0.155975 0.872980
O O5 0.704055 0.908913 0.459916
O O6 0.000000 0.937893 0.500000
O O7 0.728168 0.000000 0.329450
O O8 0.401369 0.802469 0.597955
O O9 0.319069 0.838109 0.368097
O O10 0.326676 0.165007 0.154621
O O11 0.250000 0.250000 0.000000
O O12 0.000000 0.189037 0.000000
#
# Coordination Sequence:
#
# PCOD9191106 Si02
#       5
#     8   8   8   8   8
#     4  10  20  32  56  76 110 144 179 222 269 330
#     4   9  20  36  55  79 105 145 190 228 268 318
#     4  10  20  32  53  80 108 139 175 227 271 323
#     4  10  21  30  51  85 112 138 173 219 287 332
#     4  10  20  35  51  78 116 150 176 215 274 339
#
# _framework density 19.096692000000001
#
# number of rings (size 3 to 8) (size 9 to 14) (size 15 to 20)
#    0.000    2.200    2.000    0.600   11.200    1.600 
#    0.000    2.000    0.000    4.200    0.000    0.000 
#    0.000    0.000    0.000    0.000    0.000    0.000 
#
# Total GULP energy -111352.198450 kJ/mol
# GULP energy per Si atom -5567.609923 kJ/mol
# Density = 1.905323 g / cm^3
# Si number density = 19.096692 Si / 1000 Ang^3
#
#
#
# Elastic Constant Matrix: (Units=GPa)
#
#
# Indices 1 2 3 4 5 6 
#
# 1 57.8688 33.9316 44.4074 0.0000 -28.2457 0.0000
# 2 33.9316 104.8410 35.4916 0.0000 -24.2834 0.0000
# 3 44.4074 35.4916 133.8474 0.0000 -18.1874 0.0000
# 4 0.0000 0.0000 0.0000 -7.4699 0.0000 -5.5649
# 5 -28.2457 -24.2834 -18.1874 0.0000 34.1397 0.0000
# 6 0.0000 0.0000 0.0000 -5.5649 0.0000 14.1875
#
#
#
# Elastic Compliance Matrix: (Units=1/GPa)
#
#
# Indices 1 2 3 4 5 6 
#
# 1 0.037467 -0.003819 -0.008166 0.000000 0.023932 0.000000
# 2 -0.003819 0.012369 -0.001344 0.000000 0.004923 0.000000
# 3 -0.008166 -0.001344 0.010230 0.000000 -0.002263 0.000000
# 4 0.000000 0.000000 0.000000 -0.103598 0.000000 -0.040635
# 5 0.023932 0.004923 -0.002263 0.000000 0.051388 0.000000
# 6 0.000000 0.000000 0.000000 -0.040635 0.000000 0.054545
#
#
# Mechanical properties :
#
#
# Convention : Reuss Voigt Hill
#
# Bulk Modulus (GPa) = 29.93250 58.24649 44.08949
# Shear Modulus (GPa) = 49.90220 20.35324 35.12772
#
# Velocity S-wave (km/s) = 5.11743 3.26820 4.29355
# Velocity P-wave (km/s) = 7.11517 6.69392 6.90776
#
# Compressibility (1/GPa) = 0.03340850
#
# Stress axis : x y z
#
# Youngs Moduli (GPa) = 26.68984 80.84469 97.75646
#
# Poissons Ratio (x) = 0.30871 0.79831
# Poissons Ratio (y) = 0.10192 0.13139
# Poissons Ratio (z) = 0.21796 0.10866
#
# Static dielectric constant tensor:
#      x y z
#    x 1.725190 0.000000 0.011680 
#    y 0.000000 1.680090 0.000000 
#    z 0.011680 0.000000 1.732690 
# 
# From -- ./inp_files/122177.got.cif
#   From: 2010.05.17/outbox.cif.g08.bks.cpg/sg12_62_cif.got.tgz:122177.got - 2010.06.03 13:09:07.
