data_PCOD9191799
_publ_section_title
;
Structure prediction by ZEFSAII (Michael W. Deem and Ramdas Pophale) SiO2 
 PCOD9191799
Probable space group: C 2/M
;
_chemical_formula_sum "Si O2"
_cell_formula_units_Z 64
_cell_length_a 16.209135
_cell_length_b 8.883658
_cell_length_c 26.276600
_cell_angle_alpha 90.000000
_cell_angle_beta 133.558445
_cell_angle_gamma 90.000000
_cell_volume 2741.966983
_symmetry_space_group_name_H-M "C 2/M"
_symmetry_group_IT_number 12
_symmetry_cell_setting 'monoclinic'
loop_
_space_group_symop_operation_xyz
x,y,z
-x,y,-z
-x,-y,-z
x,-y,z
1/2+x,1/2+y,z
1/2-x,1/2+y,-z
1/2-x,1/2-y,-z
1/2+x,1/2-y,z
loop_
_atom_site_type_symbol
_atom_site_label
_atom_site_fract_x
_atom_site_fract_y
_atom_site_fract_z
Si Si1 0.022547 0.323400 0.090763
Si Si2 0.221553 0.325829 0.419224
Si Si3 0.464155 0.683159 0.541930
Si Si4 0.492257 0.326415 0.293957
Si Si5 0.291333 0.325892 0.328292
Si Si6 0.203581 0.821231 0.031729
Si Si7 0.565900 0.328667 0.207099
Si Si8 0.264610 0.179327 0.168504
O O1 0.018752 0.500000 0.080149
O O2 0.004063 0.284313 0.142560
O O3 0.146555 0.256768 0.133049
O O4 0.924114 0.242004 0.017469
O O5 0.203323 0.500000 0.426047
O O6 0.335010 0.262102 0.495226
O O7 0.261080 0.327216 0.376106
O O8 0.102377 0.239049 0.369568
O O9 0.500000 0.729173 0.500000
O O10 0.457559 0.500000 0.539571
O O11 0.576805 0.720779 0.621842
O O12 0.477527 0.500000 0.302035
O O13 0.525809 0.319134 0.248202
O O14 0.372886 0.240747 0.244818
O O15 0.276201 0.500000 0.304724
O O16 0.198971 0.216935 0.264656
O O17 0.200388 0.000000 0.025108
O O18 0.250000 0.750000 0.000000
O O19 0.274501 0.784179 0.112424
O O20 0.549828 0.500000 0.182275
O O21 0.256193 0.000000 0.170439
#
# Coordination Sequence:
#
# PCOD9191799 Si02
#       8
#     8   8   8   8   8   8   8   8
#     4  12  25  40  60  84 111 144 181 222 268 316
#     4   8  13  23  41  65  96 135 176 218 267 319
#     4   7  10  18  35  61  93 130 171 216 265 316
#     4  10  20  33  51  77 108 142 181 225 270 316
#     4   8  13  23  41  66  97 133 176 222 267 317
#     4  11  24  42  65  91 117 145 178 216 260 312
#     4  10  20  34  52  76 109 145 182 225 271 320
#     4  11  24  41  60  82 110 144 180 219 265 317
#
# _framework density 23.340907999999999
#
# number of rings (size 3 to 8) (size 9 to 14) (size 15 to 20)
#    0.000    2.375    0.000    5.250    0.000    7.000 
#    0.000    0.625    0.000    3.750    0.000    0.875 
#    0.000    0.000    0.000    0.000    0.000    0.000 
#
# Total GULP energy -178994.093392 kJ/mol
# GULP energy per Si atom -5593.565418 kJ/mol
# Density = 2.328778 g / cm^3
# Si number density = 23.340908 Si / 1000 Ang^3
#
#
#
# Elastic Constant Matrix: (Units=GPa)
#
#
# Indices 1 2 3 4 5 6 
#
# 1 100.6492 17.3815 34.2004 0.0000 16.3403 0.0000
# 2 17.3815 61.1004 40.8099 0.0000 3.6458 0.0000
# 3 34.2004 40.8099 143.1923 0.0000 14.7257 0.0000
# 4 0.0000 0.0000 0.0000 32.6363 0.0000 10.5543
# 5 16.3403 3.6458 14.7257 0.0000 44.4913 0.0000
# 6 0.0000 0.0000 0.0000 10.5543 0.0000 25.4727
#
#
#
# Elastic Compliance Matrix: (Units=1/GPa)
#
#
# Indices 1 2 3 4 5 6 
#
# 1 0.011438 -0.001803 -0.001865 0.000000 -0.003436 0.000000
# 2 -0.001803 0.020502 -0.005495 0.000000 0.000801 0.000000
# 3 -0.001865 -0.005495 0.009191 0.000000 -0.001907 0.000000
# 4 0.000000 0.000000 0.000000 0.035382 0.000000 -0.014660
# 5 -0.003436 0.000801 -0.001907 0.000000 0.024304 0.000000
# 6 0.000000 0.000000 0.000000 -0.014660 0.000000 0.045332
#
#
# Mechanical properties :
#
#
# Convention : Reuss Voigt Hill
#
# Bulk Modulus (GPa) = 43.84874 54.41393 49.13134
# Shear Modulus (GPa) = 29.05695 34.69005 31.87350
#
# Velocity S-wave (km/s) = 3.53213 3.85935 3.69936
# Velocity P-wave (km/s) = 5.95497 6.57440 6.27234
#
# Compressibility (1/GPa) = 0.02280567
#
# Stress axis : x y z
#
# Youngs Moduli (GPa) = 87.42499 48.77637 108.80143
#
# Poissons Ratio (x) = 0.08797 0.20287
# Poissons Ratio (y) = 0.15767 0.59782
# Poissons Ratio (z) = 0.16301 0.26801
#
# Static dielectric constant tensor:
#      x y z
#    x 2.022800 0.000000 -0.028490 
#    y 0.000000 1.777110 0.000000 
#    z -0.028490 0.000000 1.910270 
# 
# From -- ./inp_files/378345.got.cif
#   From: 2010.05.17/outbox.cif.g08.bks.cpg/sg12_190_cif.got.tgz:378345.got - 2010.06.03 13:09:07.
