data_PCOD9191675
_publ_section_title
;
Structure prediction by ZEFSAII (Michael W. Deem and Ramdas Pophale) SiO2 
 PCOD9191675
Probable space group: C 2/M
;
_chemical_formula_sum "Si O2"
_cell_formula_units_Z 64
_cell_length_a 19.461232
_cell_length_b 9.018264
_cell_length_c 25.776265
_cell_angle_alpha 90.000000
_cell_angle_beta 55.876117
_cell_angle_gamma 90.000000
_cell_volume 3745.006905
_symmetry_space_group_name_H-M "C 2/M"
_symmetry_group_IT_number 12
_symmetry_cell_setting 'monoclinic'
loop_
_space_group_symop_operation_xyz
x,y,z
-x,y,-z
-x,-y,-z
x,-y,z
1/2+x,1/2+y,z
1/2-x,1/2+y,-z
1/2-x,1/2-y,-z
1/2+x,1/2-y,z
loop_
_atom_site_type_symbol
_atom_site_label
_atom_site_fract_x
_atom_site_fract_y
_atom_site_fract_z
Si Si1 0.729287 0.323731 0.929182
Si Si2 0.208603 0.325306 0.828670
Si Si3 0.243361 0.678035 0.446605
Si Si4 0.149701 0.175675 0.693385
Si Si5 0.879354 0.176879 0.926464
Si Si6 0.550045 0.175824 0.821149
Si Si7 0.092694 0.176926 0.447044
Si Si8 0.798594 0.175403 0.691604
O O1 0.742675 0.500000 0.924751
O O2 0.709625 0.269250 0.880000
O O3 0.810726 0.242169 0.916447
O O4 0.655435 0.289118 0.001153
O O5 0.209198 0.500000 0.841725
O O6 0.126995 0.296865 0.828059
O O7 0.287175 0.295317 0.757316
O O8 0.238037 0.500000 0.451968
O O9 0.250000 0.750000 0.500000
O O10 0.323665 0.714557 0.376555
O O11 0.162301 0.741504 0.451609
O O12 0.076109 0.259574 0.754011
O O13 0.231182 0.223735 0.691310
O O14 0.136423 0.000000 0.702346
O O15 0.967739 0.248341 0.877462
O O16 0.883795 0.000000 0.918933
O O17 0.538955 0.000000 0.822122
O O18 0.116970 0.197839 0.376058
O O19 0.000000 0.225705 0.500000
O O20 0.098626 0.000000 0.454971
O O21 0.775452 0.000000 0.694631
#
# Coordination Sequence:
#
# PCOD9191675 Si02
#       8
#     8   8   8   8   8   8   8   8
#     4  10  21  36  54  75 100 133 171 208 249 299
#     4   9  18  32  51  75 102 132 165 205 252 300
#     4  10  20  33  51  74 101 135 172 210 252 298
#     4   9  17  30  49  73  99 130 168 208 252 298
#     4  10  21  37  55  74 100 134 169 207 251 299
#     4  10  20  34  54  79 104 131 165 205 250 300
#     4   9  17  31  52  75 100 132 169 209 252 299
#     4   8  15  29  48  71  99 132 167 202 248 302
#
# _framework density 17.08942
#
# number of rings (size 3 to 8) (size 9 to 14) (size 15 to 20)
#    0.000    2.625    0.000    2.625    0.000    6.250 
#    0.000    3.750    0.000    6.000    0.000    0.000 
#    0.000    0.000    0.000    0.000    0.000    0.000 
#
# Total GULP energy -178292.552152 kJ/mol
# GULP energy per Si atom -5571.642255 kJ/mol
# Density = 1.705052 g / cm^3
# Si number density = 17.089420 Si / 1000 Ang^3
#
#
#
# Elastic Constant Matrix: (Units=GPa)
#
#
# Indices 1 2 3 4 5 6 
#
# 1 47.7663 38.6936 71.0309 0.0000 -3.6362 0.0000
# 2 38.6936 63.3122 75.1003 -0.0001 2.2777 0.0001
# 3 71.0309 75.1003 166.7816 0.0000 -3.9174 0.0000
# 4 0.0000 -0.0001 0.0000 30.2854 0.0000 1.0675
# 5 -3.6362 2.2777 -3.9174 0.0000 29.4844 -0.0001
# 6 0.0000 0.0001 0.0000 1.0675 -0.0001 27.9610
#
#
#
# Elastic Compliance Matrix: (Units=1/GPa)
#
#
# Indices 1 2 3 4 5 6 
#
# 1 0.063695 -0.015362 -0.020060 0.000000 0.006377 0.000000
# 2 -0.015362 0.038260 -0.010833 0.000000 -0.006289 0.000000
# 3 -0.020060 -0.010833 0.019440 0.000000 0.000946 0.000000
# 4 0.000000 0.000000 0.000000 0.033064 0.000000 -0.001262
# 5 0.006377 -0.006289 0.000946 0.000000 0.035314 0.000000
# 6 0.000000 0.000000 0.000000 -0.001262 0.000000 0.035812
#
#
# Mechanical properties :
#
#
# Convention : Reuss Voigt Hill
#
# Bulk Modulus (GPa) = 34.62122 71.94552 53.28337
# Shear Modulus (GPa) = 15.25676 23.74852 19.50264
#
# Velocity S-wave (km/s) = 2.99115 3.73186 3.38185
# Velocity P-wave (km/s) = 5.67734 7.79486 6.81880
#
# Compressibility (1/GPa) = 0.02888402
#
# Stress axis : x y z
#
# Youngs Moduli (GPa) = 15.69977 26.13708 51.44116
#
# Poissons Ratio (x) = 0.40151 1.03192
# Poissons Ratio (y) = 0.24118 0.55728
# Poissons Ratio (z) = 0.31494 0.28315
#
# Static dielectric constant tensor:
#      x y z
#    x 1.545320 0.000000 -0.005090 
#    y 0.000000 1.569000 0.000000 
#    z -0.005090 0.000000 1.613230 
# 
# From -- ./inp_files/346040.got.cif
#   From: 2010.05.17/outbox.cif.g08.bks.cpg/sg12_174_cif.got.tgz:346040.got - 2010.06.03 13:09:07.
