data_PCOD9191527
_publ_section_title
;
Structure prediction by ZEFSAII (Michael W. Deem and Ramdas Pophale) SiO2 
 PCOD9191527
Probable space group: C 2/M
;
_chemical_formula_sum "Si O2"
_cell_formula_units_Z 56
_cell_length_a 28.299944
_cell_length_b 7.453816
_cell_length_c 24.420077
_cell_angle_alpha 90.000000
_cell_angle_beta 29.908803
_cell_angle_gamma 90.000000
_cell_volume 2568.513029
_symmetry_space_group_name_H-M "C 2/M"
_symmetry_group_IT_number 12
_symmetry_cell_setting 'monoclinic'
loop_
_space_group_symop_operation_xyz
x,y,z
-x,y,-z
-x,-y,-z
x,-y,z
1/2+x,1/2+y,z
1/2-x,1/2+y,-z
1/2-x,1/2-y,-z
1/2+x,1/2-y,z
loop_
_atom_site_type_symbol
_atom_site_label
_atom_site_fract_x
_atom_site_fract_y
_atom_site_fract_z
Si Si1 0.359912 0.287351 0.900934
Si Si2 0.857542 0.780719 0.238805
Si Si3 0.573937 0.780511 0.378900
Si Si4 0.428080 0.280586 0.951204
Si Si5 0.287924 0.280909 0.188950
Si Si6 0.711384 0.785010 0.478266
Si Si7 0.497242 0.789929 0.339818
O O1 0.372165 0.500000 0.889971
O O2 0.392133 0.218570 0.928001
O O3 0.426919 0.221779 0.784909
O O4 0.250000 0.250000 0.000000
O O5 0.824730 0.724169 0.211465
O O6 0.784095 0.719522 0.358959
O O7 0.964373 0.724726 0.145151
O O8 0.857360 0.000000 0.239196
O O9 0.500000 0.726925 0.500000
O O10 0.680569 0.722963 0.285333
O O11 0.539150 0.716690 0.354397
O O12 0.575917 0.000000 0.376438
O O13 0.426972 0.500000 0.952068
O O14 0.357921 0.223831 0.070131
O O15 0.288107 0.500000 0.188884
O O16 0.750000 0.750000 0.500000
O O17 0.604825 0.715098 0.575634
O O18 0.708413 0.000000 0.475751
O O19 0.481248 0.000000 0.366922
#
# Coordination Sequence:
#
# PCOD9191527 Si02
#       7
#     8   8   8   8   8   8   8
#     4  11  22  36  54  76 104 137 172 210 254 305
#     4   9  16  27  44  69 100 130 162 202 251 302
#     4   9  16  27  45  70 100 132 167 212 264 310
#     4   9  17  28  44  68  98 130 163 204 253 303
#     4   9  15  24  41  66  96 127 159 201 254 306
#     4  10  20  33  50  73 102 136 172 210 251 300
#     4  10  20  34  52  76 105 135 171 214 260 309
#
# _framework density 21.802499000000001
#
# number of rings (size 3 to 8) (size 9 to 14) (size 15 to 20)
#    0.000    2.429    0.000    3.429    0.000    9.143 
#    0.000    0.000    0.000    0.429    0.000    7.000 
#    0.000   13.714    0.000    0.000    0.000    0.000 
#
# Total GULP energy -156519.674264 kJ/mol
# GULP energy per Si atom -5589.988367 kJ/mol
# Density = 2.175288 g / cm^3
# Si number density = 21.802499 Si / 1000 Ang^3
#
#
#
# Elastic Constant Matrix: (Units=GPa)
#
#
# Indices 1 2 3 4 5 6 
#
# 1 272.4348 1.0517 159.1583 0.0006 -3.5205 0.0036
# 2 1.0517 63.5527 -6.2427 0.0147 -2.4696 -0.0067
# 3 159.1583 -6.2427 238.0071 0.0121 -7.4457 -0.0003
# 4 0.0006 0.0147 0.0121 1.7221 0.0002 5.3661
# 5 -3.5205 -2.4696 -7.4457 0.0002 49.0341 -0.0048
# 6 0.0036 -0.0067 -0.0003 5.3661 -0.0048 12.8038
#
#
#
# Elastic Compliance Matrix: (Units=1/GPa)
#
#
# Indices 1 2 3 4 5 6 
#
# 1 0.006042 -0.000507 -0.004060 -0.000123 -0.000208 0.000049
# 2 -0.000507 0.015854 0.000782 0.000549 0.000881 -0.000221
# 3 -0.004060 0.000782 0.006962 0.000199 0.000805 -0.000081
# 4 -0.000123 0.000549 0.000199 -1.897900 0.000134 0.795415
# 5 -0.000208 0.000881 0.000805 0.000134 0.020546 -0.000048
# 6 0.000049 -0.000221 -0.000081 0.795415 -0.000048 -0.255259
#
#
# Mechanical properties :
#
#
# Convention : Reuss Voigt Hill
#
# Bulk Modulus (GPa) = 46.97220 97.99215 72.48217
# Shear Modulus (GPa) = -2.39339 40.71380 19.16021
#
# Velocity S-wave (km/s) = -1.04888 4.32602 2.96769
# Velocity P-wave (km/s) = 4.48601 8.36633 6.71267
#
# Compressibility (1/GPa) = 0.02128919
#
# Stress axis : x y z
#
# Youngs Moduli (GPa) = 165.51512 63.07440 143.63235
#
# Poissons Ratio (x) = 0.03197 0.58315
# Poissons Ratio (y) = 0.08389 -0.11236
# Poissons Ratio (z) = 0.67199 -0.04934
#
# Static dielectric constant tensor:
#      x y z
#    x 1.749430 -0.000010 -0.003990 
#    y -0.000010 1.885760 0.000010 
#    z -0.003990 0.000010 1.725170 
# 
# From -- ./inp_files/351609.got.cif
#   From: 2010.05.17/outbox.cif.g08.bks.cpg/sg12_176_cif.got.tgz:351609.got - 2010.06.03 13:09:07.
