data_PCOD9191978
_publ_section_title
;
Structure prediction by ZEFSAII (Michael W. Deem and Ramdas Pophale) SiO2 
 PCOD9191978
Probable space group: C 2/M
;
_chemical_formula_sum "Si O2"
_cell_formula_units_Z 56
_cell_length_a 19.189724
_cell_length_b 7.598858
_cell_length_c 30.038841
_cell_angle_alpha 90.000000
_cell_angle_beta 37.992208
_cell_angle_gamma 90.000000
_cell_volume 2696.290001
_symmetry_space_group_name_H-M "C 2/M"
_symmetry_group_IT_number 12
_symmetry_cell_setting 'monoclinic'
loop_
_space_group_symop_operation_xyz
x,y,z
-x,y,-z
-x,-y,-z
x,-y,z
1/2+x,1/2+y,z
1/2-x,1/2+y,-z
1/2-x,1/2-y,-z
1/2+x,1/2-y,z
loop_
_atom_site_type_symbol
_atom_site_label
_atom_site_fract_x
_atom_site_fract_y
_atom_site_fract_z
Si Si1 0.057029 0.707933 0.699271
Si Si2 0.294669 0.294829 0.290706
Si Si3 0.088832 0.708324 0.990334
Si Si4 0.505974 0.286633 0.130275
Si Si5 0.843107 0.212559 0.863380
Si Si6 0.459901 0.216097 0.569291
Si Si7 0.117538 0.711083 0.571101
O O1 0.079463 0.500000 0.687656
O O2 0.142286 0.784802 0.693308
O O3 0.075893 0.778048 0.640136
O O4 0.930067 0.737519 0.780761
O O5 0.281145 0.500000 0.286201
O O6 0.384541 0.221463 0.209745
O O7 0.168325 0.221827 0.356994
O O8 0.098929 0.500000 0.975948
O O9 0.216002 0.780650 0.922771
O O10 0.040400 0.729437 0.064130
O O11 0.000000 0.784414 0.000000
O O12 0.503734 0.500000 0.132175
O O13 0.599147 0.228094 0.119536
O O14 0.840268 0.000000 0.866354
O O15 0.500000 0.270932 0.500000
O O16 0.544911 0.274793 0.565480
O O17 0.459527 0.000000 0.569109
O O18 0.103384 0.500000 0.578631
O O19 0.250000 0.750000 0.500000
#
# Coordination Sequence:
#
# PCOD9191978 Si02
#       7
#     8   8   8   8   8   8   8
#     4  10  20  33  52  79 106 130 163 210 257 300
#     4   9  18  34  55  77 102 133 170 209 250 303
#     4  10  21  35  51  74 104 135 168 209 255 303
#     4   9  18  32  52  76  99 130 171 210 249 297
#     4   9  19  36  55  74  99 134 173 206 245 304
#     4   9  17  31  53  76  98 132 174 208 242 292
#     4  10  21  35  52  77 105 134 171 211 252 299
#
# _framework density 20.769279999999998
#
# number of rings (size 3 to 8) (size 9 to 14) (size 15 to 20)
#    0.000    2.571    0.000    2.571    0.000    6.571 
#    0.000    2.143    0.000    2.571    0.000    0.000 
#    0.000    0.000    0.000    0.000    0.000    0.000 
#
# Total GULP energy -156312.901944 kJ/mol
# GULP energy per Si atom -5582.603641 kJ/mol
# Density = 2.072201 g / cm^3
# Si number density = 20.769280 Si / 1000 Ang^3
#
#
#
# Elastic Constant Matrix: (Units=GPa)
#
#
# Indices 1 2 3 4 5 6 
#
# 1 144.6490 -9.8468 128.1637 -0.0023 -15.1154 0.0231
# 2 -9.8468 38.1294 -13.6862 0.0007 -6.3489 -0.0058
# 3 128.1637 -13.6862 173.2156 -0.0026 -11.8467 0.0038
# 4 -0.0023 0.0007 -0.0026 14.9288 0.0012 3.5710
# 5 -15.1154 -6.3489 -11.8467 0.0012 40.9645 0.0023
# 6 0.0231 -0.0058 0.0038 3.5710 0.0023 9.4128
#
#
#
# Elastic Compliance Matrix: (Units=1/GPa)
#
#
# Indices 1 2 3 4 5 6 
#
# 1 0.020494 0.000500 -0.014896 0.000012 0.003332 -0.000049
# 2 0.000500 0.028003 0.002195 -0.000005 0.005159 0.000016
# 3 -0.014896 0.002195 0.016951 -0.000008 -0.000254 0.000034
# 4 0.000012 -0.000005 -0.000008 0.073670 0.000001 -0.027949
# 5 0.003332 0.005159 -0.000254 0.000001 0.026367 -0.000012
# 6 -0.000049 0.000016 0.000034 -0.027949 -0.000012 0.116843
#
#
# Mechanical properties :
#
#
# Convention : Reuss Voigt Hill
#
# Bulk Modulus (GPa) = 24.36262 62.80615 43.58439
# Shear Modulus (GPa) = 15.60491 29.81875 22.71183
#
# Velocity S-wave (km/s) = 2.74404 3.79319 3.31044
# Velocity P-wave (km/s) = 4.66854 7.03491 5.97015
#
# Compressibility (1/GPa) = 0.04104648
#
# Stress axis : x y z
#
# Youngs Moduli (GPa) = 48.79409 35.71076 58.99264
#
# Poissons Ratio (x) = -0.01787 0.87878
# Poissons Ratio (y) = -0.02441 -0.12950
# Poissons Ratio (z) = 0.72686 -0.07839
#
# Static dielectric constant tensor:
#      x y z
#    x 1.719120 0.000000 -0.013220 
#    y 0.000000 1.765190 0.000000 
#    z -0.013220 0.000000 1.721320 
# 
# From -- ./inp_files/362894.got.cif
#   From: 2010.05.17/outbox.cif.g08.bks.cpg/sg12_182_cif.got.tgz:362894.got - 2010.06.03 13:09:07.
