data_PCOD9191941
_publ_section_title
;
Structure prediction by ZEFSAII (Michael W. Deem and Ramdas Pophale) SiO2 
 PCOD9191941
Probable space group: C 2/M
;
_chemical_formula_sum "Si O2"
_cell_formula_units_Z 40
_cell_length_a 15.745756
_cell_length_b 8.099231
_cell_length_c 16.187470
_cell_angle_alpha 90.000000
_cell_angle_beta 131.819027
_cell_angle_gamma 90.000000
_cell_volume 1538.476805
_symmetry_space_group_name_H-M "C 2/M"
_symmetry_group_IT_number 12
_symmetry_cell_setting 'monoclinic'
loop_
_space_group_symop_operation_xyz
x,y,z
-x,y,-z
-x,-y,-z
x,-y,z
1/2+x,1/2+y,z
1/2-x,1/2+y,-z
1/2-x,1/2-y,-z
1/2+x,1/2-y,z
loop_
_atom_site_type_symbol
_atom_site_label
_atom_site_fract_x
_atom_site_fract_y
_atom_site_fract_z
Si Si1 0.085583 0.693831 0.154266
Si Si2 0.896620 0.693828 0.220239
Si Si3 0.877930 0.302422 0.564974
Si Si4 0.331800 0.305042 0.358086
Si Si5 0.344933 0.692831 0.982138
O O1 0.084234 0.500000 0.133767
O O2 0.195208 0.720955 0.282605
O O3 0.117004 0.785128 0.089451
O O4 0.957451 0.735723 0.100023
O O5 0.902304 0.500000 0.201323
O O6 0.862504 0.705856 0.295772
O O7 0.784027 0.767175 0.101442
O O8 0.023717 0.766584 0.310968
O O9 0.884974 0.500000 0.574465
O O10 0.750000 0.250000 0.500000
O O11 0.895557 0.245632 0.482223
O O12 0.348678 0.500000 0.352749
O O13 0.338150 0.500000 0.995029
#
# Coordination Sequence:
#
# PCOD9191941 Si02
#       5
#     8   8   8   8   8
#     4   9  16  26  42  69 103 131 157 196 243 286
#     4   9  19  34  52  76 104 133 165 206 252 294
#     4  11  23  38  54  72  99 133 169 210 255 301
#     4  10  20  33  52  78 105 133 167 206 246 293
#     4   9  15  25  44  70  99 129 161 196 239 292
#
# _framework density 25.999741
#
# number of rings (size 3 to 8) (size 9 to 14) (size 15 to 20)
#    0.000    2.400    0.000    4.200    0.000    7.200 
#    0.000    0.000    0.000    1.200    0.000    0.000 
#    0.000    0.000    0.000    0.000    0.000    0.000 
#
# Total GULP energy -111816.995859 kJ/mol
# GULP energy per Si atom -5590.849793 kJ/mol
# Density = 2.594056 g / cm^3
# Si number density = 25.999741 Si / 1000 Ang^3
#
#
#
# Elastic Constant Matrix: (Units=GPa)
#
#
# Indices 1 2 3 4 5 6 
#
# 1 88.1727 11.4771 29.3785 0.0000 37.5471 0.0000
# 2 11.4771 83.8440 22.5542 0.0000 7.1290 0.0000
# 3 29.3785 22.5542 247.1724 0.0000 17.6972 0.0000
# 4 0.0000 0.0000 0.0000 27.8826 0.0000 1.3410
# 5 37.5471 7.1290 17.6972 0.0000 55.3623 0.0000
# 6 0.0000 0.0000 0.0000 1.3410 0.0000 47.0960
#
#
#
# Elastic Compliance Matrix: (Units=1/GPa)
#
#
# Indices 1 2 3 4 5 6 
#
# 1 0.016359 -0.001044 -0.001089 0.000000 -0.010612 0.000000
# 2 -0.001044 0.012378 -0.000964 0.000000 -0.000578 0.000000
# 3 -0.001089 -0.000964 0.004300 0.000000 -0.000512 0.000000
# 4 0.000000 0.000000 0.000000 0.035914 0.000000 -0.001023
# 5 -0.010612 -0.000578 -0.000512 0.000000 0.025498 0.000000
# 6 0.000000 0.000000 0.000000 -0.001023 0.000000 0.021262
#
#
# Mechanical properties :
#
#
# Convention : Reuss Voigt Hill
#
# Bulk Modulus (GPa) = 37.25406 60.66760 48.96083
# Shear Modulus (GPa) = 38.21046 49.78680 43.99863
#
# Velocity S-wave (km/s) = 3.83776 4.38070 4.11819
# Velocity P-wave (km/s) = 5.83074 6.99800 6.44087
#
# Compressibility (1/GPa) = 0.02684271
#
# Stress axis : x y z
#
# Youngs Moduli (GPa) = 61.12698 80.78670 232.56720
#
# Poissons Ratio (x) = 0.08434 0.25335
# Poissons Ratio (y) = 0.06382 0.22421
# Poissons Ratio (z) = 0.06659 0.07788
#
# Static dielectric constant tensor:
#      x y z
#    x 2.155270 0.000000 0.039640 
#    y 0.000000 1.901250 0.000000 
#    z 0.039640 0.000000 2.074250 
# 
# From -- ./inp_files/220226.got.cif
#   From: 2010.05.17/outbox.cif.g08.bks.cpg/sg12_111_cif.got.tgz:220226.got - 2010.06.03 13:09:07.
