data_PCOD9191578
_publ_section_title
;
Structure prediction by ZEFSAII (Michael W. Deem and Ramdas Pophale) SiO2 
 PCOD9191578
Probable space group: C 2/M
;
_chemical_formula_sum "Si O2"
_cell_formula_units_Z 64
_cell_length_a 15.332746
_cell_length_b 13.754368
_cell_length_c 15.739369
_cell_angle_alpha 90.000000
_cell_angle_beta 108.513723
_cell_angle_gamma 90.000000
_cell_volume 3147.528449
_symmetry_space_group_name_H-M "C 2/M"
_symmetry_group_IT_number 12
_symmetry_cell_setting 'monoclinic'
loop_
_space_group_symop_operation_xyz
x,y,z
-x,y,-z
-x,-y,-z
x,-y,z
1/2+x,1/2+y,z
1/2-x,1/2+y,-z
1/2-x,1/2-y,-z
1/2+x,1/2-y,z
loop_
_atom_site_type_symbol
_atom_site_label
_atom_site_fract_x
_atom_site_fract_y
_atom_site_fract_z
Si Si1 0.273455 0.613165 0.011379
Si Si2 0.075045 0.382311 0.755854
Si Si3 0.251529 0.241923 0.145699
Si Si4 0.361688 0.607876 0.484829
Si Si5 0.801878 0.604601 0.426586
Si Si6 0.068058 0.299126 0.410208
Si Si7 0.450286 0.113721 0.066917
Si Si8 0.270568 0.205672 0.679074
O O1 0.300371 0.500000 0.017862
O O2 0.298619 0.673695 0.103184
O O3 0.305159 0.676499 0.939643
O O4 0.160843 0.616429 0.976540
O O5 0.075563 0.500000 0.751857
O O6 0.174571 0.335287 0.797285
O O7 0.027208 0.351690 0.830962
O O8 0.025368 0.334525 0.660345
O O9 0.208178 0.293844 0.214457
O O10 0.401339 0.500000 0.493782
O O11 0.276156 0.604577 0.524289
O O12 0.425448 0.692181 0.545026
O O13 0.311800 0.636249 0.380681
O O14 0.806815 0.500000 0.386472
O O15 0.894474 0.630913 0.504628
O O16 0.769080 0.688865 0.356080
O O17 0.141946 0.307057 0.355560
O O18 0.476920 0.000000 0.076563
O O19 0.500000 0.158288 0.000000
#
# Coordination Sequence:
#
# PCOD9191578 Si02
#       8
#     8   8   8   8   8   8   8   8
#     4   9  19  35  52  69  98 138 170 204 254 302
#     4  10  20  33  50  74 106 136 161 205 263 306
#     4  10  20  34  50  73 104 134 170 208 249 307
#     4   8  15  30  48  68 100 133 165 211 256 294
#     4   8  14  27  46  69 100 133 164 205 254 295
#     4   9  17  30  49  76 101 130 171 211 253 297
#     4   8  15  28  47  73  99 122 155 200 251 300
#     4   9  18  29  49  77  99 129 176 215 243 294
#
# _framework density 20.333414000000001
#
# number of rings (size 3 to 8) (size 9 to 14) (size 15 to 20)
#    0.000    3.125    0.000    3.000    1.750    2.000 
#    0.000    3.125    0.000    4.500    0.000    0.875 
#    0.000    0.000    0.000    0.000    0.000    0.000 
#
# Total GULP energy -178240.391800 kJ/mol
# GULP energy per Si atom -5570.012244 kJ/mol
# Density = 2.028713 g / cm^3
# Si number density = 20.333414 Si / 1000 Ang^3
#
#
#
# Elastic Constant Matrix: (Units=GPa)
#
#
# Indices 1 2 3 4 5 6 
#
# 1 41.4403 -0.1398 21.5954 0.0000 -14.2184 0.0000
# 2 -0.1398 96.5859 18.7612 0.0000 8.5743 0.0000
# 3 21.5954 18.7612 77.7234 0.0000 -24.1923 0.0000
# 4 0.0000 0.0000 0.0000 3.2231 0.0000 3.9124
# 5 -14.2184 8.5743 -24.1923 0.0000 35.1729 0.0000
# 6 0.0000 0.0000 0.0000 3.9124 0.0000 9.5261
#
#
#
# Elastic Compliance Matrix: (Units=1/GPa)
#
#
# Indices 1 2 3 4 5 6 
#
# 1 0.029956 0.000512 -0.006001 0.000000 0.007857 0.000000
# 2 0.000512 0.011837 -0.004877 0.000000 -0.006034 0.000000
# 3 -0.006001 -0.004877 0.019501 0.000000 0.012176 0.000000
# 4 0.000000 0.000000 0.000000 0.618709 0.000000 -0.254106
# 5 0.007857 -0.006034 0.012176 0.000000 0.041453 0.000000
# 6 0.000000 0.000000 0.000000 -0.254106 0.000000 0.209338
#
#
# Mechanical properties :
#
#
# Convention : Reuss Voigt Hill
#
# Bulk Modulus (GPa) = 24.65489 32.90924 28.78206
# Shear Modulus (GPa) = 5.18109 21.28661 13.23385
#
# Velocity S-wave (km/s) = 1.59800 3.23906 2.55393
# Velocity P-wave (km/s) = 3.94416 5.49624 4.78357
#
# Compressibility (1/GPa) = 0.04055991
#
# Stress axis : x y z
#
# Youngs Moduli (GPa) = 33.38234 84.47897 51.27997
#
# Poissons Ratio (x) = -0.04321 0.30773
# Poissons Ratio (y) = -0.01708 0.25012
# Poissons Ratio (z) = 0.20033 0.41205
#
# Static dielectric constant tensor:
#      x y z
#    x 1.791810 0.000000 -0.048610 
#    y 0.000000 1.724910 0.000000 
#    z -0.048610 0.000000 1.773950 
# 
# From -- ./inp_files/277443.got.cif
#   From: 2010.05.17/outbox.cif.g08.bks.cpg/sg12_139_cif.got.tgz:277443.got - 2010.06.03 13:09:07.
