data_PCOD9191359
_publ_section_title
;
Structure prediction by ZEFSAII (Michael W. Deem and Ramdas Pophale) SiO2 
 PCOD9191359
Probable space group: C 2/M
;
_chemical_formula_sum "Si O2"
_cell_formula_units_Z 64
_cell_length_a 16.482681
_cell_length_b 7.334603
_cell_length_c 19.748494
_cell_angle_alpha 90.000000
_cell_angle_beta 82.127972
_cell_angle_gamma 90.000000
_cell_volume 2364.974404
_symmetry_space_group_name_H-M "C 2/M"
_symmetry_group_IT_number 12
_symmetry_cell_setting 'monoclinic'
loop_
_space_group_symop_operation_xyz
x,y,z
-x,y,-z
-x,-y,-z
x,-y,z
1/2+x,1/2+y,z
1/2-x,1/2+y,-z
1/2-x,1/2-y,-z
1/2+x,1/2-y,z
loop_
_atom_site_type_symbol
_atom_site_label
_atom_site_fract_x
_atom_site_fract_y
_atom_site_fract_z
Si Si1 0.517861 0.275776 0.789820
Si Si2 0.641544 0.289729 0.668953
Si Si3 0.074368 0.279257 0.538731
Si Si4 0.659517 0.282822 0.041600
Si Si5 0.421839 0.709782 0.080065
Si Si6 0.745032 0.720695 0.162294
Si Si7 0.130330 0.780447 0.289318
Si Si8 0.801219 0.290559 0.581543
O O1 0.517323 0.500000 0.791597
O O2 0.599373 0.213262 0.740590
O O3 0.520254 0.213776 0.867506
O O4 0.443490 0.220782 0.750318
O O5 0.660301 0.500000 0.681739
O O6 0.575438 0.285604 0.615460
O O7 0.721507 0.203376 0.625205
O O8 0.074138 0.500000 0.539793
O O9 0.156497 0.215214 0.490173
O O10 0.000000 0.219296 0.500000
O O11 0.645639 0.500000 0.046378
O O12 0.674575 0.221019 0.116450
O O13 0.750000 0.250000 0.000000
O O14 0.595641 0.210931 0.992712
O O15 0.446197 0.500000 0.067943
O O16 0.332028 0.709789 0.126396
O O17 0.749250 0.500000 0.159065
O O18 0.713290 0.773786 0.239716
O O19 0.132432 0.711107 0.365235
O O20 0.128047 0.000000 0.292544
O O21 0.781535 0.500000 0.568907
#
# Coordination Sequence:
#
# PCOD9191359 Si02
#       8
#     8   8   8   8   8   8   8   8
#     4   9  18  32  48  69  96 124 159 199 235 277
#     4  10  20  34  53  74  96 125 161 199 233 273
#     4  10  21  36  53  75 103 129 153 190 239 284
#     4   8  14  25  43  67  92 120 155 193 234 278
#     4   9  16  29  50  70  91 125 163 195 232 281
#     4   9  17  29  45  69  98 122 153 199 241 278
#     4  10  20  33  49  69  96 129 159 193 240 286
#     4  10  21  36  53  74  98 124 159 200 235 274
#
# _framework density 27.061602000000001
#
# number of rings (size 3 to 8) (size 9 to 14) (size 15 to 20)
#    0.000    2.625    0.000    1.875    0.000    2.750 
#    0.000    1.875    0.000    3.750    0.000    0.000 
#    0.000   11.000    0.000    0.000    0.000    0.000 
#
# Total GULP energy -179036.592532 kJ/mol
# GULP energy per Si atom -5594.893517 kJ/mol
# Density = 2.700001 g / cm^3
# Si number density = 27.061602 Si / 1000 Ang^3
#
#
#
# Elastic Constant Matrix: (Units=GPa)
#
#
# Indices 1 2 3 4 5 6 
#
# 1 99.3426 7.6485 18.5164 0.0000 13.8327 0.0000
# 2 7.6485 122.2308 4.7638 0.0000 0.8439 0.0000
# 3 18.5164 4.7638 174.7462 0.0000 14.6730 0.0000
# 4 0.0000 0.0000 0.0000 -0.8526 0.0000 2.5536
# 5 13.8327 0.8439 14.6730 0.0000 60.6431 0.0000
# 6 0.0000 0.0000 0.0000 2.5536 0.0000 -0.4576
#
#
#
# Elastic Compliance Matrix: (Units=1/GPa)
#
#
# Indices 1 2 3 4 5 6 
#
# 1 0.010589 -0.000612 -0.000922 0.000000 -0.002184 0.000000
# 2 -0.000612 0.008225 -0.000165 0.000000 0.000065 0.000000
# 3 -0.000922 -0.000165 0.005927 0.000000 -0.001222 0.000000
# 4 0.000000 0.000000 0.000000 0.074645 0.000000 0.416532
# 5 -0.002184 0.000065 -0.001222 0.000000 0.017283 0.000000
# 6 0.000000 0.000000 0.000000 0.416532 0.000000 0.139078
#
#
# Mechanical properties :
#
#
# Convention : Reuss Voigt Hill
#
# Bulk Modulus (GPa) = 46.84927 50.90856 48.87892
# Shear Modulus (GPa) = 18.77868 36.22597 27.50233
#
# Velocity S-wave (km/s) = 2.63710 3.66272 3.19138
# Velocity P-wave (km/s) = 5.15966 6.06138 5.62861
#
# Compressibility (1/GPa) = 0.02134505
#
# Stress axis : x y z
#
# Youngs Moduli (GPa) = 94.43595 121.57325 168.70950
#
# Poissons Ratio (x) = 0.07435 0.15555
# Poissons Ratio (y) = 0.05776 0.02782
# Poissons Ratio (z) = 0.08707 0.02005
#
# Static dielectric constant tensor:
#      x y z
#    x 4.663530 0.000000 2.615550 
#    y 0.000000 1.695930 0.000000 
#    z 2.615550 0.000000 4.775570 
# 
# From -- ./inp_files/314213.got.cif
#   From: 2010.05.17/outbox.cif.g08.bks.cpg/sg12_158_cif.got.tgz:314213.got - 2010.06.03 13:09:07.
