data_PCOD9191304
_publ_section_title
;
Structure prediction by ZEFSAII (Michael W. Deem and Ramdas Pophale) SiO2 
 PCOD9191304
Probable space group: C 2/M
;
_chemical_formula_sum "Si O2"
_cell_formula_units_Z 48
_cell_length_a 29.151835
_cell_length_b 8.438526
_cell_length_c 11.645923
_cell_angle_alpha 90.000000
_cell_angle_beta 78.128239
_cell_angle_gamma 90.000000
_cell_volume 2803.601438
_symmetry_space_group_name_H-M "C 2/M"
_symmetry_group_IT_number 12
_symmetry_cell_setting 'monoclinic'
loop_
_space_group_symop_operation_xyz
x,y,z
-x,y,-z
-x,-y,-z
x,-y,z
1/2+x,1/2+y,z
1/2-x,1/2+y,-z
1/2-x,1/2-y,-z
1/2+x,1/2-y,z
loop_
_atom_site_type_symbol
_atom_site_label
_atom_site_fract_x
_atom_site_fract_y
_atom_site_fract_z
Si Si1 0.409602 0.193936 0.722783
Si Si2 0.319981 0.191648 0.904828
Si Si3 0.889447 0.692066 0.471062
Si Si4 0.010398 0.683898 0.631959
Si Si5 0.272765 0.189884 0.164960
Si Si6 0.294444 0.687935 0.405797
O O1 0.370872 0.243725 0.834690
O O2 0.392412 0.239330 0.603710
O O3 0.463032 0.252586 0.711416
O O4 0.411602 0.000000 0.722490
O O5 0.279467 0.254278 0.841411
O O6 0.318662 0.000000 0.901537
O O7 0.305474 0.240747 0.040814
O O8 0.890770 0.500000 0.468614
O O9 0.937334 0.751848 0.385007
O O10 0.842324 0.747875 0.435961
O O11 0.013233 0.500000 0.667443
O O12 0.000000 0.682912 0.500000
O O13 0.288909 0.258427 0.277264
O O14 0.273425 0.000000 0.170822
O O15 0.294646 0.500000 0.411672
O O16 0.250000 0.750000 0.500000
#
# Coordination Sequence:
#
# PCOD9191304 Si02
#       6
#     8   8   8   8   8   8
#     4   8  13  24  46  74  98 121 153 191 231 275
#     4   9  17  30  50  73  97 126 160 199 236 274
#     4   9  16  28  48  73 100 126 152 187 233 282
#     4   7  11  21  41  70  98 122 150 186 228 274
#     4  10  20  33  48  69  97 127 161 197 236 281
#     4  12  24  36  50  68  93 124 158 194 236 286
#
# _framework density 17.120835
#
# number of rings (size 3 to 8) (size 9 to 14) (size 15 to 20)
#    0.000    2.833    0.000    5.000    0.000    2.000 
#    0.000    0.000    0.000    6.500    0.000    7.000 
#    0.000    0.000    0.000    0.000    0.000    0.000 
#
# Total GULP energy -133701.994825 kJ/mol
# GULP energy per Si atom -5570.916451 kJ/mol
# Density = 1.708187 g / cm^3
# Si number density = 17.120835 Si / 1000 Ang^3
#
#
#
# Elastic Constant Matrix: (Units=GPa)
#
#
# Indices 1 2 3 4 5 6 
#
# 1 169.6646 21.0466 75.2899 0.0000 -26.6671 0.0000
# 2 21.0466 20.1462 15.4226 0.0000 -2.2389 0.0000
# 3 75.2899 15.4226 74.4697 0.0000 -14.6074 0.0000
# 4 0.0000 0.0000 0.0000 16.0062 0.0000 3.2374
# 5 -26.6671 -2.2389 -14.6074 0.0000 33.6457 0.0000
# 6 0.0000 0.0000 0.0000 3.2374 0.0000 21.4319
#
#
#
# Elastic Compliance Matrix: (Units=1/GPa)
#
#
# Indices 1 2 3 4 5 6 
#
# 1 0.011496 -0.003909 -0.009922 0.000000 0.004544 0.000000
# 2 -0.003909 0.060389 -0.009153 0.000000 -0.003054 0.000000
# 3 -0.009922 -0.009153 0.025898 0.000000 0.002771 0.000000
# 4 0.000000 0.000000 0.000000 0.064445 0.000000 -0.009735
# 5 0.004544 -0.003054 0.002771 0.000000 0.034323 0.000000
# 6 0.000000 0.000000 0.000000 -0.009735 0.000000 0.048130
#
#
# Mechanical properties :
#
#
# Convention : Reuss Voigt Hill
#
# Bulk Modulus (GPa) = 19.29947 54.19988 36.74967
# Shear Modulus (GPa) = 16.23799 24.38487 20.31143
#
# Velocity S-wave (km/s) = 3.08301 3.77806 3.44809
# Velocity P-wave (km/s) = 4.89594 7.12444 6.11260
#
# Compressibility (1/GPa) = 0.05181490
#
# Stress axis : x y z
#
# Youngs Moduli (GPa) = 86.98761 16.55935 38.61258
#
# Poissons Ratio (x) = 0.06474 0.38310
# Poissons Ratio (y) = 0.34007 0.35342
# Poissons Ratio (z) = 0.86306 0.15157
#
# Static dielectric constant tensor:
#      x y z
#    x 1.612480 0.000000 -0.042540 
#    y 0.000000 1.594560 0.000000 
#    z -0.042540 0.000000 1.575710 
# 
# From -- ./inp_files/179153.got.cif
#   From: 2010.05.17/outbox.cif.g08.bks.cpg/sg12_90_cif.got.tgz:179153.got - 2010.06.03 13:09:07.
