data_PCOD9191166
_publ_section_title
;
Structure prediction by ZEFSAII (Michael W. Deem and Ramdas Pophale) SiO2 
 PCOD9191166
Probable space group: C 2/M
;
_chemical_formula_sum "Si O2"
_cell_formula_units_Z 60
_cell_length_a 12.275762
_cell_length_b 14.122113
_cell_length_c 28.631627
_cell_angle_alpha 90.000000
_cell_angle_beta 35.626470
_cell_angle_gamma 90.000000
_cell_volume 2891.272459
_symmetry_space_group_name_H-M "C 2/M"
_symmetry_group_IT_number 12
_symmetry_cell_setting 'monoclinic'
loop_
_space_group_symop_operation_xyz
x,y,z
-x,y,-z
-x,-y,-z
x,-y,z
1/2+x,1/2+y,z
1/2-x,1/2+y,-z
1/2-x,1/2-y,-z
1/2+x,1/2-y,z
loop_
_atom_site_type_symbol
_atom_site_label
_atom_site_fract_x
_atom_site_fract_y
_atom_site_fract_z
Si Si1 0.634917 0.110178 0.804619
Si Si2 0.633551 0.707739 0.096850
Si Si3 0.674589 0.891185 0.536411
Si Si4 0.835815 0.703135 0.365474
Si Si5 0.500000 0.844900 0.500000
Si Si6 0.096892 0.110169 0.373266
Si Si7 0.355205 0.301575 0.805948
Si Si8 0.001958 0.179887 0.048106
O O1 0.473357 0.189547 0.865738
O O2 0.773697 0.144107 0.714581
O O3 0.756165 0.119255 0.809348
O O4 0.577163 0.000000 0.816934
O O5 0.586630 0.663553 0.163189
O O6 0.571806 0.645244 0.074072
O O7 0.850886 0.734573 0.013982
O O8 0.594547 0.836718 0.609301
O O9 0.553091 0.891673 0.531296
O O10 0.885981 0.851177 0.453088
O O11 0.698187 0.000000 0.542832
O O12 0.681998 0.782871 0.427607
O O13 0.718764 0.625201 0.377179
O O14 0.989935 0.749735 0.278796
O O15 0.069517 0.000000 0.372485
O O16 0.201468 0.221306 0.871152
O O17 0.000000 0.123199 0.000000
#
# Coordination Sequence:
#
# PCOD9191166 Si02
#       8
#     8   8   8   8   4   8   8   8
#     4  10  20  34  55  84 117 148 186 232 284 336
#     4   9  16  32  55  81 112 147 184 227 274 330
#     4  11  24  42  58  79 115 155 189 235 298 346
#     4  12  22  35  60  86 113 147 198 242 280 335
#     4  12  25  36  59  86 114 144 196 248 285 334
#     4  10  20  37  58  83 115 152 190 236 291 340
#     4  10  20  32  55  85 113 145 188 234 279 331
#     4   8  16  30  54  81 107 140 187 226 268 323
#
# _framework density 20.752108
#
# number of rings (size 3 to 8) (size 9 to 14) (size 15 to 20)
#    0.000    1.867    2.667    1.800    1.867    1.067 
#    0.000    0.667    0.000   45.200    0.000    4.667 
#    0.000    0.000    0.000    0.000    0.000    0.000 
#
# Total GULP energy -167116.598846 kJ/mol
# GULP energy per Si atom -5570.553295 kJ/mol
# Density = 2.070488 g / cm^3
# Si number density = 20.752108 Si / 1000 Ang^3
#
#
#
# Elastic Constant Matrix: (Units=GPa)
#
#
# Indices 1 2 3 4 5 6 
#
# 1 130.9183 9.5818 35.5596 -0.0001 34.2835 0.0004
# 2 9.5818 26.0558 19.5928 0.0000 3.0756 0.0002
# 3 35.5596 19.5928 131.4384 -0.0008 15.3442 0.0010
# 4 -0.0001 0.0000 -0.0008 -5.1591 0.0002 9.9044
# 5 34.2835 3.0756 15.3442 0.0002 38.5984 -0.0008
# 6 0.0004 0.0002 0.0010 9.9044 -0.0008 -6.3930
#
#
#
# Elastic Compliance Matrix: (Units=1/GPa)
#
#
# Indices 1 2 3 4 5 6 
#
# 1 0.010410 -0.001637 -0.001582 -0.000001 -0.008487 -0.000001
# 2 -0.001637 0.043513 -0.006091 -0.000001 0.000408 -0.000001
# 3 -0.001582 -0.006091 0.009148 -0.000001 -0.001746 0.000000
# 4 -0.000001 -0.000001 -0.000001 0.098181 0.000004 0.152107
# 5 -0.008487 0.000408 -0.001746 0.000004 0.034108 0.000001
# 6 -0.000001 -0.000001 0.000000 0.152107 0.000001 0.079231
#
#
# Mechanical properties :
#
#
# Convention : Reuss Voigt Hill
#
# Bulk Modulus (GPa) = 22.49627 46.43120 34.46374
# Shear Modulus (GPa) = 16.23231 20.32117 18.27674
#
# Velocity S-wave (km/s) = 2.79982 3.13267 2.97091
# Velocity P-wave (km/s) = 4.61692 5.95882 5.33027
#
# Compressibility (1/GPa) = 0.04445181
#
# Stress axis : x y z
#
# Youngs Moduli (GPa) = 96.05825 22.98158 109.31544
#
# Poissons Ratio (x) = 0.03763 0.17289
# Poissons Ratio (y) = 0.15727 0.66584
# Poissons Ratio (z) = 0.15192 0.13998
#
# Static dielectric constant tensor:
#      x y z
#    x 1.850190 0.000000 0.035480 
#    y 0.000000 1.717150 0.000000 
#    z 0.035480 0.000000 1.756390 
# 
# From -- ./inp_files/358406.got.cif
#   From: 2010.05.17/outbox.cif.g08.bks.cpg/sg12_180_cif.got.tgz:358406.got - 2010.06.03 13:09:07.
