data_PCOD9191203
_publ_section_title
;
Structure prediction by ZEFSAII (Michael W. Deem and Ramdas Pophale) SiO2 
 PCOD9191203
Probable space group: C 2/M
;
_chemical_formula_sum "Si O2"
_cell_formula_units_Z 52
_cell_length_a 15.450595
_cell_length_b 18.016035
_cell_length_c 14.875899
_cell_angle_alpha 90.000000
_cell_angle_beta 137.800125
_cell_angle_gamma 90.000000
_cell_volume 2781.475648
_symmetry_space_group_name_H-M "C 2/M"
_symmetry_group_IT_number 12
_symmetry_cell_setting 'monoclinic'
loop_
_space_group_symop_operation_xyz
x,y,z
-x,y,-z
-x,-y,-z
x,-y,z
1/2+x,1/2+y,z
1/2-x,1/2+y,-z
1/2-x,1/2-y,-z
1/2+x,1/2-y,z
loop_
_atom_site_type_symbol
_atom_site_label
_atom_site_fract_x
_atom_site_fract_y
_atom_site_fract_z
Si Si1 0.879500 0.500000 0.332362
Si Si2 0.000000 0.796177 0.500000
Si Si3 0.308791 0.802507 0.469564
Si Si4 0.454102 0.135287 0.262789
Si Si5 0.923299 0.000000 0.849427
Si Si6 0.462696 0.339417 0.807952
Si Si7 0.135474 0.198183 0.773247
Si Si8 0.934746 0.317254 0.042726
O O1 0.891791 0.569936 0.273429
O O2 0.734382 0.500000 0.263140
O O3 0.000000 0.500000 0.500000
O O4 0.901452 0.745078 0.478428
O O5 0.912589 0.835080 0.358154
O O6 0.250000 0.750000 0.500000
O O7 0.398603 0.861350 0.588809
O O8 0.189793 0.830207 0.321232
O O9 0.385164 0.212406 0.239351
O O10 0.456405 0.139462 0.154964
O O11 0.974528 0.076324 0.846553
O O12 0.000000 0.000000 0.000000
O O13 0.538426 0.331215 0.773290
O O14 0.514947 0.268003 0.903712
O O15 0.282118 0.183022 0.909351
O O16 0.000000 0.345080 0.000000
#
# Coordination Sequence:
#
# PCOD9191203 Si02
#       8
#     4   4   8   8   4   8   8   8
#     4  12  28  46  63  94 136 177 210 252 329 405
#     4  10  20  32  58  94 112 156 204 260 322 362
#     4  11  19  36  61  92 121 158 211 267 314 364
#     4  10  23  39  60  89 127 168 209 262 311 377
#     4  12  30  38  64  93 129 177 202 254 323 389
#     4  11  22  41  57  90 127 163 212 261 315 380
#     4  10  22  36  63  88 125 164 211 269 317 365
#     4  11  22  37  64  91 123 162 217 270 314 369
#
# _framework density 18.695112000000002
#
# number of rings (size 3 to 8) (size 9 to 14) (size 15 to 20)
#    0.000    1.231    4.615    4.154   15.077    0.000 
#    0.000    0.385    0.000    0.462    0.000    0.000 
#    0.000    0.000    0.000    0.000    0.000    0.000 
#
# Total GULP energy -144841.092937 kJ/mol
# GULP energy per Si atom -5570.811267 kJ/mol
# Density = 1.865256 g / cm^3
# Si number density = 18.695112 Si / 1000 Ang^3
#
#
#
# Elastic Constant Matrix: (Units=GPa)
#
#
# Indices 1 2 3 4 5 6 
#
# 1 93.4104 16.6971 15.2937 0.0000 -3.3096 0.0000
# 2 16.6971 76.7057 -1.6211 0.0000 -6.3609 0.0000
# 3 15.2937 -1.6211 106.6754 0.0000 10.6284 0.0000
# 4 0.0000 0.0000 0.0000 8.0328 0.0000 -1.3751
# 5 -3.3096 -6.3609 10.6284 0.0000 36.2050 0.0000
# 6 0.0000 0.0000 0.0000 -1.3751 0.0000 15.3273
#
#
#
# Elastic Compliance Matrix: (Units=1/GPa)
#
#
# Indices 1 2 3 4 5 6 
#
# 1 0.011477 -0.002441 -0.001797 0.000000 0.001148 0.000000
# 2 -0.002441 0.013749 0.000351 0.000000 0.002089 0.000000
# 3 -0.001797 0.000351 0.009938 0.000000 -0.003020 0.000000
# 4 0.000000 0.000000 0.000000 0.126431 0.000000 0.011343
# 5 0.001148 0.002089 -0.003020 0.000000 0.028979 0.000000
# 6 0.000000 0.000000 0.000000 0.011343 0.000000 0.066261
#
#
# Mechanical properties :
#
#
# Convention : Reuss Voigt Hill
#
# Bulk Modulus (GPa) = 36.51052 37.50344 37.00698
# Shear Modulus (GPa) = 18.26563 28.34114 23.30338
#
# Velocity S-wave (km/s) = 3.12913 3.89776 3.53441
# Velocity P-wave (km/s) = 5.71202 6.35302 6.04103
#
# Compressibility (1/GPa) = 0.02738936
#
# Stress axis : x y z
#
# Youngs Moduli (GPa) = 87.13368 72.73316 100.62321
#
# Poissons Ratio (x) = 0.17754 0.18080
# Poissons Ratio (y) = 0.21269 -0.03529
# Poissons Ratio (z) = 0.15656 -0.02551
#
# Static dielectric constant tensor:
#      x y z
#    x 1.645140 0.000000 -0.094070 
#    y 0.000000 1.616820 0.000000 
#    z -0.094070 0.000000 1.808050 
# 
# From -- ./inp_files/216896.got.cif
#   From: 2010.05.17/outbox.cif.g08.bks.cpg/sg12_109_cif.got.tgz:216896.got - 2010.06.03 13:09:07.
