data_PCOD9191260
_publ_section_title
;
Structure prediction by ZEFSAII (Michael W. Deem and Ramdas Pophale) SiO2 
 PCOD9191260
Probable space group: C 2/M
;
_chemical_formula_sum "Si O2"
_cell_formula_units_Z 56
_cell_length_a 19.968651
_cell_length_b 8.035980
_cell_length_c 24.045405
_cell_angle_alpha 90.000000
_cell_angle_beta 51.600639
_cell_angle_gamma 90.000000
_cell_volume 3023.916051
_symmetry_space_group_name_H-M "C 2/M"
_symmetry_group_IT_number 12
_symmetry_cell_setting 'monoclinic'
loop_
_space_group_symop_operation_xyz
x,y,z
-x,y,-z
-x,-y,-z
x,-y,z
1/2+x,1/2+y,z
1/2-x,1/2+y,-z
1/2-x,1/2-y,-z
1/2+x,1/2-y,z
loop_
_atom_site_type_symbol
_atom_site_label
_atom_site_fract_x
_atom_site_fract_y
_atom_site_fract_z
Si Si1 0.614111 0.700987 0.780747
Si Si2 0.418894 0.807566 0.499478
Si Si3 0.345602 0.801492 0.936446
Si Si4 0.804899 0.295389 0.654721
Si Si5 0.996935 0.299333 0.938432
Si Si6 0.962109 0.197783 0.779521
Si Si7 0.459166 0.800158 0.653862
O O1 0.614594 0.500000 0.778540
O O2 0.709393 0.759207 0.717838
O O3 0.578651 0.752160 0.859226
O O4 0.544270 0.762337 0.771803
O O5 0.500000 0.809370 0.500000
O O6 0.341869 0.736239 0.576022
O O7 0.458286 0.733061 0.422827
O O8 0.395763 0.000000 0.499805
O O9 0.413898 0.737902 0.947091
O O10 0.379782 0.741783 0.859116
O O11 0.349999 0.000000 0.934350
O O12 0.250000 0.750000 0.000000
O O13 0.805475 0.500000 0.653230
O O14 0.873220 0.243251 0.666507
O O15 0.992352 0.500000 0.942701
O O16 0.000000 0.237213 0.000000
O O17 0.958887 0.261758 0.718681
O O18 0.969047 0.000000 0.773455
O O19 0.461230 0.000000 0.646051
#
# Coordination Sequence:
#
# PCOD9191260 Si02
#       7
#     8   8   8   8   8   8   8
#     4   9  18  32  49  68  92 124 158 191 228 272
#     4   7  11  22  43  69  93 117 150 195 239 275
#     4  10  20  35  54  73  95 123 155 191 230 276
#     4   8  14  27  48  72  93 117 157 202 237 272
#     4   9  19  35  52  70  94 123 152 186 232 280
#     4  10  20  33  47  66  97 131 157 186 230 280
#     4   9  16  28  49  73  93 119 159 201 236 273
#
# _framework density 18.519031999999999
#
# number of rings (size 3 to 8) (size 9 to 14) (size 15 to 20)
#    0.000    3.143    0.000    2.571    0.000    2.571 
#    0.000    4.286    0.000    4.714    0.000    0.000 
#    0.000    0.000    0.000    0.000    0.000    0.000 
#
# Total GULP energy -155968.452385 kJ/mol
# GULP energy per Si atom -5570.301871 kJ/mol
# Density = 1.847688 g / cm^3
# Si number density = 18.519032 Si / 1000 Ang^3
#
#
#
# Elastic Constant Matrix: (Units=GPa)
#
#
# Indices 1 2 3 4 5 6 
#
# 1 70.2032 5.2907 102.1778 0.0000 0.3689 0.0002
# 2 5.2907 9.9405 3.2513 0.0001 0.7770 -0.0002
# 3 102.1778 3.2513 216.9978 0.0000 -1.1999 0.0000
# 4 0.0000 0.0001 0.0000 15.0958 0.0000 3.3854
# 5 0.3689 0.7770 -1.1999 0.0000 36.3416 0.0001
# 6 0.0002 -0.0002 0.0000 3.3854 0.0001 11.1692
#
#
#
# Elastic Compliance Matrix: (Units=1/GPa)
#
#
# Indices 1 2 3 4 5 6 
#
# 1 0.048425 -0.018338 -0.022532 0.000000 -0.000843 -0.000001
# 2 -0.018338 0.108216 0.007003 -0.000001 -0.001896 0.000003
# 3 -0.022532 0.007003 0.015116 0.000000 0.000578 0.000001
# 4 0.000000 -0.000001 0.000000 0.071075 0.000000 -0.021543
# 5 -0.000843 -0.001896 0.000578 0.000000 0.027585 0.000000
# 6 -0.000001 0.000003 0.000001 -0.021543 0.000000 0.096061
#
#
# Mechanical properties :
#
#
# Convention : Reuss Voigt Hill
#
# Bulk Modulus (GPa) = 9.61321 57.62012 33.61667
# Shear Modulus (GPa) = 10.66356 24.94942 17.80649
#
# Velocity S-wave (km/s) = 2.40222 3.67445 3.10421
# Velocity P-wave (km/s) = 3.59117 7.01310 5.57136
#
# Compressibility (1/GPa) = 0.10402351
#
# Stress axis : x y z
#
# Youngs Moduli (GPa) = 20.65059 9.24075 66.15458
#
# Poissons Ratio (x) = 0.16946 1.49057
# Poissons Ratio (y) = 0.37869 -0.46328
# Poissons Ratio (z) = 0.46529 -0.06471
#
# Static dielectric constant tensor:
#      x y z
#    x 1.633400 0.000000 -0.002300 
#    y 0.000000 1.658200 0.000000 
#    z -0.002300 0.000000 1.633320 
# 
# From -- ./inp_files/280445.got.cif
#   From: 2010.05.17/outbox.cif.g08.bks.cpg/sg12_141_cif.got.tgz:280445.got - 2010.06.03 13:09:07.
