data_PCOD9191439
_publ_section_title
;
Structure prediction by ZEFSAII (Michael W. Deem and Ramdas Pophale) SiO2 
 PCOD9191439
Probable space group: C 2/M
;
_chemical_formula_sum "Si O2"
_cell_formula_units_Z 56
_cell_length_a 24.553473
_cell_length_b 9.460828
_cell_length_c 15.592012
_cell_angle_alpha 90.000000
_cell_angle_beta 120.039408
_cell_angle_gamma 90.000000
_cell_volume 3135.467282
_symmetry_space_group_name_H-M "C 2/M"
_symmetry_group_IT_number 12
_symmetry_cell_setting 'monoclinic'
loop_
_space_group_symop_operation_xyz
x,y,z
-x,y,-z
-x,-y,-z
x,-y,z
1/2+x,1/2+y,z
1/2-x,1/2+y,-z
1/2-x,1/2-y,-z
1/2+x,1/2-y,z
loop_
_atom_site_type_symbol
_atom_site_label
_atom_site_fract_x
_atom_site_fract_y
_atom_site_fract_z
Si Si1 0.459217 0.828827 0.885268
Si Si2 0.316857 0.169681 0.822895
Si Si3 0.992504 0.330909 0.720982
Si Si4 0.299949 0.337369 0.984416
Si Si5 0.819318 0.835453 0.327772
Si Si6 0.435424 0.829897 0.500190
Si Si7 0.610936 0.343642 0.789782
O O1 0.384984 0.799858 0.836703
O O2 0.480778 0.777017 0.808352
O O3 0.466147 0.000000 0.890221
O O4 0.500000 0.778438 0.000000
O O5 0.312968 0.256977 0.907193
O O6 0.253901 0.204644 0.719056
O O7 0.313741 0.000000 0.837545
O O8 0.993161 0.500000 0.725229
O O9 0.059219 0.275183 0.741013
O O10 0.944202 0.291838 0.607441
O O11 0.279700 0.500000 0.954636
O O12 0.250000 0.250000 0.000000
O O13 0.360815 0.339843 0.093281
O O14 0.873272 0.743741 0.414571
O O15 0.834560 0.826212 0.237795
O O16 0.826682 0.000000 0.358308
O O17 0.500000 0.789622 0.500000
O O18 0.429935 0.000000 0.488094
O O19 0.583057 0.500000 0.752264
#
# Coordination Sequence:
#
# PCOD9191439 Si02
#       7
#     8   8   8   8   8   8   8
#     4   9  18  34  58  83 106 139 185 229 269 320
#     4  10  20  37  56  78 110 144 184 230 272 321
#     4  10  20  35  56  81 106 139 184 229 274 320
#     4  11  21  33  50  77 111 143 179 219 270 328
#     4  10  20  34  52  76 108 143 178 218 272 330
#     4  10  20  34  52  79 111 140 177 226 277 325
#     4  10  20  33  49  76 110 140 174 218 270 329
#
# _framework density 17.860175999999999
#
# number of rings (size 3 to 8) (size 9 to 14) (size 15 to 20)
#    0.000    2.000    2.857    1.286    0.000    3.714 
#    0.000    1.429    0.000    2.571    0.000    0.000 
#    0.000    0.000    0.000    0.000    0.000    0.000 
#
# Total GULP energy -156029.644493 kJ/mol
# GULP energy per Si atom -5572.487303 kJ/mol
# Density = 1.781953 g / cm^3
# Si number density = 17.860176 Si / 1000 Ang^3
#
#
#
# Elastic Constant Matrix: (Units=GPa)
#
#
# Indices 1 2 3 4 5 6 
#
# 1 76.9422 16.7868 37.0734 0.0000 11.4888 0.0000
# 2 16.7868 19.3054 25.9818 0.0000 4.8082 0.0000
# 3 37.0734 25.9818 106.9764 0.0000 13.1004 0.0000
# 4 0.0000 0.0000 0.0000 25.9874 0.0000 3.2827
# 5 11.4888 4.8082 13.1004 0.0000 29.1467 0.0000
# 6 0.0000 0.0000 0.0000 3.2827 0.0000 13.5047
#
#
#
# Elastic Compliance Matrix: (Units=1/GPa)
#
#
# Indices 1 2 3 4 5 6 
#
# 1 0.017204 -0.009832 -0.003114 0.000000 -0.003760 0.000000
# 2 -0.009832 0.083145 -0.016489 0.000000 -0.002429 0.000000
# 3 -0.003114 -0.016489 0.014761 0.000000 -0.002687 0.000000
# 4 0.000000 0.000000 0.000000 0.039699 0.000000 -0.009650
# 5 -0.003760 -0.002429 -0.002687 0.000000 0.037400 0.000000
# 6 0.000000 0.000000 0.000000 -0.009650 0.000000 0.076394
#
#
# Mechanical properties :
#
#
# Convention : Reuss Voigt Hill
#
# Bulk Modulus (GPa) = 17.78105 40.32310 29.05208
# Shear Modulus (GPa) = 14.44176 21.95323 18.19750
#
# Velocity S-wave (km/s) = 2.84668 3.50976 3.19546
# Velocity P-wave (km/s) = 4.55874 6.24905 5.46959
#
# Compressibility (1/GPa) = 0.05623963
#
# Stress axis : x y z
#
# Youngs Moduli (GPa) = 58.12746 12.02717 67.74773
#
# Poissons Ratio (x) = 0.11826 0.21094
# Poissons Ratio (y) = 0.57154 1.11708
# Poissons Ratio (z) = 0.18098 0.19831
#
# Static dielectric constant tensor:
#      x y z
#    x 1.606850 0.000000 0.004720 
#    y 0.000000 1.606770 0.000000 
#    z 0.004720 0.000000 1.635340 
# 
# From -- ./inp_files/238435.got.cif
#   From: 2010.05.17/outbox.cif.g08.bks.cpg/sg12_120_cif.got.tgz:238435.got - 2010.06.03 13:09:07.
