data_PCOD9191884
_publ_section_title
;
Structure prediction by ZEFSAII (Michael W. Deem and Ramdas Pophale) SiO2 
 PCOD9191884
Probable space group: C 2/M
;
_chemical_formula_sum "Si O2"
_cell_formula_units_Z 48
_cell_length_a 9.566868
_cell_length_b 18.363082
_cell_length_c 13.171261
_cell_angle_alpha 90.000000
_cell_angle_beta 97.138954
_cell_angle_gamma 90.000000
_cell_volume 2295.951983
_symmetry_space_group_name_H-M "C 2/M"
_symmetry_group_IT_number 12
_symmetry_cell_setting 'monoclinic'
loop_
_space_group_symop_operation_xyz
x,y,z
-x,y,-z
-x,-y,-z
x,-y,z
1/2+x,1/2+y,z
1/2-x,1/2+y,-z
1/2-x,1/2-y,-z
1/2+x,1/2-y,z
loop_
_atom_site_type_symbol
_atom_site_label
_atom_site_fract_x
_atom_site_fract_y
_atom_site_fract_z
Si Si1 0.715111 0.086241 0.018647
Si Si2 0.521926 0.139622 0.157931
Si Si3 0.861684 0.419348 0.316829
Si Si4 0.088025 0.916511 0.141234
Si Si5 0.453954 0.708910 0.247892
Si Si6 0.747754 0.723671 0.385556
O O1 0.589479 0.101951 0.927520
O O2 0.851784 0.105560 0.963919
O O3 0.717514 0.000000 0.041061
O O4 0.669801 0.130890 0.114105
O O5 0.499511 0.098110 0.261979
O O6 0.473450 0.221931 0.174735
O O7 0.867776 0.500000 0.361530
O O8 0.726788 0.416516 0.227476
O O9 0.833269 0.352157 0.387379
O O10 0.977219 0.863460 0.184075
O O11 0.038979 0.000000 0.131602
O O12 0.588476 0.711763 0.335033
O O13 0.320215 0.723567 0.307925
O O14 0.750000 0.750000 0.500000
#
# Coordination Sequence:
#
# PCOD9191884 Si02
#       6
#     8   8   8   8   8   8
#     4   9  15  26  48  75 101 135 177 208 231 278
#     4   9  15  24  44  74 102 124 158 207 249 279
#     4   8  14  27  48  70  92 122 163 206 242 282
#     4   8  15  28  45  67  95 128 166 201 232 280
#     4  10  20  33  52  75  99 130 164 206 260 299
#     4  10  20  35  54  74  98 127 163 209 258 311
#
# _framework density 20.906358999999998
#
# number of rings (size 3 to 8) (size 9 to 14) (size 15 to 20)
#    0.000    3.000    0.000    4.500    0.000    0.667 
#    0.000    0.833    0.000   20.000    0.000    4.667 
#    0.000    0.000    0.000    0.000    0.000    0.000 
#
# Total GULP energy -133913.167552 kJ/mol
# GULP energy per Si atom -5579.715315 kJ/mol
# Density = 2.085878 g / cm^3
# Si number density = 20.906359 Si / 1000 Ang^3
#
#
#
# Elastic Constant Matrix: (Units=GPa)
#
#
# Indices 1 2 3 4 5 6 
#
# 1 71.0389 11.8964 29.0259 0.0000 -13.1387 0.0000
# 2 11.8964 95.6830 55.4179 0.0000 -35.4476 0.0000
# 3 29.0259 55.4179 107.8453 0.0000 -30.4197 0.0000
# 4 0.0000 0.0000 0.0000 17.7755 0.0000 2.5686
# 5 -13.1387 -35.4476 -30.4197 0.0000 25.5327 0.0000
# 6 0.0000 0.0000 0.0000 2.5686 0.0000 -14.5420
#
#
#
# Elastic Compliance Matrix: (Units=1/GPa)
#
#
# Indices 1 2 3 4 5 6 
#
# 1 0.016661 0.003332 -0.003725 0.000000 0.008761 0.000000
# 2 0.003332 0.023372 -0.004926 0.000000 0.028293 0.000000
# 3 -0.003725 -0.004926 0.015569 0.000000 0.009793 0.000000
# 4 0.000000 0.000000 0.000000 0.054857 0.000000 0.009690
# 5 0.008761 0.028293 0.009793 0.000000 0.094621 0.000000
# 6 0.000000 0.000000 0.000000 0.009690 0.000000 -0.067055
#
#
# Mechanical properties :
#
#
# Convention : Reuss Voigt Hill
#
# Bulk Modulus (GPa) = 22.24070 51.91640 37.07855
# Shear Modulus (GPa) = 30.55277 17.63503 24.09390
#
# Velocity S-wave (km/s) = 3.82699 2.90750 3.39848
# Velocity P-wave (km/s) = 5.49446 6.01316 5.75966
#
# Compressibility (1/GPa) = 0.04496262
#
# Stress axis : x y z
#
# Youngs Moduli (GPa) = 60.01946 42.78678 64.23156
#
# Poissons Ratio (x) = -0.14255 0.23927
# Poissons Ratio (y) = -0.19996 0.31641
# Poissons Ratio (z) = 0.22358 0.21077
#
# Static dielectric constant tensor:
#      x y z
#    x 1.832280 0.000000 0.008790 
#    y 0.000000 1.756950 0.000000 
#    z 0.008790 0.000000 1.758550 
# 
# From -- ./inp_files/131178.got.cif
#   From: 2010.05.17/outbox.cif.g08.bks.cpg/sg12_66_cif.got.tgz:131178.got - 2010.06.03 13:09:07.
