data_PCOD9191247
_publ_section_title
;
Structure prediction by ZEFSAII (Michael W. Deem and Ramdas Pophale) SiO2 
 PCOD9191247
Probable space group: C 2/M
;
_chemical_formula_sum "Si O2"
_cell_formula_units_Z 64
_cell_length_a 33.536246
_cell_length_b 8.899724
_cell_length_c 35.467234
_cell_angle_alpha 90.000000
_cell_angle_beta 23.806095
_cell_angle_gamma 90.000000
_cell_volume 4272.827182
_symmetry_space_group_name_H-M "C 2/M"
_symmetry_group_IT_number 12
_symmetry_cell_setting 'monoclinic'
loop_
_space_group_symop_operation_xyz
x,y,z
-x,y,-z
-x,-y,-z
x,-y,z
1/2+x,1/2+y,z
1/2-x,1/2+y,-z
1/2-x,1/2-y,-z
1/2+x,1/2-y,z
loop_
_atom_site_type_symbol
_atom_site_label
_atom_site_fract_x
_atom_site_fract_y
_atom_site_fract_z
Si Si1 0.145044 0.171446 0.135431
Si Si2 0.240527 0.817918 0.271580
Si Si3 0.894773 0.681308 0.989194
Si Si4 0.412048 0.318017 0.664107
Si Si5 0.322838 0.178674 0.815359
Si Si6 0.543049 0.679400 0.921197
Si Si7 0.617450 0.827388 0.083906
Si Si8 0.578090 0.325159 0.467121
O O1 0.130956 0.271860 0.184567
O O2 0.096144 0.231475 0.139420
O O3 0.117046 0.000000 0.167540
O O4 0.263455 0.173585 0.025152
O O5 0.173958 0.785262 0.292209
O O6 0.346602 0.743275 0.177040
O O7 0.178156 0.763429 0.362176
O O8 0.249452 0.000000 0.265888
O O9 0.888057 0.500000 0.996222
O O10 0.922580 0.724418 0.922011
O O11 0.973282 0.742299 0.950843
O O12 0.786820 0.748879 0.091308
O O13 0.415747 0.500000 0.664553
O O14 0.384622 0.243325 0.727087
O O15 0.515825 0.263366 0.556094
O O16 0.314516 0.000000 0.820473
O O17 0.542555 0.500000 0.916077
O O18 0.500000 0.711047 0.000000
O O19 0.588085 0.000000 0.115814
O O20 0.500000 0.324095 0.500000
O O21 0.597886 0.500000 0.458762
#
# Coordination Sequence:
#
# PCOD9191247 Si02
#       8
#     8   8   8   8   8   8   8   8
#     4   9  16  26  41  60  82 111 143 170 204 253
#     4   9  17  30  48  65  82 110 147 183 218 255
#     4  10  20  33  47  61  80 112 152 185 214 253
#     4   9  16  28  46  65  86 112 143 177 214 259
#     4  11  20  28  40  61  91 119 143 175 214 254
#     4  11  23  34  43  60  88 118 148 183 219 251
#     4   8  15  27  42  60  80 103 136 178 217 250
#     4   7  12  25  45  66  83 103 137 179 217 254
#
# _framework density 14.978372999999999
#
# number of rings (size 3 to 8) (size 9 to 14) (size 15 to 20)
#    0.000    2.750    0.000    5.250    0.000    7.000 
#    0.000    0.625    0.000    2.250    0.000    0.000 
#    0.000    1.000    0.000    3.000    0.000    4.250 
#
# Total GULP energy -178202.260260 kJ/mol
# GULP energy per Si atom -5568.820633 kJ/mol
# Density = 1.494428 g / cm^3
# Si number density = 14.978373 Si / 1000 Ang^3
#
#
#
# Elastic Constant Matrix: (Units=GPa)
#
#
# Indices 1 2 3 4 5 6 
#
# 1 93.4335 44.8538 50.9159 -0.0223 19.9004 0.0056
# 2 44.8538 54.4844 39.9370 0.1239 12.0543 -0.0820
# 3 50.9159 39.9370 108.7464 0.1041 17.0416 -0.0520
# 4 -0.0223 0.1239 0.1041 87.2212 -0.0657 -29.2386
# 5 19.9004 12.0543 17.0416 -0.0657 18.6376 0.0353
# 6 0.0056 -0.0820 -0.0520 -29.2386 0.0353 37.4236
#
#
#
# Elastic Compliance Matrix: (Units=1/GPa)
#
#
# Indices 1 2 3 4 5 6 
#
# 1 0.020807 -0.012043 -0.003570 0.000014 -0.011164 -0.000013
# 2 -0.012043 0.033486 -0.006163 -0.000030 -0.003164 0.000046
# 3 -0.003570 -0.006163 0.013900 -0.000012 -0.004912 0.000002
# 4 0.000014 -0.000030 -0.000012 0.015533 0.000047 0.012136
# 5 -0.011164 -0.003164 -0.004912 0.000047 0.072113 -0.000043
# 6 -0.000013 0.000046 0.000002 0.012136 -0.000043 0.036203
#
#
# Mechanical properties :
#
#
# Convention : Reuss Voigt Hill
#
# Bulk Modulus (GPa) = 40.58200 58.67528 49.62864
# Shear Modulus (GPa) = 20.50789 36.72031 28.61410
#
# Velocity S-wave (km/s) = 3.70424 4.95669 4.37551
# Velocity P-wave (km/s) = 6.74149 8.48627 7.66370
#
# Compressibility (1/GPa) = 0.02464147
#
# Stress axis : x y z
#
# Youngs Moduli (GPa) = 48.06022 29.86345 71.94020
#
# Poissons Ratio (x) = 0.35964 0.25682
# Poissons Ratio (y) = 0.57878 0.44339
# Poissons Ratio (z) = 0.17157 0.18406
#
# Static dielectric constant tensor:
#      x y z
#    x 1.493950 0.000000 0.019760 
#    y 0.000000 1.504120 0.000000 
#    z 0.019760 0.000000 1.497520 
# 
# From -- ./inp_files/384550.got.cif
#   From: 2010.05.17/outbox.cif.g08.bks.cpg/sg12_193_cif.got.tgz:384550.got - 2010.06.03 13:09:07.
