data_PCOD9191259
_publ_section_title
;
Structure prediction by ZEFSAII (Michael W. Deem and Ramdas Pophale) SiO2 
 PCOD9191259
Probable space group: C 2/M
;
_chemical_formula_sum "Si O2"
_cell_formula_units_Z 40
_cell_length_a 20.755153
_cell_length_b 13.873631
_cell_length_c 9.058057
_cell_angle_alpha 90.000000
_cell_angle_beta 35.492895
_cell_angle_gamma 90.000000
_cell_volume 1514.361823
_symmetry_space_group_name_H-M "C 2/M"
_symmetry_group_IT_number 12
_symmetry_cell_setting 'monoclinic'
loop_
_space_group_symop_operation_xyz
x,y,z
-x,y,-z
-x,-y,-z
x,-y,z
1/2+x,1/2+y,z
1/2-x,1/2+y,-z
1/2-x,1/2-y,-z
1/2+x,1/2-y,z
loop_
_atom_site_type_symbol
_atom_site_label
_atom_site_fract_x
_atom_site_fract_y
_atom_site_fract_z
Si Si1 0.810140 0.278378 0.739854
Si Si2 0.948177 0.885894 0.431133
Si Si3 0.186873 0.385817 0.690779
Si Si4 0.858789 0.885061 0.142717
Si Si5 0.490256 0.113190 0.251985
O O1 0.835591 0.172989 0.626304
O O2 0.728725 0.354233 0.817356
O O3 0.930644 0.328059 0.493221
O O4 0.750000 0.250000 0.000000
O O5 0.000000 0.867525 0.500000
O O6 0.931808 0.000000 0.454778
O O7 0.025184 0.857347 0.148115
O O8 0.204317 0.500000 0.688168
O O9 0.200485 0.152632 0.598602
O O10 0.097232 0.381636 0.721248
O O11 0.108993 0.348465 0.970434
O O12 0.864542 0.000000 0.148244
O O13 0.502154 0.000000 0.267731
#
# Coordination Sequence:
#
# PCOD9191259 Si02
#       5
#     8   8   8   8   8
#     4  11  19  27  46  71  94 123 159 194 231 275
#     4  10  20  33  47  66  94 127 161 194 229 275
#     4   7  11  23  45  69  90 114 146 187 235 276
#     4   9  17  32  53  73  94 121 154 195 237 277
#     4   8  14  25  43  69  95 116 146 192 237 275
#
# _framework density 26.413765999999999
#
# number of rings (size 3 to 8) (size 9 to 14) (size 15 to 20)
#    0.000    3.000    2.000    3.000    0.000    0.800 
#    0.000    1.000    0.000    4.800    0.000   11.200 
#    0.000    0.000    0.000    0.000    0.000    0.000 
#
# Total GULP energy -111682.653979 kJ/mol
# GULP energy per Si atom -5584.132699 kJ/mol
# Density = 2.635365 g / cm^3
# Si number density = 26.413766 Si / 1000 Ang^3
#
#
#
# Elastic Constant Matrix: (Units=GPa)
#
#
# Indices 1 2 3 4 5 6 
#
# 1 67.5788 -10.0616 47.6229 0.0000 4.7360 0.0000
# 2 -10.0616 76.0055 54.3994 0.0000 11.4491 0.0000
# 3 47.6229 54.3994 340.4629 0.0000 17.4599 0.0000
# 4 0.0000 0.0000 0.0000 51.8406 0.0000 8.4115
# 5 4.7360 11.4491 17.4599 0.0000 43.3144 0.0000
# 6 0.0000 0.0000 0.0000 8.4115 0.0000 17.8083
#
#
#
# Elastic Compliance Matrix: (Units=1/GPa)
#
#
# Indices 1 2 3 4 5 6 
#
# 1 0.017930 0.004962 -0.003199 0.000000 -0.001982 0.000000
# 2 0.004962 0.016630 -0.003163 0.000000 -0.003663 0.000000
# 3 -0.003199 -0.003163 0.003910 0.000000 -0.000390 0.000000
# 4 0.000000 0.000000 0.000000 0.020891 0.000000 -0.009868
# 5 -0.001982 -0.003663 -0.000390 0.000000 0.024429 0.000000
# 6 0.000000 0.000000 0.000000 -0.009868 0.000000 0.060814
#
#
# Mechanical properties :
#
#
# Convention : Reuss Voigt Hill
#
# Bulk Modulus (GPa) = 28.03612 74.21871 51.12742
# Shear Modulus (GPa) = 31.38840 48.73178 40.06009
#
# Velocity S-wave (km/s) = 3.45096 4.29993 3.89863
# Velocity P-wave (km/s) = 5.14938 7.26719 6.29794
#
# Compressibility (1/GPa) = 0.03566828
#
# Stress axis : x y z
#
# Youngs Moduli (GPa) = 55.77364 60.13360 255.74810
#
# Poissons Ratio (x) = -0.29837 0.81816
# Poissons Ratio (y) = -0.27674 0.80900
# Poissons Ratio (z) = 0.17842 0.19022
#
# Static dielectric constant tensor:
#      x y z
#    x 2.384500 0.000000 -0.056940 
#    y 0.000000 2.085910 0.000000 
#    z -0.056940 0.000000 2.080750 
# 
# From -- ./inp_files/140299.got.cif
#   From: 2010.05.17/outbox.cif.g08.bks.cpg/sg12_71_cif.got.tgz:140299.got - 2010.06.03 13:09:07.
