data_PCOD9191464
_publ_section_title
;
Structure prediction by ZEFSAII (Michael W. Deem and Ramdas Pophale) SiO2 
 PCOD9191464
Probable space group: C 2/M
;
_chemical_formula_sum "Si O2"
_cell_formula_units_Z 48
_cell_length_a 14.709853
_cell_length_b 9.534016
_cell_length_c 18.142391
_cell_angle_alpha 90.000000
_cell_angle_beta 63.593038
_cell_angle_gamma 90.000000
_cell_volume 2278.876596
_symmetry_space_group_name_H-M "C 2/M"
_symmetry_group_IT_number 12
_symmetry_cell_setting 'monoclinic'
loop_
_space_group_symop_operation_xyz
x,y,z
-x,y,-z
-x,-y,-z
x,-y,z
1/2+x,1/2+y,z
1/2-x,1/2+y,-z
1/2-x,1/2-y,-z
1/2+x,1/2-y,z
loop_
_atom_site_type_symbol
_atom_site_label
_atom_site_fract_x
_atom_site_fract_y
_atom_site_fract_z
Si Si1 0.236562 0.160077 0.747211
Si Si2 0.383744 0.333304 0.413201
Si Si3 0.802029 0.166001 0.592616
Si Si4 0.602289 0.844137 0.077411
Si Si5 0.491463 0.656143 0.235142
Si Si6 0.321474 0.342272 0.071725
O O1 0.305294 0.251196 0.668057
O O2 0.125194 0.152675 0.750305
O O3 0.214381 0.217765 0.836753
O O4 0.275362 0.000000 0.740540
O O5 0.354648 0.500000 0.414029
O O6 0.298054 0.229081 0.412161
O O7 0.388323 0.311599 0.499237
O O8 0.481090 0.313028 0.325895
O O9 0.792318 0.000000 0.609193
O O10 0.546793 0.766832 0.164332
O O11 0.718983 0.855853 0.061232
O O12 0.561314 0.000000 0.080277
O O13 0.603749 0.751723 0.003199
O O14 0.535410 0.500000 0.208619
O O15 0.362290 0.500000 0.070385
#
# Coordination Sequence:
#
# PCOD9191464 Si02
#       6
#     8   8   8   8   8   8
#     4   9  18  32  49  69  93 123 157 188 224 274
#     4   8  15  27  42  63  93 128 158 181 217 274
#     4   9  15  24  42  68  95 120 151 192 230 262
#     4  10  20  33  50  71  92 116 152 195 233 271
#     4   9  17  30  48  69  94 123 153 185 224 272
#     4   9  19  36  53  66  87 123 159 187 224 279
#
# _framework density 21.063009000000001
#
# number of rings (size 3 to 8) (size 9 to 14) (size 15 to 20)
#    0.000    3.000    0.000    2.000    0.000    5.333 
#    0.000    3.333    0.000    1.000    0.000    7.000 
#    0.000    0.000    0.000    0.000    0.000    0.000 
#
# Total GULP energy -133739.976885 kJ/mol
# GULP energy per Si atom -5572.499037 kJ/mol
# Density = 2.101507 g / cm^3
# Si number density = 21.063009 Si / 1000 Ang^3
#
#
#
# Elastic Constant Matrix: (Units=GPa)
#
#
# Indices 1 2 3 4 5 6 
#
# 1 33.5492 2.5048 -3.5827 0.0000 4.7926 0.0000
# 2 2.5048 117.1799 106.0677 0.0000 -17.8248 0.0000
# 3 -3.5827 106.0677 221.8029 0.0000 7.8052 0.0000
# 4 0.0000 0.0000 0.0000 31.4547 0.0000 0.9609
# 5 4.7926 -17.8248 7.8052 0.0000 31.9431 0.0000
# 6 0.0000 0.0000 0.0000 0.9609 0.0000 6.2534
#
#
#
# Elastic Compliance Matrix: (Units=1/GPa)
#
#
# Indices 1 2 3 4 5 6 
#
# 1 0.031624 -0.004621 0.003004 0.000000 -0.008057 0.000000
# 2 -0.004621 0.019987 -0.010136 0.000000 0.014323 0.000000
# 3 0.003004 -0.010136 0.009703 0.000000 -0.008478 0.000000
# 4 0.000000 0.000000 0.000000 0.031942 0.000000 -0.004908
# 5 -0.008057 0.014323 -0.008478 0.000000 0.042579 0.000000
# 6 0.000000 0.000000 0.000000 -0.004908 0.000000 0.160666
#
#
# Mechanical properties :
#
#
# Convention : Reuss Voigt Hill
#
# Bulk Modulus (GPa) = 26.45031 64.72349 45.58690
# Shear Modulus (GPa) = 15.03272 31.76639 23.39955
#
# Velocity S-wave (km/s) = 2.67442 3.88772 3.33668
# Velocity P-wave (km/s) = 4.70337 7.13776 6.04439
#
# Compressibility (1/GPa) = 0.03780674
#
# Stress axis : x y z
#
# Youngs Moduli (GPa) = 31.62179 50.03377 103.06479
#
# Poissons Ratio (x) = 0.23119 -0.30961
# Poissons Ratio (y) = 0.14612 1.04470
# Poissons Ratio (z) = -0.09499 0.50716
#
# Static dielectric constant tensor:
#      x y z
#    x 1.782610 0.000000 0.018190 
#    y 0.000000 1.754300 0.000000 
#    z 0.018190 0.000000 1.803830 
# 
# From -- ./inp_files/274616.got.cif
#   From: 2010.05.17/outbox.cif.g08.bks.cpg/sg12_138_cif.got.tgz:274616.got - 2010.06.03 13:09:07.
