data_PCOD9191707
_publ_section_title
;
Structure prediction by ZEFSAII (Michael W. Deem and Ramdas Pophale) SiO2 
 PCOD9191707
Probable space group: C 2/M
;
_chemical_formula_sum "Si O2"
_cell_formula_units_Z 64
_cell_length_a 31.264483
_cell_length_b 8.999172
_cell_length_c 26.418945
_cell_angle_alpha 90.000000
_cell_angle_beta 150.197059
_cell_angle_gamma 90.000000
_cell_volume 3694.382272
_symmetry_space_group_name_H-M "C 2/M"
_symmetry_group_IT_number 12
_symmetry_cell_setting 'monoclinic'
loop_
_space_group_symop_operation_xyz
x,y,z
-x,y,-z
-x,-y,-z
x,-y,z
1/2+x,1/2+y,z
1/2-x,1/2+y,-z
1/2-x,1/2-y,-z
1/2+x,1/2-y,z
loop_
_atom_site_type_symbol
_atom_site_label
_atom_site_fract_x
_atom_site_fract_y
_atom_site_fract_z
Si Si1 0.880269 0.325164 0.323711
Si Si2 0.281901 0.676880 0.133714
Si Si3 0.913637 0.677242 0.094868
Si Si4 0.050050 0.675761 0.429886
Si Si5 0.640249 0.322721 0.157917
Si Si6 0.322490 0.676578 0.365473
Si Si7 0.972746 0.177086 0.053962
Si Si8 0.448419 0.323080 0.236656
O O1 0.869406 0.500000 0.322993
O O2 0.808037 0.267546 0.210440
O O3 0.873064 0.235358 0.367963
O O4 0.970663 0.303332 0.387789
O O5 0.284469 0.500000 0.147845
O O6 0.355519 0.707065 0.167611
O O7 0.187504 0.714566 0.016766
O O8 0.920846 0.500000 0.106993
O O9 0.961167 0.734729 0.093609
O O10 0.947765 0.754706 0.180381
O O11 0.062949 0.500000 0.436889
O O12 0.132358 0.752050 0.539324
O O13 0.018530 0.749391 0.345516
O O14 0.658156 0.500000 0.175772
O O15 0.725484 0.234277 0.258829
O O16 0.563547 0.296775 0.119256
O O17 0.601011 0.282690 0.062710
O O18 0.325790 0.500000 0.371349
O O19 0.965797 0.000000 0.056142
O O20 0.460116 0.500000 0.247079
#
# Coordination Sequence:
#
# PCOD9191707 Si02
#       8
#     8   8   8   8   8   8   8   8
#     4  10  20  33  51  75 104 139 176 213 255 303
#     4   9  19  33  49  74 107 140 174 213 256 302
#     4  11  21  32  50  77 107 139 175 212 254 306
#     4  10  21  37  54  73 101 137 177 218 258 301
#     4   9  19  37  58  79 105 135 169 210 256 307
#     4  12  23  33  51  78 106 137 173 211 255 308
#     4   9  19  36  57  80 105 135 170 209 256 307
#     4  10  20  35  53  73 102 139 178 218 257 299
#
# _framework density 17.323599999999999
#
# number of rings (size 3 to 8) (size 9 to 14) (size 15 to 20)
#    0.000    2.000    0.000    4.875    0.000    7.500 
#    0.000    1.250    0.000    0.750    0.000    0.000 
#    0.000    0.000    0.000    0.000    0.000    0.000 
#
# Total GULP energy -178776.872961 kJ/mol
# GULP energy per Si atom -5586.777280 kJ/mol
# Density = 1.728417 g / cm^3
# Si number density = 17.323600 Si / 1000 Ang^3
#
#
#
# Elastic Constant Matrix: (Units=GPa)
#
#
# Indices 1 2 3 4 5 6 
#
# 1 63.8384 43.6625 40.8011 0.0000 -24.3231 0.0000
# 2 43.6625 79.2889 62.4940 0.0000 -14.5851 0.0000
# 3 40.8011 62.4940 105.9772 0.0000 -20.9451 0.0000
# 4 0.0000 0.0000 0.0000 28.4995 0.0000 -4.1857
# 5 -24.3231 -14.5851 -20.9451 0.0000 23.4963 0.0000
# 6 0.0000 0.0000 0.0000 -4.1857 0.0000 27.2016
#
#
#
# Elastic Compliance Matrix: (Units=1/GPa)
#
#
# Indices 1 2 3 4 5 6 
#
# 1 0.037005 -0.015552 0.000712 0.000000 0.029289 0.000000
# 2 -0.015552 0.030244 -0.013739 0.000000 -0.009573 0.000000
# 3 0.000712 -0.013739 0.019087 0.000000 0.009223 0.000000
# 4 0.000000 0.000000 0.000000 0.035900 0.000000 0.005524
# 5 0.029289 -0.009573 0.009223 0.000000 0.075159 0.000000
# 6 0.000000 0.000000 0.000000 0.005524 0.000000 0.037613
#
#
# Mechanical properties :
#
#
# Convention : Reuss Voigt Hill
#
# Bulk Modulus (GPa) = 34.27159 60.33551 47.30355
# Shear Modulus (GPa) = 16.56224 22.64927 19.60576
#
# Velocity S-wave (km/s) = 3.09536 3.61975 3.36778
# Velocity P-wave (km/s) = 5.70974 7.23701 6.51826
#
# Compressibility (1/GPa) = 0.02917868
#
# Stress axis : x y z
#
# Youngs Moduli (GPa) = 27.02308 33.06403 52.39281
#
# Poissons Ratio (x) = 0.51421 -0.03732
# Poissons Ratio (y) = 0.42026 0.71985
# Poissons Ratio (z) = -0.01925 0.45428
#
# Static dielectric constant tensor:
#      x y z
#    x 1.571540 0.000000 0.007590 
#    y 0.000000 1.569550 0.000000 
#    z 0.007590 0.000000 1.575660 
# 
# From -- ./inp_files/353471.got.cif
#   From: 2010.05.17/outbox.cif.g08.bks.cpg/sg12_177_cif.got.tgz:353471.got - 2010.06.03 13:09:07.
