data_PCOD9191511
_publ_section_title
;
Structure prediction by ZEFSAII (Michael W. Deem and Ramdas Pophale) SiO2 
 PCOD9191511
Probable space group: C 2/M
;
_chemical_formula_sum "Si O2"
_cell_formula_units_Z 56
_cell_length_a 16.370397
_cell_length_b 7.387385
_cell_length_c 18.180630
_cell_angle_alpha 90.000000
_cell_angle_beta 111.266610
_cell_angle_gamma 90.000000
_cell_volume 2048.941086
_symmetry_space_group_name_H-M "C 2/M"
_symmetry_group_IT_number 12
_symmetry_cell_setting 'monoclinic'
loop_
_space_group_symop_operation_xyz
x,y,z
-x,y,-z
-x,-y,-z
x,-y,z
1/2+x,1/2+y,z
1/2-x,1/2+y,-z
1/2-x,1/2-y,-z
1/2+x,1/2-y,z
loop_
_atom_site_type_symbol
_atom_site_label
_atom_site_fract_x
_atom_site_fract_y
_atom_site_fract_z
Si Si1 0.685393 0.211254 0.887449
Si Si2 0.900300 0.221063 0.453523
Si Si3 0.095871 0.279093 0.165375
Si Si4 0.740847 0.707057 0.695914
Si Si5 0.619479 0.795488 0.017710
Si Si6 0.634384 0.279501 0.398809
Si Si7 0.468978 0.707426 0.260022
O O1 0.779357 0.303419 0.920324
O O2 0.625707 0.222441 0.795677
O O3 0.702594 0.000000 0.907347
O O4 0.630831 0.284801 0.940299
O O5 0.850257 0.285483 0.364176
O O6 0.850627 0.274425 0.512327
O O7 0.000000 0.275533 0.500000
O O8 0.899737 0.000000 0.449475
O O9 0.096967 0.500000 0.165624
O O10 0.191419 0.210862 0.223638
O O11 0.073542 0.218000 0.075534
O O12 0.027669 0.222291 0.205077
O O13 0.726160 0.500000 0.714200
O O14 0.799458 0.705888 0.640165
O O15 0.587207 0.000000 0.995380
O O16 0.636659 0.500000 0.394967
O O17 0.536185 0.218669 0.342598
O O18 0.455764 0.500000 0.275563
#
# Coordination Sequence:
#
# PCOD9191511 Si02
#       7
#     8   8   8   8   8   8   8
#     4  10  20  34  52  73  99 131 165 202 244 291
#     4   9  17  29  47  73  99 123 158 199 236 279
#     4   9  18  33  52  74  99 127 162 203 246 292
#     4   9  17  30  51  74  95 124 159 196 237 284
#     4   9  19  35  53  73  99 131 164 199 244 296
#     4   9  18  32  50  70  95 128 160 195 239 285
#     4  10  20  33  50  73 100 130 165 204 245 289
#
# _framework density 27.331191
#
# number of rings (size 3 to 8) (size 9 to 14) (size 15 to 20)
#    0.000    2.714    0.000    1.286    0.000    3.429 
#    0.000    7.143    0.000    1.714    0.000    0.000 
#    0.000    0.000    0.000    0.000    0.000    0.000 
#
# Total GULP energy -156625.574930 kJ/mol
# GULP energy per Si atom -5593.770533 kJ/mol
# Density = 2.726898 g / cm^3
# Si number density = 27.331191 Si / 1000 Ang^3
#
#
#
# Elastic Constant Matrix: (Units=GPa)
#
#
# Indices 1 2 3 4 5 6 
#
# 1 86.5963 -4.4633 15.8765 0.0000 11.1811 0.0000
# 2 -4.4633 108.7873 -7.0216 0.0000 3.4800 0.0000
# 3 15.8765 -7.0216 188.8845 0.0000 16.2401 0.0000
# 4 0.0000 0.0000 0.0000 6.7205 0.0000 1.5334
# 5 11.1811 3.4800 16.2401 0.0000 67.6517 0.0000
# 6 0.0000 0.0000 0.0000 1.5334 0.0000 18.2767
#
#
#
# Elastic Compliance Matrix: (Units=1/GPa)
#
#
# Indices 1 2 3 4 5 6 
#
# 1 0.011959 0.000495 -0.000832 0.000000 -0.001802 0.000000
# 2 0.000495 0.009256 0.000358 0.000000 -0.000644 0.000000
# 3 -0.000832 0.000358 0.005480 0.000000 -0.001197 0.000000
# 4 0.000000 0.000000 0.000000 0.151703 0.000000 -0.012728
# 5 -0.001802 -0.000644 -0.001197 0.000000 0.015400 0.000000
# 6 0.000000 0.000000 0.000000 -0.012728 0.000000 0.055782
#
#
# Mechanical properties :
#
#
# Convention : Reuss Voigt Hill
#
# Bulk Modulus (GPa) = 37.40221 43.67236 40.53729
# Shear Modulus (GPa) = 19.34602 43.85487 31.60044
#
# Velocity S-wave (km/s) = 2.66341 4.01006 3.40399
# Velocity P-wave (km/s) = 4.81382 6.12000 5.50578
#
# Compressibility (1/GPa) = 0.02673638
#
# Stress axis : x y z
#
# Youngs Moduli (GPa) = 83.62227 108.03529 182.47050
#
# Poissons Ratio (x) = -0.05343 0.15178
# Poissons Ratio (y) = -0.04136 -0.06530
# Poissons Ratio (z) = 0.06956 -0.03866
#
# Static dielectric constant tensor:
#      x y z
#    x 2.204440 0.000000 0.012710 
#    y 0.000000 2.088100 0.000000 
#    z 0.012710 0.000000 2.091890 
# 
# From -- ./inp_files/313729.got.cif
#   From: 2010.05.17/outbox.cif.g08.bks.cpg/sg12_157_cif.got.tgz:313729.got - 2010.06.03 13:09:07.
