data_PCOD9191591
_publ_section_title
;
Structure prediction by ZEFSAII (Michael W. Deem and Ramdas Pophale) SiO2 
 PCOD9191591
Probable space group: C 2/M
;
_chemical_formula_sum "Si O2"
_cell_formula_units_Z 48
_cell_length_a 16.145726
_cell_length_b 9.088759
_cell_length_c 25.476545
_cell_angle_alpha 90.000000
_cell_angle_beta 33.977782
_cell_angle_gamma 90.000000
_cell_volume 2089.366206
_symmetry_space_group_name_H-M "C 2/M"
_symmetry_group_IT_number 12
_symmetry_cell_setting 'monoclinic'
loop_
_space_group_symop_operation_xyz
x,y,z
-x,y,-z
-x,-y,-z
x,-y,z
1/2+x,1/2+y,z
1/2-x,1/2+y,-z
1/2-x,1/2-y,-z
1/2+x,1/2-y,z
loop_
_atom_site_type_symbol
_atom_site_label
_atom_site_fract_x
_atom_site_fract_y
_atom_site_fract_z
Si Si1 0.926390 0.173659 0.966945
Si Si2 0.395514 0.174750 0.871143
Si Si3 0.772602 0.329017 0.190899
Si Si4 0.971489 0.325103 0.355226
Si Si5 0.225692 0.667559 0.682986
Si Si6 0.180377 0.326226 0.460713
O O1 0.908090 0.221470 0.915473
O O2 0.072882 0.257478 0.908522
O O3 0.952832 0.000000 0.958332
O O4 0.760608 0.207328 0.074948
O O5 0.551511 0.191280 0.760131
O O6 0.388699 0.000000 0.890591
O O7 0.767657 0.500000 0.178775
O O8 0.621979 0.246574 0.255944
O O9 0.773732 0.319135 0.254427
O O10 0.975473 0.500000 0.345252
O O11 0.949431 0.294453 0.429408
O O12 0.824508 0.257007 0.407416
O O13 0.266174 0.500000 0.648407
O O14 0.326419 0.773677 0.595578
O O15 0.205167 0.500000 0.449175
#
# Coordination Sequence:
#
# PCOD9191591 Si02
#       6
#     8   8   8   8   8   8
#     4   9  15  25  44  69  98 131 166 202 241 286
#     4   8  15  27  43  67  99 133 166 199 239 289
#     4  10  20  33  50  75 105 133 165 205 248 292
#     4  10  21  37  55  73  96 129 167 204 247 300
#     4   9  18  32  50  74 104 135 165 200 244 291
#     4  10  21  36  54  75  98 127 165 206 247 296
#
# _framework density 22.973472999999998
#
# number of rings (size 3 to 8) (size 9 to 14) (size 15 to 20)
#    0.000    2.667    0.000    3.000    0.000    6.667 
#    0.000    3.333    0.000    1.000    0.000    7.000 
#    0.000    0.000    0.000    0.000    0.000    0.000 
#
# Total GULP energy -134067.273845 kJ/mol
# GULP energy per Si atom -5586.136410 kJ/mol
# Density = 2.292118 g / cm^3
# Si number density = 22.973473 Si / 1000 Ang^3
#
#
#
# Elastic Constant Matrix: (Units=GPa)
#
#
# Indices 1 2 3 4 5 6 
#
# 1 65.5481 15.6395 22.0126 0.0000 -9.2073 0.0000
# 2 15.6395 70.9180 68.9456 0.0000 -7.1715 0.0000
# 3 22.0126 68.9456 130.9045 0.0000 -12.7682 0.0000
# 4 0.0000 0.0000 0.0000 28.2182 0.0000 -4.9965
# 5 -9.2073 -7.1715 -12.7682 0.0000 41.6816 0.0000
# 6 0.0000 0.0000 0.0000 -4.9965 0.0000 8.1524
#
#
#
# Elastic Compliance Matrix: (Units=1/GPa)
#
#
# Indices 1 2 3 4 5 6 
#
# 1 0.016623 -0.001906 -0.001510 0.000000 0.002881 0.000000
# 2 -0.001906 0.029120 -0.015018 0.000000 -0.000011 0.000000
# 3 -0.001510 -0.015018 0.015996 0.000000 0.001983 0.000000
# 4 0.000000 0.000000 0.000000 0.039752 0.000000 0.024363
# 5 0.002881 -0.000011 0.001983 0.000000 0.025233 0.000000
# 6 0.000000 0.000000 0.000000 0.024363 0.000000 0.137596
#
#
# Mechanical properties :
#
#
# Convention : Reuss Voigt Hill
#
# Bulk Modulus (GPa) = 40.20811 53.39623 46.80217
# Shear Modulus (GPa) = 16.15621 26.32863 21.24242
#
# Velocity S-wave (km/s) = 2.65477 3.38900 3.04410
# Velocity P-wave (km/s) = 5.19009 6.21344 5.72468
#
# Compressibility (1/GPa) = 0.02487060
#
# Stress axis : x y z
#
# Youngs Moduli (GPa) = 60.15880 34.34062 62.51528
#
# Poissons Ratio (x) = 0.06546 0.09441
# Poissons Ratio (y) = 0.11468 0.93883
# Poissons Ratio (z) = 0.09085 0.51572
#
# Static dielectric constant tensor:
#      x y z
#    x 1.949490 0.000000 0.036120 
#    y 0.000000 1.768660 0.000000 
#    z 0.036120 0.000000 1.891590 
# 
# From -- ./inp_files/274037.got.cif
#   From: 2010.05.17/outbox.cif.g08.bks.cpg/sg12_138_cif.got.tgz:274037.got - 2010.06.03 13:09:07.
