data_PCOD9191253
_publ_section_title
;
Structure prediction by ZEFSAII (Michael W. Deem and Ramdas Pophale) SiO2 
 PCOD9191253
Probable space group: C 2/M
;
_chemical_formula_sum "Si O2"
_cell_formula_units_Z 56
_cell_length_a 24.113144
_cell_length_b 9.252080
_cell_length_c 18.686917
_cell_angle_alpha 90.000000
_cell_angle_beta 142.698762
_cell_angle_gamma 90.000000
_cell_volume 2526.431366
_symmetry_space_group_name_H-M "C 2/M"
_symmetry_group_IT_number 12
_symmetry_cell_setting 'monoclinic'
loop_
_space_group_symop_operation_xyz
x,y,z
-x,y,-z
-x,-y,-z
x,-y,z
1/2+x,1/2+y,z
1/2-x,1/2+y,-z
1/2-x,1/2-y,-z
1/2+x,1/2-y,z
loop_
_atom_site_type_symbol
_atom_site_label
_atom_site_fract_x
_atom_site_fract_y
_atom_site_fract_z
Si Si1 0.369141 0.827668 0.515374
Si Si2 0.299783 0.671495 0.313278
Si Si3 0.950251 0.170106 0.351334
Si Si4 0.818596 0.338660 0.939050
Si Si5 0.913954 0.166618 0.702635
Si Si6 0.473446 0.835978 0.895731
Si Si7 0.370193 0.663055 0.122361
O O1 0.300124 0.760533 0.386496
O O2 0.466879 0.775298 0.582709
O O3 0.363767 0.754743 0.588130
O O4 0.364028 0.000000 0.514854
O O5 0.287381 0.500000 0.314924
O O6 0.397055 0.686419 0.371169
O O7 0.226352 0.724041 0.179094
O O8 0.876395 0.198108 0.212551
O O9 0.979185 0.000000 0.374399
O O10 0.780015 0.500000 0.904062
O O11 0.926887 0.349634 0.037108
O O12 0.815310 0.261074 0.011343
O O13 0.913108 0.244605 0.778771
O O14 0.021574 0.165357 0.789426
O O15 0.883213 0.000000 0.674451
O O16 0.436330 0.000000 0.868715
O O17 0.500000 0.771157 0.000000
O O18 0.338311 0.500000 0.079463
#
# Coordination Sequence:
#
# PCOD9191253 Si02
#       7
#     8   8   8   8   8   8   8
#     4  11  21  32  48  70  95 124 163 206 242 278
#     4  10  20  33  47  64  93 132 168 200 235 280
#     4   9  18  32  48  66  91 127 167 204 241 277
#     4   9  18  31  47  69  96 128 161 190 233 291
#     4   9  17  31  51  73  97 126 159 194 234 283
#     4   9  17  31  53  80 106 126 148 189 241 286
#     4   8  15  28  45  65  91 122 155 194 238 280
#
# _framework density 22.165654
#
# number of rings (size 3 to 8) (size 9 to 14) (size 15 to 20)
#    0.000    2.714    0.000    3.000    0.000    7.143 
#    0.000    0.000    0.000    0.857    0.000    0.000 
#    0.000    0.000    0.000    0.000    0.000    0.000 
#
# Total GULP energy -156316.805626 kJ/mol
# GULP energy per Si atom -5582.743058 kJ/mol
# Density = 2.211520 g / cm^3
# Si number density = 22.165654 Si / 1000 Ang^3
#
#
#
# Elastic Constant Matrix: (Units=GPa)
#
#
# Indices 1 2 3 4 5 6 
#
# 1 54.8232 22.7452 30.4396 0.0000 -13.0098 0.0000
# 2 22.7452 118.5376 94.5611 0.0000 -38.1114 0.0000
# 3 30.4396 94.5611 174.1178 0.0000 -55.7830 0.0000
# 4 0.0000 0.0000 0.0000 31.3686 0.0000 -13.1256
# 5 -13.0098 -38.1114 -55.7830 0.0000 51.8302 0.0000
# 6 0.0000 0.0000 0.0000 -13.1256 0.0000 6.9926
#
#
#
# Elastic Compliance Matrix: (Units=1/GPa)
#
#
# Indices 1 2 3 4 5 6 
#
# 1 0.020520 -0.001715 -0.002152 0.000000 0.001574 0.000000
# 2 -0.001715 0.015438 -0.006999 0.000000 0.003389 0.000000
# 3 -0.002152 -0.006999 0.012360 0.000000 0.007617 0.000000
# 4 0.000000 0.000000 0.000000 0.148564 0.000000 0.278864
# 5 0.001574 0.003389 0.007617 0.000000 0.030378 0.000000
# 6 0.000000 0.000000 0.000000 0.278864 0.000000 0.666454
#
#
# Mechanical properties :
#
#
# Convention : Reuss Voigt Hill
#
# Bulk Modulus (GPa) = 37.61107 71.44116 54.52612
# Shear Modulus (GPa) = 5.40945 31.35380 18.38163
#
# Velocity S-wave (km/s) = 1.56389 3.76509 2.88285
# Velocity P-wave (km/s) = 4.50178 7.15554 5.97778
#
# Compressibility (1/GPa) = 0.02658792
#
# Stress axis : x y z
#
# Youngs Moduli (GPa) = 48.73259 64.77656 80.90289
#
# Poissons Ratio (x) = 0.11108 0.17409
# Poissons Ratio (y) = 0.08357 0.56620
# Poissons Ratio (z) = 0.10486 0.45334
#
# Static dielectric constant tensor:
#      x y z
#    x 1.899730 0.000000 0.031010 
#    y 0.000000 1.756790 0.000000 
#    z 0.031010 0.000000 1.859800 
# 
# From -- ./inp_files/280981.got.cif
#   From: 2010.05.17/outbox.cif.g08.bks.cpg/sg12_141_cif.got.tgz:280981.got - 2010.06.03 13:09:07.
