data_PCOD9191537
_publ_section_title
;
Structure prediction by ZEFSAII (Michael W. Deem and Ramdas Pophale) SiO2 
 PCOD9191537
Probable space group: C 2/M
;
_chemical_formula_sum "Si O2"
_cell_formula_units_Z 64
_cell_length_a 22.375079
_cell_length_b 9.199602
_cell_length_c 17.546179
_cell_angle_alpha 90.000000
_cell_angle_beta 98.212354
_cell_angle_gamma 90.000000
_cell_volume 3574.700720
_symmetry_space_group_name_H-M "C 2/M"
_symmetry_group_IT_number 12
_symmetry_cell_setting 'monoclinic'
loop_
_space_group_symop_operation_xyz
x,y,z
-x,y,-z
-x,-y,-z
x,-y,z
1/2+x,1/2+y,z
1/2-x,1/2+y,-z
1/2-x,1/2-y,-z
1/2+x,1/2-y,z
loop_
_atom_site_type_symbol
_atom_site_label
_atom_site_fract_x
_atom_site_fract_y
_atom_site_fract_z
Si Si1 0.190265 0.832389 0.396287
Si Si2 0.396508 0.826979 0.169885
Si Si3 0.862252 0.832416 0.881591
Si Si4 0.484433 0.172109 0.909392
Si Si5 0.189618 0.830658 0.962563
Si Si6 0.334592 0.832055 0.458449
Si Si7 0.783491 0.329151 0.750569
Si Si8 0.858952 0.171803 0.310180
O O1 0.262225 0.832262 0.428537
O O2 0.158276 0.749894 0.460065
O O3 0.185118 0.748021 0.315935
O O4 0.171248 0.000000 0.386906
O O5 0.458045 0.803030 0.133914
O O6 0.343191 0.752441 0.111597
O O7 0.397111 0.752971 0.252575
O O8 0.386208 0.000000 0.174207
O O9 0.926202 0.761717 0.873661
O O10 0.809057 0.744746 0.830738
O O11 0.859063 0.000000 0.857405
O O12 0.853147 0.826028 0.970830
O O13 0.470056 0.000000 0.905241
O O14 0.500000 0.209361 0.000000
O O15 0.200976 0.000000 0.945036
O O16 0.250000 0.750000 0.000000
O O17 0.364235 0.746369 0.393665
O O18 0.353817 0.000000 0.465452
O O19 0.796494 0.500000 0.753015
O O20 0.711580 0.311019 0.727267
O O21 0.871661 0.000000 0.315886
#
# Coordination Sequence:
#
# PCOD9191537 Si02
#       8
#     8   8   8   8   8   8   8   8
#     4   9  16  27  45  70 102 137 173 211 251 300
#     4  11  22  36  55  76 100 132 171 214 260 308
#     4  11  23  36  53  76 101 131 170 216 261 304
#     4  10  21  39  59  76  96 129 171 216 263 311
#     4  11  23  36  52  75 103 135 169 206 253 309
#     4   9  16  27  45  70 102 139 175 209 249 302
#     4  10  20  33  50  73 105 141 174 210 255 309
#     4  10  20  33  50  75 107 141 174 212 258 306
#
# _framework density 17.903597000000001
#
# number of rings (size 3 to 8) (size 9 to 14) (size 15 to 20)
#    0.000    1.875    1.250    3.375    0.000    9.250 
#    0.000    0.000    0.000    0.000    0.000    0.875 
#    0.000    7.000    0.000    0.000    0.000    0.000 
#
# Total GULP energy -178683.370376 kJ/mol
# GULP energy per Si atom -5583.855324 kJ/mol
# Density = 1.786285 g / cm^3
# Si number density = 17.903597 Si / 1000 Ang^3
#
#
#
# Elastic Constant Matrix: (Units=GPa)
#
#
# Indices 1 2 3 4 5 6 
#
# 1 34.1560 32.5624 -0.0470 0.0000 -14.5884 0.0000
# 2 32.5624 120.0281 42.6765 0.0000 -23.1002 0.0000
# 3 -0.0470 42.6765 83.4179 0.0000 -32.6179 0.0000
# 4 0.0000 0.0000 0.0000 35.3710 0.0000 -2.0871
# 5 -14.5884 -23.1002 -32.6179 0.0000 23.3646 0.0000
# 6 0.0000 0.0000 0.0000 -2.0871 0.0000 22.2676
#
#
#
# Elastic Compliance Matrix: (Units=1/GPa)
#
#
# Indices 1 2 3 4 5 6 
#
# 1 0.124020 -0.031240 0.075429 0.000000 0.151851 0.000000
# 2 -0.031240 0.018471 -0.021918 0.000000 -0.031842 0.000000
# 3 0.075429 -0.021918 0.073076 0.000000 0.127443 0.000000
# 4 0.000000 0.000000 0.000000 0.028429 0.000000 0.002665
# 5 0.151851 -0.031842 0.127443 0.000000 0.284047 0.000000
# 6 0.000000 0.000000 0.000000 0.002665 0.000000 0.045158
#
#
# Mechanical properties :
#
#
# Convention : Reuss Voigt Hill
#
# Bulk Modulus (GPa) = 3.84454 43.10955 23.47705
# Shear Modulus (GPa) = 8.12527 27.02797 17.57662
#
# Velocity S-wave (km/s) = 2.13265 3.88962 3.13667
# Velocity P-wave (km/s) = 2.86641 6.65607 5.12443
#
# Compressibility (1/GPa) = 0.26010905
#
# Stress axis : x y z
#
# Youngs Moduli (GPa) = 8.06318 54.13786 13.68433
#
# Poissons Ratio (x) = 1.69125 -1.03219
# Poissons Ratio (y) = 0.25189 0.29994
# Poissons Ratio (z) = -0.60819 1.18661
#
# Static dielectric constant tensor:
#      x y z
#    x 1.593900 0.000000 -0.020310 
#    y 0.000000 1.599140 0.000000 
#    z -0.020310 0.000000 1.604090 
# 
# From -- ./inp_files/281311.got.cif
#   From: 2010.05.17/outbox.cif.g08.bks.cpg/sg12_141_cif.got.tgz:281311.got - 2010.06.03 13:09:07.
