data_PCOD9191867
_publ_section_title
;
Structure prediction by ZEFSAII (Michael W. Deem and Ramdas Pophale) SiO2 
 PCOD9191867
Probable space group: C 2/M
;
_chemical_formula_sum "Si O2"
_cell_formula_units_Z 56
_cell_length_a 11.506125
_cell_length_b 21.742036
_cell_length_c 12.962691
_cell_angle_alpha 90.000000
_cell_angle_beta 107.080008
_cell_angle_gamma 90.000000
_cell_volume 3099.808815
_symmetry_space_group_name_H-M "C 2/M"
_symmetry_group_IT_number 12
_symmetry_cell_setting 'monoclinic'
loop_
_space_group_symop_operation_xyz
x,y,z
-x,y,-z
-x,-y,-z
x,-y,z
1/2+x,1/2+y,z
1/2-x,1/2+y,-z
1/2-x,1/2-y,-z
1/2+x,1/2-y,z
loop_
_atom_site_type_symbol
_atom_site_label
_atom_site_fract_x
_atom_site_fract_y
_atom_site_fract_z
Si Si1 0.382450 0.369616 0.152414
Si Si2 0.397060 0.754456 0.062903
Si Si3 0.861365 0.074687 0.487462
Si Si4 0.315096 0.430099 0.924741
Si Si5 0.952676 0.396397 0.103352
Si Si6 0.121196 0.926427 0.282973
Si Si7 0.799533 0.427461 0.750321
O O1 0.414286 0.298203 0.153210
O O2 0.479669 0.408778 0.241582
O O3 0.255356 0.385285 0.173051
O O4 0.377292 0.393076 0.033304
O O5 0.423900 0.823877 0.104079
O O6 0.500000 0.742887 0.000000
O O7 0.250000 0.750000 0.000000
O O8 0.827278 0.095751 0.594275
O O9 0.767474 0.090899 0.372923
O O10 0.000000 0.094676 0.500000
O O11 0.864048 0.000000 0.490127
O O12 0.361694 0.500000 0.938167
O O13 0.172862 0.430391 0.911119
O O14 0.330862 0.402674 0.814421
O O15 0.056899 0.417015 0.209165
O O16 0.000000 0.409194 0.000000
O O17 0.135907 0.000000 0.284804
O O18 0.774320 0.500000 0.764161
#
# Coordination Sequence:
#
# PCOD9191867 Si02
#       7
#     8   8   8   8   8   8   8
#     4  12  20  32  56  85 113 146 178 236 292 339
#     4  11  22  39  56  79 118 160 205 231 275 350
#     4   9  17  33  55  79 111 146 188 232 277 345
#     4  11  21  32  50  82 118 145 173 224 296 351
#     4  11  22  37  54  79 114 155 192 231 277 344
#     4  10  20  33  51  82 113 142 181 228 287 340
#     4  11  21  35  59  90 116 146 190 240 293 343
#
# _framework density 18.065629000000001
#
# number of rings (size 3 to 8) (size 9 to 14) (size 15 to 20)
#    0.000    1.286    4.286    3.857    0.000    1.714 
#    0.000    0.714    0.000    4.286    3.714    0.000 
#    0.000    0.000    0.000    0.000    0.000    0.000 
#
# Total GULP energy -156130.752875 kJ/mol
# GULP energy per Si atom -5576.098317 kJ/mol
# Density = 1.802451 g / cm^3
# Si number density = 18.065629 Si / 1000 Ang^3
#
#
#
# Elastic Constant Matrix: (Units=GPa)
#
#
# Indices 1 2 3 4 5 6 
#
# 1 70.6200 0.6059 26.0578 0.0000 8.9178 0.0000
# 2 0.6059 45.0061 13.6584 0.0000 -5.9701 0.0000
# 3 26.0578 13.6584 121.8441 0.0000 6.5615 0.0000
# 4 0.0000 0.0000 0.0000 1.8789 0.0000 1.8141
# 5 8.9178 -5.9701 6.5615 0.0000 27.1151 0.0000
# 6 0.0000 0.0000 0.0000 1.8141 0.0000 26.2169
#
#
#
# Elastic Compliance Matrix: (Units=1/GPa)
#
#
# Indices 1 2 3 4 5 6 
#
# 1 0.015890 0.000164 -0.003179 0.000000 -0.004421 0.000000
# 2 0.000164 0.023928 -0.003038 0.000000 0.005950 0.000000
# 3 -0.003179 -0.003038 0.009329 0.000000 -0.001881 0.000000
# 4 0.000000 0.000000 0.000000 0.570329 0.000000 -0.039465
# 5 -0.004421 0.005950 -0.001881 0.000000 0.040099 0.000000
# 6 0.000000 0.000000 0.000000 -0.039465 0.000000 0.040874
#
#
# Mechanical properties :
#
#
# Convention : Reuss Voigt Hill
#
# Bulk Modulus (GPa) = 26.99590 35.34606 31.17098
# Shear Modulus (GPa) = 6.89750 24.18540 15.54145
#
# Velocity S-wave (km/s) = 1.95610 3.66287 2.93623
# Velocity P-wave (km/s) = 4.48078 6.12345 5.36535
#
# Compressibility (1/GPa) = 0.03704266
#
# Stress axis : x y z
#
# Youngs Moduli (GPa) = 62.93276 41.79185 107.19480
#
# Poissons Ratio (x) = -0.00687 0.34073
# Poissons Ratio (y) = -0.01034 0.32564
# Poissons Ratio (z) = 0.20004 0.12696
#
# Static dielectric constant tensor:
#      x y z
#    x 1.668280 0.000000 -0.016110 
#    y 0.000000 1.615580 0.000000 
#    z -0.016110 0.000000 1.637420 
# 
# From -- ./inp_files/133960.got.cif
#   From: 2010.05.17/outbox.cif.g08.bks.cpg/sg12_67_cif.got.tgz:133960.got - 2010.06.03 13:09:07.
