data_PCOD9191135
_publ_section_title
;
Structure prediction by ZEFSAII (Michael W. Deem and Ramdas Pophale) SiO2 
 PCOD9191135
Probable space group: C 2/M
;
_chemical_formula_sum "Si O2"
_cell_formula_units_Z 40
_cell_length_a 24.878148
_cell_length_b 8.380047
_cell_length_c 21.080555
_cell_angle_alpha 90.000000
_cell_angle_beta 24.784658
_cell_angle_gamma 90.000000
_cell_volume 1842.371187
_symmetry_space_group_name_H-M "C 2/M"
_symmetry_group_IT_number 12
_symmetry_cell_setting 'monoclinic'
loop_
_space_group_symop_operation_xyz
x,y,z
-x,y,-z
-x,-y,-z
x,-y,z
1/2+x,1/2+y,z
1/2-x,1/2+y,-z
1/2-x,1/2-y,-z
1/2+x,1/2-y,z
loop_
_atom_site_type_symbol
_atom_site_label
_atom_site_fract_x
_atom_site_fract_y
_atom_site_fract_z
Si Si1 0.875087 0.000000 0.182066
Si Si2 0.151452 0.500000 0.324989
Si Si3 0.927778 0.690062 0.763291
Si Si4 0.411646 0.323821 0.656898
Si Si5 0.369330 0.688816 0.958004
Si Si6 0.964551 0.673988 0.113273
O O1 0.882327 0.166289 0.211038
O O2 0.744518 0.000000 0.283688
O O3 0.000000 0.000000 0.000000
O O4 0.173740 0.666643 0.265526
O O5 0.000000 0.500000 0.500000
O O6 0.950587 0.500000 0.738171
O O7 0.990884 0.777627 0.635365
O O8 0.949912 0.763063 0.808593
O O9 0.776908 0.718837 0.907654
O O10 0.500000 0.334246 0.500000
O O11 0.352840 0.500000 0.728120
O O12 0.383744 0.500000 0.956416
O O13 0.418187 0.794517 0.964259
O O14 0.907492 0.500000 0.188028
O O15 0.000000 0.671866 0.000000
#
# Coordination Sequence:
#
# PCOD9191135 Si02
#       6
#     4   4   8   8   8   8
#     4  10  22  36  56  86 120 160 195 248 308 358
#     4  10  22  40  60  86 122 158 203 250 302 360
#     4  10  20  32  54  81 119 162 201 254 309 372
#     4  10  21  36  57  86 119 154 203 257 303 353
#     4  10  20  34  51  80 123 163 201 245 312 376
#     4  10  21  34  52  79 117 159 198 241 296 370
#
# _framework density 21.711151000000001
#
# number of rings (size 3 to 8) (size 9 to 14) (size 15 to 20)
#    0.000    2.000    2.000    1.200    5.600    3.200 
#    0.000    0.000    0.000    0.000    0.000    5.600 
#    0.000    0.000    0.000    0.000    0.000    0.000 
#
# Total GULP energy -111436.234724 kJ/mol
# GULP energy per Si atom -5571.811736 kJ/mol
# Density = 2.166174 g / cm^3
# Si number density = 21.711151 Si / 1000 Ang^3
#
#
#
# Elastic Constant Matrix: (Units=GPa)
#
#
# Indices 1 2 3 4 5 6 
#
# 1 104.0863 46.9150 26.6782 0.0002 16.0643 0.0000
# 2 46.9150 211.9661 6.4986 0.0018 -4.2092 -0.0003
# 3 26.6782 6.4986 41.7625 0.0009 15.2686 -0.0003
# 4 0.0002 0.0018 0.0009 11.7059 -0.0002 8.9087
# 5 16.0643 -4.2092 15.2686 -0.0002 35.1038 0.0000
# 6 0.0000 -0.0003 -0.0003 8.9087 0.0000 35.8447
#
#
#
# Elastic Compliance Matrix: (Units=1/GPa)
#
#
# Indices 1 2 3 4 5 6 
#
# 1 0.013092 -0.002761 -0.006686 0.000001 -0.003414 0.000000
# 2 -0.002761 0.005356 0.000278 -0.000001 0.001785 0.000000
# 3 -0.006686 0.000278 0.032155 -0.000004 -0.010893 0.000001
# 4 0.000001 -0.000001 -0.000004 0.105355 0.000002 -0.026184
# 5 -0.003414 0.001785 -0.010893 0.000002 0.035002 0.000000
# 6 0.000000 0.000000 0.000001 -0.026184 0.000000 0.034406
#
#
# Mechanical properties :
#
#
# Convention : Reuss Voigt Hill
#
# Bulk Modulus (GPa) = 30.99230 57.55538 44.27384
# Shear Modulus (GPa) = 19.64964 35.04577 27.34771
#
# Velocity S-wave (km/s) = 3.01167 4.02205 3.55296
# Velocity P-wave (km/s) = 5.13803 6.93803 6.10474
#
# Compressibility (1/GPa) = 0.03226608
#
# Stress axis : x y z
#
# Youngs Moduli (GPa) = 76.38134 186.71804 31.09914
#
# Poissons Ratio (x) = 0.51545 0.20791
# Poissons Ratio (y) = 0.21086 -0.00863
# Poissons Ratio (z) = 0.51065 -0.05183
#
# Static dielectric constant tensor:
#      x y z
#    x 1.826680 0.000000 0.066120 
#    y 0.000000 1.837600 0.000000 
#    z 0.066120 0.000000 1.953200 
# 
# From -- ./inp_files/280720.got.cif
#   From: 2010.05.17/outbox.cif.g08.bks.cpg/sg12_141_cif.got.tgz:280720.got - 2010.06.03 13:09:07.
