data_PCOD9191541
_publ_section_title
;
Structure prediction by ZEFSAII (Michael W. Deem and Ramdas Pophale) SiO2 
 PCOD9191541
Probable space group: C 2/M
;
_chemical_formula_sum "Si O2"
_cell_formula_units_Z 48
_cell_length_a 21.147428
_cell_length_b 24.543756
_cell_length_c 14.201502
_cell_angle_alpha 90.000000
_cell_angle_beta 20.003625
_cell_angle_gamma 90.000000
_cell_volume 2521.506133
_symmetry_space_group_name_H-M "C 2/M"
_symmetry_group_IT_number 12
_symmetry_cell_setting 'monoclinic'
loop_
_space_group_symop_operation_xyz
x,y,z
-x,y,-z
-x,-y,-z
x,-y,z
1/2+x,1/2+y,z
1/2-x,1/2+y,-z
1/2-x,1/2-y,-z
1/2+x,1/2-y,z
loop_
_atom_site_type_symbol
_atom_site_label
_atom_site_fract_x
_atom_site_fract_y
_atom_site_fract_z
Si Si1 0.585095 0.311986 0.686008
Si Si2 0.209992 0.275354 0.217469
Si Si3 0.312105 0.844741 0.014919
Si Si4 0.438508 0.558850 0.694780
Si Si5 0.799534 0.388845 0.246752
Si Si6 0.193601 0.699575 0.452027
O O1 0.725774 0.342665 0.421068
O O2 0.643843 0.324461 0.710931
O O3 0.609182 0.247726 0.634156
O O4 0.368883 0.317548 0.964020
O O5 0.226241 0.216560 0.142556
O O6 0.245682 0.273285 0.280152
O O7 0.000000 0.293736 0.500000
O O8 0.192487 0.888312 0.124213
O O9 0.318099 0.865221 0.115052
O O10 0.519728 0.840474 0.684888
O O11 0.500000 0.555476 0.500000
O O12 0.355469 0.500000 0.837298
O O13 0.629117 0.569190 0.483453
O O14 0.000000 0.408624 0.000000
#
# Coordination Sequence:
#
# PCOD9191541 Si02
#       6
#     8   8   8   8   8   8
#     4  10  21  32  50  74 108 145 180 217 259 313
#     4  11  22  32  48  77 110 149 185 212 249 315
#     4  10  20  34  53  76 109 146 177 220 265 315
#     4   9  20  36  54  76 106 141 177 225 276 317
#     4  11  19  33  54  79 107 141 180 217 269 316
#     4  10  20  33  50  73 108 147 180 214 260 313
#
# _framework density 19.036242000000001
#
# number of rings (size 3 to 8) (size 9 to 14) (size 15 to 20)
#    0.000    1.833    3.333    2.000    2.333    1.667 
#    0.000    0.000    0.000    0.000    0.000    2.333 
#    0.000    2.667    0.000    0.000    0.000    0.000 
#
# Total GULP energy -133668.809547 kJ/mol
# GULP energy per Si atom -5569.533731 kJ/mol
# Density = 1.899291 g / cm^3
# Si number density = 19.036242 Si / 1000 Ang^3
#
#
#
# Elastic Constant Matrix: (Units=GPa)
#
#
# Indices 1 2 3 4 5 6 
#
# 1 76.3263 39.8844 28.7433 -0.0013 -18.7765 -0.0007
# 2 39.8844 69.6510 43.1693 -0.0221 -13.0900 -0.0085
# 3 28.7433 43.1693 94.5727 -0.0556 -34.4710 0.0128
# 4 -0.0013 -0.0221 -0.0556 11.0422 0.0130 0.1812
# 5 -18.7765 -13.0900 -34.4710 0.0130 32.9286 -0.0081
# 6 -0.0007 -0.0085 0.0128 0.1812 -0.0081 3.5362
#
#
#
# Elastic Compliance Matrix: (Units=1/GPa)
#
#
# Indices 1 2 3 4 5 6 
#
# 1 0.020585 -0.011554 0.002623 -0.000019 0.009890 -0.000009
# 2 -0.011554 0.026646 -0.011629 0.000002 -0.008170 0.000085
# 3 0.002623 -0.011629 0.022549 0.000068 0.020478 -0.000065
# 4 -0.000019 0.000002 0.000068 0.090638 0.000024 -0.004643
# 5 0.009890 -0.008170 0.020478 0.000024 0.054198 0.000031
# 6 -0.000009 0.000085 -0.000065 -0.004643 0.000031 0.283026
#
#
# Mechanical properties :
#
#
# Convention : Reuss Voigt Hill
#
# Bulk Modulus (GPa) = 34.89370 51.57155 43.23262
# Shear Modulus (GPa) = 9.11882 18.08493 13.60188
#
# Velocity S-wave (km/s) = 2.19104 3.08559 2.67596
# Velocity P-wave (km/s) = 4.97703 6.31226 5.68398
#
# Compressibility (1/GPa) = 0.02865847
#
# Stress axis : x y z
#
# Youngs Moduli (GPa) = 48.57978 37.52910 44.34746
#
# Poissons Ratio (x) = 0.43362 -0.11632
# Poissons Ratio (y) = 0.56131 0.51573
# Poissons Ratio (z) = -0.12742 0.43643
#
# Static dielectric constant tensor:
#      x y z
#    x 1.713730 -0.000040 -0.045970 
#    y -0.000040 1.661080 0.000040 
#    z -0.045970 0.000040 1.732160 
# 
# From -- ./inp_files/50633.got.cif
#   From: 2010.05.17/outbox.cif.g08.bks.cpg/sg12_26_cif.got.tgz:50633.got - 2010.06.03 13:09:07.
