data_PCOD9191034
_publ_section_title
;
Structure prediction by ZEFSAII (Michael W. Deem and Ramdas Pophale) SiO2 
 PCOD9191034
Probable space group: C 2/M
;
_chemical_formula_sum "Si O2"
_cell_formula_units_Z 52
_cell_length_a 22.687403
_cell_length_b 29.375766
_cell_length_c 7.810890
_cell_angle_alpha 90.000000
_cell_angle_beta 145.729773
_cell_angle_gamma 90.000000
_cell_volume 2931.281256
_symmetry_space_group_name_H-M "C 2/M"
_symmetry_group_IT_number 12
_symmetry_cell_setting 'monoclinic'
loop_
_space_group_symop_operation_xyz
x,y,z
-x,y,-z
-x,-y,-z
x,-y,z
1/2+x,1/2+y,z
1/2-x,1/2+y,-z
1/2-x,1/2-y,-z
1/2+x,1/2-y,z
loop_
_atom_site_type_symbol
_atom_site_label
_atom_site_fract_x
_atom_site_fract_y
_atom_site_fract_z
Si Si1 0.590564 0.211071 0.071476
Si Si2 0.500000 0.776356 0.500000
Si Si3 0.825186 0.190819 0.637166
Si Si4 0.615541 0.591661 0.124589
Si Si5 0.871570 0.882775 0.202730
Si Si6 0.333769 0.286988 0.256691
Si Si7 0.120238 0.947000 0.475727
O O1 0.701778 0.187625 0.388518
O O2 0.623222 0.264790 0.152763
O O3 0.500000 0.204087 0.000000
O O4 0.560677 0.197826 0.801481
O O5 0.564010 0.741684 0.535843
O O6 0.887415 0.144901 0.830349
O O7 0.828096 0.199193 0.440441
O O8 0.667951 0.564916 0.405746
O O9 0.666209 0.593604 0.060992
O O10 0.501950 0.568382 0.829687
O O11 0.831198 0.832069 0.135785
O O12 0.837571 0.914140 0.277687
O O13 0.000000 0.880081 0.500000
O O14 0.250000 0.250000 0.000000
O O15 0.126706 0.000000 0.530709
#
# Coordination Sequence:
#
# PCOD9191034 Si02
#       7
#     8   4   8   8   8   8   8
#     4  11  24  36  52  74 104 142 188 242 276 326
#     4  12  22  34  52  72  99 142 191 230 270 322
#     4  11  23  36  52  78 106 145 193 236 281 328
#     4  10  20  32  52  72 102 141 182 218 268 331
#     4  10  21  33  51  74 105 148 186 222 267 329
#     4  12  22  35  53  77 109 147 199 238 273 326
#     4  10  21  35  53  81 110 142 181 229 280 338
#
# _framework density 17.739682999999999
#
# number of rings (size 3 to 8) (size 9 to 14) (size 15 to 20)
#    0.000    1.231    5.385    1.846    6.462    3.385 
#    0.000    0.000    0.000    0.000    0.000    0.000 
#    0.000    2.462    0.000   21.923    0.000    0.000 
#
# Total GULP energy -144885.959076 kJ/mol
# GULP energy per Si atom -5572.536888 kJ/mol
# Density = 1.769931 g / cm^3
# Si number density = 17.739683 Si / 1000 Ang^3
#
#
#
# Elastic Constant Matrix: (Units=GPa)
#
#
# Indices 1 2 3 4 5 6 
#
# 1 78.9880 -6.2795 30.2651 0.0000 -14.3813 0.0000
# 2 -6.2795 69.3112 4.9747 0.0000 -0.3046 0.0000
# 3 30.2651 4.9747 44.0692 0.0000 -5.4611 0.0000
# 4 0.0000 0.0000 0.0000 20.5063 0.0000 0.8147
# 5 -14.3813 -0.3046 -5.4611 0.0000 33.7718 0.0000
# 6 0.0000 0.0000 0.0000 0.8147 0.0000 15.9313
#
#
#
# Elastic Compliance Matrix: (Units=1/GPa)
#
#
# Indices 1 2 3 4 5 6 
#
# 1 0.018709 0.002612 -0.012402 0.000000 0.005985 0.000000
# 2 0.002612 0.014911 -0.003390 0.000000 0.000698 0.000000
# 3 -0.012402 -0.003390 0.031566 0.000000 -0.000207 0.000000
# 4 0.000000 0.000000 0.000000 0.048865 0.000000 -0.002499
# 5 0.005985 0.000698 -0.000207 0.000000 0.032132 0.000000
# 6 0.000000 0.000000 0.000000 -0.002499 0.000000 0.062897
#
#
# Mechanical properties :
#
#
# Convention : Reuss Voigt Hill
#
# Bulk Modulus (GPa) = 25.75684 27.80987 26.78335
# Shear Modulus (GPa) = 20.13018 24.93574 22.53296
#
# Velocity S-wave (km/s) = 3.37227 3.75326 3.56785
# Velocity P-wave (km/s) = 5.45103 5.87310 5.66600
#
# Compressibility (1/GPa) = 0.03882464
#
# Stress axis : x y z
#
# Youngs Moduli (GPa) = 53.44881 67.06606 31.67978
#
# Poissons Ratio (x) = -0.17514 0.39290
# Poissons Ratio (y) = -0.13958 0.10740
# Poissons Ratio (z) = 0.66288 0.22736
#
# Static dielectric constant tensor:
#      x y z
#    x -3.890280 0.000000 -11.824570 
#    y 0.000000 1.576100 0.000000 
#    z -11.824570 0.000000 -23.345940 
# 
# From -- ./inp_files/100171.got.cif
#   From: 2010.05.17/outbox.cif.g08.bks.cpg/sg12_51_cif.got.tgz:100171.got - 2010.06.03 13:09:07.
