data_PCOD9191706
_publ_section_title
;
Structure prediction by ZEFSAII (Michael W. Deem and Ramdas Pophale) SiO2 
 PCOD9191706
Probable space group: C 2/M
;
_chemical_formula_sum "Si O2"
_cell_formula_units_Z 64
_cell_length_a 30.875024
_cell_length_b 23.556081
_cell_length_c 9.486275
_cell_angle_alpha 90.000000
_cell_angle_beta 30.637163
_cell_angle_gamma 90.000000
_cell_volume 3515.888809
_symmetry_space_group_name_H-M "C 2/M"
_symmetry_group_IT_number 12
_symmetry_cell_setting 'monoclinic'
loop_
_space_group_symop_operation_xyz
x,y,z
-x,y,-z
-x,-y,-z
x,-y,z
1/2+x,1/2+y,z
1/2-x,1/2+y,-z
1/2-x,1/2-y,-z
1/2+x,1/2-y,z
loop_
_atom_site_type_symbol
_atom_site_label
_atom_site_fract_x
_atom_site_fract_y
_atom_site_fract_z
Si Si1 0.660860 0.249965 0.336348
Si Si2 0.686195 0.935283 0.089489
Si Si3 0.096954 0.678375 0.271161
Si Si4 0.849033 0.934415 0.426489
Si Si5 0.222781 0.241108 0.736993
Si Si6 0.816804 0.934474 0.953634
Si Si7 0.061228 0.868471 0.588867
Si Si8 0.138595 0.123693 0.900184
O O1 0.608018 0.204739 0.396046
O O2 0.692655 0.237932 0.404261
O O3 0.607881 0.308291 0.481701
O O4 0.750000 0.250000 0.000000
O O5 0.623271 0.887208 0.211646
O O6 0.727956 0.919650 0.124848
O O7 0.653361 0.000000 0.187119
O O8 0.766027 0.934356 0.758621
O O9 0.000000 0.685880 0.500000
O O10 0.160588 0.712040 0.984818
O O11 0.921172 0.906998 0.323219
O O12 0.834023 0.894879 0.333204
O O13 0.867911 0.000000 0.334870
O O14 0.250000 0.250000 0.500000
O O15 0.175443 0.181043 0.863976
O O16 0.827484 0.924346 0.088498
O O17 0.831366 0.000000 0.876510
O O18 0.888839 0.897212 0.679092
O O19 0.962556 0.867775 0.828314
#
# Coordination Sequence:
#
# PCOD9191706 Si02
#       8
#     8   8   8   8   8   8   8   8
#     4  10  20  36  56  75 104 144 181 218 266 323
#     4   9  19  38  58  76 103 138 177 217 262 320
#     4  11  21  36  58  84 110 137 177 226 277 322
#     4  10  21  36  53  73 104 146 181 210 254 316
#     4  11  22  37  57  78 106 143 183 220 264 324
#     4  10  20  33  51  75 104 139 175 211 255 312
#     4  11  21  34  50  73 106 138 173 216 263 310
#     4  12  22  32  50  78 106 132 173 222 265 308
#
# _framework density 18.203078000000001
#
# number of rings (size 3 to 8) (size 9 to 14) (size 15 to 20)
#    0.000    1.500    0.000    9.750    0.000    3.250 
#    0.000    1.875    0.000    0.000    0.000    0.000 
#    0.000   10.000    0.000    0.000    0.000    0.000 
#
# Total GULP energy -178522.653427 kJ/mol
# GULP energy per Si atom -5578.832920 kJ/mol
# Density = 1.816165 g / cm^3
# Si number density = 18.203078 Si / 1000 Ang^3
#
#
#
# Elastic Constant Matrix: (Units=GPa)
#
#
# Indices 1 2 3 4 5 6 
#
# 1 132.5838 39.6208 35.4727 0.0000 2.7114 0.0000
# 2 39.6208 92.6179 19.3186 0.0000 -15.6209 0.0000
# 3 35.4727 19.3186 35.4848 0.0000 -3.7958 0.0000
# 4 0.0000 0.0000 0.0000 -4.2116 0.0000 13.7797
# 5 2.7114 -15.6209 -3.7958 0.0000 31.5818 0.0000
# 6 0.0000 0.0000 0.0000 13.7797 0.0000 28.5927
#
#
#
# Elastic Compliance Matrix: (Units=1/GPa)
#
#
# Indices 1 2 3 4 5 6 
#
# 1 0.011269 -0.003421 -0.009813 0.000000 -0.003839 0.000000
# 2 -0.003421 0.014161 -0.003554 0.000000 0.006871 0.000000
# 3 -0.009813 -0.003554 0.040347 0.000000 0.003934 0.000000
# 4 0.000000 0.000000 0.000000 -0.092145 0.000000 0.044408
# 5 -0.003839 0.006871 0.003934 0.000000 0.035865 0.000000
# 6 0.000000 0.000000 0.000000 0.044408 0.000000 0.013573
#
#
# Mechanical properties :
#
#
# Convention : Reuss Voigt Hill
#
# Bulk Modulus (GPa) = 31.05691 49.94564 40.50127
# Shear Modulus (GPa) = 74.20745 22.27754 48.24249
#
# Velocity S-wave (km/s) = 6.39179 3.50213 5.15363
# Velocity P-wave (km/s) = 8.46000 6.62199 7.59679
#
# Compressibility (1/GPa) = 0.03219895
#
# Stress axis : x y z
#
# Youngs Moduli (GPa) = 88.74072 70.61725 24.78526
#
# Poissons Ratio (x) = 0.24161 0.24322
# Poissons Ratio (y) = 0.30361 0.08809
# Poissons Ratio (z) = 0.87081 0.25100
#
# Static dielectric constant tensor:
#      x y z
#    x 1.647740 0.000000 0.018280 
#    y 0.000000 1.526470 0.000000 
#    z 0.018280 0.000000 1.618560 
# 
# From -- ./inp_files/113630.got.cif
#   From: 2010.05.17/outbox.cif.g08.bks.cpg/sg12_57_cif.got.tgz:113630.got - 2010.06.03 13:09:07.
