data_PCOD9191043
_publ_section_title
;
Structure prediction by ZEFSAII (Michael W. Deem and Ramdas Pophale) SiO2 
 PCOD9191043
Probable space group: C 2/M
;
_chemical_formula_sum "Si O2"
_cell_formula_units_Z 56
_cell_length_a 9.592158
_cell_length_b 20.625626
_cell_length_c 14.902431
_cell_angle_alpha 90.000000
_cell_angle_beta 104.049396
_cell_angle_gamma 90.000000
_cell_volume 2860.165586
_symmetry_space_group_name_H-M "C 2/M"
_symmetry_group_IT_number 12
_symmetry_cell_setting 'monoclinic'
loop_
_space_group_symop_operation_xyz
x,y,z
-x,y,-z
-x,-y,-z
x,-y,z
1/2+x,1/2+y,z
1/2-x,1/2+y,-z
1/2-x,1/2-y,-z
1/2+x,1/2-y,z
loop_
_atom_site_type_symbol
_atom_site_label
_atom_site_fract_x
_atom_site_fract_y
_atom_site_fract_z
Si Si1 0.639115 0.209645 0.919346
Si Si2 0.493937 0.574674 0.135352
Si Si3 0.657427 0.841176 0.537876
Si Si4 0.345125 0.251339 0.798873
Si Si5 0.257073 0.421601 0.966119
Si Si6 0.182982 0.802986 0.618359
Si Si7 0.930041 0.865206 0.677306
O O1 0.475799 0.234018 0.885479
O O2 0.711306 0.220891 0.833144
O O3 0.635699 0.132725 0.939387
O O4 0.750000 0.250000 0.000000
O O5 0.481544 0.500000 0.110961
O O6 0.634915 0.593689 0.100628
O O7 0.508909 0.583882 0.242808
O O8 0.349932 0.601118 0.067528
O O9 0.500000 0.869619 0.500000
O O10 0.727633 0.827399 0.452347
O O11 0.641844 0.771555 0.586901
O O12 0.775199 0.881073 0.611990
O O13 0.280753 0.196545 0.723250
O O14 0.407814 0.303595 0.739155
O O15 0.223301 0.500000 0.961446
O O16 0.040701 0.843544 0.618216
#
# Coordination Sequence:
#
# PCOD9191043 Si02
#       7
#     8   8   8   8   8   8   8
#     4  12  23  35  54  83 122 151 189 243 295 335
#     4   9  18  33  56  81 105 143 196 241 275 329
#     4  10  20  32  52  77 110 146 177 219 276 354
#     4  11  22  33  51  83 115 150 182 230 286 343
#     4   9  19  35  56  80 112 157 203 238 274 337
#     4  10  20  33  50  77 111 146 178 221 279 350
#     4  11  19  33  54  79 112 139 180 230 288 340
#
# _framework density 19.579286
#
# number of rings (size 3 to 8) (size 9 to 14) (size 15 to 20)
#    0.000    1.714    2.857    5.143    4.000    0.000 
#    0.000    0.000    0.000    4.714    0.000    0.000 
#    0.000    0.000    0.000    0.000    0.000    0.000 
#
# Total GULP energy -156061.354525 kJ/mol
# GULP energy per Si atom -5573.619804 kJ/mol
# Density = 1.953472 g / cm^3
# Si number density = 19.579286 Si / 1000 Ang^3
#
#
#
# Elastic Constant Matrix: (Units=GPa)
#
#
# Indices 1 2 3 4 5 6 
#
# 1 79.3334 4.2173 23.6358 0.0000 5.7758 0.0000
# 2 4.2173 31.8590 6.5311 0.0000 4.8564 0.0000
# 3 23.6358 6.5311 96.7289 0.0000 6.7875 0.0000
# 4 0.0000 0.0000 0.0000 21.3072 0.0000 0.1381
# 5 5.7758 4.8564 6.7875 0.0000 30.2220 0.0000
# 6 0.0000 0.0000 0.0000 0.1381 0.0000 11.5280
#
#
#
# Elastic Compliance Matrix: (Units=1/GPa)
#
#
# Indices 1 2 3 4 5 6 
#
# 1 0.013726 -0.000898 -0.003169 0.000000 -0.001767 0.000000
# 2 -0.000898 0.032560 -0.001650 0.000000 -0.004690 0.000000
# 3 -0.003169 -0.001650 0.011342 0.000000 -0.001676 0.000000
# 4 0.000000 0.000000 0.000000 0.046936 0.000000 -0.000562
# 5 -0.001767 -0.004690 -0.001676 0.000000 0.034556 0.000000
# 6 0.000000 0.000000 0.000000 -0.000562 0.000000 0.086752
#
#
# Mechanical properties :
#
#
# Convention : Reuss Voigt Hill
#
# Bulk Modulus (GPa) = 21.64814 30.74333 26.19573
# Shear Modulus (GPa) = 19.78599 24.18057 21.98328
#
# Velocity S-wave (km/s) = 3.18237 3.51808 3.35443
# Velocity P-wave (km/s) = 4.95823 5.67790 5.33022
#
# Compressibility (1/GPa) = 0.04619334
#
# Stress axis : x y z
#
# Youngs Moduli (GPa) = 72.85636 30.71226 88.17082
#
# Poissons Ratio (x) = 0.02758 0.27944
# Poissons Ratio (y) = 0.06542 0.14548
# Poissons Ratio (z) = 0.23090 0.05067
#
# Static dielectric constant tensor:
#      x y z
#    x 1.695890 0.000000 0.034890 
#    y 0.000000 1.732140 0.000000 
#    z 0.034890 0.000000 1.813260 
# 
# From -- ./inp_files/198497.got.cif
#   From: 2010.05.17/outbox.cif.g08.bks.cpg/sg12_100_cif.got.tgz:198497.got - 2010.06.03 13:09:07.
