data_PCOD9191467
_publ_section_title
;
Structure prediction by ZEFSAII (Michael W. Deem and Ramdas Pophale) SiO2 
 PCOD9191467
Probable space group: C 2/M
;
_chemical_formula_sum "Si O2"
_cell_formula_units_Z 64
_cell_length_a 19.897630
_cell_length_b 7.671858
_cell_length_c 26.167760
_cell_angle_alpha 90.000000
_cell_angle_beta 124.005995
_cell_angle_gamma 90.000000
_cell_volume 3311.402818
_symmetry_space_group_name_H-M "C 2/M"
_symmetry_group_IT_number 12
_symmetry_cell_setting 'monoclinic'
loop_
_space_group_symop_operation_xyz
x,y,z
-x,y,-z
-x,-y,-z
x,-y,z
1/2+x,1/2+y,z
1/2-x,1/2+y,-z
1/2-x,1/2-y,-z
1/2+x,1/2-y,z
loop_
_atom_site_type_symbol
_atom_site_label
_atom_site_fract_x
_atom_site_fract_y
_atom_site_fract_z
Si Si1 0.278310 0.202558 0.928624
Si Si2 0.165910 0.296711 0.793537
Si Si3 0.020305 0.713856 0.804425
Si Si4 0.695365 0.793317 0.693169
Si Si5 0.257531 0.709473 0.444022
Si Si6 0.588321 0.289150 0.553980
Si Si7 0.849210 0.295920 0.691422
Si Si8 0.128377 0.712218 0.939190
O O1 0.246196 0.285065 0.862806
O O2 0.201981 0.222711 0.934762
O O3 0.292507 0.000000 0.923812
O O4 0.352830 0.271071 0.994965
O O5 0.146836 0.500000 0.777979
O O6 0.090252 0.226390 0.794475
O O7 0.179552 0.221428 0.743122
O O8 0.020924 0.500000 0.804804
O O9 0.048648 0.764144 0.873720
O O10 0.932463 0.777221 0.749432
O O11 0.619551 0.762280 0.623311
O O12 0.774735 0.717179 0.699321
O O13 0.709568 0.000000 0.702618
O O14 0.257469 0.500000 0.438790
O O15 0.250000 0.750000 0.500000
O O16 0.342084 0.772050 0.455619
O O17 0.185479 0.777604 0.376739
O O18 0.500000 0.225695 0.500000
O O19 0.586858 0.500000 0.552030
O O20 0.865896 0.500000 0.689569
O O21 0.132824 0.500000 0.941600
#
# Coordination Sequence:
#
# PCOD9191467 Si02
#       8
#     8   8   8   8   8   8   8   8
#     4   9  15  23  40  66  92 119 152 190 233 279
#     4   9  18  31  46  67  95 124 155 193 234 274
#     4   8  14  28  49  68  88 118 154 190 229 273
#     4  10  20  33  50  71  95 124 156 190 230 275
#     4   9  18  31  48  70  93 119 150 184 224 269
#     4   9  19  36  54  71  94 124 156 189 228 274
#     4   9  18  33  51  68  90 123 157 187 226 277
#     4   8  14  25  41  63  92 121 150 189 236 281
#
# _framework density 19.327155999999999
#
# number of rings (size 3 to 8) (size 9 to 14) (size 15 to 20)
#    0.000    3.125    0.000    2.250    0.000    4.750 
#    0.000    3.750    0.000    0.750    0.000    5.250 
#    0.000    0.000    0.000    0.000    0.000    0.000 
#
# Total GULP energy -178166.180295 kJ/mol
# GULP energy per Si atom -5567.693134 kJ/mol
# Density = 1.928317 g / cm^3
# Si number density = 19.327156 Si / 1000 Ang^3
#
#
#
# Elastic Constant Matrix: (Units=GPa)
#
#
# Indices 1 2 3 4 5 6 
#
# 1 48.4180 -4.7464 84.5492 0.0000 4.7209 0.0000
# 2 -4.7464 28.4048 -7.4037 0.0000 3.8302 0.0000
# 3 84.5492 -7.4037 202.1649 0.0000 11.5394 0.0000
# 4 0.0000 0.0000 0.0000 17.6974 0.0000 -3.5454
# 5 4.7209 3.8302 11.5394 0.0000 30.0894 0.0000
# 6 0.0000 0.0000 0.0000 -3.5454 0.0000 10.8006
#
#
#
# Elastic Compliance Matrix: (Units=1/GPa)
#
#
# Indices 1 2 3 4 5 6 
#
# 1 0.077159 0.004584 -0.032079 0.000000 -0.000387 0.000000
# 2 0.004584 0.036611 -0.000275 0.000000 -0.005274 0.000000
# 3 -0.032079 -0.000275 0.018467 0.000000 -0.002014 0.000000
# 4 0.000000 0.000000 0.000000 0.060483 0.000000 0.019854
# 5 -0.000387 -0.005274 -0.002014 0.000000 0.034739 0.000000
# 6 0.000000 0.000000 0.000000 0.019854 0.000000 0.099105
#
#
# Mechanical properties :
#
#
# Convention : Reuss Voigt Hill
#
# Bulk Modulus (GPa) = 13.03858 47.08733 30.06295
# Shear Modulus (GPa) = 12.26483 25.49004 18.87744
#
# Velocity S-wave (km/s) = 2.52184 3.63557 3.12866
# Velocity P-wave (km/s) = 3.90390 6.48377 5.35163
#
# Compressibility (1/GPa) = 0.07669549
#
# Stress axis : x y z
#
# Youngs Moduli (GPa) = 12.96033 27.31445 54.14923
#
# Poissons Ratio (x) = -0.12521 1.73706
# Poissons Ratio (y) = -0.05941 0.01491
# Poissons Ratio (z) = 0.41576 0.00752
#
# Static dielectric constant tensor:
#      x y z
#    x 1.649040 0.000000 0.007400 
#    y 0.000000 1.726590 0.000000 
#    z 0.007400 0.000000 1.723100 
# 
# From -- ./inp_files/346208.got.cif
#   From: 2010.05.17/outbox.cif.g08.bks.cpg/sg12_174_cif.got.tgz:346208.got - 2010.06.03 13:09:07.
