data_PCOD9191156
_publ_section_title
;
Structure prediction by ZEFSAII (Michael W. Deem and Ramdas Pophale) SiO2 
 PCOD9191156
Probable space group: C 2/M
;
_chemical_formula_sum "Si O2"
_cell_formula_units_Z 48
_cell_length_a 24.208116
_cell_length_b 12.296921
_cell_length_c 15.477294
_cell_angle_alpha 90.000000
_cell_angle_beta 143.414615
_cell_angle_gamma 90.000000
_cell_volume 2746.080684
_symmetry_space_group_name_H-M "C 2/M"
_symmetry_group_IT_number 12
_symmetry_cell_setting 'monoclinic'
loop_
_space_group_symop_operation_xyz
x,y,z
-x,y,-z
-x,-y,-z
x,-y,z
1/2+x,1/2+y,z
1/2-x,1/2+y,-z
1/2-x,1/2-y,-z
1/2+x,1/2-y,z
loop_
_atom_site_type_symbol
_atom_site_label
_atom_site_fract_x
_atom_site_fract_y
_atom_site_fract_z
Si Si1 0.719125 0.279296 0.342563
Si Si2 0.910396 0.630493 0.331189
Si Si3 0.374668 0.869482 0.639450
Si Si4 0.290912 0.287017 0.873367
Si Si5 0.917056 0.628784 0.135497
Si Si6 0.386745 0.500000 0.770443
Si Si7 0.906070 0.000000 0.003465
O O1 0.680153 0.177816 0.347202
O O2 0.825671 0.308047 0.497757
O O3 0.701175 0.264971 0.219088
O O4 0.667298 0.387849 0.313181
O O5 0.898343 0.500000 0.328285
O O6 0.815796 0.687802 0.240865
O O7 0.924279 0.650897 0.246848
O O8 0.000000 0.662667 0.500000
O O9 0.483280 0.842895 0.780837
O O10 0.366314 0.000000 0.619433
O O11 0.334990 0.193072 0.986490
O O12 0.352634 0.394194 0.968890
O O13 0.902931 0.500000 0.107581
O O14 0.484229 0.500000 0.843566
O O15 0.399012 0.500000 0.889962
#
# Coordination Sequence:
#
# PCOD9191156 Si02
#       7
#     8   8   8   8   8   4   4
#     4  10  20  32  55  78 107 148 181 225 270 319
#     4  10  20  36  60  85 107 138 182 228 275 322
#     4  10  20  36  53  79 112 145 186 222 267 321
#     4  11  20  35  54  82 112 140 180 226 275 321
#     4  10  22  36  55  81 112 146 179 223 270 326
#     4   9  16  30  46  74 106 133 178 218 261 315
#     4   9  18  28  49  76 105 138 167 219 271 311
#
# _framework density 17.479457
#
# number of rings (size 3 to 8) (size 9 to 14) (size 15 to 20)
#    0.000    2.000    1.667    2.500    0.000    4.000 
#    0.000    1.667    0.000    0.500    0.000    0.000 
#    0.000    0.000    0.000    0.000    0.000    0.000 
#
# Total GULP energy -133868.820054 kJ/mol
# GULP energy per Si atom -5577.867502 kJ/mol
# Density = 1.743967 g / cm^3
# Si number density = 17.479457 Si / 1000 Ang^3
#
#
#
# Elastic Constant Matrix: (Units=GPa)
#
#
# Indices 1 2 3 4 5 6 
#
# 1 62.3472 37.0074 51.4955 0.0000 9.2545 0.0000
# 2 37.0074 47.4731 46.2345 0.0000 -1.0858 0.0000
# 3 51.4955 46.2345 126.4665 0.0000 10.3086 0.0000
# 4 0.0000 0.0000 0.0000 34.3887 0.0000 1.9023
# 5 9.2545 -1.0858 10.3086 0.0000 33.9932 0.0000
# 6 0.0000 0.0000 0.0000 1.9023 0.0000 19.8392
#
#
#
# Elastic Compliance Matrix: (Units=1/GPa)
#
#
# Indices 1 2 3 4 5 6 
#
# 1 0.034944 -0.022144 -0.005435 0.000000 -0.008573 0.000000
# 2 -0.022144 0.047523 -0.009199 0.000000 0.010336 0.000000
# 3 -0.005435 -0.009199 0.013726 0.000000 -0.002977 0.000000
# 4 0.000000 0.000000 0.000000 0.029234 0.000000 -0.002803
# 5 -0.008573 0.010336 -0.002977 0.000000 0.032984 0.000000
# 6 0.000000 0.000000 0.000000 -0.002803 0.000000 0.050674
#
#
# Mechanical properties :
#
#
# Convention : Reuss Voigt Hill
#
# Bulk Modulus (GPa) = 44.17552 56.19572 50.18562
# Shear Modulus (GPa) = 17.23022 24.41418 20.82220
#
# Velocity S-wave (km/s) = 3.14306 3.74135 3.45518
# Velocity P-wave (km/s) = 6.20479 7.13323 6.68515
#
# Compressibility (1/GPa) = 0.02263697
#
# Stress axis : x y z
#
# Youngs Moduli (GPa) = 28.61685 21.04256 72.85468
#
# Poissons Ratio (x) = 0.46597 0.39593
# Poissons Ratio (y) = 0.63369 0.67022
# Poissons Ratio (z) = 0.15552 0.19358
#
# Static dielectric constant tensor:
#      x y z
#    x 1.586950 0.000000 0.007870 
#    y 0.000000 1.578490 0.000000 
#    z 0.007870 0.000000 1.604740 
# 
# From -- ./inp_files/232895.got.cif
#   From: 2010.05.17/outbox.cif.g08.bks.cpg/sg12_117_cif.got.tgz:232895.got - 2010.06.03 13:09:07.
