data_PCOD9191883
_publ_section_title
;
Structure prediction by ZEFSAII (Michael W. Deem and Ramdas Pophale) SiO2 
 PCOD9191883
Probable space group: C 2/M
;
_chemical_formula_sum "Si O2"
_cell_formula_units_Z 40
_cell_length_a 26.388888
_cell_length_b 18.799979
_cell_length_c 11.602721
_cell_angle_alpha 90.000000
_cell_angle_beta 20.507748
_cell_angle_gamma 90.000000
_cell_volume 2016.604090
_symmetry_space_group_name_H-M "C 2/M"
_symmetry_group_IT_number 12
_symmetry_cell_setting 'monoclinic'
loop_
_space_group_symop_operation_xyz
x,y,z
-x,y,-z
-x,-y,-z
x,-y,z
1/2+x,1/2+y,z
1/2-x,1/2+y,-z
1/2-x,1/2-y,-z
1/2+x,1/2-y,z
loop_
_atom_site_type_symbol
_atom_site_label
_atom_site_fract_x
_atom_site_fract_y
_atom_site_fract_z
Si Si1 0.478193 0.707599 0.819031
Si Si2 0.161385 0.917971 0.774801
Si Si3 0.398628 0.920217 0.477916
Si Si4 0.764171 0.284633 0.846139
Si Si5 0.614982 0.846331 0.859274
O O1 0.635344 0.737273 0.453076
O O2 0.466367 0.631760 0.905788
O O3 0.388947 0.705217 0.889952
O O4 0.394506 0.765509 0.076441
O O5 0.281068 0.918501 0.623517
O O6 0.238573 0.878125 0.504023
O O7 0.126110 0.000000 0.825677
O O8 0.344308 0.860582 0.681293
O O9 0.406253 0.000000 0.506306
O O10 0.548950 0.894693 0.101661
O O11 0.750000 0.250000 0.000000
O O12 0.500000 0.850583 0.000000
#
# Coordination Sequence:
#
# PCOD9191883 Si02
#       5
#     8   8   8   8   8
#     4  10  20  33  52  75  99 128 166 205 240 290
#     4   9  16  27  46  73 102 129 158 194 238 290
#     4   8  15  28  48  74  96 121 166 210 236 274
#     4  10  20  35  54  72  95 129 167 210 250 283
#     4   9  16  28  50  75 100 130 161 197 239 288
#
# _framework density 19.835325999999998
#
# number of rings (size 3 to 8) (size 9 to 14) (size 15 to 20)
#    0.000    2.800    0.000    3.000    0.000    2.400 
#    0.000    1.000    0.000   25.800    0.000    0.000 
#    0.000    0.000    0.000    0.000    0.000    0.000 
#
# Total GULP energy -111600.898754 kJ/mol
# GULP energy per Si atom -5580.044938 kJ/mol
# Density = 1.979018 g / cm^3
# Si number density = 19.835326 Si / 1000 Ang^3
#
#
#
# Elastic Constant Matrix: (Units=GPa)
#
#
# Indices 1 2 3 4 5 6 
#
# 1 43.6611 9.4876 23.2558 0.0001 6.3495 -0.0002
# 2 9.4876 130.4740 41.9871 0.0001 28.8316 -0.0003
# 3 23.2558 41.9871 51.6030 0.0000 11.2082 -0.0004
# 4 0.0001 0.0001 0.0000 15.8652 -0.0001 4.7092
# 5 6.3495 28.8316 11.2082 -0.0001 26.0645 0.0002
# 6 -0.0002 -0.0003 -0.0004 4.7092 0.0002 20.6093
#
#
#
# Elastic Compliance Matrix: (Units=1/GPa)
#
#
# Indices 1 2 3 4 5 6 
#
# 1 0.031522 0.004151 -0.016455 0.000000 -0.005195 0.000000
# 2 0.004151 0.013067 -0.010086 0.000000 -0.011129 0.000000
# 3 -0.016455 -0.010086 0.034974 0.000000 0.000126 0.000000
# 4 0.000000 0.000000 0.000000 0.067617 0.000001 -0.015450
# 5 -0.005195 -0.011129 0.000126 0.000001 0.051888 -0.000001
# 6 0.000000 0.000000 0.000000 -0.015450 -0.000001 0.052052
#
#
# Mechanical properties :
#
#
# Convention : Reuss Voigt Hill
#
# Bulk Modulus (GPa) = 28.74979 41.68881 35.21930
# Shear Modulus (GPa) = 16.26048 22.57497 19.41773
#
# Velocity S-wave (km/s) = 2.86628 3.37726 3.13221
# Velocity P-wave (km/s) = 5.04775 6.02254 5.55656
#
# Compressibility (1/GPa) = 0.03478286
#
# Stress axis : x y z
#
# Youngs Moduli (GPa) = 31.72416 76.52637 28.59305
#
# Poissons Ratio (x) = -0.31766 0.47050
# Poissons Ratio (y) = -0.13169 0.28839
# Poissons Ratio (z) = 0.52202 0.77184
#
# Static dielectric constant tensor:
#      x y z
#    x 1.709300 0.000000 -0.015420 
#    y 0.000000 1.699630 0.000000 
#    z -0.015420 0.000000 1.677130 
# 
# From -- ./inp_files/120387.got.cif
#   From: 2010.05.17/outbox.cif.g08.bks.cpg/sg12_61_cif.got.tgz:120387.got - 2010.06.03 13:09:07.
