data_PCOD9191869
_publ_section_title
;
Structure prediction by ZEFSAII (Michael W. Deem and Ramdas Pophale) SiO2 
 PCOD9191869
Probable space group: C 2/M
;
_chemical_formula_sum "Si O2"
_cell_formula_units_Z 40
_cell_length_a 10.358065
_cell_length_b 20.167776
_cell_length_c 14.912821
_cell_angle_alpha 90.000000
_cell_angle_beta 142.398509
_cell_angle_gamma 90.000000
_cell_volume 1900.834450
_symmetry_space_group_name_H-M "C 2/M"
_symmetry_group_IT_number 12
_symmetry_cell_setting 'monoclinic'
loop_
_space_group_symop_operation_xyz
x,y,z
-x,y,-z
-x,-y,-z
x,-y,z
1/2+x,1/2+y,z
1/2-x,1/2+y,-z
1/2-x,1/2-y,-z
1/2+x,1/2-y,z
loop_
_atom_site_type_symbol
_atom_site_label
_atom_site_fract_x
_atom_site_fract_y
_atom_site_fract_z
Si Si1 0.918883 0.425798 0.333934
Si Si2 0.678907 0.795316 0.540099
Si Si3 0.395733 0.078315 0.108574
Si Si4 0.129042 0.079570 0.659144
Si Si5 0.514497 0.383879 0.220616
O O1 0.013674 0.500000 0.398221
O O2 0.874878 0.417372 0.204403
O O3 0.698855 0.422734 0.267945
O O4 0.070303 0.365083 0.447321
O O5 0.500000 0.761149 0.500000
O O6 0.750000 0.750000 0.500000
O O7 0.879886 0.812128 0.711437
O O8 0.628484 0.103819 0.210556
O O9 0.382486 0.000000 0.076854
O O10 0.203031 0.112501 0.952109
O O11 0.026366 0.094315 0.699008
O O12 0.000000 0.102364 0.500000
O O13 0.141354 0.000000 0.657787
#
# Coordination Sequence:
#
# PCOD9191869 Si02
#       5
#     8   8   8   8   8
#     4  10  21  38  63  94 125 158 201 255 314 373
#     4  10  24  43  63  87 121 167 211 254 306 369
#     4  10  20  34  56  92 131 161 197 253 316 372
#     4  10  20  33  51  82 124 165 201 241 298 365
#     4  11  21  35  59  88 118 159 204 254 309 359
#
# _framework density 21.043389999999999
#
# number of rings (size 3 to 8) (size 9 to 14) (size 15 to 20)
#    0.000    1.800    0.000    4.200    0.000   12.400 
#    0.000    1.000    0.000    3.000    0.000    0.000 
#    0.000    0.000    0.000    0.000    0.000    0.000 
#
# Total GULP energy -111703.333156 kJ/mol
# GULP energy per Si atom -5585.166658 kJ/mol
# Density = 2.099549 g / cm^3
# Si number density = 21.043390 Si / 1000 Ang^3
#
#
#
# Elastic Constant Matrix: (Units=GPa)
#
#
# Indices 1 2 3 4 5 6 
#
# 1 178.4048 44.4303 73.1404 -0.0011 18.0001 -0.0001
# 2 44.4303 50.6557 27.4677 0.0012 8.7746 0.0001
# 3 73.1404 27.4677 149.6908 -0.0022 23.6952 0.0000
# 4 -0.0011 0.0012 -0.0022 -17.7597 -0.0023 -15.4547
# 5 18.0001 8.7746 23.6952 -0.0023 31.2503 -0.0002
# 6 -0.0001 0.0001 0.0000 -15.4547 -0.0002 29.3424
#
#
#
# Elastic Compliance Matrix: (Units=1/GPa)
#
#
# Indices 1 2 3 4 5 6 
#
# 1 0.008254 -0.005510 -0.002857 0.000000 -0.001041 0.000000
# 2 -0.005510 0.025948 -0.001612 0.000002 -0.002890 0.000001
# 3 -0.002857 -0.001612 0.009137 0.000000 -0.004830 0.000000
# 4 0.000000 0.000002 0.000000 -0.038610 -0.000003 -0.020336
# 5 -0.001041 -0.002890 -0.004830 -0.000003 0.037073 -0.000001
# 6 0.000000 0.000001 0.000000 -0.020336 -0.000001 0.023369
#
#
# Mechanical properties :
#
#
# Convention : Reuss Voigt Hill
#
# Bulk Modulus (GPa) = 42.76901 74.31423 58.54162
# Shear Modulus (GPa) = 53.80880 24.14744 38.97812
#
# Velocity S-wave (km/s) = 5.06220 3.39116 4.30847
# Velocity P-wave (km/s) = 7.38486 7.12213 7.25469
#
# Compressibility (1/GPa) = 0.02338141
#
# Stress axis : x y z
#
# Youngs Moduli (GPa) = 121.15731 38.53798 109.44891
#
# Poissons Ratio (x) = 0.21234 0.31270
# Poissons Ratio (y) = 0.66756 0.17641
# Poissons Ratio (z) = 0.34616 0.06211
#
# Static dielectric constant tensor:
#      x y z
#    x 1.856190 0.000000 0.046940 
#    y 0.000000 1.778770 0.000000 
#    z 0.046940 0.000000 1.760980 
# 
# From -- ./inp_files/198678.got.cif
#   From: 2010.05.17/outbox.cif.g08.bks.cpg/sg12_100_cif.got.tgz:198678.got - 2010.06.03 13:09:07.
