data_PCOD9191370
_publ_section_title
;
Structure prediction by ZEFSAII (Michael W. Deem and Ramdas Pophale) SiO2 
 PCOD9191370
Probable space group: C 2/M
;
_chemical_formula_sum "Si O2"
_cell_formula_units_Z 64
_cell_length_a 22.712518
_cell_length_b 8.908658
_cell_length_c 23.707990
_cell_angle_alpha 90.000000
_cell_angle_beta 56.068534
_cell_angle_gamma 90.000000
_cell_volume 3980.122704
_symmetry_space_group_name_H-M "C 2/M"
_symmetry_group_IT_number 12
_symmetry_cell_setting 'monoclinic'
loop_
_space_group_symop_operation_xyz
x,y,z
-x,y,-z
-x,-y,-z
x,-y,z
1/2+x,1/2+y,z
1/2-x,1/2+y,-z
1/2-x,1/2-y,-z
1/2+x,1/2-y,z
loop_
_atom_site_type_symbol
_atom_site_label
_atom_site_fract_x
_atom_site_fract_y
_atom_site_fract_z
Si Si1 0.080948 0.176703 0.624230
Si Si2 0.526559 0.681682 0.229368
Si Si3 0.576365 0.179470 0.932378
Si Si4 0.158065 0.678754 0.101295
Si Si5 0.323731 0.678941 0.028458
Si Si6 0.407699 0.318921 0.198941
Si Si7 0.804126 0.180778 0.516912
Si Si8 0.705230 0.323911 0.652713
O O1 0.011040 0.237315 0.692670
O O2 0.118291 0.232597 0.546900
O O3 0.142622 0.187896 0.639023
O O4 0.067601 0.000000 0.622541
O O5 0.532105 0.500000 0.228535
O O6 0.601449 0.753418 0.174606
O O7 0.472178 0.717523 0.207196
O O8 0.635923 0.249961 0.940656
O O9 0.582029 0.243495 0.866508
O O10 0.583036 0.000000 0.927997
O O11 0.500000 0.218190 0.000000
O O12 0.149350 0.500000 0.101635
O O13 0.239407 0.710554 0.075056
O O14 0.147504 0.751936 0.045364
O O15 0.333748 0.500000 0.022178
O O16 0.406531 0.500000 0.193994
O O17 0.334045 0.274003 0.269241
O O18 0.750000 0.250000 0.500000
O O19 0.773039 0.235778 0.592984
O O20 0.801345 0.000000 0.515420
O O21 0.722835 0.500000 0.647526
#
# Coordination Sequence:
#
# PCOD9191370 Si02
#       8
#     8   8   8   8   8   8   8   8
#     4   7  12  22  35  54  81 112 146 178 207 250
#     4   9  16  28  46  65  88 122 155 179 214 265
#     4  11  23  35  48  69  94 115 142 186 227 255
#     4  10  20  33  49  70  92 111 141 187 226 256
#     4  10  21  36  52  67  86 117 150 177 216 270
#     4   9  18  31  46  64  89 122 155 182 214 266
#     4   9  14  21  34  52  77 110 146 181 215 252
#     4   8  14  25  38  54  79 111 147 182 212 249
#
# _framework density 16.079906999999999
#
# number of rings (size 3 to 8) (size 9 to 14) (size 15 to 20)
#    0.000    2.875    0.000    4.500    0.000    5.500 
#    0.000    5.625    0.000    0.000    0.000    0.000 
#    0.000    1.000    0.000   11.250    0.000    7.625 
#
# Total GULP energy -178142.883569 kJ/mol
# GULP energy per Si atom -5566.965112 kJ/mol
# Density = 1.604331 g / cm^3
# Si number density = 16.079907 Si / 1000 Ang^3
#
#
#
# Elastic Constant Matrix: (Units=GPa)
#
#
# Indices 1 2 3 4 5 6 
#
# 1 27.1957 18.7518 24.7910 -0.0001 -0.6954 0.0001
# 2 18.7518 33.2565 46.4300 -0.0001 -3.8224 -0.0003
# 3 24.7910 46.4300 165.7923 -0.0001 -16.2719 0.0002
# 4 -0.0001 -0.0001 -0.0001 28.7136 0.0000 -0.6519
# 5 -0.6954 -3.8224 -16.2719 0.0000 16.4909 -0.0001
# 6 0.0001 -0.0003 0.0002 -0.6519 -0.0001 16.3442
#
#
#
# Elastic Compliance Matrix: (Units=1/GPa)
#
#
# Indices 1 2 3 4 5 6 
#
# 1 0.060650 -0.035169 0.000256 0.000000 -0.005342 -0.000001
# 2 -0.035169 0.069855 -0.014239 0.000000 0.000658 0.000002
# 3 0.000256 -0.014239 0.010694 0.000000 0.007262 0.000000
# 4 0.000000 0.000000 0.000000 0.034858 0.000000 0.001390
# 5 -0.005342 0.000658 0.007262 0.000000 0.067733 0.000000
# 6 -0.000001 0.000002 0.000000 0.001390 0.000000 0.061239
#
#
# Mechanical properties :
#
#
# Convention : Reuss Voigt Hill
#
# Bulk Modulus (GPa) = 23.31329 45.13222 34.22276
# Shear Modulus (GPa) = 11.97224 21.39451 16.68338
#
# Velocity S-wave (km/s) = 2.73160 3.65158 3.22456
# Velocity P-wave (km/s) = 4.94760 6.77548 5.93236
#
# Compressibility (1/GPa) = 0.04289399
#
# Stress axis : x y z
#
# Youngs Moduli (GPa) = 16.48797 14.31536 93.51113
#
# Poissons Ratio (x) = 0.50345 -0.02391
# Poissons Ratio (y) = 0.57986 1.33155
# Poissons Ratio (z) = -0.00422 0.20384
#
# Static dielectric constant tensor:
#      x y z
#    x 1.511660 0.000000 -0.012030 
#    y 0.000000 1.536260 0.000000 
#    z -0.012030 0.000000 1.593200 
# 
# From -- ./inp_files/346018.got.cif
#   From: 2010.05.17/outbox.cif.g08.bks.cpg/sg12_174_cif.got.tgz:346018.got - 2010.06.03 13:09:07.
