data_PCOD9191169
_publ_section_title
;
Structure prediction by ZEFSAII (Michael W. Deem and Ramdas Pophale) SiO2 
 PCOD9191169
Probable space group: C 2/M
;
_chemical_formula_sum "Si O2"
_cell_formula_units_Z 40
_cell_length_a 9.814433
_cell_length_b 23.598513
_cell_length_c 11.227664
_cell_angle_alpha 90.000000
_cell_angle_beta 55.564457
_cell_angle_gamma 90.000000
_cell_volume 2144.708926
_symmetry_space_group_name_H-M "C 2/M"
_symmetry_group_IT_number 12
_symmetry_cell_setting 'monoclinic'
loop_
_space_group_symop_operation_xyz
x,y,z
-x,y,-z
-x,-y,-z
x,-y,z
1/2+x,1/2+y,z
1/2-x,1/2+y,-z
1/2-x,1/2-y,-z
1/2+x,1/2-y,z
loop_
_atom_site_type_symbol
_atom_site_label
_atom_site_fract_x
_atom_site_fract_y
_atom_site_fract_z
Si Si1 0.225833 0.565418 0.306636
Si Si2 0.500000 0.775981 0.500000
Si Si3 0.094902 0.622730 0.601848
Si Si4 0.097740 0.784721 0.125313
Si Si5 0.000000 0.883188 0.000000
Si Si6 0.776064 0.296112 0.284906
O O1 0.241065 0.500000 0.333721
O O2 0.215373 0.603919 0.433066
O O3 0.366982 0.582174 0.143120
O O4 0.049221 0.576368 0.329288
O O5 0.500910 0.819475 0.389791
O O6 0.341740 0.737306 0.566687
O O7 0.177050 0.642934 0.683158
O O8 0.157133 0.799698 0.228986
O O9 0.934583 0.745242 0.190046
O O10 0.250000 0.750000 0.000000
O O11 0.080658 0.841196 0.056503
#
# Coordination Sequence:
#
# PCOD9191169 Si02
#       6
#     8   4   8   8   4   8
#     4  10  22  41  64  85 111 156 214 266 299 346
#     4  10  20  32  55  86 125 154 190 232 292 368
#     4  10  20  36  61  87 115 155 204 243 300 355
#     4  12  23  37  57  87 135 168 194 232 293 375
#     4  12  23  38  60  90 122 162 203 242 306 362
#     4  12  22  36  56  89 131 165 190 240 293 368
#
# _framework density 18.650549999999999
#
# number of rings (size 3 to 8) (size 9 to 14) (size 15 to 20)
#    0.000    1.200    4.000    5.700    2.800    0.000 
#    0.000    0.000    0.000    7.200    0.000    0.000 
#    0.000    0.000    0.000    0.000    0.000    0.000 
#
# Total GULP energy -111449.352896 kJ/mol
# GULP energy per Si atom -5572.467645 kJ/mol
# Density = 1.860810 g / cm^3
# Si number density = 18.650550 Si / 1000 Ang^3
#
#
#
# Elastic Constant Matrix: (Units=GPa)
#
#
# Indices 1 2 3 4 5 6 
#
# 1 93.7729 20.0800 23.7283 0.0000 17.4547 0.0000
# 2 20.0800 68.3076 20.6256 0.0000 5.8338 0.0000
# 3 23.7283 20.6256 93.2756 0.0000 -16.8258 0.0000
# 4 0.0000 0.0000 0.0000 23.1445 0.0000 6.3436
# 5 17.4547 5.8338 -16.8258 0.0000 40.5892 0.0000
# 6 0.0000 0.0000 0.0000 6.3436 0.0000 -20.2138
#
#
#
# Elastic Compliance Matrix: (Units=1/GPa)
#
#
# Indices 1 2 3 4 5 6 
#
# 1 0.013560 -0.002057 -0.004316 0.000000 -0.007325 0.000000
# 2 -0.002057 0.016621 -0.003700 0.000000 -0.003038 0.000000
# 3 -0.004316 -0.003700 0.014124 0.000000 0.008243 0.000000
# 4 0.000000 0.000000 0.000000 0.039785 0.000000 0.012485
# 5 -0.007325 -0.003038 0.008243 0.000000 0.031640 0.000000
# 6 0.000000 0.000000 0.000000 0.012485 0.000000 -0.045553
#
#
# Mechanical properties :
#
#
# Convention : Reuss Voigt Hill
#
# Bulk Modulus (GPa) = 41.39321 42.69153 42.04237
# Shear Modulus (GPa) = 50.82496 21.43212 36.12854
#
# Velocity S-wave (km/s) = 5.22593 3.39358 4.40606
# Velocity P-wave (km/s) = 7.65873 6.18830 6.96244
#
# Compressibility (1/GPa) = 0.02415855
#
# Stress axis : x y z
#
# Youngs Moduli (GPa) = 73.74569 60.16430 70.80214
#
# Poissons Ratio (x) = 0.12378 0.30557
# Poissons Ratio (y) = 0.15173 0.26197
# Poissons Ratio (z) = 0.31828 0.22261
#
# Static dielectric constant tensor:
#      x y z
#    x 1.724290 0.000000 0.043010 
#    y 0.000000 1.649110 0.000000 
#    z 0.043010 0.000000 1.725200 
# 
# From -- ./inp_files/123437.got.cif
#   From: 2010.05.17/outbox.cif.g08.bks.cpg/sg12_62_cif.got.tgz:123437.got - 2010.06.03 13:09:07.
