data_PCOD9191939
_publ_section_title
;
Structure prediction by ZEFSAII (Michael W. Deem and Ramdas Pophale) SiO2 
 PCOD9191939
Probable space group: C 2/M
;
_chemical_formula_sum "Si O2"
_cell_formula_units_Z 64
_cell_length_a 20.166129
_cell_length_b 7.306141
_cell_length_c 20.203035
_cell_angle_alpha 90.000000
_cell_angle_beta 60.204138
_cell_angle_gamma 90.000000
_cell_volume 2583.137503
_symmetry_space_group_name_H-M "C 2/M"
_symmetry_group_IT_number 12
_symmetry_cell_setting 'monoclinic'
loop_
_space_group_symop_operation_xyz
x,y,z
-x,y,-z
-x,-y,-z
x,-y,z
1/2+x,1/2+y,z
1/2-x,1/2+y,-z
1/2-x,1/2-y,-z
1/2+x,1/2-y,z
loop_
_atom_site_type_symbol
_atom_site_label
_atom_site_fract_x
_atom_site_fract_y
_atom_site_fract_z
Si Si1 0.517395 0.723318 0.696198
Si Si2 0.739571 0.778759 0.907137
Si Si3 0.938884 0.777098 0.473655
Si Si4 0.352348 0.722590 0.746919
Si Si5 0.971880 0.223747 0.085942
Si Si6 0.624424 0.706595 0.066907
Si Si7 0.691049 0.282366 0.372317
Si Si8 0.633816 0.718331 0.751407
O O1 0.518442 0.500000 0.697011
O O2 0.542374 0.781612 0.610026
O O3 0.428698 0.778752 0.747348
O O4 0.575203 0.785416 0.724075
O O5 0.773175 0.722044 0.820341
O O6 0.808109 0.713928 0.922195
O O7 0.733391 0.000000 0.913227
O O8 0.661341 0.703506 0.974863
O O9 0.855004 0.717586 0.540691
O O10 0.000000 0.722980 0.500000
O O11 0.942302 0.000000 0.469599
O O12 0.352323 0.500000 0.747189
O O13 0.352439 0.785316 0.671675
O O14 0.894513 0.283497 0.161686
O O15 0.040622 0.282433 0.101001
O O16 0.972222 0.000000 0.082561
O O17 0.000000 0.287873 0.000000
O O18 0.615167 0.500000 0.096657
O O19 0.681410 0.500000 0.377865
O O20 0.780275 0.252073 0.315466
O O21 0.625818 0.500000 0.758119
#
# Coordination Sequence:
#
# PCOD9191939 Si02
#       8
#     8   8   8   8   8   8   8   8
#     4   9  16  29  52  78 101 130 172 213 244 288
#     4   9  17  28  45  70  97 119 151 202 255 293
#     4   9  15  28  51  80 105 127 165 211 248 287
#     4   9  16  28  49  74  98 128 167 211 248 286
#     4   9  18  32  49  67  92 130 171 202 233 284
#     4   9  17  30  47  67  90 122 161 202 243 289
#     4  10  20  33  52  78 105 132 165 208 253 297
#     4  10  21  35  52  76 104 134 168 208 254 300
#
# _framework density 24.776071999999999
#
# number of rings (size 3 to 8) (size 9 to 14) (size 15 to 20)
#    0.000    2.750    1.250    0.750    1.750    3.500 
#    0.000    0.625    0.000    4.125    0.000    0.000 
#    0.000    0.000    0.000    0.000    0.000    0.000 
#
# Total GULP energy -178708.831140 kJ/mol
# GULP energy per Si atom -5584.650973 kJ/mol
# Density = 2.471968 g / cm^3
# Si number density = 24.776072 Si / 1000 Ang^3
#
#
#
# Elastic Constant Matrix: (Units=GPa)
#
#
# Indices 1 2 3 4 5 6 
#
# 1 95.1842 -7.4913 36.1610 0.0000 -21.3364 -0.0004
# 2 -7.4913 102.9778 -4.3943 -0.0009 4.3120 -0.0011
# 3 36.1610 -4.3943 174.0580 0.0001 -17.9162 0.0001
# 4 0.0000 -0.0009 0.0001 5.8420 0.0002 -8.5454
# 5 -21.3364 4.3120 -17.9162 0.0002 40.2732 0.0003
# 6 -0.0004 -0.0011 0.0001 -8.5454 0.0003 -5.3320
#
#
#
# Elastic Compliance Matrix: (Units=1/GPa)
#
#
# Indices 1 2 3 4 5 6 
#
# 1 0.012599 0.000591 -0.002014 0.000000 0.005715 0.000000
# 2 0.000591 0.009786 0.000051 0.000000 -0.000712 -0.000001
# 3 -0.002014 0.000051 0.006345 0.000000 0.001750 0.000000
# 4 0.000000 0.000000 0.000000 0.051184 0.000000 -0.082031
# 5 0.005715 -0.000712 0.001750 0.000000 0.028713 0.000001
# 6 0.000000 -0.000001 0.000000 -0.082031 0.000001 -0.056079
#
#
# Mechanical properties :
#
#
# Convention : Reuss Voigt Hill
#
# Bulk Modulus (GPa) = 38.48265 46.75232 42.61749
# Shear Modulus (GPa) = 78.18194 31.35295 54.76745
#
# Velocity S-wave (km/s) = 5.62352 3.56118 4.70669
# Velocity P-wave (km/s) = 7.59810 5.98500 6.83928
#
# Compressibility (1/GPa) = 0.02598573
#
# Stress axis : x y z
#
# Youngs Moduli (GPa) = 79.37237 102.18864 157.60178
#
# Poissons Ratio (x) = -0.06042 0.31744
# Poissons Ratio (y) = -0.04693 -0.00803
# Poissons Ratio (z) = 0.15987 -0.00521
#
# Static dielectric constant tensor:
#      x y z
#    x 1.936230 0.000000 0.009290 
#    y 0.000000 2.002560 0.000000 
#    z 0.009290 0.000000 2.000820 
# 
# From -- ./inp_files/319887.got.cif
#   From: 2010.05.17/outbox.cif.g08.bks.cpg/sg12_160_cif.got.tgz:319887.got - 2010.06.03 13:09:07.
