data_PCOD9191923
_publ_section_title
;
Structure prediction by ZEFSAII (Michael W. Deem and Ramdas Pophale) SiO2 
 PCOD9191923
Probable space group: C 2/M
;
_chemical_formula_sum "Si O2"
_cell_formula_units_Z 64
_cell_length_a 14.350454
_cell_length_b 9.462612
_cell_length_c 29.611561
_cell_angle_alpha 90.000000
_cell_angle_beta 105.678802
_cell_angle_gamma 90.000000
_cell_volume 3871.420603
_symmetry_space_group_name_H-M "C 2/M"
_symmetry_group_IT_number 12
_symmetry_cell_setting 'monoclinic'
loop_
_space_group_symop_operation_xyz
x,y,z
-x,y,-z
-x,-y,-z
x,-y,z
1/2+x,1/2+y,z
1/2-x,1/2+y,-z
1/2-x,1/2-y,-z
1/2+x,1/2-y,z
loop_
_atom_site_type_symbol
_atom_site_label
_atom_site_fract_x
_atom_site_fract_y
_atom_site_fract_z
Si Si1 0.653416 0.669039 0.000337
Si Si2 0.042984 0.169130 0.077464
Si Si3 0.703607 0.332943 0.426045
Si Si4 0.019180 0.668324 0.749057
Si Si5 0.788914 0.831036 0.253196
Si Si6 0.093071 0.669522 0.175059
Si Si7 0.321857 0.831658 0.669850
Si Si8 0.102345 0.333138 0.490899
O O1 0.668341 0.500000 0.000461
O O2 0.615731 0.703609 0.045795
O O3 0.750000 0.750000 0.000000
O O4 0.564550 0.702774 0.955011
O O5 0.068701 0.250842 0.126082
O O6 0.047421 0.000000 0.085137
O O7 0.685062 0.500000 0.420021
O O8 0.697787 0.257565 0.377171
O O9 0.809962 0.313844 0.462127
O O10 0.629090 0.259421 0.450929
O O11 0.036943 0.500000 0.750601
O O12 0.114219 0.751144 0.747305
O O13 0.981476 0.705382 0.794323
O O14 0.929082 0.695913 0.703738
O O15 0.699882 0.795565 0.208102
O O16 0.751869 0.798144 0.298957
O O17 0.803040 0.000000 0.252735
O O18 0.089319 0.500000 0.168214
O O19 0.314879 0.000000 0.659717
O O20 0.099879 0.500000 0.478342
O O21 0.000000 0.296247 0.500000
#
# Coordination Sequence:
#
# PCOD9191923 Si02
#       8
#     8   8   8   8   8   8   8   8
#     4   9  19  35  52  72 100 131 165 205 248 295
#     4   9  19  35  52  72 100 132 165 204 248 293
#     4  10  20  33  52  78 102 127 166 210 246 287
#     4   9  19  35  53  73  99 132 167 202 244 295
#     4   9  19  35  53  74 101 132 166 205 247 291
#     4   9  19  35  52  73 102 133 165 202 247 298
#     4   9  19  36  53  70 100 137 165 197 247 299
#     4   9  19  36  54  72 100 136 167 199 246 299
#
# _framework density 16.531399
#
# number of rings (size 3 to 8) (size 9 to 14) (size 15 to 20)
#    0.000    2.875    0.000    2.625    0.000    5.750 
#    0.000   12.500    0.000    0.000    0.000    0.000 
#    0.000    0.000    0.000    0.000    0.000    0.000 
#
# Total GULP energy -178443.793180 kJ/mol
# GULP energy per Si atom -5576.368537 kJ/mol
# Density = 1.649377 g / cm^3
# Si number density = 16.531399 Si / 1000 Ang^3
#
#
#
# Elastic Constant Matrix: (Units=GPa)
#
#
# Indices 1 2 3 4 5 6 
#
# 1 154.9125 70.8950 65.7025 0.0000 -16.8583 0.0000
# 2 70.8950 59.4784 76.5082 0.0000 -7.0990 0.0000
# 3 65.7025 76.5082 142.8264 0.0000 -9.3130 0.0000
# 4 0.0000 0.0000 0.0000 38.3725 0.0000 -1.0533
# 5 -16.8583 -7.0990 -9.3130 0.0000 5.6676 0.0000
# 6 0.0000 0.0000 0.0000 -1.0533 0.0000 36.6382
#
#
#
# Elastic Compliance Matrix: (Units=1/GPa)
#
#
# Indices 1 2 3 4 5 6 
#
# 1 0.024519 -0.042394 0.014250 0.000000 0.043248 0.000000
# 2 -0.042394 0.130069 -0.053505 0.000000 -0.051103 0.000000
# 3 0.014250 -0.053505 0.030801 0.000000 0.025983 0.000000
# 4 0.000000 0.000000 0.000000 0.026081 0.000000 0.000750
# 5 0.043248 -0.051103 0.025983 0.000000 0.283772 0.000000
# 6 0.000000 0.000000 0.000000 0.000750 0.000000 0.027315
#
#
# Mechanical properties :
#
#
# Convention : Reuss Voigt Hill
#
# Bulk Modulus (GPa) = 45.26415 87.04764 66.15590
# Shear Modulus (GPa) = 7.21272 25.74309 16.47791
#
# Velocity S-wave (km/s) = 2.09106 3.95045 3.16058
# Velocity P-wave (km/s) = 5.76803 8.57778 7.30919
#
# Compressibility (1/GPa) = 0.02209254
#
# Stress axis : x y z
#
# Youngs Moduli (GPa) = 40.78405 7.68823 32.46597
#
# Poissons Ratio (x) = 0.32594 -0.46264
# Poissons Ratio (y) = 1.72900 1.73708
# Poissons Ratio (z) = -0.58117 0.41136
#
# Static dielectric constant tensor:
#      x y z
#    x 1.536080 0.000000 0.002190 
#    y 0.000000 1.541380 0.000000 
#    z 0.002190 0.000000 1.534440 
# 
# From -- ./inp_files/359827.got.cif
#   From: 2010.05.17/outbox.cif.g08.bks.cpg/sg12_180_cif.got.tgz:359827.got - 2010.06.03 13:09:07.
