data_PCOD9191824
_publ_section_title
;
Structure prediction by ZEFSAII (Michael W. Deem and Ramdas Pophale) SiO2 
 PCOD9191824
Probable space group: C 2/M
;
_chemical_formula_sum "Si O2"
_cell_formula_units_Z 64
_cell_length_a 19.757672
_cell_length_b 20.705858
_cell_length_c 7.922380
_cell_angle_alpha 90.000000
_cell_angle_beta 73.219360
_cell_angle_gamma 90.000000
_cell_volume 3103.029146
_symmetry_space_group_name_H-M "C 2/M"
_symmetry_group_IT_number 12
_symmetry_cell_setting 'monoclinic'
loop_
_space_group_symop_operation_xyz
x,y,z
-x,y,-z
-x,-y,-z
x,-y,z
1/2+x,1/2+y,z
1/2-x,1/2+y,-z
1/2-x,1/2-y,-z
1/2+x,1/2-y,z
loop_
_atom_site_type_symbol
_atom_site_label
_atom_site_fract_x
_atom_site_fract_y
_atom_site_fract_z
Si Si1 0.781166 0.570452 0.874554
Si Si2 0.565617 0.103798 0.187891
Si Si3 0.584969 0.895175 0.774059
Si Si4 0.675049 0.301453 0.397183
Si Si5 0.912021 0.760134 0.218118
Si Si6 0.777926 0.789365 0.142259
Si Si7 0.047433 0.247485 0.293811
Si Si8 0.738431 0.929792 0.703828
O O1 0.754513 0.500000 0.836517
O O2 0.865180 0.574752 0.776304
O O3 0.742947 0.635530 0.841743
O O4 0.773530 0.572743 0.084591
O O5 0.484371 0.083687 0.279976
O O6 0.569712 0.180464 0.222103
O O7 0.573893 0.090512 0.981226
O O8 0.587793 0.817469 0.764662
O O9 0.661462 0.921905 0.673801
O O10 0.632389 0.289361 0.596816
O O11 0.734162 0.247230 0.319934
O O12 0.615303 0.294038 0.295285
O O13 0.712575 0.370049 0.373828
O O14 0.861795 0.778364 0.099300
O O15 0.993253 0.778926 0.191947
O O16 0.750000 0.750000 0.000000
O O17 0.000000 0.254237 0.500000
O O18 0.768029 0.000000 0.639812
#
# Coordination Sequence:
#
# PCOD9191824 Si02
#       8
#     8   8   8   8   8   8   8   8
#     4  10  20  33  51  78 111 145 179 219 267 321
#     4   9  16  30  49  75 109 144 178 208 256 320
#     4   9  17  29  50  78 107 140 179 218 260 310
#     4  11  20  35  57  80 107 142 181 226 277 318
#     4  10  21  34  54  82 111 136 178 232 275 313
#     4  12  20  34  57  82 106 144 185 225 265 321
#     4   9  19  33  53  81 108 139 178 228 273 317
#     4  10  20  33  51  78 110 142 182 227 273 322
#
# _framework density 20.625007
#
# number of rings (size 3 to 8) (size 9 to 14) (size 15 to 20)
#    0.000    2.000    3.750    1.125    0.000    0.500 
#    0.000    3.125    0.000    4.500    0.000    1.750 
#    0.000    0.000    0.000    0.000    0.000    0.000 
#
# Total GULP energy -178642.477125 kJ/mol
# GULP energy per Si atom -5582.577410 kJ/mol
# Density = 2.057806 g / cm^3
# Si number density = 20.625007 Si / 1000 Ang^3
#
#
#
# Elastic Constant Matrix: (Units=GPa)
#
#
# Indices 1 2 3 4 5 6 
#
# 1 140.2313 47.8592 11.1529 0.0000 9.0385 0.0000
# 2 47.8592 127.0447 -1.2718 0.0000 -1.8193 0.0000
# 3 11.1529 -1.2718 41.5742 0.0000 6.7481 0.0000
# 4 0.0000 0.0000 0.0000 -18.0489 0.0000 -10.9910
# 5 9.0385 -1.8193 6.7481 0.0000 25.7044 0.0000
# 6 0.0000 0.0000 0.0000 -10.9910 0.0000 12.3758
#
#
#
# Elastic Compliance Matrix: (Units=1/GPa)
#
#
# Indices 1 2 3 4 5 6 
#
# 1 0.008588 -0.003294 -0.001960 0.000000 -0.002738 0.000000
# 2 -0.003294 0.009144 0.000909 0.000000 0.001567 0.000000
# 3 -0.001960 0.000909 0.025574 0.000000 -0.005960 0.000000
# 4 0.000000 0.000000 0.000000 -0.035958 0.000000 -0.031935
# 5 -0.002738 0.001567 -0.005960 0.000000 0.041542 0.000000
# 6 0.000000 0.000000 0.000000 -0.031935 0.000000 0.052442
#
#
# Mechanical properties :
#
#
# Convention : Reuss Voigt Hill
#
# Bulk Modulus (GPa) = 28.88843 47.14785 38.01814
# Shear Modulus (GPa) = 41.13197 20.74692 30.93945
#
# Velocity S-wave (km/s) = 4.47058 3.17505 3.87731
# Velocity P-wave (km/s) = 6.37848 6.02913 6.20626
#
# Compressibility (1/GPa) = 0.03461593
#
# Stress axis : x y z
#
# Youngs Moduli (GPa) = 116.44678 109.36580 39.10145
#
# Poissons Ratio (x) = 0.36024 0.07664
# Poissons Ratio (y) = 0.38356 -0.03554
# Poissons Ratio (z) = 0.22824 -0.09942
#
# Static dielectric constant tensor:
#      x y z
#    x 1.777680 0.000000 0.034240 
#    y 0.000000 1.691960 0.000000 
#    z 0.034240 0.000000 1.835310 
# 
# From -- ./inp_files/89132.got.cif
#   From: 2010.05.17/outbox.cif.g08.bks.cpg/sg12_45_cif.got.tgz:89132.got - 2010.06.03 13:09:07.
