data_PCOD9191011
_publ_section_title
;
Structure prediction by ZEFSAII (Michael W. Deem and Ramdas Pophale) SiO2 
 PCOD9191011
Probable space group: C 2/M
;
_chemical_formula_sum "Si O2"
_cell_formula_units_Z 48
_cell_length_a 26.888987
_cell_length_b 12.742213
_cell_length_c 20.176482
_cell_angle_alpha 90.000000
_cell_angle_beta 162.043425
_cell_angle_gamma 90.000000
_cell_volume 2131.241992
_symmetry_space_group_name_H-M "C 2/M"
_symmetry_group_IT_number 12
_symmetry_cell_setting 'monoclinic'
loop_
_space_group_symop_operation_xyz
x,y,z
-x,y,-z
-x,-y,-z
x,-y,z
1/2+x,1/2+y,z
1/2-x,1/2+y,-z
1/2-x,1/2-y,-z
1/2+x,1/2-y,z
loop_
_atom_site_type_symbol
_atom_site_label
_atom_site_fract_x
_atom_site_fract_y
_atom_site_fract_z
Si Si1 0.501247 0.653673 0.426652
Si Si2 0.862184 0.112488 0.767566
Si Si3 0.362071 0.884155 0.077889
Si Si4 0.409312 0.115553 0.294977
Si Si5 0.821412 0.312241 0.791919
Si Si6 0.093817 0.798624 0.961424
O O1 0.500000 0.615385 0.500000
O O2 0.330337 0.627485 0.177872
O O3 0.508776 0.781278 0.439197
O O4 0.662379 0.618279 0.594098
O O5 0.780032 0.219180 0.687039
O O6 0.948566 0.133224 0.807085
O O7 0.775185 0.000000 0.657642
O O8 0.000000 0.105312 0.000000
O O9 0.411651 0.000000 0.116845
O O10 0.387905 0.878013 0.188825
O O11 0.444062 0.789764 0.141440
O O12 0.476700 0.000000 0.396101
O O13 0.237197 0.131535 0.112967
O O14 0.844428 0.264736 0.895218
O O15 0.000000 0.354310 0.000000
#
# Coordination Sequence:
#
# PCOD9191011 Si02
#       6
#     8   8   8   8   8   8
#     4  11  19  34  54  84 108 137 182 233 273 322
#     4   8  15  26  46  72 104 141 168 202 264 334
#     4  10  21  35  53  76 108 151 188 225 271 319
#     4  10  20  32  51  80 112 142 176 222 279 333
#     4   9  18  31  49  77 113 139 171 216 275 331
#     4   9  15  31  50  74 103 137 178 217 264 320
#
# _framework density 22.522078
#
# number of rings (size 3 to 8) (size 9 to 14) (size 15 to 20)
#    0.000    2.833    3.333    2.500    0.000    2.000 
#    0.000    0.000    0.000   28.500    0.000   18.667 
#    0.000    0.000    0.000    0.000    0.000    0.000 
#
# Total GULP energy -133870.672007 kJ/mol
# GULP energy per Si atom -5577.944667 kJ/mol
# Density = 2.247082 g / cm^3
# Si number density = 22.522078 Si / 1000 Ang^3
#
#
#
# Elastic Constant Matrix: (Units=GPa)
#
#
# Indices 1 2 3 4 5 6 
#
# 1 124.1016 31.2518 33.1804 0.0000 15.0748 0.0001
# 2 31.2518 121.2365 13.5909 0.0000 8.4565 -0.0001
# 3 33.1804 13.5909 56.3730 -0.0007 5.0443 0.0005
# 4 0.0000 0.0000 -0.0007 21.9663 -0.0003 -44.8313
# 5 15.0748 8.4565 5.0443 -0.0003 39.6618 0.0003
# 6 0.0001 -0.0001 0.0005 -44.8313 0.0003 47.4470
#
#
#
# Elastic Compliance Matrix: (Units=1/GPa)
#
#
# Indices 1 2 3 4 5 6 
#
# 1 0.010304 -0.001857 -0.005363 0.000000 -0.002838 0.000000
# 2 -0.001857 0.008909 -0.000959 0.000000 -0.001072 0.000000
# 3 -0.005363 -0.000959 0.021167 0.000000 -0.000449 0.000000
# 4 0.000000 0.000000 0.000000 -0.049035 0.000000 -0.046332
# 5 -0.002838 -0.001072 -0.000449 0.000000 0.026578 0.000000
# 6 0.000000 0.000000 0.000000 -0.046332 0.000000 -0.022702
#
#
# Mechanical properties :
#
#
# Convention : Reuss Voigt Hill
#
# Bulk Modulus (GPa) = 41.62825 50.86193 46.24509
# Shear Modulus (GPa) = 255.26659 36.72755 145.99707
#
# Velocity S-wave (km/s) = 10.65770 4.04262 8.06007
# Velocity P-wave (km/s) = 13.03734 6.66502 10.35362
#
# Compressibility (1/GPa) = 0.02402215
#
# Stress axis : x y z
#
# Youngs Moduli (GPa) = 97.04699 112.24236 47.24298
#
# Poissons Ratio (x) = 0.20843 0.25338
# Poissons Ratio (y) = 0.18021 0.04531
# Poissons Ratio (z) = 0.52049 0.10764
#
# Static dielectric constant tensor:
#      x y z
#    x 1.816910 0.000000 0.041480 
#    y 0.000000 1.901670 0.000000 
#    z 0.041480 0.000000 1.845800 
# 
# From -- ./inp_files/328254.got.cif
#   From: 2010.05.17/outbox.cif.g08.bks.cpg/sg12_165_cif.got.tgz:328254.got - 2010.06.03 13:09:07.
