data_PCOD9191457
_publ_section_title
;
Structure prediction by ZEFSAII (Michael W. Deem and Ramdas Pophale) SiO2 
 PCOD9191457
Probable space group: C 2/M
;
_chemical_formula_sum "Si O2"
_cell_formula_units_Z 56
_cell_length_a 15.020303
_cell_length_b 7.570527
_cell_length_c 30.673238
_cell_angle_alpha 90.000000
_cell_angle_beta 126.587655
_cell_angle_gamma 90.000000
_cell_volume 2800.597690
_symmetry_space_group_name_H-M "C 2/M"
_symmetry_group_IT_number 12
_symmetry_cell_setting 'monoclinic'
loop_
_space_group_symop_operation_xyz
x,y,z
-x,y,-z
-x,-y,-z
x,-y,z
1/2+x,1/2+y,z
1/2-x,1/2+y,-z
1/2-x,1/2-y,-z
1/2+x,1/2-y,z
loop_
_atom_site_type_symbol
_atom_site_label
_atom_site_fract_x
_atom_site_fract_y
_atom_site_fract_z
Si Si1 0.673209 0.788760 0.352546
Si Si2 0.787462 0.283547 0.734253
Si Si3 0.800540 0.712298 0.062161
Si Si4 0.600186 0.713955 0.060785
Si Si5 0.038227 0.788675 0.648817
Si Si6 0.422757 0.716118 0.437959
Si Si7 0.547019 0.207595 0.143538
O O1 0.667770 0.728758 0.300446
O O2 0.567506 0.749746 0.351845
O O3 0.794035 0.727425 0.404908
O O4 0.680084 0.000000 0.352679
O O5 0.786438 0.500000 0.734751
O O6 0.658860 0.226620 0.701295
O O7 0.867338 0.219751 0.796048
O O8 0.806004 0.500000 0.066692
O O9 0.713613 0.775684 0.072349
O O10 0.923087 0.784530 0.105930
O O11 0.750000 0.750000 0.000000
O O12 0.597658 0.500000 0.060454
O O13 0.589177 0.775879 0.106674
O O14 0.500000 0.772200 0.000000
O O15 0.032555 0.727648 0.596685
O O16 0.045184 0.000000 0.648819
O O17 0.500000 0.776058 0.500000
O O18 0.423586 0.500000 0.438623
O O19 0.536204 0.000000 0.150797
#
# Coordination Sequence:
#
# PCOD9191457 Si02
#       7
#     8   8   8   8   8   8   8
#     4   9  17  31  52  73  96 130 167 203 241 284
#     4   8  17  34  50  67  95 128 161 198 241 290
#     4  10  20  33  50  70  93 122 152 186 231 283
#     4  10  20  34  50  71 101 127 147 186 246 295
#     4   9  17  31  51  71  96 130 164 202 246 285
#     4   8  15  29  48  71 101 137 170 196 235 293
#     4  10  20  34  53  73  92 122 166 202 229 281
#
# _framework density 19.995730999999999
#
# number of rings (size 3 to 8) (size 9 to 14) (size 15 to 20)
#    0.000    2.857    1.429    1.714    0.000    2.571 
#    0.000    5.714    0.000    0.857    0.000    0.000 
#    0.000    0.000    0.000    0.000    0.000    0.000 
#
# Total GULP energy -156140.040204 kJ/mol
# GULP energy per Si atom -5576.430007 kJ/mol
# Density = 1.995022 g / cm^3
# Si number density = 19.995731 Si / 1000 Ang^3
#
#
#
# Elastic Constant Matrix: (Units=GPa)
#
#
# Indices 1 2 3 4 5 6 
#
# 1 208.5945 -0.6318 121.9834 0.0000 14.1804 0.0000
# 2 -0.6318 42.2718 6.6521 0.0000 2.8013 0.0000
# 3 121.9834 6.6521 225.0679 0.0000 10.8081 0.0000
# 4 0.0000 0.0000 0.0000 0.6097 0.0000 -0.6901
# 5 14.1804 2.8013 10.8081 0.0000 15.7930 0.0000
# 6 0.0000 0.0000 0.0000 -0.6901 0.0000 23.7747
#
#
#
# Elastic Compliance Matrix: (Units=1/GPa)
#
#
# Indices 1 2 3 4 5 6 
#
# 1 0.007289 0.000978 -0.003781 0.000000 -0.004130 0.000000
# 2 0.000978 0.024128 -0.001029 0.000000 -0.004453 0.000000
# 3 -0.003781 -0.001029 0.006567 0.000000 -0.000917 0.000000
# 4 0.000000 0.000000 0.000000 1.695901 0.000000 0.049229
# 5 -0.004130 -0.004453 -0.000917 0.000000 0.068445 0.000000
# 6 0.000000 0.000000 0.000000 0.049229 0.000000 0.043491
#
#
# Mechanical properties :
#
#
# Convention : Reuss Voigt Hill
#
# Bulk Modulus (GPa) = 32.98293 81.32685 57.15489
# Shear Modulus (GPa) = 2.68299 31.23085 16.95692
#
# Velocity S-wave (km/s) = 1.15961 3.95634 2.91525
# Velocity P-wave (km/s) = 4.28062 7.85052 6.32275
#
# Compressibility (1/GPa) = 0.03031872
#
# Stress axis : x y z
#
# Youngs Moduli (GPa) = 137.19676 41.44544 152.28203
#
# Poissons Ratio (x) = -0.04052 0.57577
# Poissons Ratio (y) = -0.13413 0.15672
# Poissons Ratio (z) = 0.51874 0.04265
#
# Static dielectric constant tensor:
#      x y z
#    x 1.688980 0.000000 0.020980 
#    y 0.000000 1.811000 0.000000 
#    z 0.020980 0.000000 1.692390 
# 
# From -- ./inp_files/335329.got.cif
#   From: 2010.05.17/outbox.cif.g08.bks.cpg/sg12_168_cif.got.tgz:335329.got - 2010.06.03 13:09:07.
