data_PCOD9191561
_publ_section_title
;
Structure prediction by ZEFSAII (Michael W. Deem and Ramdas Pophale) SiO2 
 PCOD9191561
Probable space group: C 2/M
;
_chemical_formula_sum "Si O2"
_cell_formula_units_Z 56
_cell_length_a 21.058816
_cell_length_b 7.718543
_cell_length_c 20.396961
_cell_angle_alpha 90.000000
_cell_angle_beta 58.370604
_cell_angle_gamma 90.000000
_cell_volume 2822.916078
_symmetry_space_group_name_H-M "C 2/M"
_symmetry_group_IT_number 12
_symmetry_cell_setting 'monoclinic'
loop_
_space_group_symop_operation_xyz
x,y,z
-x,y,-z
-x,-y,-z
x,-y,z
1/2+x,1/2+y,z
1/2-x,1/2+y,-z
1/2-x,1/2-y,-z
1/2+x,1/2-y,z
loop_
_atom_site_type_symbol
_atom_site_label
_atom_site_fract_x
_atom_site_fract_y
_atom_site_fract_z
Si Si1 0.906663 0.209255 0.836942
Si Si2 0.265836 0.295482 0.827761
Si Si3 0.194980 0.290724 0.589468
Si Si4 0.271312 0.703534 0.679522
Si Si5 0.026659 0.293230 0.671241
Si Si6 0.942175 0.710013 0.588125
Si Si7 0.823051 0.794030 0.003790
O O1 0.839156 0.274856 0.826176
O O2 0.889724 0.268941 0.920452
O O3 0.984022 0.258834 0.762042
O O4 0.901909 0.000000 0.840538
O O5 0.280033 0.500000 0.812432
O O6 0.255930 0.221434 0.760387
O O7 0.195656 0.275918 0.914291
O O8 0.191444 0.500000 0.595298
O O9 0.250000 0.250000 0.500000
O O10 0.228019 0.223104 0.640364
O O11 0.110892 0.225779 0.623536
O O12 0.251773 0.500000 0.692662
O O13 0.359738 0.720741 0.620691
O O14 0.030875 0.500000 0.659888
O O15 0.975411 0.227167 0.639398
O O16 0.936823 0.500000 0.591969
O O17 0.000000 0.758011 0.500000
O O18 0.828851 0.000000 0.007118
O O19 0.750000 0.750000 0.000000
#
# Coordination Sequence:
#
# PCOD9191561 Si02
#       7
#     8   8   8   8   8   8   8
#     4   9  17  30  48  73 104 133 166 207 252 301
#     4   9  17  30  48  74 104 132 167 211 254 300
#     4  10  22  39  56  75 101 136 176 215 257 308
#     4  10  20  35  54  75 102 134 171 214 257 304
#     4  10  20  33  51  75 102 133 170 211 255 305
#     4  10  20  33  50  74 103 131 163 211 263 307
#     4   9  17  28  45  72 105 137 167 204 250 302
#
# _framework density 19.837643
#
# number of rings (size 3 to 8) (size 9 to 14) (size 15 to 20)
#    0.000    2.429    1.429    2.143    0.000    6.000 
#    0.000    0.000    0.000    0.857    0.000    6.000 
#    0.000    0.000    0.000    0.000    0.000    0.000 
#
# Total GULP energy -156147.976081 kJ/mol
# GULP energy per Si atom -5576.713431 kJ/mol
# Density = 1.979249 g / cm^3
# Si number density = 19.837643 Si / 1000 Ang^3
#
#
#
# Elastic Constant Matrix: (Units=GPa)
#
#
# Indices 1 2 3 4 5 6 
#
# 1 53.2448 -1.5519 3.6701 0.0000 -2.8036 0.0016
# 2 -1.5519 26.0515 -12.9632 -0.0002 4.2249 0.0039
# 3 3.6701 -12.9632 102.1584 -0.0002 0.7588 -0.0001
# 4 0.0000 -0.0002 -0.0002 24.7358 -0.0001 -0.9374
# 5 -2.8036 4.2249 0.7588 -0.0001 28.6839 -0.0001
# 6 0.0016 0.0039 -0.0001 -0.9374 -0.0001 8.7118
#
#
#
# Elastic Compliance Matrix: (Units=1/GPa)
#
#
# Indices 1 2 3 4 5 6 
#
# 1 0.018934 0.000526 -0.000627 0.000000 0.001790 -0.000004
# 2 0.000526 0.042110 0.005371 0.000000 -0.006293 -0.000019
# 3 -0.000627 0.005371 0.010501 0.000000 -0.001130 -0.000002
# 4 0.000000 0.000000 0.000000 0.040593 0.000000 0.004368
# 5 0.001790 -0.006293 -0.001130 0.000000 0.035995 0.000003
# 6 -0.000004 -0.000019 -0.000002 0.004368 0.000003 0.115257
#
#
# Mechanical properties :
#
#
# Convention : Reuss Voigt Hill
#
# Bulk Modulus (GPa) = 12.18234 17.75163 14.96698
# Shear Modulus (GPa) = 17.84372 25.24629 21.54500
#
# Velocity S-wave (km/s) = 3.00240 3.57129 3.29913
# Velocity P-wave (km/s) = 4.26305 5.09640 4.69824
#
# Compressibility (1/GPa) = 0.08208604
#
# Stress axis : x y z
#
# Youngs Moduli (GPa) = 52.81523 23.74723 95.22700
#
# Poissons Ratio (x) = -0.01249 0.05969
# Poissons Ratio (y) = -0.02777 -0.51150
# Poissons Ratio (z) = 0.03310 -0.12756
#
# Static dielectric constant tensor:
#      x y z
#    x 1.686120 0.000000 0.024890 
#    y 0.000000 1.730220 0.000000 
#    z 0.024890 0.000000 1.725370 
# 
# From -- ./inp_files/319687.got.cif
#   From: 2010.05.17/outbox.cif.g08.bks.cpg/sg12_160_cif.got.tgz:319687.got - 2010.06.03 13:09:07.
