data_PCOD9191476
_publ_section_title
;
Structure prediction by ZEFSAII (Michael W. Deem and Ramdas Pophale) SiO2 
 PCOD9191476
Probable space group: C 2/M
;
_chemical_formula_sum "Si O2"
_cell_formula_units_Z 64
_cell_length_a 23.491159
_cell_length_b 7.890713
_cell_length_c 21.874531
_cell_angle_alpha 90.000000
_cell_angle_beta 119.738545
_cell_angle_gamma 90.000000
_cell_volume 3520.693717
_symmetry_space_group_name_H-M "C 2/M"
_symmetry_group_IT_number 12
_symmetry_cell_setting 'monoclinic'
loop_
_space_group_symop_operation_xyz
x,y,z
-x,y,-z
-x,-y,-z
x,-y,z
1/2+x,1/2+y,z
1/2-x,1/2+y,-z
1/2-x,1/2-y,-z
1/2+x,1/2-y,z
loop_
_atom_site_type_symbol
_atom_site_label
_atom_site_fract_x
_atom_site_fract_y
_atom_site_fract_z
Si Si1 0.783392 0.304954 0.081502
Si Si2 0.184598 0.698180 0.124874
Si Si3 0.686824 0.204195 0.263369
Si Si4 0.437463 0.705605 0.719156
Si Si5 0.068171 0.801644 0.852425
Si Si6 0.058666 0.295210 0.985004
Si Si7 0.266283 0.292821 0.417792
Si Si8 0.641692 0.301131 0.434050
O O1 0.767361 0.500000 0.081923
O O2 0.750586 0.210432 0.120927
O O3 0.861195 0.281819 0.119073
O O4 0.750000 0.250000 0.000000
O O5 0.168018 0.500000 0.123936
O O6 0.188311 0.771447 0.195075
O O7 0.125950 0.767894 0.051657
O O8 0.619448 0.247959 0.262649
O O9 0.747400 0.258889 0.339043
O O10 0.690473 0.000000 0.262903
O O11 0.439073 0.500000 0.718027
O O12 0.508020 0.766105 0.779871
O O13 0.415147 0.769881 0.640110
O O14 0.049072 0.780610 0.913160
O O15 0.076406 0.000000 0.843193
O O16 0.061813 0.500000 0.978732
O O17 0.000000 0.257241 0.000000
O O18 0.263983 0.500000 0.420208
O O19 0.333284 0.235488 0.486799
O O20 0.206282 0.221062 0.426132
O O21 0.627595 0.500000 0.434768
#
# Coordination Sequence:
#
# PCOD9191476 Si02
#       8
#     8   8   8   8   8   8   8   8
#     4  12  24  39  57  73  90 117 157 204 246 287
#     4  10  20  34  51  71  97 126 157 195 238 283
#     4   9  17  29  47  72 101 131 160 193 234 281
#     4   9  18  30  45  69 101 133 161 194 237 280
#     4  11  22  35  51  71  95 125 161 201 241 282
#     4  10  20  33  50  71  96 128 159 188 231 286
#     4   8  13  22  39  64  93 126 161 191 223 270
#     4   8  13  23  39  61  93 129 160 190 226 271
#
# _framework density 18.178235000000001
#
# number of rings (size 3 to 8) (size 9 to 14) (size 15 to 20)
#    0.000    2.375    1.250    2.250    0.000    2.750 
#    0.000    0.000    0.000    0.000    0.000    0.875 
#    0.000    7.000    0.000    0.000    0.000    0.000 
#
# Total GULP energy -178288.174655 kJ/mol
# GULP energy per Si atom -5571.505458 kJ/mol
# Density = 1.813686 g / cm^3
# Si number density = 18.178235 Si / 1000 Ang^3
#
#
#
# Elastic Constant Matrix: (Units=GPa)
#
#
# Indices 1 2 3 4 5 6 
#
# 1 50.4255 -8.2690 36.1126 0.0000 17.0628 0.0000
# 2 -8.2690 18.3173 6.0950 0.0000 -1.0383 0.0000
# 3 36.1126 6.0950 152.1602 0.0000 37.3748 0.0000
# 4 0.0000 0.0000 0.0000 11.3758 0.0000 1.4465
# 5 17.0628 -1.0383 37.3748 0.0000 15.6798 0.0000
# 6 0.0000 0.0000 0.0000 1.4465 0.0000 14.7951
#
#
#
# Elastic Compliance Matrix: (Units=1/GPa)
#
#
# Indices 1 2 3 4 5 6 
#
# 1 0.034435 0.013141 0.000703 0.000000 -0.038278 0.000000
# 2 0.013141 0.063549 -0.007685 0.000000 0.008226 0.000000
# 3 0.000703 -0.007685 0.016950 0.000000 -0.041676 0.000000
# 4 0.000000 0.000000 0.000000 0.089012 0.000000 -0.008702
# 5 -0.038278 0.008226 -0.041676 0.000000 0.205315 0.000000
# 6 0.000000 0.000000 0.000000 -0.008702 0.000000 0.068441
#
#
# Mechanical properties :
#
#
# Convention : Reuss Voigt Hill
#
# Bulk Modulus (GPa) = 7.85838 32.08670 19.97254
# Shear Modulus (GPa) = 9.84641 20.83444 15.34043
#
# Velocity S-wave (km/s) = 2.32988 3.38911 2.90813
# Velocity P-wave (km/s) = 3.40149 5.74493 4.72093
#
# Compressibility (1/GPa) = 0.12725269
#
# Stress axis : x y z
#
# Youngs Moduli (GPa) = 29.04022 15.73595 58.99822
#
# Poissons Ratio (x) = -0.20679 -0.04149
# Poissons Ratio (y) = -0.38162 0.45339
# Poissons Ratio (z) = -0.02042 0.12093
#
# Static dielectric constant tensor:
#      x y z
#    x 1.563710 0.000000 0.030210 
#    y 0.000000 1.669460 0.000000 
#    z 0.030210 0.000000 1.691670 
# 
# From -- ./inp_files/323762.got.cif
#   From: 2010.05.17/outbox.cif.g08.bks.cpg/sg12_162_cif.got.tgz:323762.got - 2010.06.03 13:09:07.
