data_PCOD9191153
_publ_section_title
;
Structure prediction by ZEFSAII (Michael W. Deem and Ramdas Pophale) SiO2 
 PCOD9191153
Probable space group: C 2/M
;
_chemical_formula_sum "Si O2"
_cell_formula_units_Z 56
_cell_length_a 11.795506
_cell_length_b 19.330262
_cell_length_c 14.695052
_cell_angle_alpha 90.000000
_cell_angle_beta 59.218096
_cell_angle_gamma 90.000000
_cell_volume 2878.591702
_symmetry_space_group_name_H-M "C 2/M"
_symmetry_group_IT_number 12
_symmetry_cell_setting 'monoclinic'
loop_
_space_group_symop_operation_xyz
x,y,z
-x,y,-z
-x,-y,-z
x,-y,z
1/2+x,1/2+y,z
1/2-x,1/2+y,-z
1/2-x,1/2-y,-z
1/2+x,1/2-y,z
loop_
_atom_site_type_symbol
_atom_site_label
_atom_site_fract_x
_atom_site_fract_y
_atom_site_fract_z
Si Si1 0.536436 0.309651 0.701650
Si Si2 0.622193 0.418546 0.520356
Si Si3 0.133191 0.660662 0.669762
Si Si4 0.896154 0.162465 0.119276
Si Si5 0.367146 0.919907 0.792111
Si Si6 0.764953 0.306765 0.174879
Si Si7 0.855166 0.576840 0.014880
O O1 0.583737 0.375411 0.625430
O O2 0.623158 0.241290 0.646429
O O3 0.542315 0.325084 0.806778
O O4 0.385909 0.292116 0.738131
O O5 0.500000 0.412656 0.500000
O O6 0.644741 0.500000 0.527917
O O7 0.750343 0.382072 0.424752
O O8 0.162258 0.663011 0.766178
O O9 0.993134 0.624186 0.709204
O O10 0.772085 0.111597 0.180872
O O11 0.837037 0.237017 0.114280
O O12 0.000000 0.139214 0.000000
O O13 0.380936 0.000000 0.759777
O O14 0.365754 0.916452 0.902697
O O15 0.769574 0.363401 0.094200
O O16 0.803139 0.500000 0.057960
O O17 0.000000 0.582429 0.000000
#
# Coordination Sequence:
#
# PCOD9191153 Si02
#       7
#     8   8   8   8   8   8   8
#     4  11  24  42  65  97 130 168 214 268 320 383
#     4  11  24  43  69  98 127 163 211 274 333 380
#     4  11  22  41  66  96 127 165 212 266 324 380
#     4  11  25  41  64  94 131 179 217 256 315 383
#     4  11  23  40  61  90 131 174 217 261 315 382
#     4  11  21  37  64  95 128 164 214 268 315 378
#     4  10  20  32  54  91 128 164 207 263 318 368
#
# _framework density 19.453956999999999
#
# number of rings (size 3 to 8) (size 9 to 14) (size 15 to 20)
#    0.000    1.143    4.286    2.143    2.000    3.143 
#    0.000    0.714    0.000    1.714    0.000    0.000 
#    0.000    0.000    0.000    0.000    0.000    0.000 
#
# Total GULP energy -156472.072670 kJ/mol
# GULP energy per Si atom -5588.288310 kJ/mol
# Density = 1.940968 g / cm^3
# Si number density = 19.453957 Si / 1000 Ang^3
#
#
#
# Elastic Constant Matrix: (Units=GPa)
#
#
# Indices 1 2 3 4 5 6 
#
# 1 75.1591 34.4770 16.4306 0.0000 -20.6577 0.0000
# 2 34.4770 120.2762 44.5067 0.0000 -1.6617 0.0000
# 3 16.4306 44.5067 57.5580 0.0000 -13.5548 0.0000
# 4 0.0000 0.0000 0.0000 32.9752 0.0000 -4.8958
# 5 -20.6577 -1.6617 -13.5548 0.0000 24.7447 0.0000
# 6 0.0000 0.0000 0.0000 -4.8958 0.0000 30.5133
#
#
#
# Elastic Compliance Matrix: (Units=1/GPa)
#
#
# Indices 1 2 3 4 5 6 
#
# 1 0.021089 -0.007344 0.004235 0.000000 0.019432 0.000000
# 2 -0.007344 0.014715 -0.012047 0.000000 -0.011742 0.000000
# 3 0.004235 -0.012047 0.029991 0.000000 0.019155 0.000000
# 4 0.000000 0.000000 0.000000 0.031066 0.000000 0.004984
# 5 0.019432 -0.011742 0.019155 0.000000 0.066340 0.000000
# 6 0.000000 0.000000 0.000000 0.004984 0.000000 0.033572
#
#
# Mechanical properties :
#
#
# Convention : Reuss Voigt Hill
#
# Bulk Modulus (GPa) = 28.18245 49.31355 38.74800
# Shear Modulus (GPa) = 20.92809 28.15190 24.54000
#
# Velocity S-wave (km/s) = 3.28346 3.80821 3.55553
# Velocity P-wave (km/s) = 5.37522 6.68883 6.06768
#
# Compressibility (1/GPa) = 0.03548307
#
# Stress axis : x y z
#
# Youngs Moduli (GPa) = 47.41790 67.95825 33.34292
#
# Poissons Ratio (x) = 0.49906 -0.14120
# Poissons Ratio (y) = 0.34822 0.40169
# Poissons Ratio (z) = -0.20080 0.81870
#
# Static dielectric constant tensor:
#      x y z
#    x 1.677890 0.000000 -0.008020 
#    y 0.000000 1.674230 0.000000 
#    z -0.008020 0.000000 1.651700 
# 
# From -- ./inp_files/133877.got.cif
#   From: 2010.05.17/outbox.cif.g08.bks.cpg/sg12_67_cif.got.tgz:133877.got - 2010.06.03 13:09:07.
