data_PCOD9191475
_publ_section_title
;
Structure prediction by ZEFSAII (Michael W. Deem and Ramdas Pophale) SiO2 
 PCOD9191475
Probable space group: C 2/M
;
_chemical_formula_sum "Si O2"
_cell_formula_units_Z 48
_cell_length_a 14.122829
_cell_length_b 10.498992
_cell_length_c 15.559794
_cell_angle_alpha 90.000000
_cell_angle_beta 67.814654
_cell_angle_gamma 90.000000
_cell_volume 2136.332009
_symmetry_space_group_name_H-M "C 2/M"
_symmetry_group_IT_number 12
_symmetry_cell_setting 'monoclinic'
loop_
_space_group_symop_operation_xyz
x,y,z
-x,y,-z
-x,-y,-z
x,-y,z
1/2+x,1/2+y,z
1/2-x,1/2+y,-z
1/2-x,1/2-y,-z
1/2+x,1/2-y,z
loop_
_atom_site_type_symbol
_atom_site_label
_atom_site_fract_x
_atom_site_fract_y
_atom_site_fract_z
Si Si1 0.596045 0.000000 0.588652
Si Si2 0.643313 0.500000 0.385631
Si Si3 0.481633 0.355043 0.104684
Si Si4 0.173068 0.246188 0.270956
Si Si5 0.595212 0.500000 0.592228
Si Si6 0.352491 0.000000 0.624991
Si Si7 0.783803 0.144333 0.921357
Si Si8 0.433301 0.248302 0.296870
O O1 0.612486 0.124078 0.641909
O O2 0.474592 0.000000 0.604811
O O3 0.652468 0.000000 0.476886
O O4 0.684712 0.628164 0.330402
O O5 0.655282 0.500000 0.482938
O O6 0.523487 0.500000 0.398588
O O7 0.436819 0.500000 0.115066
O O8 0.595210 0.369228 0.104475
O O9 0.427536 0.268036 0.195716
O O10 0.500000 0.309096 0.000000
O O11 0.193777 0.376017 0.313590
O O12 0.233381 0.207857 0.165020
O O13 0.054055 0.255334 0.281469
O O14 0.609700 0.374537 0.643181
O O15 0.740489 0.000000 0.943442
O O16 0.750000 0.250000 0.000000
#
# Coordination Sequence:
#
# PCOD9191475 Si02
#       8
#     4   4   8   8   4   4   8   8
#     4   9  16  24  35  58  93 123 151 181 224 287
#     4   9  14  22  35  56  85 115 145 185 226 279
#     4   9  17  32  52  71  94 126 165 201 234 279
#     4   9  16  26  39  58  88 120 152 187 230 277
#     4   9  14  20  37  58  81 115 151 179 226 281
#     4   9  16  24  37  58  87 127 155 177 224 283
#     4  10  20  33  50  71  96 127 161 199 241 282
#     4   9  15  25  39  60  88 120 150 187 232 275
#
# _framework density 22.468416999999999
#
# number of rings (size 3 to 8) (size 9 to 14) (size 15 to 20)
#    0.000    2.833    1.667    1.000    1.167    4.000 
#    1.500    0.417    0.000    0.000    0.000    0.000 
#    0.000    8.000    0.000    0.000    0.000    0.000 
#
# Total GULP energy -134020.780455 kJ/mol
# GULP energy per Si atom -5584.199186 kJ/mol
# Density = 2.241728 g / cm^3
# Si number density = 22.468417 Si / 1000 Ang^3
#
#
#
# Elastic Constant Matrix: (Units=GPa)
#
#
# Indices 1 2 3 4 5 6 
#
# 1 76.3830 8.6968 20.6324 0.0000 27.1565 0.0000
# 2 8.6968 245.0362 151.7596 0.0000 0.1457 0.0000
# 3 20.6324 151.7596 260.0155 0.0000 18.4697 0.0000
# 4 0.0000 0.0000 0.0000 22.0774 0.0000 0.8779
# 5 27.1565 0.1457 18.4697 0.0000 26.2823 0.0000
# 6 0.0000 0.0000 0.0000 0.8779 0.0000 4.9532
#
#
#
# Elastic Compliance Matrix: (Units=1/GPa)
#
#
# Indices 1 2 3 4 5 6 
#
# 1 0.020862 -0.001043 0.000510 0.000000 -0.021908 0.000000
# 2 -0.001043 0.006634 -0.004066 0.000000 0.003898 0.000000
# 3 0.000510 -0.004066 0.006541 0.000000 -0.005101 0.000000
# 4 0.000000 0.000000 0.000000 0.045617 0.000000 -0.008085
# 5 -0.021908 0.003898 -0.005101 0.000000 0.064249 0.000000
# 6 0.000000 0.000000 0.000000 -0.008085 0.000000 0.203322
#
#
# Mechanical properties :
#
#
# Convention : Reuss Voigt Hill
#
# Bulk Modulus (GPa) = 40.26079 104.84580 72.55330
# Shear Modulus (GPa) = 13.70978 37.35230 25.53104
#
# Velocity S-wave (km/s) = 2.47286 4.08172 3.37457
# Velocity P-wave (km/s) = 5.10991 8.30535 6.89529
#
# Compressibility (1/GPa) = 0.02483806
#
# Stress axis : x y z
#
# Youngs Moduli (GPa) = 47.93363 150.73762 152.88090
#
# Poissons Ratio (x) = 0.15722 -0.07790
# Poissons Ratio (y) = 0.04999 0.62164
# Poissons Ratio (z) = -0.02442 0.61292
#
# Static dielectric constant tensor:
#      x y z
#    x 1.955460 0.000000 -0.005240 
#    y 0.000000 1.791870 0.000000 
#    z -0.005240 0.000000 1.883480 
# 
# From -- ./inp_files/236653.got.cif
#   From: 2010.05.17/outbox.cif.g08.bks.cpg/sg12_119_cif.got.tgz:236653.got - 2010.06.03 13:09:07.
