data_PCOD9191007
_publ_section_title
;
Structure prediction by ZEFSAII (Michael W. Deem and Ramdas Pophale) SiO2 
 PCOD9191007
Probable space group: C 2/M
;
_chemical_formula_sum "Si O2"
_cell_formula_units_Z 64
_cell_length_a 30.685514
_cell_length_b 7.556814
_cell_length_c 15.477802
_cell_angle_alpha 90.000000
_cell_angle_beta 119.874083
_cell_angle_gamma 90.000000
_cell_volume 3112.158443
_symmetry_space_group_name_H-M "C 2/M"
_symmetry_group_IT_number 12
_symmetry_cell_setting 'monoclinic'
loop_
_space_group_symop_operation_xyz
x,y,z
-x,y,-z
-x,-y,-z
x,-y,z
1/2+x,1/2+y,z
1/2-x,1/2+y,-z
1/2-x,1/2-y,-z
1/2+x,1/2-y,z
loop_
_atom_site_type_symbol
_atom_site_label
_atom_site_fract_x
_atom_site_fract_y
_atom_site_fract_z
Si Si1 0.052185 0.215880 0.504754
Si Si2 0.219860 0.711293 0.384337
Si Si3 0.748733 0.283791 0.772319
Si Si4 0.585093 0.711258 0.840425
Si Si5 0.527977 0.289372 0.290508
Si Si6 0.860551 0.216820 0.278743
Si Si7 0.610383 0.786843 0.231286
Si Si8 0.640561 0.787477 0.073030
O O1 0.050777 0.276969 0.403896
O O2 0.100415 0.272470 0.607888
O O3 0.000000 0.267544 0.500000
O O4 0.053113 0.000000 0.506432
O O5 0.216903 0.500000 0.373668
O O6 0.250000 0.750000 0.500000
O O7 0.246853 0.772876 0.323399
O O8 0.162432 0.776603 0.326479
O O9 0.748161 0.500000 0.774014
O O10 0.696399 0.223895 0.761059
O O11 0.801215 0.226612 0.867892
O O12 0.581934 0.500000 0.826188
O O13 0.528206 0.781576 0.779767
O O14 0.617653 0.776876 0.791668
O O15 0.611337 0.742392 0.957662
O O16 0.523503 0.500000 0.297448
O O17 0.563393 0.261805 0.243379
O O18 0.860011 0.000000 0.278813
O O19 0.611058 0.000000 0.229718
O O20 0.613432 0.725118 0.134632
O O21 0.642364 0.000000 0.080303
#
# Coordination Sequence:
#
# PCOD9191007 Si02
#       8
#     8   8   8   8   8   8   8   8
#     4   9  15  27  47  73 105 134 161 200 249 302
#     4   9  18  32  50  74 102 131 166 208 249 293
#     4   8  16  31  50  72  98 131 170 205 240 296
#     4  10  20  33  51  78 106 128 161 215 264 292
#     4  10  20  32  51  80 105 129 168 212 250 295
#     4   9  16  28  49  76 104 132 162 201 252 303
#     4   9  20  37  52  70 102 139 171 206 250 298
#     4   9  19  37  55  70  96 135 175 209 245 299
#
# _framework density 20.564505
#
# number of rings (size 3 to 8) (size 9 to 14) (size 15 to 20)
#    0.000    2.875    1.250    1.500    1.750    2.500 
#    0.000    4.375    0.000    1.875    0.000    0.000 
#    0.000    0.000    0.000    0.000    0.000    0.000 
#
# Total GULP energy -178535.863934 kJ/mol
# GULP energy per Si atom -5579.245748 kJ/mol
# Density = 2.051770 g / cm^3
# Si number density = 20.564505 Si / 1000 Ang^3
#
#
#
# Elastic Constant Matrix: (Units=GPa)
#
#
# Indices 1 2 3 4 5 6 
#
# 1 191.4975 1.5692 103.4535 0.0000 -18.5846 0.0000
# 2 1.5692 43.6585 -0.1658 0.0000 -1.4851 0.0000
# 3 103.4535 -0.1658 186.9855 0.0000 -7.5539 0.0000
# 4 0.0000 0.0000 0.0000 12.4627 0.0000 5.0405
# 5 -18.5846 -1.4851 -7.5539 0.0000 10.5357 0.0000
# 6 0.0000 0.0000 0.0000 5.0405 0.0000 7.5179
#
#
#
# Elastic Compliance Matrix: (Units=1/GPa)
#
#
# Indices 1 2 3 4 5 6 
#
# 1 0.008774 0.000089 -0.004355 0.000000 0.012367 0.000000
# 2 0.000089 0.023021 0.000112 0.000000 0.003482 0.000000
# 3 -0.004355 0.000112 0.007670 0.000000 -0.002167 0.000000
# 4 0.000000 0.000000 0.000000 0.110093 0.000000 -0.073814
# 5 0.012367 0.003482 -0.002167 0.000000 0.115669 0.000000
# 6 0.000000 0.000000 0.000000 -0.073814 0.000000 0.182507
#
#
# Mechanical properties :
#
#
# Convention : Reuss Voigt Hill
#
# Bulk Modulus (GPa) = 32.09581 70.20614 51.15098
# Shear Modulus (GPa) = 10.71980 27.25557 18.98768
#
# Velocity S-wave (km/s) = 2.28563 3.64451 3.04192
# Velocity P-wave (km/s) = 4.75465 7.20580 6.10452
#
# Compressibility (1/GPa) = 0.03115671
#
# Stress axis : x y z
#
# Youngs Moduli (GPa) = 113.97175 43.43918 130.37924
#
# Poissons Ratio (x) = -0.00386 0.56777
# Poissons Ratio (y) = -0.01012 -0.01460
# Poissons Ratio (z) = 0.49632 -0.00486
#
# Static dielectric constant tensor:
#      x y z
#    x 1.720130 0.000000 0.002940 
#    y 0.000000 1.833140 0.000000 
#    z 0.002940 0.000000 1.711180 
# 
# From -- ./inp_files/175284.got.cif
#   From: 2010.05.17/outbox.cif.g08.bks.cpg/sg12_88_cif.got.tgz:175284.got - 2010.06.03 13:09:07.
