data_PCOD9191469
_publ_section_title
;
Structure prediction by ZEFSAII (Michael W. Deem and Ramdas Pophale) SiO2 
 PCOD9191469
Probable space group: C 2/M
;
_chemical_formula_sum "Si O2"
_cell_formula_units_Z 48
_cell_length_a 19.424650
_cell_length_b 7.445355
_cell_length_c 32.915670
_cell_angle_alpha 90.000000
_cell_angle_beta 151.221978
_cell_angle_gamma 90.000000
_cell_volume 2291.728591
_symmetry_space_group_name_H-M "C 2/M"
_symmetry_group_IT_number 12
_symmetry_cell_setting 'monoclinic'
loop_
_space_group_symop_operation_xyz
x,y,z
-x,y,-z
-x,-y,-z
x,-y,z
1/2+x,1/2+y,z
1/2-x,1/2+y,-z
1/2-x,1/2-y,-z
1/2+x,1/2-y,z
loop_
_atom_site_type_symbol
_atom_site_label
_atom_site_fract_x
_atom_site_fract_y
_atom_site_fract_z
Si Si1 0.691927 0.217444 0.268031
Si Si2 0.168482 0.784916 0.415931
Si Si3 0.848825 0.218850 0.266264
Si Si4 0.655246 0.791395 0.569588
Si Si5 0.433509 0.219359 0.923545
Si Si6 0.915958 0.285834 0.080189
O O1 0.792922 0.272296 0.282234
O O2 0.749643 0.283570 0.340716
O O3 0.530921 0.277680 0.173140
O O4 0.694859 0.000000 0.271237
O O5 0.250000 0.750000 0.500000
O O6 0.259143 0.713797 0.424563
O O7 0.006358 0.716610 0.336577
O O8 0.156297 0.000000 0.404242
O O9 0.727968 0.272720 0.171241
O O10 0.850686 0.000000 0.267896
O O11 0.500000 0.711009 0.500000
O O12 0.628196 0.000000 0.544877
O O13 0.529661 0.279167 0.935367
O O14 0.434452 0.000000 0.924890
O O15 0.500000 0.281930 0.000000
O O16 0.932979 0.500000 0.088510
O O17 0.750000 0.250000 0.000000
#
# Coordination Sequence:
#
# PCOD9191469 Si02
#       6
#     8   8   8   8   8   8
#     4   9  18  33  51  70  94 126 164 201 235 278
#     4  10  20  33  50  71  95 124 158 195 234 279
#     4   8  15  29  47  67  91 120 158 199 231 266
#     4  10  21  34  48  72 103 128 154 194 243 291
#     4   8  14  26  46  70  93 119 155 197 234 269
#     4   9  18  31  48  72  99 126 158 197 240 286
#
# _framework density 20.944889
#
# number of rings (size 3 to 8) (size 9 to 14) (size 15 to 20)
#    0.000    3.000    0.000    3.000    0.000    3.000 
#    0.000    3.333    0.000    1.500    0.000    0.000 
#    0.000    0.000    0.000    0.000    0.000    0.000 
#
# Total GULP energy -133914.776855 kJ/mol
# GULP energy per Si atom -5579.782369 kJ/mol
# Density = 2.089722 g / cm^3
# Si number density = 20.944889 Si / 1000 Ang^3
#
#
#
# Elastic Constant Matrix: (Units=GPa)
#
#
# Indices 1 2 3 4 5 6 
#
# 1 159.9059 -0.5206 135.3411 0.0001 12.4775 -0.0005
# 2 -0.5206 60.2055 -10.4998 -0.0002 6.0380 -0.0013
# 3 135.3411 -10.4998 198.3590 -0.0002 12.8697 0.0003
# 4 0.0001 -0.0002 -0.0002 17.8744 0.0001 -4.4091
# 5 12.4775 6.0380 12.8697 0.0001 45.9432 -0.0001
# 6 -0.0005 -0.0013 0.0003 -4.4091 -0.0001 -6.1916
#
#
#
# Elastic Compliance Matrix: (Units=1/GPa)
#
#
# Indices 1 2 3 4 5 6 
#
# 1 0.015009 -0.001559 -0.010259 0.000000 -0.000998 -0.000001
# 2 -0.001559 0.017213 0.002133 0.000000 -0.002436 -0.000003
# 3 -0.010259 0.002133 0.012213 0.000000 -0.000915 0.000001
# 4 0.000000 0.000000 0.000000 0.047587 0.000000 -0.033887
# 5 -0.000998 -0.002436 -0.000915 0.000000 0.022614 0.000000
# 6 -0.000001 -0.000003 0.000001 -0.033887 0.000000 -0.137378
#
#
# Mechanical properties :
#
#
# Convention : Reuss Voigt Hill
#
# Bulk Modulus (GPa) = 39.89573 74.12352 57.00963
# Shear Modulus (GPa) = 1003.48171 31.13517 517.30844
#
# Velocity S-wave (km/s) = 21.91223 3.85974 15.73282
# Velocity P-wave (km/s) = 25.67652 7.43842 18.90256
#
# Compressibility (1/GPa) = 0.02506534
#
# Stress axis : x y z
#
# Youngs Moduli (GPa) = 66.62625 58.09693 81.87913
#
# Poissons Ratio (x) = 0.09059 0.83996
# Poissons Ratio (y) = 0.10389 -0.17465
# Poissons Ratio (z) = 0.68349 -0.12392
#
# Static dielectric constant tensor:
#      x y z
#    x 1.736660 0.000000 0.029610 
#    y 0.000000 1.882600 0.000000 
#    z 0.029610 0.000000 1.734840 
# 
# From -- ./inp_files/231354.got.cif
#   From: 2010.05.17/outbox.cif.g08.bks.cpg/sg12_116_cif.got.tgz:231354.got - 2010.06.03 13:09:07.
