data_PCOD9191045
_publ_section_title
;
Structure prediction by ZEFSAII (Michael W. Deem and Ramdas Pophale) SiO2 
 PCOD9191045
Probable space group: C 2/M
;
_chemical_formula_sum "Si O2"
_cell_formula_units_Z 64
_cell_length_a 33.750879
_cell_length_b 8.895334
_cell_length_c 18.213193
_cell_angle_alpha 90.000000
_cell_angle_beta 137.625913
_cell_angle_gamma 90.000000
_cell_volume 3685.300726
_symmetry_space_group_name_H-M "C 2/M"
_symmetry_group_IT_number 12
_symmetry_cell_setting 'monoclinic'
loop_
_space_group_symop_operation_xyz
x,y,z
-x,y,-z
-x,-y,-z
x,-y,z
1/2+x,1/2+y,z
1/2-x,1/2+y,-z
1/2-x,1/2-y,-z
1/2+x,1/2-y,z
loop_
_atom_site_type_symbol
_atom_site_label
_atom_site_fract_x
_atom_site_fract_y
_atom_site_fract_z
Si Si1 0.991726 0.178617 0.757538
Si Si2 0.129532 0.319780 0.440374
Si Si3 0.665159 0.178316 0.322923
Si Si4 0.223187 0.319775 0.137173
Si Si5 0.701883 0.180399 0.879116
Si Si6 0.385176 0.180282 0.117946
Si Si7 0.545195 0.321237 0.127077
Si Si8 0.248831 0.320293 0.671674
O O1 0.052599 0.246184 0.812875
O O2 0.933736 0.243859 0.638866
O O3 0.983258 0.213810 0.832696
O O4 0.992675 0.000000 0.751029
O O5 0.121927 0.500000 0.431197
O O6 0.154830 0.280673 0.393986
O O7 0.180240 0.278882 0.567380
O O8 0.604301 0.225762 0.200765
O O9 0.716727 0.266980 0.353503
O O10 0.675221 0.000000 0.331736
O O11 0.226334 0.500000 0.140270
O O12 0.280013 0.250987 0.173445
O O13 0.223024 0.257994 0.219106
O O14 0.164821 0.275219 0.010623
O O15 0.640912 0.216200 0.836884
O O16 0.707638 0.000000 0.884046
O O17 0.750000 0.250000 0.000000
O O18 0.390641 0.000000 0.120732
O O19 0.559751 0.500000 0.146395
O O20 0.500000 0.291675 0.000000
O O21 0.252993 0.500000 0.684108
#
# Coordination Sequence:
#
# PCOD9191045 Si02
#       8
#     8   8   8   8   8   8   8   8
#     4  10  20  32  52  78 101 134 176 216 257 302
#     4   9  20  38  55  72 100 139 179 218 264 310
#     4  10  20  34  52  75 100 133 177 220 263 309
#     4  10  21  35  52  80 111 139 170 213 265 312
#     4   9  17  32  53  77 106 142 174 208 256 311
#     4   9  19  34  53  77 108 139 169 205 251 312
#     4   9  19  34  48  68 102 139 173 212 257 305
#     4  11  22  35  54  77 103 138 176 218 264 314
#
# _framework density 17.366288999999998
#
# number of rings (size 3 to 8) (size 9 to 14) (size 15 to 20)
#    0.000    2.375    0.000    3.000    1.750    5.250 
#    0.000    0.000    0.000    0.750    0.000    5.250 
#    0.000    0.000    0.000    0.000    0.000    0.000 
#
# Total GULP energy -178466.286807 kJ/mol
# GULP energy per Si atom -5577.071463 kJ/mol
# Density = 1.732676 g / cm^3
# Si number density = 17.366289 Si / 1000 Ang^3
#
#
#
# Elastic Constant Matrix: (Units=GPa)
#
#
# Indices 1 2 3 4 5 6 
#
# 1 103.7541 37.7266 29.8044 0.0000 27.8305 0.0000
# 2 37.7266 38.9761 19.8738 0.0000 10.8384 0.0000
# 3 29.8044 19.8738 45.9928 0.0000 16.7458 0.0000
# 4 0.0000 0.0000 0.0000 22.0518 0.0000 1.6961
# 5 27.8305 10.8384 16.7458 0.0000 20.5001 0.0000
# 6 0.0000 0.0000 0.0000 1.6961 0.0000 34.0831
#
#
#
# Elastic Compliance Matrix: (Units=1/GPa)
#
#
# Indices 1 2 3 4 5 6 
#
# 1 0.019987 -0.013964 0.000389 0.000000 -0.020069 0.000000
# 2 -0.013964 0.043669 -0.011837 0.000000 0.005539 0.000000
# 3 0.000389 -0.011837 0.034898 0.000000 -0.022777 0.000000
# 4 0.000000 0.000000 0.000000 0.045522 0.000000 -0.002265
# 5 -0.020069 0.005539 -0.022777 0.000000 0.091703 0.000000
# 6 0.000000 0.000000 0.000000 -0.002265 0.000000 0.029453
#
#
# Mechanical properties :
#
#
# Convention : Reuss Voigt Hill
#
# Bulk Modulus (GPa) = 20.95141 40.39249 30.67195
# Shear Modulus (GPa) = 15.06175 22.08155 18.57165
#
# Velocity S-wave (km/s) = 2.94819 3.56970 3.27373
# Velocity P-wave (km/s) = 4.86618 6.34823 5.65596
#
# Compressibility (1/GPa) = 0.04772949
#
# Stress axis : x y z
#
# Youngs Moduli (GPa) = 50.03181 22.89980 28.65456
#
# Poissons Ratio (x) = 0.31977 -0.01114
# Poissons Ratio (y) = 0.69864 0.33919
# Poissons Ratio (z) = -0.01945 0.27107
#
# Static dielectric constant tensor:
#      x y z
#    x 1.633140 0.000000 -0.045640 
#    y 0.000000 1.576060 0.000000 
#    z -0.045640 0.000000 1.627050 
# 
# From -- ./inp_files/250102.got.cif
#   From: 2010.05.17/outbox.cif.g08.bks.cpg/sg12_126_cif.got.tgz:250102.got - 2010.06.03 13:09:07.
