data_PCOD9191267
_publ_section_title
;
Structure prediction by ZEFSAII (Michael W. Deem and Ramdas Pophale) SiO2 
 PCOD9191267
Probable space group: C 2/M
;
_chemical_formula_sum "Si O2"
_cell_formula_units_Z 64
_cell_length_a 19.970606
_cell_length_b 7.334967
_cell_length_c 23.465045
_cell_angle_alpha 90.000000
_cell_angle_beta 56.997423
_cell_angle_gamma 90.000000
_cell_volume 2882.634074
_symmetry_space_group_name_H-M "C 2/M"
_symmetry_group_IT_number 12
_symmetry_cell_setting 'monoclinic'
loop_
_space_group_symop_operation_xyz
x,y,z
-x,y,-z
-x,-y,-z
x,-y,z
1/2+x,1/2+y,z
1/2-x,1/2+y,-z
1/2-x,1/2-y,-z
1/2+x,1/2-y,z
loop_
_atom_site_type_symbol
_atom_site_label
_atom_site_fract_x
_atom_site_fract_y
_atom_site_fract_z
Si Si1 0.103375 0.720980 0.605072
Si Si2 0.185212 0.280832 0.963652
Si Si3 0.565628 0.219387 0.924538
Si Si4 0.632591 0.793142 0.104672
Si Si5 0.086350 0.787819 0.479516
Si Si6 0.480753 0.207464 0.750330
Si Si7 0.879603 0.291539 0.220774
Si Si8 0.239214 0.276207 0.631935
O O1 0.102710 0.500000 0.607656
O O2 0.098813 0.776604 0.541814
O O3 0.182113 0.777892 0.604770
O O4 0.023490 0.786725 0.675055
O O5 0.191114 0.500000 0.968039
O O6 0.147200 0.246938 0.920676
O O7 0.273149 0.203305 0.928029
O O8 0.129298 0.215751 0.042131
O O9 0.579505 0.289417 0.854410
O O10 0.549950 0.000000 0.927219
O O11 0.500000 0.287812 0.000000
O O12 0.589303 0.707436 0.179090
O O13 0.599890 0.000000 0.115964
O O14 0.169690 0.713389 0.415801
O O15 0.000000 0.711303 0.500000
O O16 0.084724 0.000000 0.463118
O O17 0.553425 0.201398 0.761597
O O18 0.455694 0.000000 0.746969
O O19 0.857952 0.500000 0.214986
O O20 0.803539 0.214708 0.289710
O O21 0.238193 0.500000 0.632290
#
# Coordination Sequence:
#
# PCOD9191267 Si02
#       8
#     8   8   8   8   8   8   8   8
#     4   9  17  31  52  73  89 113 160 204 226 260
#     4   9  17  27  40  64  90 113 148 187 220 261
#     4   9  15  23  38  63  91 114 142 186 229 257
#     4   9  16  28  44  59  85 121 148 177 221 268
#     4  10  20  33  47  69 100 128 150 179 230 291
#     4   8  14  26  45  67  86 111 149 187 222 262
#     4   8  13  23  41  64  87 113 146 185 225 260
#     4   8  15  29  48  67  89 120 157 192 225 272
#
# _framework density 22.201916000000001
#
# number of rings (size 3 to 8) (size 9 to 14) (size 15 to 20)
#    0.000    3.250    0.000    2.625    0.000    3.250 
#    2.250    0.625    0.000    0.375    0.000    4.375 
#    0.000    0.000    0.000    0.000    0.000    0.000 
#
# Total GULP energy -178257.818126 kJ/mol
# GULP energy per Si atom -5570.556816 kJ/mol
# Density = 2.215138 g / cm^3
# Si number density = 22.201916 Si / 1000 Ang^3
#
#
#
# Elastic Constant Matrix: (Units=GPa)
#
#
# Indices 1 2 3 4 5 6 
#
# 1 61.3138 0.4809 51.3358 -0.0001 -13.9923 0.0019
# 2 0.4809 77.4707 -1.0329 0.0015 -2.3124 -0.0010
# 3 51.3358 -1.0329 187.0856 0.0001 -25.9531 0.0002
# 4 -0.0001 0.0015 0.0001 11.4654 -0.0002 28.0442
# 5 -13.9923 -2.3124 -25.9531 -0.0002 35.7323 -0.0006
# 6 0.0019 -0.0010 0.0002 28.0442 -0.0006 40.0927
#
#
#
# Elastic Compliance Matrix: (Units=1/GPa)
#
#
# Indices 1 2 3 4 5 6 
#
# 1 0.021854 -0.000068 -0.005350 -0.000004 0.004668 0.000002
# 2 -0.000068 0.012941 0.000225 0.000003 0.000975 -0.000002
# 3 -0.005350 0.000225 0.007257 0.000001 0.003191 0.000000
# 4 -0.000004 0.000003 0.000001 -0.122683 0.000001 0.085815
# 5 0.004668 0.000975 0.003191 0.000001 0.032194 0.000000
# 6 0.000002 -0.000002 0.000000 0.085815 0.000000 -0.035084
#
#
# Mechanical properties :
#
#
# Convention : Reuss Voigt Hill
#
# Bulk Modulus (GPa) = 31.57783 47.49307 39.53545
# Shear Modulus (GPa) = -79.89718 35.79715 -22.05001
#
# Velocity S-wave (km/s) = -6.00539 4.01976 -3.15486
# Velocity P-wave (km/s) = 5.81656 6.55610 2.13893
#
# Compressibility (1/GPa) = 0.03166778
#
# Stress axis : x y z
#
# Youngs Moduli (GPa) = 45.75745 77.27605 137.79957
#
# Poissons Ratio (x) = 0.00523 0.73717
# Poissons Ratio (y) = 0.00310 -0.03103
# Poissons Ratio (z) = 0.24478 -0.01740
#
# Static dielectric constant tensor:
#      x y z
#    x 1.787090 0.000000 -0.023700 
#    y 0.000000 1.871050 0.000000 
#    z -0.023700 0.000000 1.871210 
# 
# From -- ./inp_files/315306.got.cif
#   From: 2010.05.17/outbox.cif.g08.bks.cpg/sg12_158_cif.got.tgz:315306.got - 2010.06.03 13:09:07.
