data_PCOD9191721
_publ_section_title
;
Structure prediction by ZEFSAII (Michael W. Deem and Ramdas Pophale) SiO2 
 PCOD9191721
Probable space group: C 2/M
;
_chemical_formula_sum "Si O2"
_cell_formula_units_Z 64
_cell_length_a 25.254836
_cell_length_b 7.812657
_cell_length_c 17.536124
_cell_angle_alpha 90.000000
_cell_angle_beta 101.788645
_cell_angle_gamma 90.000000
_cell_volume 3387.027714
_symmetry_space_group_name_H-M "C 2/M"
_symmetry_group_IT_number 12
_symmetry_cell_setting 'monoclinic'
loop_
_space_group_symop_operation_xyz
x,y,z
-x,y,-z
-x,-y,-z
x,-y,z
1/2+x,1/2+y,z
1/2-x,1/2+y,-z
1/2-x,1/2-y,-z
1/2+x,1/2-y,z
loop_
_atom_site_type_symbol
_atom_site_label
_atom_site_fract_x
_atom_site_fract_y
_atom_site_fract_z
Si Si1 0.690606 0.302860 0.957155
Si Si2 0.313605 0.295978 0.520103
Si Si3 0.691252 0.293514 0.647013
Si Si4 0.969751 0.709128 0.161140
Si Si5 0.911377 0.710354 0.820031
Si Si6 0.685228 0.798290 0.312764
Si Si7 0.084398 0.303512 0.006575
Si Si8 0.638621 0.204036 0.789576
O O1 0.681805 0.500000 0.973990
O O2 0.680230 0.278198 0.864137
O O3 0.750000 0.250000 0.000000
O O4 0.643973 0.199807 0.987022
O O5 0.319949 0.500000 0.526614
O O6 0.250000 0.250000 0.500000
O O7 0.332358 0.235321 0.441912
O O8 0.334493 0.221262 0.605630
O O9 0.694524 0.500000 0.643214
O O10 0.753356 0.227981 0.674803
O O11 0.656080 0.247806 0.709641
O O12 0.968393 0.500000 0.158950
O O13 0.921321 0.764069 0.202703
O O14 0.030698 0.759304 0.198448
O O15 0.953925 0.770165 0.070960
O O16 0.908910 0.500000 0.819418
O O17 0.859314 0.772798 0.758255
O O18 0.912527 0.770598 0.908087
O O19 0.689950 0.000000 0.298012
O O20 0.066766 0.500000 0.011611
O O21 0.639932 0.000000 0.798838
#
# Coordination Sequence:
#
# PCOD9191721 Si02
#       8
#     8   8   8   8   8   8   8   8
#     4  11  22  35  49  67  98 134 165 202 247 291
#     4   9  17  31  50  71  98 130 160 195 243 295
#     4   9  18  31  48  72 100 129 160 198 244 299
#     4   8  15  29  48  72  99 127 169 211 243 285
#     4   9  16  28  50  75 100 130 163 208 252 289
#     4   9  18  30  47  75 103 129 161 197 249 299
#     4   9  17  30  50  74  96 127 170 208 247 290
#     4  10  20  33  51  75  97 127 168 205 243 288
#
# _framework density 18.895621999999999
#
# number of rings (size 3 to 8) (size 9 to 14) (size 15 to 20)
#    0.000    2.750    0.000    3.750    1.750    4.000 
#    0.000    0.625    0.000   11.250    0.000    5.250 
#    0.000    0.000    0.000    0.000    0.000    0.000 
#
# Total GULP energy -178333.317091 kJ/mol
# GULP energy per Si atom -5572.916159 kJ/mol
# Density = 1.885262 g / cm^3
# Si number density = 18.895622 Si / 1000 Ang^3
#
#
#
# Elastic Constant Matrix: (Units=GPa)
#
#
# Indices 1 2 3 4 5 6 
#
# 1 54.4257 -1.4044 47.1193 0.0000 -2.0909 0.0000
# 2 -1.4044 27.1799 -5.8326 0.0000 2.7714 0.0000
# 3 47.1193 -5.8326 103.1361 0.0000 -19.7075 0.0000
# 4 0.0000 0.0000 0.0000 19.9176 0.0000 -5.4097
# 5 -2.0909 2.7714 -19.7075 0.0000 23.6567 0.0000
# 6 0.0000 0.0000 0.0000 -5.4097 0.0000 8.2238
#
#
#
# Elastic Compliance Matrix: (Units=1/GPa)
#
#
# Indices 1 2 3 4 5 6 
#
# 1 0.032810 -0.000841 -0.017203 0.000000 -0.011332 0.000000
# 2 -0.000841 0.037458 0.001962 0.000000 -0.002828 0.000000
# 3 -0.017203 0.001962 0.020613 0.000000 0.015422 0.000000
# 4 0.000000 0.000000 0.000000 0.061128 0.000000 0.040210
# 5 -0.011332 -0.002828 0.015422 0.000000 0.054448 0.000000
# 6 0.000000 0.000000 0.000000 0.040210 0.000000 0.148048
#
#
# Mechanical properties :
#
#
# Convention : Reuss Voigt Hill
#
# Bulk Modulus (GPa) = 17.03055 29.38958 23.21007
# Shear Modulus (GPa) = 12.30799 20.01692 16.16245
#
# Velocity S-wave (km/s) = 2.55496 3.25828 2.92782
# Velocity P-wave (km/s) = 4.21145 5.45368 4.87232
#
# Compressibility (1/GPa) = 0.05871800
#
# Stress axis : x y z
#
# Youngs Moduli (GPa) = 30.47868 26.69666 48.51320
#
# Poissons Ratio (x) = 0.02245 0.83455
# Poissons Ratio (y) = 0.02562 -0.09519
# Poissons Ratio (z) = 0.52431 -0.05238
#
# Static dielectric constant tensor:
#      x y z
#    x 1.668500 0.000000 -0.007800 
#    y 0.000000 1.725590 0.000000 
#    z -0.007800 0.000000 1.673510 
# 
# From -- ./inp_files/287750.got.cif
#   From: 2010.05.17/outbox.cif.g08.bks.cpg/sg12_144_cif.got.tgz:287750.got - 2010.06.03 13:09:07.
