data_PCOD9191615
_publ_section_title
;
Structure prediction by ZEFSAII (Michael W. Deem and Ramdas Pophale) SiO2 
 PCOD9191615
Probable space group: C 2/M
;
_chemical_formula_sum "Si O2"
_cell_formula_units_Z 48
_cell_length_a 8.153020
_cell_length_b 24.381232
_cell_length_c 12.264532
_cell_angle_alpha 90.000000
_cell_angle_beta 103.420412
_cell_angle_gamma 90.000000
_cell_volume 2371.379382
_symmetry_space_group_name_H-M "C 2/M"
_symmetry_group_IT_number 12
_symmetry_cell_setting 'monoclinic'
loop_
_space_group_symop_operation_xyz
x,y,z
-x,y,-z
-x,-y,-z
x,-y,z
1/2+x,1/2+y,z
1/2-x,1/2+y,-z
1/2-x,1/2-y,-z
1/2+x,1/2-y,z
loop_
_atom_site_type_symbol
_atom_site_label
_atom_site_fract_x
_atom_site_fract_y
_atom_site_fract_z
Si Si1 0.639071 0.000000 0.719036
Si Si2 0.308390 0.500000 0.515819
Si Si3 0.575823 0.819116 0.791124
Si Si4 0.000000 0.388435 0.000000
Si Si5 0.671140 0.596713 0.836095
Si Si6 0.447526 0.500000 0.869948
Si Si7 0.969892 0.796172 0.866695
Si Si8 0.127026 0.593332 0.351117
O O1 0.768865 0.000000 0.637916
O O2 0.523705 0.947506 0.700446
O O3 0.748982 0.000000 0.841589
O O4 0.500000 0.500000 0.500000
O O5 0.217616 0.556923 0.459975
O O6 0.778847 0.815978 0.813218
O O7 0.509383 0.757980 0.803648
O O8 0.472193 0.848268 0.675738
O O9 0.538023 0.852471 0.897513
O O10 0.170819 0.418838 0.062038
O O11 0.523235 0.553621 0.826530
O O12 0.601793 0.656067 0.858010
O O13 0.735965 0.596150 0.723095
O O14 0.500000 0.500000 0.000000
O O15 0.000000 0.783924 0.000000
#
# Coordination Sequence:
#
# PCOD9191615 Si02
#       8
#     4   4   8   4   8   4   8   8
#     4  11  23  44  67  89 122 164 207 251 317 389
#     4  11  23  45  76  96 120 160 214 269 316 384
#     4  11  21  34  56  86 124 164 222 269 311 367
#     4  10  20  33  50  76 112 175 204 256 300 370
#     4  11  23  36  54  81 130 165 217 250 320 368
#     4  12  26  36  54  93 129 166 202 254 316 389
#     4  12  21  36  57  85 125 188 230 264 303 388
#     4  10  22  39  62  94 120 154 210 270 317 363
#
# _framework density 20.241382999999999
#
# number of rings (size 3 to 8) (size 9 to 14) (size 15 to 20)
#    0.000    1.000    2.500    7.000    4.667    0.333 
#    0.000    0.000    0.000    0.000    0.000   47.833 
#    0.000    0.000    0.000    0.000    0.000    0.000 
#
# Total GULP energy -133864.132500 kJ/mol
# GULP energy per Si atom -5577.672188 kJ/mol
# Density = 2.019531 g / cm^3
# Si number density = 20.241383 Si / 1000 Ang^3
#
#
#
# Elastic Constant Matrix: (Units=GPa)
#
#
# Indices 1 2 3 4 5 6 
#
# 1 87.9015 12.8126 10.4624 0.0000 9.2794 0.0000
# 2 12.8126 100.1433 20.4906 0.0000 0.6089 0.0000
# 3 10.4624 20.4906 41.0623 0.0000 12.2929 0.0000
# 4 0.0000 0.0000 0.0000 36.8284 0.0000 58.7290
# 5 9.2794 0.6089 12.2929 0.0000 28.6271 0.0000
# 6 0.0000 0.0000 0.0000 58.7290 0.0000 118.6496
#
#
#
# Elastic Compliance Matrix: (Units=1/GPa)
#
#
# Indices 1 2 3 4 5 6 
#
# 1 0.012075 -0.001219 -0.001497 0.000000 -0.003245 0.000000
# 2 -0.001219 0.011398 -0.006223 0.000000 0.002825 0.000000
# 3 -0.001497 -0.006223 0.031735 0.000000 -0.013010 0.000000
# 4 0.000000 0.000000 0.000000 0.128885 0.000000 -0.063795
# 5 -0.003245 0.002825 -0.013010 0.000000 0.041510 0.000000
# 6 0.000000 0.000000 0.000000 -0.063795 0.000000 0.040005
#
#
# Mechanical properties :
#
#
# Convention : Reuss Voigt Hill
#
# Bulk Modulus (GPa) = 26.78789 35.18206 30.98498
# Shear Modulus (GPa) = 16.89601 49.17712 33.03657
#
# Velocity S-wave (km/s) = 2.89230 4.93438 4.04435
# Velocity P-wave (km/s) = 4.94133 7.06280 6.09508
#
# Compressibility (1/GPa) = 0.03733030
#
# Stress axis : x y z
#
# Youngs Moduli (GPa) = 82.81720 87.73692 31.51140
#
# Poissons Ratio (x) = 0.10694 0.04717
# Poissons Ratio (y) = 0.10095 0.19609
# Poissons Ratio (z) = 0.12396 0.54596
#
# Static dielectric constant tensor:
#      x y z
#    x 1.730340 0.000000 0.037770 
#    y 0.000000 1.846130 0.000000 
#    z 0.037770 0.000000 1.754710 
# 
# From -- ./inp_files/122627.got.cif
#   From: 2010.05.17/outbox.cif.g08.bks.cpg/sg12_62_cif.got.tgz:122627.got - 2010.06.03 13:09:07.
