data_PCOD9191711
_publ_section_title
;
Structure prediction by ZEFSAII (Michael W. Deem and Ramdas Pophale) SiO2 
 PCOD9191711
Probable space group: C 2/M
;
_chemical_formula_sum "Si O2"
_cell_formula_units_Z 56
_cell_length_a 18.641054
_cell_length_b 8.911432
_cell_length_c 23.380870
_cell_angle_alpha 90.000000
_cell_angle_beta 53.843779
_cell_angle_gamma 90.000000
_cell_volume 3135.981413
_symmetry_space_group_name_H-M "C 2/M"
_symmetry_group_IT_number 12
_symmetry_cell_setting 'monoclinic'
loop_
_space_group_symop_operation_xyz
x,y,z
-x,y,-z
-x,-y,-z
x,-y,z
1/2+x,1/2+y,z
1/2-x,1/2+y,-z
1/2-x,1/2-y,-z
1/2+x,1/2-y,z
loop_
_atom_site_type_symbol
_atom_site_label
_atom_site_fract_x
_atom_site_fract_y
_atom_site_fract_z
Si Si1 0.902557 0.320637 0.564282
Si Si2 0.244592 0.679800 0.564858
Si Si3 0.321712 0.677208 0.124745
Si Si4 0.281712 0.177975 0.719500
Si Si5 0.875400 0.677959 0.278510
Si Si6 0.487996 0.678083 0.132247
Si Si7 0.330600 0.821819 0.997392
O O1 0.897104 0.500000 0.556481
O O2 0.828144 0.240611 0.561449
O O3 0.875035 0.297170 0.643751
O O4 0.000000 0.270019 0.500000
O O5 0.247621 0.500000 0.560503
O O6 0.250000 0.750000 0.500000
O O7 0.155629 0.720518 0.642911
O O8 0.323004 0.500000 0.109396
O O9 0.236096 0.706685 0.205520
O O10 0.408251 0.706241 0.123935
O O11 0.323362 0.772247 0.066828
O O12 0.210610 0.277723 0.718972
O O13 0.258794 0.000000 0.721915
O O14 0.890813 0.500000 0.268994
O O15 0.954586 0.763580 0.209585
O O16 0.502041 0.500000 0.127294
O O17 0.576417 0.759957 0.070491
O O18 0.327688 0.000000 0.993689
O O19 0.250000 0.750000 0.000000
#
# Coordination Sequence:
#
# PCOD9191711 Si02
#       7
#     8   8   8   8   8   8   8
#     4   9  17  31  52  77 105 138 175 214 259 312
#     4  10  20  33  51  75 105 141 178 218 261 306
#     4   9  18  34  56  80 105 134 171 214 259 310
#     4   8  15  29  50  75 103 136 170 210 261 308
#     4   9  17  30  50  77 104 132 172 219 261 301
#     4  10  20  36  59  83 106 134 169 211 260 312
#     4  12  25  39  55  76 106 141 175 213 259 310
#
# _framework density 17.857247000000001
#
# number of rings (size 3 to 8) (size 9 to 14) (size 15 to 20)
#    0.000    2.429    0.000    3.857    0.000    6.571 
#    0.000    1.429    0.000    6.857    0.000    0.000 
#    0.000    0.000    0.000    0.000    0.000    0.000 
#
# Total GULP energy -156068.119085 kJ/mol
# GULP energy per Si atom -5573.861396 kJ/mol
# Density = 1.781660 g / cm^3
# Si number density = 17.857247 Si / 1000 Ang^3
#
#
#
# Elastic Constant Matrix: (Units=GPa)
#
#
# Indices 1 2 3 4 5 6 
#
# 1 49.8102 42.2021 67.2606 0.0000 -7.0651 0.0001
# 2 42.2021 82.4195 82.8116 0.0001 0.2131 0.0004
# 3 67.2606 82.8116 194.6534 0.0000 -9.1882 0.0000
# 4 0.0000 0.0001 0.0000 31.6256 0.0000 1.6310
# 5 -7.0651 0.2131 -9.1882 0.0000 23.2873 0.0000
# 6 0.0001 0.0004 0.0000 1.6310 0.0000 24.2116
#
#
#
# Elastic Compliance Matrix: (Units=1/GPa)
#
#
# Indices 1 2 3 4 5 6 
#
# 1 0.046488 -0.014302 -0.009484 0.000000 0.010493 0.000000
# 2 -0.014302 0.025931 -0.006425 0.000000 -0.007112 0.000000
# 3 -0.009484 -0.006425 0.011224 0.000000 0.001610 0.000000
# 4 0.000000 0.000000 0.000000 0.031730 0.000000 -0.002137
# 5 0.010493 -0.007112 0.001610 0.000000 0.046826 0.000000
# 6 0.000000 0.000000 0.000000 -0.002137 0.000000 0.041446
#
#
# Mechanical properties :
#
#
# Convention : Reuss Voigt Hill
#
# Bulk Modulus (GPa) = 43.06573 79.04798 61.05686
# Shear Modulus (GPa) = 18.39529 24.79881 21.59705
#
# Velocity S-wave (km/s) = 3.21305 3.73060 3.48146
# Velocity P-wave (km/s) = 6.15905 7.93216 7.10117
#
# Compressibility (1/GPa) = 0.02322032
#
# Stress axis : x y z
#
# Youngs Moduli (GPa) = 21.51071 38.56409 89.09547
#
# Poissons Ratio (x) = 0.55156 0.84495
# Poissons Ratio (y) = 0.30765 0.57248
# Poissons Ratio (z) = 0.20400 0.24779
#
# Static dielectric constant tensor:
#      x y z
#    x 1.583680 0.000000 -0.010610 
#    y 0.000000 1.594990 0.000000 
#    z -0.010610 0.000000 1.656830 
# 
# From -- ./inp_files/313777.got.cif
#   From: 2010.05.17/outbox.cif.g08.bks.cpg/sg12_157_cif.got.tgz:313777.got - 2010.06.03 13:09:07.
