data_PCOD9191778
_publ_section_title
;
Structure prediction by ZEFSAII (Michael W. Deem and Ramdas Pophale) SiO2 
 PCOD9191778
Probable space group: C 2/M
;
_chemical_formula_sum "Si O2"
_cell_formula_units_Z 64
_cell_length_a 14.428156
_cell_length_b 9.217896
_cell_length_c 26.686611
_cell_angle_alpha 90.000000
_cell_angle_beta 91.357128
_cell_angle_gamma 90.000000
_cell_volume 3548.250054
_symmetry_space_group_name_H-M "C 2/M"
_symmetry_group_IT_number 12
_symmetry_cell_setting 'monoclinic'
loop_
_space_group_symop_operation_xyz
x,y,z
-x,y,-z
-x,-y,-z
x,-y,z
1/2+x,1/2+y,z
1/2-x,1/2+y,-z
1/2-x,1/2-y,-z
1/2+x,1/2-y,z
loop_
_atom_site_type_symbol
_atom_site_label
_atom_site_fract_x
_atom_site_fract_y
_atom_site_fract_z
Si Si1 0.902281 0.673464 0.874971
Si Si2 0.762294 0.326722 0.316829
Si Si3 0.884503 0.672143 0.140273
Si Si4 0.613119 0.833975 0.505081
Si Si5 0.266557 0.327845 0.947654
Si Si6 0.252135 0.172441 0.788000
Si Si7 0.071668 0.674391 0.612895
Si Si8 0.876248 0.826911 0.594456
O O1 0.897420 0.500000 0.884745
O O2 0.853570 0.758743 0.919489
O O3 0.840952 0.702845 0.824610
O O4 0.009161 0.713007 0.867938
O O5 0.756330 0.500000 0.308331
O O6 0.738800 0.243195 0.266142
O O7 0.865469 0.293984 0.338395
O O8 0.694061 0.290443 0.361858
O O9 0.881550 0.500000 0.151941
O O10 0.821814 0.695309 0.090068
O O11 0.835535 0.759451 0.184114
O O12 0.500000 0.832378 0.500000
O O13 0.628516 0.789229 0.562706
O O14 0.649446 0.736525 0.460457
O O15 0.643869 0.000000 0.498530
O O16 0.278776 0.500000 0.954415
O O17 0.250000 0.250000 0.000000
O O18 0.242185 0.000000 0.783856
O O19 0.055028 0.500000 0.610239
O O20 0.975559 0.758593 0.609976
O O21 0.882351 0.000000 0.590648
#
# Coordination Sequence:
#
# PCOD9191778 Si02
#       8
#     8   8   8   8   8   8   8   8
#     4   9  19  37  58  79 105 140 181 219 258 309
#     4  10  22  38  53  72 103 138 169 206 259 318
#     4   9  19  37  59  79 104 144 184 214 257 314
#     4   8  15  30  51  72  97 131 167 201 245 307
#     4  10  20  34  54  82 116 149 180 218 260 302
#     4  10  21  36  55  79 104 130 170 224 267 302
#     4   9  19  36  54  71  97 136 172 201 246 312
#     4  10  20  33  51  77 104 129 163 211 260 303
#
# _framework density 18.03706
#
# number of rings (size 3 to 8) (size 9 to 14) (size 15 to 20)
#    0.000    2.625    0.000    1.875    0.000    7.250 
#    0.000    6.250    0.000    0.000    0.000    0.000 
#    0.000    0.000    0.000    0.000    0.000    0.000 
#
# Total GULP energy -178569.045921 kJ/mol
# GULP energy per Si atom -5580.282685 kJ/mol
# Density = 1.799601 g / cm^3
# Si number density = 18.037060 Si / 1000 Ang^3
#
#
#
# Elastic Constant Matrix: (Units=GPa)
#
#
# Indices 1 2 3 4 5 6 
#
# 1 98.8148 39.6564 35.6578 0.0000 -13.2294 0.0000
# 2 39.6564 50.5771 57.0501 0.0000 -6.6103 0.0000
# 3 35.6578 57.0501 109.9203 0.0000 -11.0692 0.0000
# 4 0.0000 0.0000 0.0000 39.0208 0.0000 -5.8586
# 5 -13.2294 -6.6103 -11.0692 0.0000 11.0692 0.0000
# 6 0.0000 0.0000 0.0000 -5.8586 0.0000 20.7411
#
#
#
# Elastic Compliance Matrix: (Units=1/GPa)
#
#
# Indices 1 2 3 4 5 6 
#
# 1 0.017192 -0.016714 0.004628 0.000000 0.015193 0.000000
# 2 -0.016714 0.064115 -0.028923 0.000000 -0.010611 0.000000
# 3 0.004628 -0.028923 0.023824 0.000000 0.012083 0.000000
# 4 0.000000 0.000000 0.000000 0.026762 0.000000 0.007559
# 5 0.015193 -0.010611 0.012083 0.000000 0.114245 0.000000
# 6 0.000000 0.000000 0.000000 0.007559 0.000000 0.050349
#
#
# Mechanical properties :
#
#
# Convention : Reuss Voigt Hill
#
# Bulk Modulus (GPa) = 43.26647 58.22677 50.74662
# Shear Modulus (GPa) = 12.94631 22.62942 17.78787
#
# Velocity S-wave (km/s) = 2.68201 3.54589 3.14376
# Velocity P-wave (km/s) = 5.79918 7.00830 6.43221
#
# Compressibility (1/GPa) = 0.02311259
#
# Stress axis : x y z
#
# Youngs Moduli (GPa) = 58.16743 15.59699 41.97366
#
# Poissons Ratio (x) = 0.26069 -0.19425
# Poissons Ratio (y) = 0.97222 1.21400
# Poissons Ratio (z) = -0.26920 0.45111
#
# Static dielectric constant tensor:
#      x y z
#    x 1.625050 0.000000 0.018090 
#    y 0.000000 1.597670 0.000000 
#    z 0.018090 0.000000 1.603580 
# 
# From -- ./inp_files/338816.got.cif
#   From: 2010.05.17/outbox.cif.g08.bks.cpg/sg12_170_cif.got.tgz:338816.got - 2010.06.03 13:09:07.
