data_PCOD9191335
_publ_section_title
;
Structure prediction by ZEFSAII (Michael W. Deem and Ramdas Pophale) SiO2 
 PCOD9191335
Probable space group: C 2/M
;
_chemical_formula_sum "Si O2"
_cell_formula_units_Z 64
_cell_length_a 20.887690
_cell_length_b 7.416390
_cell_length_c 17.996192
_cell_angle_alpha 90.000000
_cell_angle_beta 58.386668
_cell_angle_gamma 90.000000
_cell_volume 2374.115189
_symmetry_space_group_name_H-M "C 2/M"
_symmetry_group_IT_number 12
_symmetry_cell_setting 'monoclinic'
loop_
_space_group_symop_operation_xyz
x,y,z
-x,y,-z
-x,-y,-z
x,-y,z
1/2+x,1/2+y,z
1/2-x,1/2+y,-z
1/2-x,1/2-y,-z
1/2+x,1/2-y,z
loop_
_atom_site_type_symbol
_atom_site_label
_atom_site_fract_x
_atom_site_fract_y
_atom_site_fract_z
Si Si1 0.033134 0.281169 0.249202
Si Si2 0.168794 0.214699 0.387052
Si Si3 0.344376 0.715623 0.273064
Si Si4 0.485020 0.292971 0.112502
Si Si5 0.695337 0.219047 0.118211
Si Si6 0.853279 0.209221 0.022582
Si Si7 0.660304 0.285247 0.558051
Si Si8 0.521506 0.792603 0.410366
O O1 0.029303 0.500000 0.247641
O O2 0.007002 0.208681 0.186546
O O3 0.120080 0.228033 0.205504
O O4 0.994680 0.215850 0.348317
O O5 0.255682 0.256307 0.317936
O O6 0.141540 0.280580 0.485887
O O7 0.111656 0.294496 0.362786
O O8 0.162321 0.000000 0.390967
O O9 0.355726 0.500000 0.267047
O O10 0.400488 0.784634 0.173449
O O11 0.362931 0.787376 0.345658
O O12 0.479706 0.500000 0.091486
O O13 0.560956 0.215631 0.026679
O O14 0.673594 0.282170 0.047710
O O15 0.699015 0.000000 0.113244
O O16 0.774969 0.284697 0.102883
O O17 0.859458 0.000000 0.040956
O O18 0.650247 0.500000 0.566227
O O19 0.750000 0.250000 0.500000
O O20 0.500000 0.699445 0.500000
O O21 0.497496 0.000000 0.425354
#
# Coordination Sequence:
#
# PCOD9191335 Si02
#       8
#     8   8   8   8   8   8   8   8
#     4   9  18  31  45  64  89 121 156 186 221 264
#     4  10  20  33  49  68  86 111 151 192 226 261
#     4   9  17  30  47  66  91 120 144 174 221 272
#     4   9  17  27  44  70  98 122 145 176 220 269
#     4   8  13  23  40  59  85 117 147 178 212 257
#     4   8  13  22  37  62  91 117 142 172 213 261
#     4   8  15  27  42  61  82 105 137 174 213 256
#     4  10  22  37  49  63  87 120 155 190 228 266
#
# _framework density 26.957409999999999
#
# number of rings (size 3 to 8) (size 9 to 14) (size 15 to 20)
#    0.000    3.125    0.000    0.375    1.750    1.750 
#    0.000    0.000    0.000    0.000    0.000    0.875 
#    0.000    7.000    0.000    0.000    0.000    0.000 
#
# Total GULP energy -178527.592291 kJ/mol
# GULP energy per Si atom -5578.987259 kJ/mol
# Density = 2.689605 g / cm^3
# Si number density = 26.957410 Si / 1000 Ang^3
#
#
#
# Elastic Constant Matrix: (Units=GPa)
#
#
# Indices 1 2 3 4 5 6 
#
# 1 106.7085 12.0010 23.8667 0.0000 -23.7068 0.0000
# 2 12.0010 117.2304 16.3424 -0.0021 -11.4373 0.0006
# 3 23.8667 16.3424 102.4894 -0.0004 -20.9230 0.0001
# 4 0.0000 -0.0021 -0.0004 1.2098 0.0000 -10.8174
# 5 -23.7068 -11.4373 -20.9230 0.0000 57.5628 -0.0001
# 6 0.0000 0.0006 0.0001 -10.8174 -0.0001 10.8416
#
#
#
# Elastic Compliance Matrix: (Units=1/GPa)
#
#
# Indices 1 2 3 4 5 6 
#
# 1 0.010611 -0.000499 -0.001641 0.000000 0.003674 0.000000
# 2 -0.000499 0.008842 -0.001055 -0.000001 0.001168 -0.000002
# 3 -0.001641 -0.001055 0.010938 0.000000 0.003090 0.000000
# 4 0.000000 -0.000001 0.000000 -0.104346 -0.000001 -0.104113
# 5 0.003674 0.001168 0.003090 -0.000001 0.020241 0.000000
# 6 0.000000 -0.000002 0.000000 -0.104113 0.000000 -0.011644
#
#
# Mechanical properties :
#
#
# Convention : Reuss Voigt Hill
#
# Bulk Modulus (GPa) = 41.66592 47.87205 44.76899
# Shear Modulus (GPa) = -98.10459 32.20405 -32.95027
#
# Velocity S-wave (km/s) = -6.03916 3.46009 -3.49995
# Velocity P-wave (km/s) = 5.75663 5.81033 0.55725
#
# Compressibility (1/GPa) = 0.02400043
#
# Stress axis : x y z
#
# Youngs Moduli (GPa) = 94.24336 113.09218 91.42051
#
# Poissons Ratio (x) = 0.05643 0.15005
# Poissons Ratio (y) = 0.04702 0.09648
# Poissons Ratio (z) = 0.15468 0.11935
#
# Static dielectric constant tensor:
#      x y z
#    x 2.196300 0.000000 -0.091810 
#    y 0.000000 2.085970 0.000000 
#    z -0.091810 0.000000 2.257680 
# 
# From -- ./inp_files/348506.got.cif
#   From: 2010.05.17/outbox.cif.g08.bks.cpg/sg12_175_cif.got.tgz:348506.got - 2010.06.03 13:09:07.
