data_PCOD9191062
_publ_section_title
;
Structure prediction by ZEFSAII (Michael W. Deem and Ramdas Pophale) SiO2 
 PCOD9191062
Probable space group: C 2/M
;
_chemical_formula_sum "Si O2"
_cell_formula_units_Z 56
_cell_length_a 11.756795
_cell_length_b 31.372611
_cell_length_c 7.591291
_cell_angle_alpha 90.000000
_cell_angle_beta 105.045049
_cell_angle_gamma 90.000000
_cell_volume 2704.004367
_symmetry_space_group_name_H-M "C 2/M"
_symmetry_group_IT_number 12
_symmetry_cell_setting 'monoclinic'
loop_
_space_group_symop_operation_xyz
x,y,z
-x,y,-z
-x,-y,-z
x,-y,z
1/2+x,1/2+y,z
1/2-x,1/2+y,-z
1/2-x,1/2-y,-z
1/2+x,1/2-y,z
loop_
_atom_site_type_symbol
_atom_site_label
_atom_site_fract_x
_atom_site_fract_y
_atom_site_fract_z
Si Si1 0.343035 0.186835 0.222888
Si Si2 0.963714 0.625388 0.777446
Si Si3 0.917362 0.777293 0.296990
Si Si4 0.025681 0.136167 0.254152
Si Si5 0.767067 0.161851 0.447534
Si Si6 0.090930 0.452197 0.871785
Si Si7 0.803887 0.112908 0.995350
O O1 0.468755 0.164073 0.283812
O O2 0.371428 0.235120 0.184284
O O3 0.281124 0.181393 0.387997
O O4 0.268959 0.157147 0.058424
O O5 0.828211 0.631338 0.679905
O O6 0.018569 0.581605 0.726113
O O7 0.000000 0.627761 0.000000
O O8 0.803892 0.800371 0.333941
O O9 0.000000 0.765795 0.500000
O O10 0.988236 0.813538 0.216333
O O11 0.111336 0.138238 0.454905
O O12 0.111212 0.115591 0.141767
O O13 0.900190 0.113019 0.188073
O O14 0.113848 0.500000 0.815830
O O15 0.211600 0.426146 0.961579
O O16 0.000000 0.456532 0.000000
#
# Coordination Sequence:
#
# PCOD9191062 Si02
#       7
#     8   8   8   8   8   8   8
#     4  10  20  35  55  77 115 155 197 242 279 325
#     4  10  21  35  55  84 112 140 189 236 289 339
#     4  10  20  32  52  79 109 156 206 231 274 327
#     4   9  20  36  53  80 115 158 190 229 276 336
#     4  10  20  35  56  77 113 159 196 232 282 330
#     4   9  19  36  62  88 111 140 179 234 294 352
#     4   9  19  37  58  82 117 145 189 236 287 338
#
# _framework density 20.710027
#
# number of rings (size 3 to 8) (size 9 to 14) (size 15 to 20)
#    0.000    2.429    0.000    1.714    6.000    2.857 
#    2.571    1.429    0.000   16.286    0.000    5.000 
#    0.000    0.000    0.000    0.000    0.000    0.000 
#
# Total GULP energy -155956.090628 kJ/mol
# GULP energy per Si atom -5569.860380 kJ/mol
# Density = 2.066289 g / cm^3
# Si number density = 20.710027 Si / 1000 Ang^3
#
#
#
# Elastic Constant Matrix: (Units=GPa)
#
#
# Indices 1 2 3 4 5 6 
#
# 1 142.7924 65.6125 39.4976 0.0000 31.6389 0.0000
# 2 65.6125 144.9703 34.9694 0.0000 21.8775 0.0000
# 3 39.4976 34.9694 61.0978 0.0000 16.6887 0.0000
# 4 0.0000 0.0000 0.0000 27.8254 0.0000 -13.5997
# 5 31.6389 21.8775 16.6887 0.0000 51.4458 0.0000
# 6 0.0000 0.0000 0.0000 -13.5997 0.0000 14.9599
#
#
#
# Elastic Compliance Matrix: (Units=1/GPa)
#
#
# Indices 1 2 3 4 5 6 
#
# 1 0.010372 -0.003198 -0.003845 0.000000 -0.003772 0.000000
# 2 -0.003198 0.009202 -0.002927 0.000000 -0.000997 0.000000
# 3 -0.003845 -0.002927 0.021442 0.000000 -0.003346 0.000000
# 4 0.000000 0.000000 0.000000 0.064674 0.000000 0.058793
# 5 -0.003772 -0.000997 -0.003346 0.000000 0.023267 0.000000
# 6 0.000000 0.000000 0.000000 0.058793 0.000000 0.120293
#
#
# Mechanical properties :
#
#
# Convention : Reuss Voigt Hill
#
# Bulk Modulus (GPa) = 47.44563 69.89104 58.66834
# Shear Modulus (GPa) = 18.10199 32.76497 25.43348
#
# Velocity S-wave (km/s) = 2.95967 3.98186 3.50819
# Velocity P-wave (km/s) = 5.88547 7.41356 6.69327
#
# Compressibility (1/GPa) = 0.02107676
#
# Stress axis : x y z
#
# Youngs Moduli (GPa) = 96.41776 108.67561 46.63740
#
# Poissons Ratio (x) = 0.34750 0.17930
# Poissons Ratio (y) = 0.30830 0.13652
# Poissons Ratio (z) = 0.37068 0.31811
#
# Static dielectric constant tensor:
#      x y z
#    x 1.811300 0.000000 -0.052640 
#    y 0.000000 1.737900 0.000000 
#    z -0.052640 0.000000 1.881080 
# 
# From -- ./inp_files/54307.got.cif
#   From: 2010.05.17/outbox.cif.g08.bks.cpg/sg12_28_cif.got.tgz:54307.got - 2010.06.03 13:09:07.
