data_PCOD9191434
_publ_section_title
;
Structure prediction by ZEFSAII (Michael W. Deem and Ramdas Pophale) SiO2 
 PCOD9191434
Probable space group: C 2/M
;
_chemical_formula_sum "Si O2"
_cell_formula_units_Z 56
_cell_length_a 15.912388
_cell_length_b 9.282863
_cell_length_c 20.568006
_cell_angle_alpha 90.000000
_cell_angle_beta 89.802188
_cell_angle_gamma 90.000000
_cell_volume 3038.133846
_symmetry_space_group_name_H-M "C 2/M"
_symmetry_group_IT_number 12
_symmetry_cell_setting 'monoclinic'
loop_
_space_group_symop_operation_xyz
x,y,z
-x,y,-z
-x,-y,-z
x,-y,z
1/2+x,1/2+y,z
1/2-x,1/2+y,-z
1/2-x,1/2-y,-z
1/2+x,1/2-y,z
loop_
_atom_site_type_symbol
_atom_site_label
_atom_site_fract_x
_atom_site_fract_y
_atom_site_fract_z
Si Si1 0.170480 0.665969 0.061944
Si Si2 0.073761 0.337001 0.197633
Si Si3 0.661255 0.167287 0.922743
Si Si4 0.399698 0.830502 0.657552
Si Si5 0.259057 0.674263 0.430854
Si Si6 0.579462 0.673909 0.654460
Si Si7 0.591362 0.331573 0.799489
O O1 0.203423 0.500000 0.055174
O O2 0.121957 0.669424 0.129797
O O3 0.243201 0.783219 0.066895
O O4 0.120882 0.693455 0.994498
O O5 0.035523 0.500000 0.201265
O O6 0.123032 0.319674 0.265406
O O7 0.005927 0.211666 0.197468
O O8 0.630625 0.254042 0.860946
O O9 0.652452 0.000000 0.908283
O O10 0.320679 0.784165 0.614200
O O11 0.487988 0.747340 0.645966
O O12 0.414871 0.000000 0.644411
O O13 0.257444 0.500000 0.437093
O O14 0.250000 0.750000 0.500000
O O15 0.348509 0.712032 0.397424
O O16 0.568111 0.500000 0.653967
O O17 0.615287 0.713720 0.726110
O O18 0.607025 0.500000 0.805286
#
# Coordination Sequence:
#
# PCOD9191434 Si02
#       7
#     8   8   8   8   8   8   8
#     4   9  19  34  52  73 101 141 181 220 273 325
#     4   9  18  34  56  77 101 136 179 224 269 321
#     4  10  20  33  49  74 106 138 179 226 269 321
#     4   9  19  36  59  84 112 144 185 230 274 323
#     4  10  22  39  59  86 114 147 184 222 270 332
#     4   9  20  38  59  82 113 148 186 227 274 329
#     4  10  20  34  54  77 104 139 179 222 270 324
#
# _framework density 18.432368
#
# number of rings (size 3 to 8) (size 9 to 14) (size 15 to 20)
#    0.000    2.571    0.000    0.857    2.000    4.000 
#    0.000    5.714    0.000    0.000    0.000    0.000 
#    0.000    0.000    0.000    0.000    0.000    0.000 
#
# Total GULP energy -155901.653465 kJ/mol
# GULP energy per Si atom -5567.916195 kJ/mol
# Density = 1.839042 g / cm^3
# Si number density = 18.432368 Si / 1000 Ang^3
#
#
#
# Elastic Constant Matrix: (Units=GPa)
#
#
# Indices 1 2 3 4 5 6 
#
# 1 -100.2114 -28.1033 -182.7631 0.0000 -127.8204 0.0000
# 2 -28.1033 10.3305 -26.9617 0.0000 -39.1875 0.0000
# 3 -182.7631 -26.9617 -220.4918 0.0000 -200.3411 0.0000
# 4 0.0000 0.0000 0.0000 32.1489 0.0000 5.5003
# 5 -127.8204 -39.1875 -200.3411 0.0000 -69.8892 0.0000
# 6 0.0000 0.0000 0.0000 5.5003 0.0000 33.9333
#
#
#
# Elastic Compliance Matrix: (Units=1/GPa)
#
#
# Indices 1 2 3 4 5 6 
#
# 1 0.026184 0.001669 -0.013994 0.000000 -0.008710 0.000000
# 2 0.001669 0.085553 -0.021510 0.000000 0.010638 0.000000
# 3 -0.013994 -0.021510 0.015280 0.000000 -0.006148 0.000000
# 4 0.000000 0.000000 0.000000 0.031993 0.000000 -0.005186
# 5 -0.008710 0.010638 -0.006148 0.000000 0.013281 0.000000
# 6 0.000000 0.000000 0.000000 -0.005186 0.000000 0.030310
#
#
# Mechanical properties :
#
#
# Convention : Reuss Voigt Hill
#
# Bulk Modulus (GPa) = 16.84991 -87.33653 -35.24331
# Shear Modulus (GPa) = 17.23820 -5.59772 5.82024
#
# Velocity S-wave (km/s) = 3.06144 -1.74456 1.77890
# Velocity P-wave (km/s) = 4.65381 7.17935 3.86556
#
# Compressibility (1/GPa) = 0.05934751
#
# Stress axis : x y z
#
# Youngs Moduli (GPa) = 38.19165 11.68860 65.44325
#
# Poissons Ratio (x) = -0.01951 0.91578
# Poissons Ratio (y) = -0.06374 1.40771
# Poissons Ratio (z) = 0.53444 0.25143
#
# Static dielectric constant tensor:
#      x y z
#    x 1.638870 0.000000 0.009160 
#    y 0.000000 1.627070 0.000000 
#    z 0.009160 0.000000 1.691330 
# 
# From -- ./inp_files/308990.got.cif
#   From: 2010.05.17/outbox.cif.g08.bks.cpg/sg12_155_cif.got.tgz:308990.got - 2010.06.03 13:09:07.
