data_PCOD9191950
_publ_section_title
;
Structure prediction by ZEFSAII (Michael W. Deem and Ramdas Pophale) SiO2 
 PCOD9191950
Probable space group: C 2/M
;
_chemical_formula_sum "Si O2"
_cell_formula_units_Z 40
_cell_length_a 17.423273
_cell_length_b 14.070985
_cell_length_c 30.531343
_cell_angle_alpha 90.000000
_cell_angle_beta 17.479532
_cell_angle_gamma 90.000000
_cell_volume 2248.275827
_symmetry_space_group_name_H-M "C 2/M"
_symmetry_group_IT_number 12
_symmetry_cell_setting 'monoclinic'
loop_
_space_group_symop_operation_xyz
x,y,z
-x,y,-z
-x,-y,-z
x,-y,z
1/2+x,1/2+y,z
1/2-x,1/2+y,-z
1/2-x,1/2-y,-z
1/2+x,1/2-y,z
loop_
_atom_site_type_symbol
_atom_site_label
_atom_site_fract_x
_atom_site_fract_y
_atom_site_fract_z
Si Si1 0.126896 0.109874 0.095229
Si Si2 0.855342 0.724310 0.190868
Si Si3 0.420914 0.240573 0.363669
Si Si4 0.036229 0.112060 0.532311
Si Si5 0.230029 0.890598 0.626366
O O1 0.968314 0.178994 0.149692
O O2 0.981668 0.113531 0.220626
O O3 0.132384 0.000000 0.077805
O O4 0.409412 0.153228 0.945151
O O5 0.703962 0.750139 0.228914
O O6 0.666791 0.673379 0.328777
O O7 0.250000 0.250000 0.500000
O O8 0.316287 0.147906 0.395355
O O9 0.353809 0.326456 0.368024
O O10 0.000000 0.127388 0.500000
O O11 0.003416 0.000000 0.558982
O O12 0.500000 0.858689 0.500000
O O13 0.735243 0.000000 0.406477
#
# Coordination Sequence:
#
# PCOD9191950 Si02
#       5
#     8   8   8   8   8
#     4  10  21  37  57  79 108 147 183 222 275 327
#     4  10  21  36  55  81 111 142 181 228 271 321
#     4  10  20  33  52  78 106 136 174 223 269 314
#     4  10  20  35  56  79 107 145 184 221 265 321
#     4  10  20  35  56  80 107 141 182 226 274 328
#
# _framework density 17.791411
#
# number of rings (size 3 to 8) (size 9 to 14) (size 15 to 20)
#    0.000    2.000    0.000    4.800    0.000    5.600 
#    0.000    2.000    0.000    0.000    0.000   11.200 
#    0.000    0.000    0.000    0.000    0.000    0.000 
#
# Total GULP energy -111573.073469 kJ/mol
# GULP energy per Si atom -5578.653673 kJ/mol
# Density = 1.775092 g / cm^3
# Si number density = 17.791411 Si / 1000 Ang^3
#
#
#
# Elastic Constant Matrix: (Units=GPa)
#
#
# Indices 1 2 3 4 5 6 
#
# 1 122.9663 62.0811 55.6424 0.0478 -30.3329 0.0520
# 2 62.0811 139.2306 58.5689 0.0231 -19.6492 0.0871
# 3 55.6424 58.5689 93.0571 0.0379 -21.7353 -0.1795
# 4 0.0478 0.0231 0.0379 17.2404 -0.0132 7.8334
# 5 -30.3329 -19.6492 -21.7353 -0.0132 29.1541 0.0021
# 6 0.0520 0.0871 -0.1795 7.8334 0.0021 -19.0017
#
#
#
# Elastic Compliance Matrix: (Units=1/GPa)
#
#
# Indices 1 2 3 4 5 6 
#
# 1 0.013874 -0.003130 -0.004173 -0.000040 0.009214 0.000048
# 2 -0.003130 0.010618 -0.004723 -0.000028 0.000379 0.000073
# 3 -0.004173 -0.004723 0.017504 0.000062 0.005525 -0.000172
# 4 -0.000040 -0.000028 0.000062 0.048853 0.000006 0.020139
# 5 0.009214 0.000379 0.005525 0.000006 0.048261 -0.000017
# 6 0.000048 0.000073 -0.000172 0.020139 -0.000017 -0.044323
#
#
# Mechanical properties :
#
#
# Convention : Reuss Voigt Hill
#
# Bulk Modulus (GPa) = 55.73101 78.64873 67.18987
# Shear Modulus (GPa) = 40.05739 17.40933 28.73336
#
# Velocity S-wave (km/s) = 4.75015 3.13153 4.02308
# Velocity P-wave (km/s) = 7.84078 7.57478 7.70893
#
# Compressibility (1/GPa) = 0.01794333
#
# Stress axis : x y z
#
# Youngs Moduli (GPa) = 72.07732 94.17893 57.13012
#
# Poissons Ratio (x) = 0.29481 0.23843
# Poissons Ratio (y) = 0.22563 0.26980
# Poissons Ratio (z) = 0.30081 0.44476
#
# Static dielectric constant tensor:
#      x y z
#    x 1.579590 0.000010 -0.021250 
#    y 0.000010 1.612700 0.000030 
#    z -0.021250 0.000030 1.620150 
# 
# From -- ./inp_files/233297.got.cif
#   From: 2010.05.17/outbox.cif.g08.bks.cpg/sg12_117_cif.got.tgz:233297.got - 2010.06.03 13:09:07.
