data_PCOD9191603
_publ_section_title
;
Structure prediction by ZEFSAII (Michael W. Deem and Ramdas Pophale) SiO2 
 PCOD9191603
Probable space group: C 2/M
;
_chemical_formula_sum "Si O2"
_cell_formula_units_Z 48
_cell_length_a 26.232343
_cell_length_b 8.234755
_cell_length_c 12.190263
_cell_angle_alpha 90.000000
_cell_angle_beta 89.808409
_cell_angle_gamma 90.000000
_cell_volume 2633.288317
_symmetry_space_group_name_H-M "C 2/M"
_symmetry_group_IT_number 12
_symmetry_cell_setting 'monoclinic'
loop_
_space_group_symop_operation_xyz
x,y,z
-x,y,-z
-x,-y,-z
x,-y,z
1/2+x,1/2+y,z
1/2-x,1/2+y,-z
1/2-x,1/2-y,-z
1/2+x,1/2-y,z
loop_
_atom_site_type_symbol
_atom_site_label
_atom_site_fract_x
_atom_site_fract_y
_atom_site_fract_z
Si Si1 0.691245 0.193914 0.500234
Si Si2 0.653445 0.801350 0.265504
Si Si3 0.347900 0.306300 0.266393
Si Si4 0.941125 0.301861 0.877400
Si Si5 0.557366 0.804069 0.872226
Si Si6 0.748074 0.695948 0.874880
O O1 0.750000 0.250000 0.500000
O O2 0.663382 0.253274 0.389738
O O3 0.663330 0.246976 0.611116
O O4 0.691796 0.000000 0.496054
O O5 0.601489 0.746271 0.207719
O O6 0.701762 0.751049 0.191680
O O7 0.652559 0.000000 0.266018
O O8 0.344985 0.500000 0.267585
O O9 0.401594 0.255616 0.214763
O O10 0.302423 0.244441 0.187476
O O11 0.940836 0.500000 0.876941
O O12 0.999064 0.251269 0.851207
O O13 0.929122 0.252394 0.003041
O O14 0.557774 0.000000 0.871273
O O15 0.747506 0.500000 0.872606
O O16 0.750000 0.750000 0.000000
#
# Coordination Sequence:
#
# PCOD9191603 Si02
#       6
#     8   8   8   8   8   8
#     4  11  21  36  56  76 103 142 182 220 264 313
#     4   9  17  32  52  75 104 135 170 217 264 306
#     4  11  22  36  52  76 109 142 176 217 262 315
#     4   8  15  30  55  82 107 133 172 220 264 312
#     4   9  17  32  56  83 105 136 176 215 261 316
#     4  10  20  33  50  76 106 133 167 212 264 315
#
# _framework density 18.228161
#
# number of rings (size 3 to 8) (size 9 to 14) (size 15 to 20)
#    0.000    2.333    1.667    3.000    0.000    2.667 
#    0.000    2.500    0.000    9.000    0.000    0.000 
#    0.000    0.000    0.000    0.000    0.000    0.000 
#
# Total GULP energy -133928.595136 kJ/mol
# GULP energy per Si atom -5580.358131 kJ/mol
# Density = 1.818667 g / cm^3
# Si number density = 18.228161 Si / 1000 Ang^3
#
#
#
# Elastic Constant Matrix: (Units=GPa)
#
#
# Indices 1 2 3 4 5 6 
#
# 1 146.8289 19.1031 114.5078 0.0000 -8.0110 0.0000
# 2 19.1031 16.1115 19.9917 0.0000 -1.5380 0.0000
# 3 114.5078 19.9917 192.7910 0.0000 -10.5292 0.0000
# 4 0.0000 0.0000 0.0000 22.1765 0.0000 -4.6084
# 5 -8.0110 -1.5380 -10.5292 0.0000 24.9044 0.0000
# 6 0.0000 0.0000 0.0000 -4.6084 0.0000 22.5987
#
#
#
# Elastic Compliance Matrix: (Units=1/GPa)
#
#
# Indices 1 2 3 4 5 6 
#
# 1 0.013334 -0.006839 -0.007164 0.000000 0.000838 0.000000
# 2 -0.006839 0.074783 -0.003644 0.000000 0.000877 0.000000
# 3 -0.007164 -0.003644 0.009911 0.000000 0.001661 0.000000
# 4 0.000000 0.000000 0.000000 0.047088 0.000000 0.009602
# 5 0.000838 0.000877 0.001661 0.000000 0.041179 0.000000
# 6 0.000000 0.000000 0.000000 0.009602 0.000000 0.046208
#
#
# Mechanical properties :
#
#
# Convention : Reuss Voigt Hill
#
# Bulk Modulus (GPa) = 15.94121 73.65962 44.80041
# Shear Modulus (GPa) = 17.31840 27.41117 22.36478
#
# Velocity S-wave (km/s) = 3.08570 3.88207 3.50656
# Velocity P-wave (km/s) = 4.63246 7.78405 6.40512
#
# Compressibility (1/GPa) = 0.06273049
#
# Stress axis : x y z
#
# Youngs Moduli (GPa) = 74.99862 13.37204 100.89901
#
# Poissons Ratio (x) = 0.09146 0.72289
# Poissons Ratio (y) = 0.51295 0.36773
# Poissons Ratio (z) = 0.53733 0.04873
#
# Static dielectric constant tensor:
#      x y z
#    x 1.610510 0.000000 0.029440 
#    y 0.000000 1.639240 0.000000 
#    z 0.029440 0.000000 1.589280 
# 
# From -- ./inp_files/172070.got.cif
#   From: 2010.05.17/outbox.cif.g08.bks.cpg/sg12_87_cif.got.tgz:172070.got - 2010.06.03 13:09:07.
