data_PCOD9191551
_publ_section_title
;
Structure prediction by ZEFSAII (Michael W. Deem and Ramdas Pophale) SiO2 
 PCOD9191551
Probable space group: C 2/M
;
_chemical_formula_sum "Si O2"
_cell_formula_units_Z 64
_cell_length_a 23.151950
_cell_length_b 7.487848
_cell_length_c 17.537131
_cell_angle_alpha 90.000000
_cell_angle_beta 99.505146
_cell_angle_gamma 90.000000
_cell_volume 2998.467222
_symmetry_space_group_name_H-M "C 2/M"
_symmetry_group_IT_number 12
_symmetry_cell_setting 'monoclinic'
loop_
_space_group_symop_operation_xyz
x,y,z
-x,y,-z
-x,-y,-z
x,-y,z
1/2+x,1/2+y,z
1/2-x,1/2+y,-z
1/2-x,1/2-y,-z
1/2+x,1/2-y,z
loop_
_atom_site_type_symbol
_atom_site_label
_atom_site_fract_x
_atom_site_fract_y
_atom_site_fract_z
Si Si1 0.440426 0.292879 0.274056
Si Si2 0.593003 0.782231 0.041625
Si Si3 0.974086 0.781575 0.576120
Si Si4 0.725266 0.785808 0.078441
Si Si5 0.516485 0.216090 0.882368
Si Si6 0.341138 0.284291 0.539714
Si Si7 0.764831 0.709992 0.378796
Si Si8 0.811284 0.205680 0.226307
O O1 0.431422 0.500000 0.294735
O O2 0.483213 0.217116 0.347679
O O3 0.471004 0.284867 0.198723
O O4 0.375647 0.211710 0.251253
O O5 0.658657 0.718275 0.069564
O O6 0.545497 0.728197 0.094683
O O7 0.593345 0.000000 0.041535
O O8 0.566600 0.728739 0.953765
O O9 0.906887 0.721982 0.568796
O O10 0.000000 0.730882 0.500000
O O11 0.972499 0.000000 0.578231
O O12 0.769564 0.714656 0.152295
O O13 0.721575 0.000000 0.087881
O O14 0.750000 0.750000 0.000000
O O15 0.516930 0.000000 0.879390
O O16 0.340655 0.500000 0.542603
O O17 0.293124 0.220079 0.590629
O O18 0.317335 0.234935 0.450845
O O19 0.756974 0.500000 0.363863
O O20 0.779541 0.792713 0.300904
O O21 0.821510 0.000000 0.204664
#
# Coordination Sequence:
#
# PCOD9191551 Si02
#       8
#     8   8   8   8   8   8   8   8
#     4  10  20  33  50  74 100 126 162 206 247 288
#     4   8  16  32  52  72  97 131 167 198 237 295
#     4   9  17  31  52  72  93 128 166 196 235 290
#     4  10  20  34  52  74 100 132 169 208 250 295
#     4   9  17  32  53  73  96 130 166 199 241 293
#     4   9  18  34  54  75 100 130 164 201 244 294
#     4  10  20  33  52  77 102 129 163 203 245 290
#     4  10  21  35  51  72 101 135 167 201 246 299
#
# _framework density 21.344237
#
# number of rings (size 3 to 8) (size 9 to 14) (size 15 to 20)
#    0.000    2.625    0.000    2.625    0.000    4.500 
#    0.000    2.500    0.000    1.500    0.000    0.000 
#    0.000    0.000    0.000    0.000    0.000    0.000 
#
# Total GULP energy -178710.516128 kJ/mol
# GULP energy per Si atom -5584.703629 kJ/mol
# Density = 2.129566 g / cm^3
# Si number density = 21.344237 Si / 1000 Ang^3
#
#
#
# Elastic Constant Matrix: (Units=GPa)
#
#
# Indices 1 2 3 4 5 6 
#
# 1 196.1134 3.6430 107.1717 0.0000 37.4154 0.0000
# 2 3.6430 59.6182 -11.0682 0.0000 6.3651 0.0000
# 3 107.1717 -11.0682 170.7920 0.0000 16.3813 0.0000
# 4 0.0000 0.0000 0.0000 20.2340 0.0000 -8.4636
# 5 37.4154 6.3651 16.3813 0.0000 26.8005 0.0000
# 6 0.0000 0.0000 0.0000 -8.4636 0.0000 -1.6977
#
#
#
# Elastic Compliance Matrix: (Units=1/GPa)
#
#
# Indices 1 2 3 4 5 6 
#
# 1 0.010044 -0.000461 -0.005310 0.000000 -0.010668 0.000000
# 2 -0.000461 0.017653 0.001884 0.000000 -0.004701 0.000000
# 3 -0.005310 0.001884 0.009179 0.000000 0.001355 0.000000
# 4 0.000000 0.000000 0.000000 0.016019 0.000000 -0.079858
# 5 -0.010668 -0.004701 0.001355 0.000000 0.052495 0.000000
# 6 0.000000 0.000000 0.000000 -0.079858 0.000000 -0.190917
#
#
# Mechanical properties :
#
#
# Convention : Reuss Voigt Hill
#
# Bulk Modulus (GPa) = 34.35910 69.55740 51.95825
# Shear Modulus (GPa) = -73.47219 30.85250 -21.30984
#
# Velocity S-wave (km/s) = -5.87343 3.80606 -3.16316
# Velocity P-wave (km/s) = 5.46477 7.20929 3.32492
#
# Compressibility (1/GPa) = 0.02910438
#
# Stress axis : x y z
#
# Youngs Moduli (GPa) = 99.55697 56.64689 108.94481
#
# Poissons Ratio (x) = 0.02609 0.57845
# Poissons Ratio (y) = 0.04585 -0.20524
# Poissons Ratio (z) = 0.52860 -0.10672
#
# Static dielectric constant tensor:
#      x y z
#    x 1.770890 0.000000 0.018690 
#    y 0.000000 1.789680 0.000000 
#    z 0.018690 0.000000 1.715420 
# 
# From -- ./inp_files/281425.got.cif
#   From: 2010.05.17/outbox.cif.g08.bks.cpg/sg12_141_cif.got.tgz:281425.got - 2010.06.03 13:09:07.
