data_PCOD9191224
_publ_section_title
;
Structure prediction by ZEFSAII (Michael W. Deem and Ramdas Pophale) SiO2 
 PCOD9191224
Probable space group: C 2/M
;
_chemical_formula_sum "Si O2"
_cell_formula_units_Z 28
_cell_length_a 14.811989
_cell_length_b 15.616138
_cell_length_c 6.540615
_cell_angle_alpha 90.000000
_cell_angle_beta 55.510229
_cell_angle_gamma 90.000000
_cell_volume 1246.960217
_symmetry_space_group_name_H-M "C 2/M"
_symmetry_group_IT_number 12
_symmetry_cell_setting 'monoclinic'
loop_
_space_group_symop_operation_xyz
x,y,z
-x,y,-z
-x,-y,-z
x,-y,z
1/2+x,1/2+y,z
1/2-x,1/2+y,-z
1/2-x,1/2-y,-z
1/2+x,1/2-y,z
loop_
_atom_site_type_symbol
_atom_site_label
_atom_site_fract_x
_atom_site_fract_y
_atom_site_fract_z
Si Si1 0.247401 0.315361 0.811208
Si Si2 0.428764 0.729351 0.263539
Si Si3 0.088421 0.500000 0.595124
Si Si4 0.167001 0.500000 0.931621
Si Si5 0.000000 0.650047 0.500000
O O1 0.223408 0.411248 0.916419
O O2 0.009664 0.291311 0.288933
O O3 0.250000 0.250000 0.000000
O O4 0.156029 0.285328 0.762595
O O5 0.358627 0.685302 0.532021
O O6 0.500000 0.680602 0.000000
O O7 0.094991 0.585188 0.451855
O O8 0.962012 0.500000 0.840180
O O9 0.166387 0.500000 0.685127
#
# Coordination Sequence:
#
# PCOD9191224 Si02
#       5
#     8   8   4   4   4
#     4  11  24  40  63  96 130 173 217 262 320 385
#     4  11  22  39  63  90 129 170 215 263 318 385
#     4  10  20  32  63  99 124 156 202 269 349 388
#     4  11  20  40  61  91 135 163 209 269 321 386
#     4  11  20  36  64  93 126 164 206 261 334 395
#
# _framework density 22.454605000000001
#
# number of rings (size 3 to 8) (size 9 to 14) (size 15 to 20)
#    0.000    1.143    2.857    5.143    0.000    0.000 
#    0.000    0.714    0.000    6.000    0.000    0.000 
#    0.000    0.000    0.000    0.000    0.000    0.000 
#
# Total GULP energy -78075.829113 kJ/mol
# GULP energy per Si atom -5576.844937 kJ/mol
# Density = 2.240350 g / cm^3
# Si number density = 22.454605 Si / 1000 Ang^3
#
#
#
# Elastic Constant Matrix: (Units=GPa)
#
#
# Indices 1 2 3 4 5 6 
#
# 1 68.3612 41.3552 45.4069 0.0000 10.7909 0.0000
# 2 41.3552 140.2638 71.5107 0.0000 -3.2287 0.0000
# 3 45.4069 71.5107 210.2087 0.0000 -12.1241 0.0000
# 4 0.0000 0.0000 0.0000 23.1190 0.0000 14.4917
# 5 10.7909 -3.2287 -12.1241 0.0000 57.0472 0.0000
# 6 0.0000 0.0000 0.0000 14.4917 0.0000 14.9364
#
#
#
# Elastic Compliance Matrix: (Units=1/GPa)
#
#
# Indices 1 2 3 4 5 6 
#
# 1 0.020134 -0.004463 -0.003103 0.000000 -0.004721 0.000000
# 2 -0.004463 0.009616 -0.002255 0.000000 0.000909 0.000000
# 3 -0.003103 -0.002255 0.006298 0.000000 0.001798 0.000000
# 4 0.000000 0.000000 0.000000 0.110391 0.000000 -0.107104
# 5 -0.004721 0.000909 0.001798 0.000000 0.018856 0.000000
# 6 0.000000 0.000000 0.000000 -0.107104 0.000000 0.170866
#
#
# Mechanical properties :
#
#
# Convention : Reuss Voigt Hill
#
# Bulk Modulus (GPa) = 60.95095 81.70879 71.32987
# Shear Modulus (GPa) = 13.83999 36.39125 25.11562
#
# Velocity S-wave (km/s) = 2.48534 4.03011 3.34804
# Velocity P-wave (km/s) = 5.95306 7.62385 6.83966
#
# Compressibility (1/GPa) = 0.01640664
#
# Stress axis : x y z
#
# Youngs Moduli (GPa) = 49.66612 103.99652 158.77506
#
# Poissons Ratio (x) = 0.46413 0.49272
# Poissons Ratio (y) = 0.22166 0.35799
# Poissons Ratio (z) = 0.15413 0.23448
#
# Static dielectric constant tensor:
#      x y z
#    x 1.879280 0.000000 -0.078000 
#    y 0.000000 1.844010 0.000000 
#    z -0.078000 0.000000 1.963060 
# 
# From -- ./inp_files/45761.got.cif
#   From: 2010.05.17/outbox.cif.g08.bks.cpg/sg12_23_cif.got.tgz:45761.got - 2010.06.03 13:09:07.
