data_PCOD9191356
_publ_section_title
;
Structure prediction by ZEFSAII (Michael W. Deem and Ramdas Pophale) SiO2 
 PCOD9191356
Probable space group: C 2/M
;
_chemical_formula_sum "Si O2"
_cell_formula_units_Z 56
_cell_length_a 29.491214
_cell_length_b 9.278183
_cell_length_c 18.360196
_cell_angle_alpha 90.000000
_cell_angle_beta 140.488613
_cell_angle_gamma 90.000000
_cell_volume 3196.304209
_symmetry_space_group_name_H-M "C 2/M"
_symmetry_group_IT_number 12
_symmetry_cell_setting 'monoclinic'
loop_
_space_group_symop_operation_xyz
x,y,z
-x,y,-z
-x,-y,-z
x,-y,z
1/2+x,1/2+y,z
1/2-x,1/2+y,-z
1/2-x,1/2-y,-z
1/2+x,1/2-y,z
loop_
_atom_site_type_symbol
_atom_site_label
_atom_site_fract_x
_atom_site_fract_y
_atom_site_fract_z
Si Si1 0.771584 0.335529 0.924767
Si Si2 0.641533 0.167380 0.577035
Si Si3 0.001723 0.170091 0.352615
Si Si4 0.412641 0.667682 0.102545
Si Si5 0.629865 0.832870 0.738518
Si Si6 0.927419 0.828284 0.950579
Si Si7 0.783638 0.334597 0.762729
O O1 0.762394 0.500000 0.938053
O O2 0.702910 0.239265 0.857137
O O3 0.777026 0.335875 0.842950
O O4 0.845902 0.266463 0.041295
O O5 0.857926 0.500000 0.443904
O O6 0.575305 0.251457 0.460813
O O7 0.632768 0.171754 0.654086
O O8 0.716004 0.244749 0.651409
O O9 0.976838 0.186625 0.238179
O O10 0.938219 0.243275 0.319760
O O11 0.006414 0.000000 0.375253
O O12 0.389429 0.500000 0.077675
O O13 0.433593 0.697111 0.045089
O O14 0.624502 0.000000 0.754077
O O15 0.858294 0.742079 0.838203
O O16 0.916000 0.000000 0.926117
O O17 0.000000 0.787313 0.000000
O O18 0.781831 0.500000 0.735861
#
# Coordination Sequence:
#
# PCOD9191356 Si02
#       7
#     8   8   8   8   8   8   8
#     4   9  17  30  49  71  95 126 163 202 243 286
#     4  10  20  34  51  70  95 129 169 207 240 279
#     4  11  22  33  47  68  97 132 166 203 243 283
#     4   9  19  34  49  70 100 130 159 193 241 295
#     4  10  20  33  49  69  94 127 168 210 246 280
#     4   9  17  32  56  81 102 125 154 191 237 291
#     4   9  17  30  50  76 102 126 156 197 242 285
#
# _framework density 17.520235
#
# number of rings (size 3 to 8) (size 9 to 14) (size 15 to 20)
#    0.000    2.429    0.000    2.571    0.000    8.857 
#    0.000    0.000    0.000    0.857    0.000    0.000 
#    0.000    0.000    0.000    0.000    0.000    0.000 
#
# Total GULP energy -156307.979461 kJ/mol
# GULP energy per Si atom -5582.427838 kJ/mol
# Density = 1.748036 g / cm^3
# Si number density = 17.520235 Si / 1000 Ang^3
#
#
#
# Elastic Constant Matrix: (Units=GPa)
#
#
# Indices 1 2 3 4 5 6 
#
# 1 73.7642 76.1069 66.2692 0.0000 42.2285 0.0000
# 2 76.1069 146.0987 76.4464 0.0000 26.5006 0.0000
# 3 66.2692 76.4464 83.2806 0.0000 23.8632 0.0000
# 4 0.0000 0.0000 0.0000 31.8669 0.0000 9.5257
# 5 42.2285 26.5006 23.8632 0.0000 25.2067 0.0000
# 6 0.0000 0.0000 0.0000 9.5257 0.0000 20.5996
#
#
#
# Elastic Compliance Matrix: (Units=1/GPa)
#
#
# Indices 1 2 3 4 5 6 
#
# 1 -0.104519 0.013225 0.034087 0.000000 0.128925 0.000000
# 2 0.013225 0.011700 -0.015630 0.000000 -0.019659 0.000000
# 3 0.034087 -0.015630 0.014937 0.000000 -0.054815 0.000000
# 4 0.000000 0.000000 0.000000 0.036414 0.000000 -0.016839
# 5 0.128925 -0.019659 -0.054815 0.000000 -0.103753 0.000000
# 6 0.000000 0.000000 0.000000 -0.016839 0.000000 0.056331
#
#
# Mechanical properties :
#
#
# Convention : Reuss Voigt Hill
#
# Bulk Modulus (GPa) = -68.88212 82.30983 6.71385
# Shear Modulus (GPa) = -31.82805 21.15605 -5.33600
#
# Velocity S-wave (km/s) = -4.26684 3.47871 -1.74706
# Velocity P-wave (km/s) = 7.97970 7.95092 0.47882
#
# Compressibility (1/GPa) = -0.01451756
#
# Stress axis : x y z
#
# Youngs Moduli (GPa) = -9.56760 85.47137 66.94592
#
# Poissons Ratio (x) = -1.13038 -2.28201
# Poissons Ratio (y) = 0.12653 1.04639
# Poissons Ratio (z) = 0.32613 1.33595
#
# Static dielectric constant tensor:
#      x y z
#    x 1.573830 0.000000 -0.023750 
#    y 0.000000 1.593860 0.000000 
#    z -0.023750 0.000000 1.590320 
# 
# From -- ./inp_files/280875.got.cif
#   From: 2010.05.17/outbox.cif.g08.bks.cpg/sg12_141_cif.got.tgz:280875.got - 2010.06.03 13:09:07.
