data_PCOD9191831
_publ_section_title
;
Structure prediction by ZEFSAII (Michael W. Deem and Ramdas Pophale) SiO2 
 PCOD9191831
Probable space group: C 2/M
;
_chemical_formula_sum "Si O2"
_cell_formula_units_Z 64
_cell_length_a 29.241356
_cell_length_b 7.927082
_cell_length_c 19.660751
_cell_angle_alpha 90.000000
_cell_angle_beta 40.745998
_cell_angle_gamma 90.000000
_cell_volume 2974.603765
_symmetry_space_group_name_H-M "C 2/M"
_symmetry_group_IT_number 12
_symmetry_cell_setting 'monoclinic'
loop_
_space_group_symop_operation_xyz
x,y,z
-x,y,-z
-x,-y,-z
x,-y,z
1/2+x,1/2+y,z
1/2-x,1/2+y,-z
1/2-x,1/2-y,-z
1/2+x,1/2-y,z
loop_
_atom_site_type_symbol
_atom_site_label
_atom_site_fract_x
_atom_site_fract_y
_atom_site_fract_z
Si Si1 0.629916 0.695827 0.441902
Si Si2 0.050704 0.301488 0.658452
Si Si3 0.826408 0.705636 0.836593
Si Si4 0.900601 0.199336 0.882685
Si Si5 0.436137 0.192020 0.610711
Si Si6 0.213695 0.701847 0.716815
Si Si7 0.694683 0.702595 0.894433
Si Si8 0.674683 0.795983 0.616849
O O1 0.633190 0.500000 0.417460
O O2 0.568441 0.720401 0.565656
O O3 0.620308 0.808191 0.386150
O O4 0.704646 0.742867 0.389319
O O5 0.062147 0.500000 0.635716
O O6 0.109492 0.235522 0.644929
O O7 0.972682 0.277151 0.774515
O O8 0.826304 0.500000 0.837113
O O9 0.837025 0.767486 0.901096
O O10 0.897499 0.765645 0.718560
O O11 0.762215 0.763978 0.861800
O O12 0.912213 0.000000 0.872970
O O13 0.873258 0.261913 0.986667
O O14 0.500000 0.280007 0.500000
O O15 0.457699 0.000000 0.604173
O O16 0.207533 0.500000 0.723584
O O17 0.195972 0.755686 0.813420
O O18 0.171857 0.766432 0.698260
O O19 0.696354 0.500000 0.897660
O O20 0.750000 0.750000 0.500000
O O21 0.671012 0.000000 0.622145
#
# Coordination Sequence:
#
# PCOD9191831 Si02
#       8
#     8   8   8   8   8   8   8   8
#     4  11  21  34  56  85 118 150 185 236 291 342
#     4  11  23  39  61  86 117 158 196 234 292 356
#     4  10  20  36  58  84 117 154 198 242 285 347
#     4  11  24  40  59  85 118 153 198 250 293 338
#     4  10  20  33  51  78 115 156 193 231 282 347
#     4  10  21  37  59  89 119 147 187 240 291 342
#     4  10  22  40  61  86 116 157 201 241 289 344
#     4  10  21  38  61  90 120 151 191 236 288 351
#
# _framework density 21.515473
#
# number of rings (size 3 to 8) (size 9 to 14) (size 15 to 20)
#    0.000    1.625    2.500    2.250    0.000    4.750 
#    0.000    0.625    0.000    3.750    0.000    0.000 
#    0.000    0.000    0.000    0.000    0.000    0.000 
#
# Total GULP energy -178664.170148 kJ/mol
# GULP energy per Si atom -5583.255317 kJ/mol
# Density = 2.146650 g / cm^3
# Si number density = 21.515473 Si / 1000 Ang^3
#
#
#
# Elastic Constant Matrix: (Units=GPa)
#
#
# Indices 1 2 3 4 5 6 
#
# 1 94.3589 -4.2663 30.6051 -0.0056 17.1976 0.0062
# 2 -4.2663 24.4630 -5.1009 -0.0061 -1.5509 0.0028
# 3 30.6051 -5.1009 126.1772 -0.0078 22.4389 0.0042
# 4 -0.0056 -0.0061 -0.0078 19.2839 0.0032 3.8606
# 5 17.1976 -1.5509 22.4389 0.0032 32.0470 -0.0043
# 6 0.0062 0.0028 0.0042 3.8606 -0.0043 19.1151
#
#
#
# Elastic Compliance Matrix: (Units=1/GPa)
#
#
# Indices 1 2 3 4 5 6 
#
# 1 0.012240 0.001393 -0.002006 0.000005 -0.005096 -0.000006
# 2 0.001393 0.041409 0.001271 0.000016 0.000366 -0.000010
# 3 -0.002006 0.001271 0.009436 0.000005 -0.005469 -0.000004
# 4 0.000005 0.000016 0.000005 0.054042 -0.000013 -0.010915
# 5 -0.005096 0.000366 -0.005469 -0.000013 0.037786 0.000014
# 6 -0.000006 -0.000010 -0.000004 -0.010915 0.000014 0.054519
#
#
# Mechanical properties :
#
#
# Convention : Reuss Voigt Hill
#
# Bulk Modulus (GPa) = 15.52765 31.94168 23.73467
# Shear Modulus (GPa) = 21.77854 29.00662 25.39258
#
# Velocity S-wave (km/s) = 3.18500 3.67573 3.43913
# Velocity P-wave (km/s) = 4.55613 5.73523 5.17934
#
# Compressibility (1/GPa) = 0.06440123
#
# Stress axis : x y z
#
# Youngs Moduli (GPa) = 81.69640 24.14922 105.97787
#
# Poissons Ratio (x) = -0.03365 0.21263
# Poissons Ratio (y) = -0.11382 -0.13469
# Poissons Ratio (z) = 0.16391 -0.03069
#
# Static dielectric constant tensor:
#      x y z
#    x 1.824490 -0.000010 -0.012340 
#    y -0.000010 1.795450 0.000000 
#    z -0.012340 0.000000 1.798710 
# 
# From -- ./inp_files/295634.got.cif
#   From: 2010.05.17/outbox.cif.g08.bks.cpg/sg12_148_cif.got.tgz:295634.got - 2010.06.03 13:09:07.
