data_PCOD9191533
_publ_section_title
;
Structure prediction by ZEFSAII (Michael W. Deem and Ramdas Pophale) SiO2 
 PCOD9191533
Probable space group: C 2/M
;
_chemical_formula_sum "Si O2"
_cell_formula_units_Z 64
_cell_length_a 29.648077
_cell_length_b 7.512856
_cell_length_c 13.269291
_cell_angle_alpha 90.000000
_cell_angle_beta 103.630529
_cell_angle_gamma 90.000000
_cell_volume 2872.381390
_symmetry_space_group_name_H-M "C 2/M"
_symmetry_group_IT_number 12
_symmetry_cell_setting 'monoclinic'
loop_
_space_group_symop_operation_xyz
x,y,z
-x,y,-z
-x,-y,-z
x,-y,z
1/2+x,1/2+y,z
1/2-x,1/2+y,-z
1/2-x,1/2-y,-z
1/2+x,1/2-y,z
loop_
_atom_site_type_symbol
_atom_site_label
_atom_site_fract_x
_atom_site_fract_y
_atom_site_fract_z
Si Si1 0.046418 0.782708 0.343005
Si Si2 0.698394 0.303284 0.999686
Si Si3 0.116595 0.789838 0.549622
Si Si4 0.691880 0.703554 0.236663
Si Si5 0.096866 0.780970 0.936382
Si Si6 0.556747 0.717258 0.704188
Si Si7 0.089567 0.781842 0.161736
Si Si8 0.724825 0.789339 0.591907
O O1 0.087298 0.720038 0.438701
O O2 0.054696 0.728402 0.231346
O O3 0.995382 0.729759 0.352469
O O4 0.047489 0.000000 0.342813
O O5 0.693838 0.500000 0.953636
O O6 0.696983 0.305774 0.119712
O O7 0.750000 0.250000 0.000000
O O8 0.649749 0.214105 0.945583
O O9 0.094575 0.720643 0.642507
O O10 0.171846 0.772104 0.569039
O O11 0.107368 0.000000 0.545829
O O12 0.689127 0.500000 0.275312
O O13 0.640744 0.780934 0.224955
O O14 0.738183 0.785009 0.307709
O O15 0.067374 0.726847 0.824338
O O16 0.097367 0.000000 0.939747
O O17 0.081764 0.726198 0.041549
O O18 0.558017 0.500000 0.706317
O O19 0.090918 0.000000 0.159806
O O20 0.750000 0.750000 0.500000
O O21 0.721295 0.000000 0.605430
#
# Coordination Sequence:
#
# PCOD9191533 Si02
#       8
#     8   8   8   8   8   8   8   8
#     4   9  16  27  46  69  93 130 173 208 250 302
#     4   9  17  29  46  67  94 129 162 194 239 294
#     4  10  20  33  50  73 103 134 166 207 254 302
#     4   8  16  30  46  67  97 130 159 193 245 302
#     4   8  15  26  40  64  96 126 158 204 253 289
#     4   9  17  28  44  69 100 130 165 210 253 295
#     4   8  13  24  42  63  92 127 162 201 246 296
#     4  11  22  36  54  76 102 133 170 209 250 300
#
# _framework density 22.281165999999999
#
# number of rings (size 3 to 8) (size 9 to 14) (size 15 to 20)
#    0.000    3.000    0.000    3.000    1.750    4.000 
#    0.000    3.125    0.000    1.500    0.000    0.000 
#    0.000    0.000    0.000    8.375    0.000    8.000 
#
# Total GULP energy -178330.135084 kJ/mol
# GULP energy per Si atom -5572.816721 kJ/mol
# Density = 2.223045 g / cm^3
# Si number density = 22.281166 Si / 1000 Ang^3
#
#
#
# Elastic Constant Matrix: (Units=GPa)
#
#
# Indices 1 2 3 4 5 6 
#
# 1 135.3936 -6.2918 51.4108 0.0000 -11.2977 0.0000
# 2 -6.2918 50.4912 0.6673 0.0000 -1.7727 0.0000
# 3 51.4108 0.6673 103.8741 0.0000 7.4342 0.0000
# 4 0.0000 0.0000 0.0000 -1.6782 0.0000 3.8312
# 5 -11.2977 -1.7727 7.4342 0.0000 26.0627 0.0000
# 6 0.0000 0.0000 0.0000 3.8312 0.0000 11.3635
#
#
#
# Elastic Compliance Matrix: (Units=1/GPa)
#
#
# Indices 1 2 3 4 5 6 
#
# 1 0.010001 0.001527 -0.005387 0.000000 0.005976 0.000000
# 2 0.001527 0.020091 -0.001052 0.000000 0.002329 0.000000
# 3 -0.005387 -0.001052 0.012732 0.000000 -0.006039 0.000000
# 4 0.000000 0.000000 0.000000 -0.336713 0.000000 0.113522
# 5 0.005976 0.002329 -0.006039 0.000000 0.042840 0.000000
# 6 0.000000 0.000000 0.000000 0.113522 0.000000 0.049728
#
#
# Mechanical properties :
#
#
# Convention : Reuss Voigt Hill
#
# Bulk Modulus (GPa) = 30.30172 42.37016 36.33594
# Shear Modulus (GPa) = -27.70143 23.41444 -2.14350
#
# Velocity S-wave (km/s) = -3.52982 3.24522 -0.98189
# Velocity P-wave (km/s) = 1.72732 5.75320 3.88044
#
# Compressibility (1/GPa) = 0.03300142
#
# Stress axis : x y z
#
# Youngs Moduli (GPa) = 99.98826 49.77259 78.53988
#
# Poissons Ratio (x) = -0.07602 0.42313
# Poissons Ratio (y) = -0.15271 0.08259
# Poissons Ratio (z) = 0.53868 0.05234
#
# Static dielectric constant tensor:
#      x y z
#    x 1.846510 0.000000 0.007690 
#    y 0.000000 1.914140 0.000000 
#    z 0.007690 0.000000 1.825640 
# 
# From -- ./inp_files/239681.got.cif
#   From: 2010.05.17/outbox.cif.g08.bks.cpg/sg12_120_cif.got.tgz:239681.got - 2010.06.03 13:09:07.
