data_PCOD9191380
_publ_section_title
;
Structure prediction by ZEFSAII (Michael W. Deem and Ramdas Pophale) SiO2 
 PCOD9191380
Probable space group: C 2/M
;
_chemical_formula_sum "Si O2"
_cell_formula_units_Z 56
_cell_length_a 19.608492
_cell_length_b 7.686268
_cell_length_c 26.957325
_cell_angle_alpha 90.000000
_cell_angle_beta 140.188930
_cell_angle_gamma 90.000000
_cell_volume 2601.307015
_symmetry_space_group_name_H-M "C 2/M"
_symmetry_group_IT_number 12
_symmetry_cell_setting 'monoclinic'
loop_
_space_group_symop_operation_xyz
x,y,z
-x,y,-z
-x,-y,-z
x,-y,z
1/2+x,1/2+y,z
1/2-x,1/2+y,-z
1/2-x,1/2-y,-z
1/2+x,1/2-y,z
loop_
_atom_site_type_symbol
_atom_site_label
_atom_site_fract_x
_atom_site_fract_y
_atom_site_fract_z
Si Si1 0.919699 0.201841 0.496822
Si Si2 0.449486 0.708488 0.743653
Si Si3 0.888380 0.787213 0.915500
Si Si4 0.793506 0.195009 0.577625
Si Si5 0.660387 0.791053 0.816401
Si Si6 0.322467 0.287931 0.768120
Si Si7 0.408087 0.789411 0.331446
O O1 0.807998 0.295533 0.442244
O O2 0.000000 0.273655 0.500000
O O3 0.986849 0.215221 0.585070
O O4 0.897813 0.000000 0.473313
O O5 0.433450 0.500000 0.734995
O O6 0.389506 0.784012 0.661309
O O7 0.574950 0.739428 0.809628
O O8 0.391716 0.775170 0.760723
O O9 0.782862 0.731751 0.886843
O O10 0.869255 0.734866 0.847683
O O11 0.890083 0.000000 0.916932
O O12 0.000000 0.726647 0.000000
O O13 0.750000 0.250000 0.500000
O O14 0.828836 0.000000 0.588753
O O15 0.614219 0.732437 0.737198
O O16 0.663217 0.000000 0.816456
O O17 0.323161 0.500000 0.768536
O O18 0.197988 0.237735 0.697216
O O19 0.416479 0.000000 0.336850
#
# Coordination Sequence:
#
# PCOD9191380 Si02
#       7
#     8   8   8   8   8   8   8
#     4  11  23  35  48  71 101 130 165 212 260 301
#     4  10  20  33  49  70  98 131 163 198 243 296
#     4   8  14  28  52  78 100 124 158 198 235 276
#     4  11  23  37  53  72  97 133 174 214 258 303
#     4   9  18  31  50  75  98 123 158 200 241 284
#     4   8  15  29  49  72  96 126 166 203 237 285
#     4   9  17  32  52  69  89 124 170 212 246 287
#
# _framework density 21.527639000000001
#
# number of rings (size 3 to 8) (size 9 to 14) (size 15 to 20)
#    0.000    2.571    0.000    4.286    0.000    6.286 
#    0.000    1.429    0.000    1.286    0.000    0.000 
#    0.000    0.000    0.000    0.000    0.000    0.000 
#
# Total GULP energy -156300.824245 kJ/mol
# GULP energy per Si atom -5582.172294 kJ/mol
# Density = 2.147864 g / cm^3
# Si number density = 21.527639 Si / 1000 Ang^3
#
#
#
# Elastic Constant Matrix: (Units=GPa)
#
#
# Indices 1 2 3 4 5 6 
#
# 1 120.6928 -1.2523 30.2714 0.0000 26.9192 0.0000
# 2 -1.2523 34.3130 -1.2438 0.0000 -4.1028 -0.0001
# 3 30.2714 -1.2438 102.6037 0.0000 27.8407 0.0000
# 4 0.0000 0.0000 0.0000 9.5543 0.0000 4.4828
# 5 26.9192 -4.1028 27.8407 0.0000 26.3833 0.0000
# 6 0.0000 -0.0001 0.0000 4.4828 0.0000 20.8198
#
#
#
# Elastic Compliance Matrix: (Units=1/GPa)
#
#
# Indices 1 2 3 4 5 6 
#
# 1 0.010760 -0.000916 -0.000235 0.000000 -0.010873 0.000000
# 2 -0.000916 0.029889 -0.001236 0.000000 0.006887 0.000000
# 3 -0.000235 -0.001236 0.013715 0.000000 -0.014424 0.000000
# 4 0.000000 0.000000 0.000000 0.116427 0.000000 -0.025069
# 5 -0.010873 0.006887 -0.014424 0.000000 0.065288 0.000000
# 6 0.000000 0.000000 0.000000 -0.025069 0.000000 0.053429
#
#
# Mechanical properties :
#
#
# Convention : Reuss Voigt Hill
#
# Bulk Modulus (GPa) = 20.16603 34.79555 27.48079
# Shear Modulus (GPa) = 16.08691 26.67376 21.38033
#
# Velocity S-wave (km/s) = 2.73659 3.52383 3.15486
# Velocity P-wave (km/s) = 4.40148 5.72318 5.10528
#
# Compressibility (1/GPa) = 0.04958834
#
# Stress axis : x y z
#
# Youngs Moduli (GPa) = 92.93616 33.45747 72.91494
#
# Poissons Ratio (x) = 0.03064 0.01717
# Poissons Ratio (y) = 0.08512 0.09013
# Poissons Ratio (z) = 0.02188 0.04136
#
# Static dielectric constant tensor:
#      x y z
#    x 1.814370 0.000000 -0.011780 
#    y 0.000000 1.803500 0.000000 
#    z -0.011780 0.000000 1.776410 
# 
# From -- ./inp_files/342573.got.cif
#   From: 2010.05.17/outbox.cif.g08.bks.cpg/sg12_172_cif.got.tgz:342573.got - 2010.06.03 13:09:07.
