data_PCOD9191019
_publ_section_title
;
Structure prediction by ZEFSAII (Michael W. Deem and Ramdas Pophale) SiO2 
 PCOD9191019
Probable space group: C 2/M
;
_chemical_formula_sum "Si O2"
_cell_formula_units_Z 56
_cell_length_a 18.667480
_cell_length_b 19.119010
_cell_length_c 7.484185
_cell_angle_alpha 90.000000
_cell_angle_beta 84.335873
_cell_angle_gamma 90.000000
_cell_volume 2658.091942
_symmetry_space_group_name_H-M "C 2/M"
_symmetry_group_IT_number 12
_symmetry_cell_setting 'monoclinic'
loop_
_space_group_symop_operation_xyz
x,y,z
-x,y,-z
-x,-y,-z
x,-y,z
1/2+x,1/2+y,z
1/2-x,1/2+y,-z
1/2-x,1/2-y,-z
1/2+x,1/2-y,z
loop_
_atom_site_type_symbol
_atom_site_label
_atom_site_fract_x
_atom_site_fract_y
_atom_site_fract_z
Si Si1 0.475268 0.709369 0.212570
Si Si2 0.246890 0.421880 0.678892
Si Si3 0.205614 0.271982 0.231967
Si Si4 0.776965 0.575837 0.887699
Si Si5 0.119553 0.147767 0.230923
Si Si6 0.611868 0.422611 0.862720
Si Si7 0.344059 0.788664 0.362994
O O1 0.546959 0.687679 0.301480
O O2 0.425744 0.640367 0.228643
O O3 0.425407 0.773325 0.286488
O O4 0.500000 0.720728 0.000000
O O5 0.241314 0.500000 0.606958
O O6 0.327926 0.391193 0.643021
O O7 0.187361 0.367512 0.626304
O O8 0.234729 0.425051 0.896093
O O9 0.189304 0.349462 0.168450
O O10 0.170291 0.208511 0.131851
O O11 0.288735 0.253144 0.247712
O O12 0.169493 0.262489 0.434360
O O13 0.810816 0.500000 0.832275
O O14 0.697926 0.577783 0.818401
O O15 0.099876 0.093897 0.077224
O O16 0.584700 0.500000 0.825430
#
# Coordination Sequence:
#
# PCOD9191019 Si02
#       7
#     8   8   8   8   8   8   8
#     4  10  20  32  51  82 110 148 178 225 268 325
#     4   9  19  34  56  83 109 142 186 233 270 317
#     4  10  20  34  53  78 105 148 182 232 267 320
#     4   9  17  30  53  80 106 135 177 227 272 314
#     4   9  19  30  51  78 108 140 177 221 267 320
#     4   9  17  30  50  80 111 142 179 218 259 320
#     4  10  21  35  53  78 111 143 190 224 273 324
#
# _framework density 21.067744000000001
#
# number of rings (size 3 to 8) (size 9 to 14) (size 15 to 20)
#    0.000    2.571    1.429    1.286    4.000    6.000 
#    0.000    0.000    0.000    2.143    0.000   14.000 
#    0.000    0.000    0.000    0.000    0.000    0.000 
#
# Total GULP energy -156217.158393 kJ/mol
# GULP energy per Si atom -5579.184228 kJ/mol
# Density = 2.101979 g / cm^3
# Si number density = 21.067744 Si / 1000 Ang^3
#
#
#
# Elastic Constant Matrix: (Units=GPa)
#
#
# Indices 1 2 3 4 5 6 
#
# 1 72.7281 36.1108 6.9651 0.0000 -6.2411 0.0000
# 2 36.1108 143.7182 3.0459 0.0000 -1.1081 0.0000
# 3 6.9651 3.0459 48.6658 0.0000 -5.9599 0.0000
# 4 0.0000 0.0000 0.0000 10.3394 0.0000 3.2859
# 5 -6.2411 -1.1081 -5.9599 0.0000 18.1716 0.0000
# 6 0.0000 0.0000 0.0000 3.2859 0.0000 26.9265
#
#
#
# Elastic Compliance Matrix: (Units=1/GPa)
#
#
# Indices 1 2 3 4 5 6 
#
# 1 0.016311 -0.004029 -0.001486 0.000000 0.004869 0.000000
# 2 -0.004029 0.007964 -0.000033 0.000000 -0.000909 0.000000
# 3 -0.001486 -0.000033 0.021567 0.000000 0.006561 0.000000
# 4 0.000000 0.000000 0.000000 0.100620 0.000000 -0.012279
# 5 0.004869 -0.000909 0.006561 0.000000 0.058800 0.000000
# 6 0.000000 0.000000 0.000000 -0.012279 0.000000 0.038637
#
#
# Mechanical properties :
#
#
# Convention : Reuss Voigt Hill
#
# Bulk Modulus (GPa) = 28.78134 39.70620 34.24377
# Shear Modulus (GPa) = 18.75641 25.68684 22.22162
#
# Velocity S-wave (km/s) = 2.98701 3.49556 3.25125
# Velocity P-wave (km/s) = 5.05839 5.93125 5.51213
#
# Compressibility (1/GPa) = 0.03474474
#
# Stress axis : x y z
#
# Youngs Moduli (GPa) = 61.31008 125.56298 46.36813
#
# Poissons Ratio (x) = 0.50592 0.06890
# Poissons Ratio (y) = 0.24703 0.00154
# Poissons Ratio (z) = 0.09110 0.00416
#
# Static dielectric constant tensor:
#      x y z
#    x 1.780760 0.000000 0.000340 
#    y 0.000000 1.792590 0.000000 
#    z 0.000340 0.000000 1.806420 
# 
# From -- ./inp_files/75878.got.cif
#   From: 2010.05.17/outbox.cif.g08.bks.cpg/sg12_38_cif.got.tgz:75878.got - 2010.06.03 13:09:07.
