data_PCOD9191258
_publ_section_title
;
Structure prediction by ZEFSAII (Michael W. Deem and Ramdas Pophale) SiO2 
 PCOD9191258
Probable space group: C 2/M
;
_chemical_formula_sum "Si O2"
_cell_formula_units_Z 56
_cell_length_a 13.849222
_cell_length_b 28.419267
_cell_length_c 7.239683
_cell_angle_alpha 90.000000
_cell_angle_beta 66.581204
_cell_angle_gamma 90.000000
_cell_volume 2614.705023
_symmetry_space_group_name_H-M "C 2/M"
_symmetry_group_IT_number 12
_symmetry_cell_setting 'monoclinic'
loop_
_space_group_symop_operation_xyz
x,y,z
-x,y,-z
-x,-y,-z
x,-y,z
1/2+x,1/2+y,z
1/2-x,1/2+y,-z
1/2-x,1/2-y,-z
1/2+x,1/2-y,z
loop_
_atom_site_type_symbol
_atom_site_label
_atom_site_fract_x
_atom_site_fract_y
_atom_site_fract_z
Si Si1 0.545757 0.704957 0.762999
Si Si2 0.186916 0.447083 0.546397
Si Si3 0.914019 0.879620 0.691925
Si Si4 0.260150 0.347957 0.493343
Si Si5 0.747364 0.552662 0.065738
Si Si6 0.470346 0.809291 0.239684
Si Si7 0.966266 0.407135 0.806965
O O1 0.481064 0.662616 0.723087
O O2 0.667583 0.688647 0.672429
O O3 0.526072 0.756181 0.689494
O O4 0.500000 0.708451 0.000000
O O5 0.206525 0.500000 0.460844
O O6 0.244424 0.400596 0.422685
O O7 0.222441 0.447389 0.736809
O O8 0.062435 0.434935 0.640389
O O9 0.825228 0.856403 0.631489
O O10 0.850948 0.912588 0.878765
O O11 0.000000 0.906956 0.500000
O O12 0.147463 0.327701 0.634804
O O13 0.719219 0.500000 0.035161
O O14 0.853787 0.568575 0.883999
O O15 0.540318 0.853086 0.257543
O O16 0.500000 0.806403 0.000000
O O17 0.000000 0.405512 0.000000
#
# Coordination Sequence:
#
# PCOD9191258 Si02
#       7
#     8   8   8   8   8   8   8
#     4  10  20  33  47  65  92 126 161 191 220 263
#     4   8  13  22  41  69  94 115 141 180 231 279
#     4   9  18  31  46  66  93 120 151 191 227 263
#     4   9  17  31  50  70  95 120 149 190 230 270
#     4   9  15  24  41  65  92 119 145 180 229 277
#     4   9  16  28  47  70  94 121 150 184 233 278
#     4   8  13  22  38  65  97 117 137 178 232 284
#
# _framework density 21.417328999999999
#
# number of rings (size 3 to 8) (size 9 to 14) (size 15 to 20)
#    0.000    3.143    0.000    3.429    0.000    2.000 
#    0.000    8.571    0.000    1.714    0.000    5.000 
#    0.000    5.714    0.000    0.429    0.000    0.000 
#
# Total GULP energy -156080.856906 kJ/mol
# GULP energy per Si atom -5574.316318 kJ/mol
# Density = 2.136858 g / cm^3
# Si number density = 21.417329 Si / 1000 Ang^3
#
#
#
# Elastic Constant Matrix: (Units=GPa)
#
#
# Indices 1 2 3 4 5 6 
#
# 1 43.1170 24.2262 12.2279 0.0000 -12.7547 0.0000
# 2 24.2262 154.6763 22.3400 0.0000 -20.0709 0.0000
# 3 12.2279 22.3400 55.4862 0.0000 -9.1189 0.0000
# 4 0.0000 0.0000 0.0000 21.3083 0.0000 -22.4205
# 5 -12.7547 -20.0709 -9.1189 0.0000 27.9887 0.0000
# 6 0.0000 0.0000 0.0000 -22.4205 0.0000 39.3679
#
#
#
# Elastic Compliance Matrix: (Units=1/GPa)
#
#
# Indices 1 2 3 4 5 6 
#
# 1 0.028667 -0.002676 -0.003601 0.000000 0.009972 0.000000
# 2 -0.002676 0.007628 -0.001884 0.000000 0.003637 0.000000
# 3 -0.003601 -0.001884 0.020162 0.000000 0.003577 0.000000
# 4 0.000000 0.000000 0.000000 0.117101 0.000000 0.066690
# 5 0.009972 0.003637 0.003577 0.000000 0.044047 0.000000
# 6 0.000000 0.000000 0.000000 0.066690 0.000000 0.063382
#
#
# Mechanical properties :
#
#
# Convention : Reuss Voigt Hill
#
# Bulk Modulus (GPa) = 24.91547 41.20752 33.06149
# Shear Modulus (GPa) = 16.09326 30.69868 23.39597
#
# Velocity S-wave (km/s) = 2.74417 3.79008 3.30871
# Velocity P-wave (km/s) = 4.65824 6.19959 5.48334
#
# Compressibility (1/GPa) = 0.04013571
#
# Stress axis : x y z
#
# Youngs Moduli (GPa) = 34.88285 131.09134 49.59703
#
# Poissons Ratio (x) = 0.35079 0.17862
# Poissons Ratio (y) = 0.09334 0.09343
# Poissons Ratio (z) = 0.12563 0.24696
#
# Static dielectric constant tensor:
#      x y z
#    x 1.772190 0.000000 0.063940 
#    y 0.000000 1.829240 0.000000 
#    z 0.063940 0.000000 1.877960 
# 
# From -- ./inp_files/66857.got.cif
#   From: 2010.05.17/outbox.cif.g08.bks.cpg/sg12_34_cif.got.tgz:66857.got - 2010.06.03 13:09:07.
