data_PCOD9191726
_publ_section_title
;
Structure prediction by ZEFSAII (Michael W. Deem and Ramdas Pophale) SiO2 
 PCOD9191726
Probable space group: C 2/M
;
_chemical_formula_sum "Si O2"
_cell_formula_units_Z 56
_cell_length_a 14.408573
_cell_length_b 9.177177
_cell_length_c 26.829585
_cell_angle_alpha 90.000000
_cell_angle_beta 123.301984
_cell_angle_gamma 90.000000
_cell_volume 2965.106844
_symmetry_space_group_name_H-M "C 2/M"
_symmetry_group_IT_number 12
_symmetry_cell_setting 'monoclinic'
loop_
_space_group_symop_operation_xyz
x,y,z
-x,y,-z
-x,-y,-z
x,-y,z
1/2+x,1/2+y,z
1/2-x,1/2+y,-z
1/2-x,1/2-y,-z
1/2+x,1/2-y,z
loop_
_atom_site_type_symbol
_atom_site_label
_atom_site_fract_x
_atom_site_fract_y
_atom_site_fract_z
Si Si1 0.663561 0.325624 0.326472
Si Si2 0.436297 0.175301 0.227156
Si Si3 0.516334 0.330855 0.424829
Si Si4 0.596233 0.325085 0.990394
Si Si5 0.185483 0.170447 0.553622
Si Si6 0.651413 0.174955 0.906734
Si Si7 0.858925 0.327041 0.307705
O O1 0.653452 0.500000 0.326699
O O2 0.549533 0.252143 0.276679
O O3 0.716472 0.262967 0.393069
O O4 0.752611 0.287118 0.309266
O O5 0.393833 0.221043 0.160448
O O6 0.351098 0.208305 0.247094
O O7 0.452192 0.000000 0.230836
O O8 0.534202 0.500000 0.417583
O O9 0.415897 0.325655 0.435898
O O10 0.626479 0.275487 0.485485
O O11 0.467367 0.246216 0.363748
O O12 0.589744 0.500000 0.982324
O O13 0.589687 0.250046 0.934680
O O14 0.500000 0.279704 0.000000
O O15 0.717863 0.290163 0.048538
O O16 0.216696 0.000000 0.557231
O O17 0.640481 0.000000 0.907355
O O18 0.872495 0.500000 0.316629
#
# Coordination Sequence:
#
# PCOD9191726 Si02
#       7
#     8   8   8   8   8   8   8
#     4  10  20  33  51  76 101 129 172 222 262 301
#     4  10  21  37  53  71 103 144 175 202 248 307
#     4   8  14  26  47  72  96 126 167 212 259 313
#     4   9  18  34  58  85 110 137 168 205 250 295
#     4   8  14  27  47  70  97 130 165 207 264 320
#     4   9  19  35  54  78 108 140 173 207 244 293
#     4   9  19  34  51  72 100 133 169 213 263 309
#
# _framework density 18.886336
#
# number of rings (size 3 to 8) (size 9 to 14) (size 15 to 20)
#    0.000    3.000    0.000    1.286    0.000    3.714 
#    0.000    6.429    0.000    0.000    0.000    0.000 
#    0.000    0.000    0.000    0.000    0.000    0.000 
#
# Total GULP energy -156172.142263 kJ/mol
# GULP energy per Si atom -5577.576509 kJ/mol
# Density = 1.884335 g / cm^3
# Si number density = 18.886336 Si / 1000 Ang^3
#
#
#
# Elastic Constant Matrix: (Units=GPa)
#
#
# Indices 1 2 3 4 5 6 
#
# 1 83.2502 15.5496 32.0122 0.0000 -15.3084 0.0000
# 2 15.5496 6.4278 17.8719 0.0000 -4.1733 0.0000
# 3 32.0122 17.8719 99.9657 0.0000 -24.8003 0.0000
# 4 0.0000 0.0000 0.0000 29.3259 0.0000 -4.0260
# 5 -15.3084 -4.1733 -24.8003 0.0000 24.9137 0.0000
# 6 0.0000 0.0000 0.0000 -4.0260 0.0000 9.7127
#
#
#
# Elastic Compliance Matrix: (Units=1/GPa)
#
#
# Indices 1 2 3 4 5 6 
#
# 1 0.025267 -0.077691 0.008527 0.000000 0.011000 0.000000
# 2 -0.077691 0.548577 -0.082654 0.000000 -0.038123 0.000000
# 3 0.008527 -0.082654 0.026446 0.000000 0.017720 0.000000
# 4 0.000000 0.000000 0.000000 0.036157 0.000000 0.014987
# 5 0.011000 -0.038123 0.017720 0.000000 0.058150 0.000000
# 6 0.000000 0.000000 0.000000 0.014987 0.000000 0.109170
#
#
# Mechanical properties :
#
#
# Convention : Reuss Voigt Hill
#
# Bulk Modulus (GPa) = 3.37093 35.61235 19.49164
# Shear Modulus (GPa) = 4.14495 21.07113 12.60804
#
# Velocity S-wave (km/s) = 1.48305 3.34380 2.58655
# Velocity P-wave (km/s) = 2.17286 5.81422 4.38899
#
# Compressibility (1/GPa) = 0.29665435
#
# Stress axis : x y z
#
# Youngs Moduli (GPa) = 39.57738 1.82290 37.81356
#
# Poissons Ratio (x) = 0.14162 -0.32245
# Poissons Ratio (y) = 3.07482 3.12542
# Poissons Ratio (z) = -0.33749 0.15067
#
# Static dielectric constant tensor:
#      x y z
#    x 1.701490 0.000000 -0.017770 
#    y 0.000000 1.627170 0.000000 
#    z -0.017770 0.000000 1.635570 
# 
# From -- ./inp_files/313305.got.cif
#   From: 2010.05.17/outbox.cif.g08.bks.cpg/sg12_157_cif.got.tgz:313305.got - 2010.06.03 13:09:07.
