data_PCOD9191282
_publ_section_title
;
Structure prediction by ZEFSAII (Michael W. Deem and Ramdas Pophale) SiO2 
 PCOD9191282
Probable space group: C 2/M
;
_chemical_formula_sum "Si O2"
_cell_formula_units_Z 40
_cell_length_a 18.671933
_cell_length_b 7.435538
_cell_length_c 27.061648
_cell_angle_alpha 90.000000
_cell_angle_beta 30.415511
_cell_angle_gamma 90.000000
_cell_volume 1902.110518
_symmetry_space_group_name_H-M "C 2/M"
_symmetry_group_IT_number 12
_symmetry_cell_setting 'monoclinic'
loop_
_space_group_symop_operation_xyz
x,y,z
-x,y,-z
-x,-y,-z
x,-y,z
1/2+x,1/2+y,z
1/2-x,1/2+y,-z
1/2-x,1/2-y,-z
1/2+x,1/2-y,z
loop_
_atom_site_type_symbol
_atom_site_label
_atom_site_fract_x
_atom_site_fract_y
_atom_site_fract_z
Si Si1 0.101762 0.285562 0.288913
Si Si2 0.923804 0.779603 0.095771
Si Si3 0.165992 0.714862 0.498938
Si Si4 0.083382 0.215140 0.098891
Si Si5 0.935123 0.216726 0.286442
O O1 0.109767 0.500000 0.291541
O O2 0.261414 0.217686 0.195051
O O3 0.991184 0.214861 0.395960
O O4 0.031575 0.257211 0.276876
O O5 0.010639 0.719471 0.092008
O O6 0.922911 0.000000 0.095886
O O7 0.000000 0.723114 0.000000
O O8 0.154015 0.500000 0.499186
O O9 0.250000 0.750000 0.500000
O O10 0.275104 0.782843 0.392611
O O11 0.007249 0.284791 0.193646
O O12 0.065288 0.000000 0.110027
O O13 0.250000 0.250000 0.000000
O O14 0.927469 0.000000 0.288063
#
# Coordination Sequence:
#
# PCOD9191282 Si02
#       5
#     8   8   8   8   8
#     4   9  16  28  48  69  88 117 154 182 209 257
#     4   9  17  29  45  65  88 114 147 186 222 257
#     4   8  14  25  42  65  90 115 145 178 213 256
#     4  10  20  33  48  66  89 117 148 183 224 266
#     4   9  17  29  45  67  94 118 142 181 227 260
#
# _framework density 21.029271999999999
#
# number of rings (size 3 to 8) (size 9 to 14) (size 15 to 20)
#    0.000    3.000    0.000    1.200    0.000    2.400 
#    0.000    2.000    0.000    9.600    0.000    0.000 
#    0.000   17.600    0.000    0.000    0.000    0.000 
#
# Total GULP energy -111526.704872 kJ/mol
# GULP energy per Si atom -5576.335244 kJ/mol
# Density = 2.098141 g / cm^3
# Si number density = 21.029272 Si / 1000 Ang^3
#
#
#
# Elastic Constant Matrix: (Units=GPa)
#
#
# Indices 1 2 3 4 5 6 
#
# 1 118.1647 -2.0665 121.5204 0.0047 -3.6866 -0.0088
# 2 -2.0665 67.6840 7.2772 0.0125 -1.6859 -0.0066
# 3 121.5204 7.2772 288.3320 -0.0005 -0.7790 0.0019
# 4 0.0047 0.0125 -0.0005 1.7307 -0.0035 4.2246
# 5 -3.6866 -1.6859 -0.7790 -0.0035 32.9703 0.0087
# 6 -0.0088 -0.0066 0.0019 4.2246 0.0087 3.9947
#
#
#
# Elastic Compliance Matrix: (Units=1/GPa)
#
#
# Indices 1 2 3 4 5 6 
#
# 1 0.015108 0.001188 -0.006393 0.000084 0.001599 -0.000054
# 2 0.001188 0.014927 -0.000875 0.000109 0.000875 -0.000089
# 3 -0.006393 -0.000875 0.006183 -0.000042 -0.000614 0.000027
# 4 0.000084 0.000109 -0.000042 -0.365371 -0.000127 0.386397
# 5 0.001599 0.000875 -0.000614 -0.000127 0.030539 0.000073
# 6 -0.000054 -0.000089 0.000027 0.386397 0.000073 -0.158300
#
#
# Mechanical properties :
#
#
# Convention : Reuss Voigt Hill
#
# Bulk Modulus (GPa) = 41.56614 80.84921 61.20767
# Shear Modulus (GPa) = -11.44861 30.90245 9.72692
#
# Velocity S-wave (km/s) = -2.33580 3.83756 2.15301
# Velocity P-wave (km/s) = 3.54036 7.62662 5.94556
#
# Compressibility (1/GPa) = 0.02405804
#
# Stress axis : x y z
#
# Youngs Moduli (GPa) = 66.18950 66.99404 161.73081
#
# Poissons Ratio (x) = -0.07962 1.03397
# Poissons Ratio (y) = -0.07866 0.14155
# Poissons Ratio (z) = 0.42316 0.05864
#
# Static dielectric constant tensor:
#      x y z
#    x 1.695630 0.000000 0.008220 
#    y 0.000000 1.807980 0.000000 
#    z 0.008220 0.000000 1.792260 
# 
# From -- ./inp_files/141094.got.cif
#   From: 2010.05.17/outbox.cif.g08.bks.cpg/sg12_71_cif.got.tgz:141094.got - 2010.06.03 13:09:07.
