data_PCOD9191064
_publ_section_title
;
Structure prediction by ZEFSAII (Michael W. Deem and Ramdas Pophale) SiO2 
 PCOD9191064
Probable space group: C 2/M
;
_chemical_formula_sum "Si O2"
_cell_formula_units_Z 48
_cell_length_a 14.139881
_cell_length_b 21.321828
_cell_length_c 9.112067
_cell_angle_alpha 90.000000
_cell_angle_beta 57.622746
_cell_angle_gamma 90.000000
_cell_volume 2320.104871
_symmetry_space_group_name_H-M "C 2/M"
_symmetry_group_IT_number 12
_symmetry_cell_setting 'monoclinic'
loop_
_space_group_symop_operation_xyz
x,y,z
-x,y,-z
-x,-y,-z
x,-y,z
1/2+x,1/2+y,z
1/2-x,1/2+y,-z
1/2-x,1/2-y,-z
1/2+x,1/2-y,z
loop_
_atom_site_type_symbol
_atom_site_label
_atom_site_fract_x
_atom_site_fract_y
_atom_site_fract_z
Si Si1 0.175310 0.634734 0.660427
Si Si2 0.202098 0.930019 0.194769
Si Si3 0.582926 0.883559 0.132333
Si Si4 0.120207 0.876446 0.976987
Si Si5 0.131436 0.737039 0.912655
Si Si6 0.325321 0.072615 0.648878
O O1 0.272045 0.598650 0.668266
O O2 0.180252 0.704610 0.725404
O O3 0.183248 0.617785 0.484298
O O4 0.046962 0.613486 0.805714
O O5 0.159277 0.000000 0.240836
O O6 0.327338 0.928944 0.018927
O O7 0.124770 0.891361 0.146585
O O8 0.591465 0.899630 0.296880
O O9 0.631816 0.815664 0.040284
O O10 0.171444 0.806622 0.912603
O O11 0.204794 0.924121 0.828527
O O12 0.000000 0.881132 0.000000
O O13 0.000000 0.746319 0.000000
O O14 0.352270 0.000000 0.588464
#
# Coordination Sequence:
#
# PCOD9191064 Si02
#       6
#     8   8   8   8   8   8
#     4  10  20  34  52  79 114 137 161 213 265 316
#     4  10  20  32  52  80 103 138 183 209 253 319
#     4   9  18  33  54  79 108 138 168 206 256 316
#     4  10  21  39  58  73  99 138 184 232 260 291
#     4   8  17  35  57  79 100 134 179 214 260 314
#     4  11  23  34  51  82 110 141 179 206 254 320
#
# _framework density 20.688718999999999
#
# number of rings (size 3 to 8) (size 9 to 14) (size 15 to 20)
#    0.000    2.333    0.000    4.500    0.000   12.000 
#    0.000    0.833    0.000    6.000    0.000    0.000 
#    0.000    0.000    0.000    0.000    0.000    0.000 
#
# Total GULP energy -133656.825269 kJ/mol
# GULP energy per Si atom -5569.034386 kJ/mol
# Density = 2.064163 g / cm^3
# Si number density = 20.688719 Si / 1000 Ang^3
#
#
#
# Elastic Constant Matrix: (Units=GPa)
#
#
# Indices 1 2 3 4 5 6 
#
# 1 116.7897 20.0402 6.2337 0.0000 30.6309 0.0000
# 2 20.0402 109.5605 1.6997 0.0000 19.5305 0.0000
# 3 6.2337 1.6997 49.0130 0.0000 28.0988 0.0000
# 4 0.0000 0.0000 0.0000 12.8431 0.0000 -0.7254
# 5 30.6309 19.5305 28.0988 0.0000 37.0407 0.0000
# 6 0.0000 0.0000 0.0000 -0.7254 0.0000 14.7342
#
#
#
# Elastic Compliance Matrix: (Units=1/GPa)
#
#
# Indices 1 2 3 4 5 6 
#
# 1 0.012371 0.000553 0.007856 0.000000 -0.016481 0.000000
# 2 0.000553 0.010771 0.005440 0.000000 -0.010264 0.000000
# 3 0.007856 0.005440 0.043503 0.000000 -0.042367 0.000000
# 4 0.000000 0.000000 0.000000 0.078080 0.000000 0.003844
# 5 -0.016481 -0.010264 -0.042367 0.000000 0.078178 0.000000
# 6 0.000000 0.000000 0.000000 0.003844 0.000000 0.068059
#
#
# Mechanical properties :
#
#
# Convention : Reuss Voigt Hill
#
# Bulk Modulus (GPa) = 10.59936 36.81226 23.70581
# Shear Modulus (GPa) = 16.96580 29.41623 23.19101
#
# Velocity S-wave (km/s) = 2.86676 3.77483 3.35169
# Velocity P-wave (km/s) = 4.01150 6.06887 5.14409
#
# Compressibility (1/GPa) = 0.09434532
#
# Stress axis : x y z
#
# Youngs Moduli (GPa) = 80.83569 92.83779 22.98677
#
# Poissons Ratio (x) = -0.05137 -0.18059
# Poissons Ratio (y) = -0.04473 -0.12506
# Poissons Ratio (z) = -0.63505 -0.50508
#
# Static dielectric constant tensor:
#      x y z
#    x 1.762880 0.000000 0.019530 
#    y 0.000000 1.785670 0.000000 
#    z 0.019530 0.000000 1.782350 
# 
# From -- ./inp_files/63365.got.cif
#   From: 2010.05.17/outbox.cif.g08.bks.cpg/sg12_32_cif.got.tgz:63365.got - 2010.06.03 13:09:07.
