data_PCOD9191049
_publ_section_title
;
Structure prediction by ZEFSAII (Michael W. Deem and Ramdas Pophale) SiO2 
 PCOD9191049
Probable space group: C 2/M
;
_chemical_formula_sum "Si O2"
_cell_formula_units_Z 64
_cell_length_a 33.741885
_cell_length_b 16.491227
_cell_length_c 12.771961
_cell_angle_alpha 90.000000
_cell_angle_beta 150.867974
_cell_angle_gamma 90.000000
_cell_volume 3459.804935
_symmetry_space_group_name_H-M "C 2/M"
_symmetry_group_IT_number 12
_symmetry_cell_setting 'monoclinic'
loop_
_space_group_symop_operation_xyz
x,y,z
-x,y,-z
-x,-y,-z
x,-y,z
1/2+x,1/2+y,z
1/2-x,1/2+y,-z
1/2-x,1/2-y,-z
1/2+x,1/2-y,z
loop_
_atom_site_type_symbol
_atom_site_label
_atom_site_fract_x
_atom_site_fract_y
_atom_site_fract_z
Si Si1 0.511625 0.178635 0.149435
Si Si2 0.286726 0.353788 0.369240
Si Si3 0.005895 0.091706 0.674791
Si Si4 0.678473 0.597540 0.005591
Si Si5 0.190339 0.335277 0.534064
Si Si6 0.527918 0.372814 0.179479
Si Si7 0.349119 0.905572 0.785696
Si Si8 0.679652 0.401348 0.775347
O O1 0.602189 0.148502 0.384687
O O2 0.513652 0.276034 0.161092
O O3 0.500000 0.158951 0.000000
O O4 0.431751 0.139200 0.014361
O O5 0.294599 0.261081 0.425605
O O6 0.376420 0.391443 0.592024
O O7 0.219116 0.395889 0.283298
O O8 0.273539 0.361879 0.214116
O O9 0.086271 0.129709 0.810301
O O10 0.017482 0.089413 0.826722
O O11 0.915542 0.126626 0.449822
O O12 0.999788 0.000000 0.620200
O O13 0.673050 0.500000 0.996527
O O14 0.708785 0.619379 0.959233
O O15 0.737906 0.624798 0.234551
O O16 0.182678 0.365065 0.396335
O O17 0.500000 0.396171 0.000000
O O18 0.366156 0.000000 0.804589
O O19 0.681585 0.500000 0.766959
#
# Coordination Sequence:
#
# PCOD9191049 Si02
#       8
#     8   8   8   8   8   8   8   8
#     4   8  18  35  52  72 100 140 178 211 257 312
#     4  10  21  35  54  79 105 142 176 215 265 319
#     4   9  18  30  48  75 104 139 176 209 254 314
#     4  10  20  32  52  78 103 138 177 223 264 302
#     4  10  21  35  53  80 109 134 172 226 270 310
#     4   9  18  32  50  73 109 144 170 207 266 319
#     4  11  22  35  56  81 108 142 181 217 259 320
#     4   9  18  36  54  72 105 141 178 213 257 319
#
# _framework density 18.498152999999999
#
# number of rings (size 3 to 8) (size 9 to 14) (size 15 to 20)
#    0.000    2.500    0.000    2.250    3.500    5.500 
#    0.000    0.000    0.000    0.750    0.000    2.625 
#    0.000    0.000    0.000    0.000    0.000    0.000 
#
# Total GULP energy -178321.359355 kJ/mol
# GULP energy per Si atom -5572.542480 kJ/mol
# Density = 1.845605 g / cm^3
# Si number density = 18.498153 Si / 1000 Ang^3
#
#
#
# Elastic Constant Matrix: (Units=GPa)
#
#
# Indices 1 2 3 4 5 6 
#
# 1 108.2210 16.3626 27.0853 0.0000 2.1288 0.0000
# 2 16.3626 38.2820 4.5428 0.0000 8.7964 0.0000
# 3 27.0853 4.5428 45.2409 0.0000 7.0332 0.0000
# 4 0.0000 0.0000 0.0000 6.9234 0.0000 -37.6895
# 5 2.1288 8.7964 7.0332 0.0000 23.6212 0.0000
# 6 0.0000 0.0000 0.0000 -37.6895 0.0000 66.0312
#
#
#
# Elastic Compliance Matrix: (Units=1/GPa)
#
#
# Indices 1 2 3 4 5 6 
#
# 1 0.011644 -0.004798 -0.006924 0.000000 0.002799 0.000000
# 2 -0.004798 0.030614 0.001577 0.000000 -0.011437 0.000000
# 3 -0.006924 0.001577 0.027351 0.000000 -0.008107 0.000000
# 4 0.000000 0.000000 0.000000 -0.068544 0.000000 -0.039124
# 5 0.002799 -0.011437 -0.008107 0.000000 0.048756 0.000000
# 6 0.000000 0.000000 0.000000 -0.039124 0.000000 -0.007187
#
#
# Mechanical properties :
#
#
# Convention : Reuss Voigt Hill
#
# Bulk Modulus (GPa) = 20.27694 31.96951 26.12323
# Shear Modulus (GPa) = 63.00033 28.89871 45.94952
#
# Velocity S-wave (km/s) = 5.84222 3.95682 4.98939
# Velocity P-wave (km/s) = 7.51626 6.18023 6.88075
#
# Compressibility (1/GPa) = 0.04931710
#
# Stress axis : x y z
#
# Youngs Moduli (GPa) = 85.88262 32.66497 36.56116
#
# Poissons Ratio (x) = 0.15674 0.25316
# Poissons Ratio (y) = 0.41209 -0.05765
# Poissons Ratio (z) = 0.59468 -0.05150
#
# Static dielectric constant tensor:
#      x y z
#    x 1.657740 0.000000 0.011320 
#    y 0.000000 1.660480 0.000000 
#    z 0.011320 0.000000 1.654830 
# 
# From -- ./inp_files/190086.got.cif
#   From: 2010.05.17/outbox.cif.g08.bks.cpg/sg12_96_cif.got.tgz:190086.got - 2010.06.03 13:09:07.
