data_PCOD9191164
_publ_section_title
;
Structure prediction by ZEFSAII (Michael W. Deem and Ramdas Pophale) SiO2 
 PCOD9191164
Probable space group: C 2/M
;
_chemical_formula_sum "Si O2"
_cell_formula_units_Z 40
_cell_length_a 8.936973
_cell_length_b 24.729271
_cell_length_c 17.341524
_cell_angle_alpha 90.000000
_cell_angle_beta 28.558161
_cell_angle_gamma 90.000000
_cell_volume 1832.157863
_symmetry_space_group_name_H-M "C 2/M"
_symmetry_group_IT_number 12
_symmetry_cell_setting 'monoclinic'
loop_
_space_group_symop_operation_xyz
x,y,z
-x,y,-z
-x,-y,-z
x,-y,z
1/2+x,1/2+y,z
1/2-x,1/2+y,-z
1/2-x,1/2-y,-z
1/2+x,1/2-y,z
loop_
_atom_site_type_symbol
_atom_site_label
_atom_site_fract_x
_atom_site_fract_y
_atom_site_fract_z
Si Si1 0.788892 0.327880 0.689072
Si Si2 0.134270 0.319614 0.075902
Si Si3 0.262160 0.406336 0.665147
Si Si4 0.601904 0.058741 0.577336
Si Si5 0.577180 0.744320 0.250893
O O1 0.934736 0.387724 0.620697
O O2 0.681129 0.299098 0.658890
O O3 0.992003 0.286176 0.648689
O O4 0.461328 0.329842 0.886201
O O5 0.148060 0.281634 0.144916
O O6 0.978310 0.374100 0.176092
O O7 0.877985 0.290124 0.139413
O O8 0.500000 0.371961 0.500000
O O9 0.519448 0.436014 0.601163
O O10 0.081414 0.439117 0.680669
O O11 0.493650 0.000000 0.598530
#
# Coordination Sequence:
#
# PCOD9191164 Si02
#       5
#     8   8   8   8   8
#     4  11  19  33  57  85 108 142 179 218 265 319
#     4  11  18  33  54  82 111 141 178 216 266 325
#     4   8  18  34  53  74 102 141 177 218 270 306
#     4   9  19  37  56  75 108 143 179 224 269 312
#     4  10  20  32  55  84 116 142 169 221 275 318
#
# _framework density 21.832180000000001
#
# number of rings (size 3 to 8) (size 9 to 14) (size 15 to 20)
#    1.200    0.800    2.000    6.000    0.000    0.000 
#    0.000   15.000    0.000    6.000    0.000    0.000 
#    0.000    0.000    0.000    0.000    0.000    0.000 
#
# Total GULP energy -111513.121168 kJ/mol
# GULP energy per Si atom -5575.656058 kJ/mol
# Density = 2.178249 g / cm^3
# Si number density = 21.832180 Si / 1000 Ang^3
#
#
#
# Elastic Constant Matrix: (Units=GPa)
#
#
# Indices 1 2 3 4 5 6 
#
# 1 132.8080 65.4041 26.3454 -0.0001 -11.6219 -0.0010
# 2 65.4041 180.0229 45.9336 -0.0004 -15.9115 0.0009
# 3 26.3454 45.9336 74.0125 -0.0003 1.9064 -0.0025
# 4 -0.0001 -0.0004 -0.0003 18.0137 -0.0003 -0.6629
# 5 -11.6219 -15.9115 1.9064 -0.0003 22.1479 0.0019
# 6 -0.0010 0.0009 -0.0025 -0.6629 0.0019 0.2619
#
#
#
# Elastic Compliance Matrix: (Units=1/GPa)
#
#
# Indices 1 2 3 4 5 6 
#
# 1 0.009499 -0.002716 -0.001778 0.000000 0.003186 0.000006
# 2 -0.002716 0.008008 -0.004124 -0.000004 0.004683 -0.000120
# 3 -0.001778 -0.004124 0.016841 0.000009 -0.005345 0.000228
# 4 0.000000 -0.000004 0.000009 0.061215 -0.000016 0.154926
# 5 0.003186 0.004683 -0.005345 -0.000016 0.050647 -0.000454
# 6 0.000006 -0.000120 0.000228 0.154926 -0.000454 4.209867
#
#
# Mechanical properties :
#
#
# Convention : Reuss Voigt Hill
#
# Bulk Modulus (GPa) = 58.43538 73.57887 66.00712
# Shear Modulus (GPa) = 1.14181 24.69538 12.91860
#
# Velocity S-wave (km/s) = 0.72397 3.36690 2.43517
# Velocity P-wave (km/s) = 5.24620 6.99213 6.18112
#
# Compressibility (1/GPa) = 0.01711292
#
# Stress axis : x y z
#
# Youngs Moduli (GPa) = 105.27919 124.88275 59.37932
#
# Poissons Ratio (x) = 0.33914 0.10556
# Poissons Ratio (y) = 0.28591 0.24485
# Poissons Ratio (z) = 0.18716 0.51496
#
# Static dielectric constant tensor:
#      x y z
#    x 1.861350 0.000000 0.000980 
#    y 0.000000 1.819170 0.000000 
#    z 0.000980 0.000000 1.825040 
# 
# From -- ./inp_files/198104.got.cif
#   From: 2010.05.17/outbox.cif.g08.bks.cpg/sg12_100_cif.got.tgz:198104.got - 2010.06.03 13:09:07.
