data_PCOD9191466
_publ_section_title
;
Structure prediction by ZEFSAII (Michael W. Deem and Ramdas Pophale) SiO2 
 PCOD9191466
Probable space group: C 2/M
;
_chemical_formula_sum "Si O2"
_cell_formula_units_Z 56
_cell_length_a 23.352393
_cell_length_b 9.125223
_cell_length_c 18.954193
_cell_angle_alpha 90.000000
_cell_angle_beta 126.838344
_cell_angle_gamma 90.000000
_cell_volume 3232.581173
_symmetry_space_group_name_H-M "C 2/M"
_symmetry_group_IT_number 12
_symmetry_cell_setting 'monoclinic'
loop_
_space_group_symop_operation_xyz
x,y,z
-x,y,-z
-x,-y,-z
x,-y,z
1/2+x,1/2+y,z
1/2-x,1/2+y,-z
1/2-x,1/2-y,-z
1/2+x,1/2-y,z
loop_
_atom_site_type_symbol
_atom_site_label
_atom_site_fract_x
_atom_site_fract_y
_atom_site_fract_z
Si Si1 0.365660 0.830754 0.315985
Si Si2 0.436654 0.821411 0.902143
Si Si3 0.939370 0.676613 0.740766
Si Si4 0.777718 0.331102 0.788333
Si Si5 0.223461 0.332229 0.384281
Si Si6 0.633600 0.169045 0.512827
Si Si7 0.000673 0.825616 0.656021
O O1 0.288620 0.766789 0.237459
O O2 0.368690 0.824584 0.403585
O O3 0.429310 0.736278 0.330587
O O4 0.373799 0.000000 0.301198
O O5 0.448070 0.779706 0.828927
O O6 0.356879 0.776303 0.866749
O O7 0.435280 0.000000 0.901747
O O8 0.500000 0.772042 0.000000
O O9 0.946693 0.500000 0.741625
O O10 0.857498 0.711719 0.656957
O O11 0.992690 0.757586 0.728020
O O12 0.768435 0.500000 0.804598
O O13 0.777336 0.333622 0.702288
O O14 0.236563 0.500000 0.416788
O O15 0.288804 0.228479 0.453489
O O16 0.569081 0.266298 0.436626
O O17 0.623734 0.000000 0.483855
O O18 0.001166 0.000000 0.657927
#
# Coordination Sequence:
#
# PCOD9191466 Si02
#       7
#     8   8   8   8   8   8   8
#     4  10  20  34  51  70  95 128 167 207 244 284
#     4   8  14  28  55  86 107 125 153 191 238 292
#     4   9  18  33  51  72 101 132 161 196 240 291
#     4   8  14  27  49  76 102 126 156 194 235 283
#     4   8  15  29  48  69  95 128 162 197 239 285
#     4  10  20  33  50  71  94 124 165 210 249 284
#     4  12  24  34  47  67  95 132 169 206 245 286
#
# _framework density 17.323616999999999
#
# number of rings (size 3 to 8) (size 9 to 14) (size 15 to 20)
#    0.000    2.714    0.000    4.286    0.000    4.571 
#    0.000    2.143    0.000    2.571    0.000    0.000 
#    0.000    0.000    0.000    0.000    0.000    0.000 
#
# Total GULP energy -156208.963653 kJ/mol
# GULP energy per Si atom -5578.891559 kJ/mol
# Density = 1.728419 g / cm^3
# Si number density = 17.323617 Si / 1000 Ang^3
#
#
#
# Elastic Constant Matrix: (Units=GPa)
#
#
# Indices 1 2 3 4 5 6 
#
# 1 101.3887 53.0530 39.5170 0.0000 8.9803 0.0000
# 2 53.0530 81.7848 36.3833 0.0000 6.9568 0.0000
# 3 39.5170 36.3833 88.9836 0.0000 19.0526 0.0000
# 4 0.0000 0.0000 0.0000 12.6070 0.0000 0.2737
# 5 8.9803 6.9568 19.0526 0.0000 20.2559 0.0000
# 6 0.0000 0.0000 0.0000 0.2737 0.0000 25.6151
#
#
#
# Elastic Compliance Matrix: (Units=1/GPa)
#
#
# Indices 1 2 3 4 5 6 
#
# 1 0.015764 -0.008705 -0.003237 0.000000 -0.000954 0.000000
# 2 -0.008705 0.019762 -0.004492 0.000000 0.001298 0.000000
# 3 -0.003237 -0.004492 0.017374 0.000000 -0.013364 0.000000
# 4 0.000000 0.000000 0.000000 0.079339 0.000000 -0.000848
# 5 -0.000954 0.001298 -0.013364 0.000000 0.061916 0.000000
# 6 0.000000 0.000000 0.000000 -0.000848 0.000000 0.039048
#
#
# Mechanical properties :
#
#
# Convention : Reuss Voigt Hill
#
# Bulk Modulus (GPa) = 49.92159 58.89595 54.40877
# Shear Modulus (GPa) = 18.33185 21.24252 19.78718
#
# Velocity S-wave (km/s) = 3.25653 3.50554 3.38332
# Velocity P-wave (km/s) = 6.55893 7.10326 6.83652
#
# Compressibility (1/GPa) = 0.02003141
#
# Stress axis : x y z
#
# Youngs Moduli (GPa) = 63.43490 50.60218 57.55783
#
# Poissons Ratio (x) = 0.44048 0.18633
# Poissons Ratio (y) = 0.55218 0.25857
# Poissons Ratio (z) = 0.20536 0.22732
#
# Static dielectric constant tensor:
#      x y z
#    x 1.592510 0.000000 -0.010390 
#    y 0.000000 1.576140 0.000000 
#    z -0.010390 0.000000 1.595240 
# 
# From -- ./inp_files/281694.got.cif
#   From: 2010.05.17/outbox.cif.g08.bks.cpg/sg12_141_cif.got.tgz:281694.got - 2010.06.03 13:09:07.
