data_PCOD9191233
_publ_section_title
;
Structure prediction by ZEFSAII (Michael W. Deem and Ramdas Pophale) SiO2 
 PCOD9191233
Probable space group: C 2/M
;
_chemical_formula_sum "Si O2"
_cell_formula_units_Z 40
_cell_length_a 31.989890
_cell_length_b 16.564376
_cell_length_c 5.156275
_cell_angle_alpha 90.000000
_cell_angle_beta 88.024391
_cell_angle_gamma 90.000000
_cell_volume 2730.647711
_symmetry_space_group_name_H-M "C 2/M"
_symmetry_group_IT_number 12
_symmetry_cell_setting 'monoclinic'
loop_
_space_group_symop_operation_xyz
x,y,z
-x,y,-z
-x,-y,-z
x,-y,z
1/2+x,1/2+y,z
1/2-x,1/2+y,-z
1/2-x,1/2-y,-z
1/2+x,1/2-y,z
loop_
_atom_site_type_symbol
_atom_site_label
_atom_site_fract_x
_atom_site_fract_y
_atom_site_fract_z
Si Si1 0.786330 0.188589 0.085433
Si Si2 0.761170 0.904424 0.613158
Si Si3 0.878424 0.596335 0.695751
Si Si4 0.331252 0.843434 0.209143
Si Si5 0.974248 0.401833 0.757344
O O1 0.728103 0.359028 0.656149
O O2 0.823742 0.248892 0.151174
O O3 0.750000 0.250000 0.000000
O O4 0.790235 0.128905 0.840587
O O5 0.713446 0.882186 0.701786
O O6 0.764953 0.000000 0.582346
O O7 0.878001 0.500000 0.646320
O O8 0.861741 0.640063 0.442833
O O9 0.925781 0.621578 0.753948
O O10 0.848927 0.615782 0.945827
O O11 0.974090 0.500000 0.764558
O O12 0.000000 0.376954 0.500000
O O13 0.000000 0.373359 0.000000
#
# Coordination Sequence:
#
# PCOD9191233 Si02
#       5
#     8   8   8   8   8
#     4  10  20  33  45  61  86 116 143 178 227 269
#     4  11  20  32  48  64  83 113 153 188 217 253
#     4  11  20  29  44  65  85 112 151 187 217 247
#     4  11  20  31  44  63  88 112 143 187 227 253
#     4   9  17  29  42  57  81 111 143 178 211 248
#
# _framework density 14.648540000000001
#
# number of rings (size 3 to 8) (size 9 to 14) (size 15 to 20)
#    0.000    1.600    0.000    9.600    0.000    3.200 
#    0.000    0.000    0.000    0.000    0.000    0.000 
#    0.000    0.000    0.000    0.000    0.000  252.000 
#
# Total GULP energy -111583.867667 kJ/mol
# GULP energy per Si atom -5579.193383 kJ/mol
# Density = 1.461520 g / cm^3
# Si number density = 14.648540 Si / 1000 Ang^3
#
#
#
# Elastic Constant Matrix: (Units=GPa)
#
#
# Indices 1 2 3 4 5 6 
#
# 1 58.7372 32.8178 32.9884 0.0000 16.6721 0.0000
# 2 32.8178 79.1547 41.2498 0.0000 6.7978 0.0000
# 3 32.9884 41.2498 122.5398 0.0000 13.5665 0.0000
# 4 0.0000 0.0000 0.0000 337.4393 0.0000 -92.5185
# 5 16.6721 6.7978 13.5665 0.0000 21.9448 0.0000
# 6 0.0000 0.0000 0.0000 -92.5185 0.0000 37.4230
#
#
#
# Elastic Compliance Matrix: (Units=1/GPa)
#
#
# Indices 1 2 3 4 5 6 
#
# 1 0.028383 -0.008858 -0.002765 0.000000 -0.017111 0.000000
# 2 -0.008858 0.018143 -0.004128 0.000000 0.003661 0.000000
# 3 -0.002765 -0.004128 0.010649 0.000000 -0.003204 0.000000
# 4 0.000000 0.000000 0.000000 0.009199 0.000000 0.022741
# 5 -0.017111 0.003661 -0.003204 0.000000 0.059415 0.000000
# 6 0.000000 0.000000 0.000000 0.022741 0.000000 0.082943
#
#
# Mechanical properties :
#
#
# Convention : Reuss Voigt Hill
#
# Bulk Modulus (GPa) = 38.94962 52.72710 45.83836
# Shear Modulus (GPa) = 20.09713 89.58646 54.84179
#
# Velocity S-wave (km/s) = 3.70801 7.82879 6.12533
# Velocity P-wave (km/s) = 6.70668 10.85325 9.02143
#
# Compressibility (1/GPa) = 0.02567419
#
# Stress axis : x y z
#
# Youngs Moduli (GPa) = 35.23177 55.11862 93.90261
#
# Poissons Ratio (x) = 0.48821 0.25964
# Poissons Ratio (y) = 0.31207 0.38764
# Poissons Ratio (z) = 0.09742 0.22754
#
# Static dielectric constant tensor:
#      x y z
#    x 1.484220 0.000000 0.011190 
#    y 0.000000 1.481950 0.000000 
#    z 0.011190 0.000000 1.493610 
# 
# From -- ./inp_files/28266.got.cif
#   From: 2010.05.17/outbox.cif.g08.bks.cpg/sg12_15_cif.got.tgz:28266.got - 2010.06.03 13:09:07.
