data_PCOD9191746
_publ_section_title
;
Structure prediction by ZEFSAII (Michael W. Deem and Ramdas Pophale) SiO2 
 PCOD9191746
Probable space group: C 2/M
;
_chemical_formula_sum "Si O2"
_cell_formula_units_Z 58
_cell_length_a 22.796657
_cell_length_b 9.640443
_cell_length_c 14.446551
_cell_angle_alpha 90.000000
_cell_angle_beta 124.586421
_cell_angle_gamma 90.000000
_cell_volume 2613.816579
_symmetry_space_group_name_H-M "C 2/M"
_symmetry_group_IT_number 12
_symmetry_cell_setting 'monoclinic'
loop_
_space_group_symop_operation_xyz
x,y,z
-x,y,-z
-x,-y,-z
x,-y,z
1/2+x,1/2+y,z
1/2-x,1/2+y,-z
1/2-x,1/2-y,-z
1/2+x,1/2-y,z
loop_
_atom_site_type_symbol
_atom_site_label
_atom_site_fract_x
_atom_site_fract_y
_atom_site_fract_z
Si Si1 0.491271 0.158393 0.698905
Si Si2 0.621797 0.664972 0.290468
Si Si3 0.000000 0.000000 0.500000
Si Si4 0.597595 0.762863 0.548090
Si Si5 0.852870 0.656796 0.208486
Si Si6 0.775704 0.344718 0.873075
Si Si7 0.755875 0.839837 0.378095
Si Si8 0.915248 0.339924 0.915136
O O1 0.441248 0.265196 0.707349
O O2 0.459650 0.159059 0.566542
O O3 0.573228 0.205824 0.771343
O O4 0.486865 0.000000 0.731327
O O5 0.625482 0.500000 0.304999
O O6 0.697401 0.741440 0.372349
O O7 0.602829 0.715412 0.170022
O O8 0.061336 0.878863 0.548790
O O9 0.627398 0.840470 0.664347
O O10 0.665076 0.720807 0.545708
O O11 0.840921 0.500000 0.168019
O O12 0.781237 0.743554 0.132327
O O13 0.760945 0.500000 0.891808
O O14 0.760008 0.340004 0.747629
O O15 0.861051 0.320070 0.952938
O O16 0.751746 0.000000 0.405807
O O17 0.898792 0.500000 0.867115
O O18 0.000000 0.337870 0.000000
#
# Coordination Sequence:
#
# PCOD9191746 Si02
#       8
#     8   8   2   8   8   8   8   8
#     4  11  23  37  52  71 105 146 185 224 265 314
#     4  11  24  37  54  79 107 138 175 218 266 313
#     4  12  20  32  50  84 104 132 182 240 266 308
#     4  11  21  32  55  75 105 138 185 229 268 301
#     4  10  20  33  51  76 105 139 181 222 263 302
#     4   8  16  29  52  81 106 133 167 209 255 306
#     4   9  18  34  52  72 102 141 177 216 263 314
#     4   9  18  37  63  86 108 135 166 202 255 322
#
# _framework density 22.189774
#
# number of rings (size 3 to 8) (size 9 to 14) (size 15 to 20)
#    0.000    2.069    2.069    2.483    1.931    8.000 
#    0.000    0.000    0.000    0.828    0.000    0.000 
#    0.000    0.000    0.000    0.000    0.000    0.000 
#
# Total GULP energy -161644.778195 kJ/mol
# GULP energy per Si atom -5573.957869 kJ/mol
# Density = 2.213927 g / cm^3
# Si number density = 22.189774 Si / 1000 Ang^3
#
#
#
# Elastic Constant Matrix: (Units=GPa)
#
#
# Indices 1 2 3 4 5 6 
#
# 1 168.7805 89.0682 37.6582 0.0000 54.4900 0.0000
# 2 89.0682 137.2261 18.0569 0.0000 20.5090 0.0000
# 3 37.6582 18.0569 50.6074 0.0000 17.4880 0.0000
# 4 0.0000 0.0000 0.0000 10.6841 0.0000 10.0002
# 5 54.4900 20.5090 17.4880 0.0000 41.9936 0.0000
# 6 0.0000 0.0000 0.0000 10.0002 0.0000 37.6866
#
#
#
# Elastic Compliance Matrix: (Units=1/GPa)
#
#
# Indices 1 2 3 4 5 6 
#
# 1 0.015403 -0.007284 -0.003721 0.000000 -0.014879 0.000000
# 2 -0.007284 0.011437 0.000004 0.000000 0.003864 0.000000
# 3 -0.003721 0.000004 0.024366 0.000000 -0.005321 0.000000
# 4 0.000000 0.000000 0.000000 0.124525 0.000000 -0.033043
# 5 -0.014879 0.003864 -0.005321 0.000000 0.043449 0.000000
# 6 0.000000 0.000000 0.000000 -0.033043 0.000000 0.035303
#
#
# Mechanical properties :
#
#
# Convention : Reuss Voigt Hill
#
# Bulk Modulus (GPa) = 34.24157 71.79785 53.01971
# Shear Modulus (GPa) = 17.46919 32.19488 24.83203
#
# Velocity S-wave (km/s) = 2.80886 3.81318 3.34889
# Velocity P-wave (km/s) = 5.09749 7.19817 6.23691
#
# Compressibility (1/GPa) = 0.02920427
#
# Stress axis : x y z
#
# Youngs Moduli (GPa) = 64.92450 87.43657 41.04079
#
# Poissons Ratio (x) = 0.63687 0.15271
# Poissons Ratio (y) = 0.47290 -0.00017
# Poissons Ratio (z) = 0.24157 -0.00036
#
# Static dielectric constant tensor:
#      x y z
#    x 1.854850 0.000000 -0.023080 
#    y 0.000000 1.751000 0.000000 
#    z -0.023080 0.000000 1.923120 
# 
# From -- ./inp_files/282220.got.cif
#   From: 2010.05.17/outbox.cif.g08.bks.cpg/sg12_142_cif.got.tgz:282220.got - 2010.06.03 13:09:07.
