data_PCOD9191333
_publ_section_title
;
Structure prediction by ZEFSAII (Michael W. Deem and Ramdas Pophale) SiO2 
 PCOD9191333
Probable space group: C 2/M
;
_chemical_formula_sum "Si O2"
_cell_formula_units_Z 48
_cell_length_a 17.856203
_cell_length_b 13.053440
_cell_length_c 9.664771
_cell_angle_alpha 90.000000
_cell_angle_beta 53.907821
_cell_angle_gamma 90.000000
_cell_volume 1820.349616
_symmetry_space_group_name_H-M "C 2/M"
_symmetry_group_IT_number 12
_symmetry_cell_setting 'monoclinic'
loop_
_space_group_symop_operation_xyz
x,y,z
-x,y,-z
-x,-y,-z
x,-y,z
1/2+x,1/2+y,z
1/2-x,1/2+y,-z
1/2-x,1/2-y,-z
1/2+x,1/2-y,z
loop_
_atom_site_type_symbol
_atom_site_label
_atom_site_fract_x
_atom_site_fract_y
_atom_site_fract_z
Si Si1 0.139789 0.162146 0.966206
Si Si2 0.158346 0.389571 0.324870
Si Si3 0.699307 0.889219 0.889920
Si Si4 0.557588 0.669138 0.749683
Si Si5 0.103703 0.838159 0.401027
Si Si6 0.387718 0.890675 0.316118
O O1 0.242170 0.114990 0.858360
O O2 0.158001 0.281604 0.984533
O O3 0.107207 0.148056 0.840881
O O4 0.046624 0.125629 0.143949
O O5 0.113471 0.500000 0.344063
O O6 0.105378 0.283062 0.359638
O O7 0.170574 0.386319 0.478936
O O8 0.810559 0.883789 0.774433
O O9 0.673120 0.886183 0.755262
O O10 0.667061 0.000000 0.977763
O O11 0.618780 0.645811 0.549437
O O12 0.547094 0.792685 0.758707
O O13 0.000000 0.877094 0.500000
O O14 0.437882 0.000000 0.259934
#
# Coordination Sequence:
#
# PCOD9191333 Si02
#       6
#     8   8   8   8   8   8
#     4   9  17  30  50  73  96 119 144 189 243 278
#     4   9  17  31  49  68  91 120 157 195 230 269
#     4   9  17  30  48  70  94 121 154 189 229 275
#     4   9  17  30  47  71  99 120 148 189 231 275
#     4  10  20  33  49  67  91 126 161 190 221 266
#     4   8  14  26  48  72  91 117 153 194 233 266
#
# _framework density 26.368561
#
# number of rings (size 3 to 8) (size 9 to 14) (size 15 to 20)
#    0.000    3.000    0.000    1.000    0.000    5.333 
#    0.000    9.167    0.000    2.000    0.000    0.000 
#    0.000    0.000    0.000    0.000    0.000    0.000 
#
# Total GULP energy -134080.671426 kJ/mol
# GULP energy per Si atom -5586.694643 kJ/mol
# Density = 2.630854 g / cm^3
# Si number density = 26.368561 Si / 1000 Ang^3
#
#
#
# Elastic Constant Matrix: (Units=GPa)
#
#
# Indices 1 2 3 4 5 6 
#
# 1 81.5706 -1.1476 33.8967 0.0000 2.9850 0.0000
# 2 -1.1476 104.9686 8.6802 0.0000 -6.9229 0.0000
# 3 33.8967 8.6802 127.1038 0.0000 -8.3393 0.0000
# 4 0.0000 0.0000 0.0000 -13.0389 0.0000 13.1215
# 5 2.9850 -6.9229 -8.3393 0.0000 55.1579 0.0000
# 6 0.0000 0.0000 0.0000 13.1215 0.0000 -22.6151
#
#
#
# Elastic Compliance Matrix: (Units=1/GPa)
#
#
# Indices 1 2 3 4 5 6 
#
# 1 0.013898 0.000383 -0.003816 0.000000 -0.001281 0.000000
# 2 0.000383 0.009660 -0.000690 0.000000 0.001087 0.000000
# 3 -0.003816 -0.000690 0.009030 0.000000 0.001485 0.000000
# 4 0.000000 0.000000 0.000000 -0.184311 0.000000 -0.106940
# 5 -0.001281 0.001087 0.001485 0.000000 0.018560 0.000000
# 6 0.000000 0.000000 0.000000 -0.106940 0.000000 -0.106266
#
#
# Mechanical properties :
#
#
# Convention : Reuss Voigt Hill
#
# Bulk Modulus (GPa) = 41.08578 44.05572 42.57075
# Shear Modulus (GPa) = -22.41459 22.04838 -0.18310
#
# Velocity S-wave (km/s) = -2.91872 2.89478 -0.26380
# Velocity P-wave (km/s) = 2.06315 5.28365 4.01083
#
# Compressibility (1/GPa) = 0.02433932
#
# Stress axis : x y z
#
# Youngs Moduli (GPa) = 71.95534 103.52337 110.74237
#
# Poissons Ratio (x) = -0.03965 0.42264
# Poissons Ratio (y) = -0.02756 0.07647
# Poissons Ratio (z) = 0.27461 0.07148
#
# Static dielectric constant tensor:
#      x y z
#    x 2.093590 0.000000 0.075920 
#    y 0.000000 2.056360 0.000000 
#    z 0.075920 0.000000 2.009050 
# 
# From -- ./inp_files/225091.got.cif
#   From: 2010.05.17/outbox.cif.g08.bks.cpg/sg12_113_cif.got.tgz:225091.got - 2010.06.03 13:09:07.
