data_PCOD9191612
_publ_section_title
;
Structure prediction by ZEFSAII (Michael W. Deem and Ramdas Pophale) SiO2 
 PCOD9191612
Probable space group: C 2/M
;
_chemical_formula_sum "Si O2"
_cell_formula_units_Z 56
_cell_length_a 20.065626
_cell_length_b 7.689415
_cell_length_c 19.469886
_cell_angle_alpha 90.000000
_cell_angle_beta 64.481993
_cell_angle_gamma 90.000000
_cell_volume 2711.018879
_symmetry_space_group_name_H-M "C 2/M"
_symmetry_group_IT_number 12
_symmetry_cell_setting 'monoclinic'
loop_
_space_group_symop_operation_xyz
x,y,z
-x,y,-z
-x,-y,-z
x,-y,z
1/2+x,1/2+y,z
1/2-x,1/2+y,-z
1/2-x,1/2-y,-z
1/2+x,1/2-y,z
loop_
_atom_site_type_symbol
_atom_site_label
_atom_site_fract_x
_atom_site_fract_y
_atom_site_fract_z
Si Si1 0.231328 0.787596 0.375774
Si Si2 0.722996 0.191204 0.938211
Si Si3 0.949814 0.289906 0.189121
Si Si4 0.291921 0.786923 0.202269
Si Si5 0.060450 0.797134 0.028488
Si Si6 0.074827 0.794208 0.501111
Si Si7 0.388680 0.210242 0.361962
O O1 0.246213 0.737425 0.290086
O O2 0.152813 0.723258 0.437928
O O3 0.303489 0.732030 0.387444
O O4 0.231537 0.000000 0.378069
O O5 0.736527 0.280392 0.858439
O O6 0.755050 0.000000 0.916173
O O7 0.750000 0.250000 0.000000
O O8 0.634729 0.192747 0.984824
O O9 0.952035 0.500000 0.186795
O O10 0.876751 0.234056 0.179066
O O11 0.934839 0.235446 0.274121
O O12 0.022477 0.223114 0.119371
O O13 0.292800 0.000000 0.199712
O O14 0.077346 0.000000 0.009053
O O15 0.000000 0.738985 0.000000
O O16 0.077820 0.772150 0.581636
O O17 0.000000 0.722377 0.500000
O O18 0.075864 0.000000 0.484956
O O19 0.387980 0.000000 0.363023
#
# Coordination Sequence:
#
# PCOD9191612 Si02
#       7
#     8   8   8   8   8   8   8
#     4   8  15  31  54  77 100 132 178 219 254 311
#     4  11  22  37  56  78 109 148 189 228 271 322
#     4   9  17  33  56  81 103 134 181 225 271 321
#     4   8  15  30  54  77  99 137 183 220 261 316
#     4  11  22  35  55  83 112 141 178 225 277 326
#     4  10  20  33  50  76 110 143 172 208 262 323
#     4   9  18  33  56  79 101 133 177 225 262 306
#
# _framework density 20.65644
#
# number of rings (size 3 to 8) (size 9 to 14) (size 15 to 20)
#    0.000    2.571    1.429    3.000    0.000    1.429 
#    2.571    0.000    0.000    2.571    0.000    0.000 
#    0.000    0.000    0.000    0.000    0.000    0.000 
#
# Total GULP energy -156174.636901 kJ/mol
# GULP energy per Si atom -5577.665604 kJ/mol
# Density = 2.060942 g / cm^3
# Si number density = 20.656440 Si / 1000 Ang^3
#
#
#
# Elastic Constant Matrix: (Units=GPa)
#
#
# Indices 1 2 3 4 5 6 
#
# 1 86.7746 1.6438 53.7966 0.0001 26.9804 0.0001
# 2 1.6438 29.5546 -10.8660 0.0002 2.2030 0.0000
# 3 53.7966 -10.8660 112.8112 0.0000 21.4237 -0.0001
# 4 0.0001 0.0002 0.0000 17.1724 0.0001 9.1562
# 5 26.9804 2.2030 21.4237 0.0001 36.5045 0.0001
# 6 0.0001 0.0000 -0.0001 9.1562 0.0001 -2.7724
#
#
#
# Elastic Compliance Matrix: (Units=1/GPa)
#
#
# Indices 1 2 3 4 5 6 
#
# 1 0.019345 -0.003198 -0.007714 0.000000 -0.009578 0.000000
# 2 -0.003198 0.036311 0.005616 0.000000 -0.003123 0.000000
# 3 -0.007714 0.005616 0.013579 0.000000 -0.002606 0.000000
# 4 0.000000 0.000000 0.000000 0.021092 0.000000 0.069658
# 5 -0.009578 -0.003123 -0.002606 0.000000 0.036191 0.000000
# 6 0.000000 0.000000 0.000000 0.069658 0.000000 -0.130643
#
#
# Mechanical properties :
#
#
# Convention : Reuss Voigt Hill
#
# Bulk Modulus (GPa) = 17.05276 35.36545 26.20910
# Shear Modulus (GPa) = 192.19334 22.48530 107.33932
#
# Velocity S-wave (km/s) = 9.65634 3.30288 7.21643
# Velocity P-wave (km/s) = 11.51520 5.63057 9.06375
#
# Compressibility (1/GPa) = 0.05864155
#
# Stress axis : x y z
#
# Youngs Moduli (GPa) = 51.69243 27.53983 73.64277
#
# Poissons Ratio (x) = 0.08808 0.56811
# Poissons Ratio (y) = 0.16533 -0.41356
# Poissons Ratio (z) = 0.39878 -0.15466
#
# Static dielectric constant tensor:
#      x y z
#    x 1.722190 0.000000 0.018550 
#    y 0.000000 1.792380 0.000000 
#    z 0.018550 0.000000 1.752970 
# 
# From -- ./inp_files/275112.got.cif
#   From: 2010.05.17/outbox.cif.g08.bks.cpg/sg12_138_cif.got.tgz:275112.got - 2010.06.03 13:09:07.
