data_PCOD9191227
_publ_section_title
;
Structure prediction by ZEFSAII (Michael W. Deem and Ramdas Pophale) SiO2 
 PCOD9191227
Probable space group: C 2/M
;
_chemical_formula_sum "Si O2"
_cell_formula_units_Z 34
_cell_length_a 14.290059
_cell_length_b 17.957925
_cell_length_c 5.284644
_cell_angle_alpha 90.000000
_cell_angle_beta 96.052347
_cell_angle_gamma 90.000000
_cell_volume 1348.585152
_symmetry_space_group_name_H-M "C 2/M"
_symmetry_group_IT_number 12
_symmetry_cell_setting 'monoclinic'
loop_
_space_group_symop_operation_xyz
x,y,z
-x,y,-z
-x,-y,-z
x,-y,z
1/2+x,1/2+y,z
1/2-x,1/2+y,-z
1/2-x,1/2-y,-z
1/2+x,1/2-y,z
loop_
_atom_site_type_symbol
_atom_site_label
_atom_site_fract_x
_atom_site_fract_y
_atom_site_fract_z
Si Si1 0.097561 0.890232 0.876430
Si Si2 0.500000 0.500000 0.500000
Si Si3 0.889471 0.281161 0.034693
Si Si4 0.102269 0.338921 0.463741
Si Si5 0.244628 0.000000 0.146117
Si Si6 0.638330 0.000000 0.318718
O O1 0.075564 0.934567 0.613765
O O2 0.178173 0.930883 0.055717
O O3 0.116842 0.803013 0.871848
O O4 0.000000 0.902446 0.000000
O O5 0.845273 0.296204 0.746678
O O6 0.852005 0.333760 0.246844
O O7 0.000000 0.297101 0.000000
O O8 0.087112 0.422480 0.360397
O O9 0.000000 0.304241 0.500000
O O10 0.327238 0.000000 0.959701
O O11 0.280385 0.000000 0.442785
#
# Coordination Sequence:
#
# PCOD9191227 Si02
#       6
#     8   2   8   8   4   4
#     4  10  23  39  64  94 128 162 208 249 302 375
#     4  10  20  32  64  90 124 158 200 232 306 348
#     4   9  20  36  65  94 123 151 204 262 309 360
#     4  10  21  41  65  92 116 163 208 261 314 360
#     4  11  26  40  60  91 128 169 203 255 307 361
#     4  12  25  43  61  87 128 163 215 260 305 367
#
# _framework density 25.211608999999999
#
# number of rings (size 3 to 8) (size 9 to 14) (size 15 to 20)
#    0.000    1.882    0.000    3.176   14.824    0.000 
#    0.000   11.765    0.000    0.000    0.000    0.000 
#    0.000    0.000    0.000    0.000    0.000    0.000 
#
# Total GULP energy -94763.231312 kJ/mol
# GULP energy per Si atom -5574.307724 kJ/mol
# Density = 2.515423 g / cm^3
# Si number density = 25.211609 Si / 1000 Ang^3
#
#
#
# Elastic Constant Matrix: (Units=GPa)
#
#
# Indices 1 2 3 4 5 6 
#
# 1 51.8592 3.0736 8.1041 0.0000 -5.0681 0.0000
# 2 3.0736 155.5596 38.2432 0.0000 -15.9031 0.0000
# 3 8.1041 38.2432 139.3317 0.0000 -16.3653 0.0000
# 4 0.0000 0.0000 0.0000 38.1850 0.0000 0.7505
# 5 -5.0681 -15.9031 -16.3653 0.0000 38.0818 0.0000
# 6 0.0000 0.0000 0.0000 0.7505 0.0000 5.8845
#
#
#
# Elastic Compliance Matrix: (Units=1/GPa)
#
#
# Indices 1 2 3 4 5 6 
#
# 1 0.019639 0.000062 -0.000895 0.000000 0.002255 0.000000
# 2 0.000062 0.007069 -0.001681 0.000000 0.002238 0.000000
# 3 -0.000895 -0.001681 0.007998 0.000000 0.002616 0.000000
# 4 0.000000 0.000000 0.000000 0.026254 0.000000 -0.003348
# 5 0.002255 0.002238 0.002616 0.000000 0.028618 0.000000
# 6 0.000000 0.000000 0.000000 -0.003348 0.000000 0.170364
#
#
# Mechanical properties :
#
#
# Convention : Reuss Voigt Hill
#
# Bulk Modulus (GPa) = 33.69255 49.51025 41.60140
# Shear Modulus (GPa) = 18.19093 36.25226 27.22159
#
# Velocity S-wave (km/s) = 2.68904 3.79610 3.28948
# Velocity P-wave (km/s) = 4.79940 6.23654 5.56456
#
# Compressibility (1/GPa) = 0.02968015
#
# Stress axis : x y z
#
# Youngs Moduli (GPa) = 50.91782 141.45774 125.03404
#
# Poissons Ratio (x) = -0.00883 0.11185
# Poissons Ratio (y) = -0.00318 0.21019
# Poissons Ratio (z) = 0.04555 0.23780
#
# Static dielectric constant tensor:
#      x y z
#    x 1.994650 0.000000 0.049850 
#    y 0.000000 1.773470 0.000000 
#    z 0.049850 0.000000 2.150920 
# 
# From -- ./inp_files/14977.got.cif
#   From: 2010.05.17/outbox.cif.g08.bks.cpg/sg12_8_cif.got.tgz:14977.got - 2010.06.03 13:09:07.
