data_PCOD9191308
_publ_section_title
;
Structure prediction by ZEFSAII (Michael W. Deem and Ramdas Pophale) SiO2 
 PCOD9191308
Probable space group: C 2/M
;
_chemical_formula_sum "Si O2"
_cell_formula_units_Z 56
_cell_length_a 28.061598
_cell_length_b 8.835011
_cell_length_c 14.304152
_cell_angle_alpha 90.000000
_cell_angle_beta 60.422964
_cell_angle_gamma 90.000000
_cell_volume 3084.235272
_symmetry_space_group_name_H-M "C 2/M"
_symmetry_group_IT_number 12
_symmetry_cell_setting 'monoclinic'
loop_
_space_group_symop_operation_xyz
x,y,z
-x,y,-z
-x,-y,-z
x,-y,z
1/2+x,1/2+y,z
1/2-x,1/2+y,-z
1/2-x,1/2-y,-z
1/2+x,1/2-y,z
loop_
_atom_site_type_symbol
_atom_site_label
_atom_site_fract_x
_atom_site_fract_y
_atom_site_fract_z
Si Si1 0.130251 0.678359 0.857698
Si Si2 0.718120 0.678041 0.889548
Si Si3 0.963495 0.172246 0.940669
Si Si4 0.067787 0.316305 0.340266
Si Si5 0.330413 0.181263 0.875848
Si Si6 0.059314 0.682654 0.556960
Si Si7 0.929674 0.181572 0.261380
O O1 0.128295 0.500000 0.848234
O O2 0.189593 0.734229 0.832794
O O3 0.108560 0.756431 0.784274
O O4 0.088113 0.727680 0.981255
O O5 0.708989 0.500000 0.885625
O O6 0.782486 0.703780 0.845385
O O7 0.688813 0.733308 0.013125
O O8 0.007417 0.231360 0.823232
O O9 0.946259 0.000000 0.934897
O O10 0.000000 0.164643 0.000000
O O11 0.068872 0.500000 0.337665
O O12 0.111969 0.265025 0.221835
O O13 0.082149 0.272538 0.433070
O O14 0.005106 0.272620 0.382402
O O15 0.332724 0.000000 0.893273
O O16 0.062197 0.500000 0.561829
O O17 0.085576 0.757522 0.622235
O O18 0.929684 0.000000 0.257859
#
# Coordination Sequence:
#
# PCOD9191308 Si02
#       7
#     8   8   8   8   8   8   8
#     4  11  21  32  49  71  97 131 171 207 245 298
#     4  10  20  33  50  74 104 133 166 208 253 294
#     4   8  16  30  44  63  95 129 159 194 240 288
#     4   8  16  32  53  76 101 130 166 208 246 287
#     4   9  18  34  54  75  99 133 172 206 245 296
#     4   9  17  31  52  77 103 131 166 203 244 294
#     4  10  20  33  48  70 103 134 163 202 249 298
#
# _framework density 18.156851
#
# number of rings (size 3 to 8) (size 9 to 14) (size 15 to 20)
#    0.000    2.714    0.000    3.857    2.000    3.714 
#    0.000    2.143    0.000    0.857    0.000    0.000 
#    0.000    0.000    0.000    0.000    0.000    0.000 
#
# Total GULP energy -156135.879623 kJ/mol
# GULP energy per Si atom -5576.281415 kJ/mol
# Density = 1.811553 g / cm^3
# Si number density = 18.156851 Si / 1000 Ang^3
#
#
#
# Elastic Constant Matrix: (Units=GPa)
#
#
# Indices 1 2 3 4 5 6 
#
# 1 47.7821 16.7545 -4.1203 0.0000 10.7099 0.0000
# 2 16.7545 40.6987 -2.2313 0.0000 4.5772 0.0000
# 3 -4.1203 -2.2313 36.3466 0.0000 4.7672 0.0000
# 4 0.0000 0.0000 0.0000 14.4210 0.0000 6.3730
# 5 10.7099 4.5772 4.7672 0.0000 27.3441 0.0000
# 6 0.0000 0.0000 0.0000 6.3730 0.0000 23.7567
#
#
#
# Elastic Compliance Matrix: (Units=1/GPa)
#
#
# Indices 1 2 3 4 5 6 
#
# 1 0.026799 -0.009761 0.003685 0.000000 -0.009505 0.000000
# 2 -0.009761 0.028761 0.000807 0.000000 -0.001132 0.000000
# 3 0.003685 0.000807 0.028847 0.000000 -0.006608 0.000000
# 4 0.000000 0.000000 0.000000 0.078670 0.000000 -0.021104
# 5 -0.009505 -0.001132 -0.006608 0.000000 0.041635 0.000000
# 6 0.000000 0.000000 0.000000 -0.021104 0.000000 0.047755
#
#
# Mechanical properties :
#
#
# Convention : Reuss Voigt Hill
#
# Bulk Modulus (GPa) = 13.53728 16.18147 14.85937
# Shear Modulus (GPa) = 17.38360 20.73266 19.05813
#
# Velocity S-wave (km/s) = 3.09757 3.38281 3.24333
# Velocity P-wave (km/s) = 4.50168 4.91826 4.71458
#
# Compressibility (1/GPa) = 0.07387007
#
# Stress axis : x y z
#
# Youngs Moduli (GPa) = 37.31427 34.76945 34.66571
#
# Poissons Ratio (x) = 0.33940 -0.12776
# Poissons Ratio (y) = 0.36424 -0.02799
# Poissons Ratio (z) = -0.13752 -0.02808
#
# Static dielectric constant tensor:
#      x y z
#    x 1.648190 0.000000 0.000500 
#    y 0.000000 1.610130 0.000000 
#    z 0.000500 0.000000 1.633110 
# 
# From -- ./inp_files/243600.got.cif
#   From: 2010.05.17/outbox.cif.g08.bks.cpg/sg12_122_cif.got.tgz:243600.got - 2010.06.03 13:09:07.
