data_PCOD9191149
_publ_section_title
;
Structure prediction by ZEFSAII (Michael W. Deem and Ramdas Pophale) SiO2 
 PCOD9191149
Probable space group: C 2/M
;
_chemical_formula_sum "Si O2"
_cell_formula_units_Z 64
_cell_length_a 14.043689
_cell_length_b 32.323708
_cell_length_c 8.567372
_cell_angle_alpha 90.000000
_cell_angle_beta 127.142887
_cell_angle_gamma 90.000000
_cell_volume 3100.133182
_symmetry_space_group_name_H-M "C 2/M"
_symmetry_group_IT_number 12
_symmetry_cell_setting 'monoclinic'
loop_
_space_group_symop_operation_xyz
x,y,z
-x,y,-z
-x,-y,-z
x,-y,z
1/2+x,1/2+y,z
1/2-x,1/2+y,-z
1/2-x,1/2-y,-z
1/2+x,1/2-y,z
loop_
_atom_site_type_symbol
_atom_site_label
_atom_site_fract_x
_atom_site_fract_y
_atom_site_fract_z
Si Si1 0.291453 0.452701 0.517002
Si Si2 0.309661 0.176888 0.212975
Si Si3 0.954271 0.200180 0.132670
Si Si4 0.623022 0.231568 0.419166
Si Si5 0.373992 0.546298 0.277378
Si Si6 0.371942 0.097692 0.453053
Si Si7 0.022964 0.656100 0.191484
Si Si8 0.494677 0.393680 0.180948
O O1 0.334194 0.500000 0.579945
O O2 0.273562 0.448166 0.311913
O O3 0.190100 0.443028 0.542928
O O4 0.388371 0.417916 0.650103
O O5 0.362007 0.206094 0.403561
O O6 0.294872 0.130685 0.274005
O O7 0.406271 0.169113 0.174274
O O8 0.189018 0.196763 0.026079
O O9 0.994380 0.154355 0.225503
O O10 0.017838 0.234393 0.303286
O O11 0.000000 0.206764 0.000000
O O12 0.750000 0.250000 0.500000
O O13 0.595894 0.198417 0.257247
O O14 0.500000 0.546866 0.500000
O O15 0.362349 0.500000 0.198517
O O16 0.387622 0.581322 0.160246
O O17 0.500000 0.090298 0.500000
O O18 0.402249 0.123852 0.636378
O O19 0.000000 0.639219 0.000000
O O20 0.500000 0.395710 0.000000
#
# Coordination Sequence:
#
# PCOD9191149 Si02
#       8
#     8   8   8   8   8   8   8   8
#     4  10  20  35  57  84 117 157 194 239 298 363
#     4  10  22  43  62  85 123 160 201 247 305 354
#     4  11  21  36  60  91 121 158 198 250 304 356
#     4  11  22  39  62  87 121 160 198 246 305 361
#     4   8  16  32  49  72 114 156 187 227 286 354
#     4   9  19  38  63  85 115 155 201 253 301 352
#     4  10  23  42  62  86 116 160 204 250 298 352
#     4  10  20  32  54  86 119 150 195 241 295 352
#
# _framework density 20.644272999999998
#
# number of rings (size 3 to 8) (size 9 to 14) (size 15 to 20)
#    0.000    2.125    1.250    4.125    1.750    2.750 
#    2.250    3.750    0.000    0.375    0.000    0.000 
#    0.000    0.000    0.000    0.000    0.000    0.000 
#
# Total GULP energy -178408.191594 kJ/mol
# GULP energy per Si atom -5575.255987 kJ/mol
# Density = 2.059729 g / cm^3
# Si number density = 20.644273 Si / 1000 Ang^3
#
#
#
# Elastic Constant Matrix: (Units=GPa)
#
#
# Indices 1 2 3 4 5 6 
#
# 1 40.9565 12.2790 8.4010 0.0000 -5.4958 0.0000
# 2 12.2790 90.7653 21.3891 0.0000 -9.4836 0.0000
# 3 8.4010 21.3891 56.8396 0.0000 3.5041 0.0000
# 4 0.0000 0.0000 0.0000 13.8923 0.0000 -11.1077
# 5 -5.4958 -9.4836 3.5041 0.0000 30.0385 0.0000
# 6 0.0000 0.0000 0.0000 -11.1077 0.0000 9.5039
#
#
#
# Elastic Compliance Matrix: (Units=1/GPa)
#
#
# Indices 1 2 3 4 5 6 
#
# 1 0.026391 -0.002324 -0.003302 0.000000 0.004480 0.000000
# 2 -0.002324 0.012894 -0.004768 0.000000 0.004202 0.000000
# 3 -0.003302 -0.004768 0.020151 0.000000 -0.004460 0.000000
# 4 0.000000 0.000000 0.000000 1.098742 0.000000 1.284162
# 5 0.004480 0.004202 -0.004460 0.000000 0.035957 0.000000
# 6 0.000000 0.000000 0.000000 1.284162 0.000000 1.606094
#
#
# Mechanical properties :
#
#
# Convention : Reuss Voigt Hill
#
# Bulk Modulus (GPa) = 25.87448 30.29996 28.08722
# Shear Modulus (GPa) = 1.76435 20.45309 11.10872
#
# Velocity S-wave (km/s) = 0.92547 3.15102 2.32222
# Velocity P-wave (km/s) = 3.70172 5.28655 4.56346
#
# Compressibility (1/GPa) = 0.03864812
#
# Stress axis : x y z
#
# Youngs Moduli (GPa) = 37.89104 77.55301 49.62643
#
# Poissons Ratio (x) = 0.18024 0.16388
# Poissons Ratio (y) = 0.08806 0.23661
# Poissons Ratio (z) = 0.12513 0.36976
#
# Static dielectric constant tensor:
#      x y z
#    x 1.827210 0.000000 0.015720 
#    y 0.000000 1.744110 0.000000 
#    z 0.015720 0.000000 1.750110 
# 
# From -- ./inp_files/68621.got.cif
#   From: 2010.05.17/outbox.cif.g08.bks.cpg/sg12_35_cif.got.tgz:68621.got - 2010.06.03 13:09:07.
