data_PCOD9191903
_publ_section_title
;
Structure prediction by ZEFSAII (Michael W. Deem and Ramdas Pophale) SiO2 
 PCOD9191903
Probable space group: C 2/M
;
_chemical_formula_sum "Si O2"
_cell_formula_units_Z 64
_cell_length_a 15.159167
_cell_length_b 9.618838
_cell_length_c 33.552855
_cell_angle_alpha 90.000000
_cell_angle_beta 139.188018
_cell_angle_gamma 90.000000
_cell_volume 3197.609670
_symmetry_space_group_name_H-M "C 2/M"
_symmetry_group_IT_number 12
_symmetry_cell_setting 'monoclinic'
loop_
_space_group_symop_operation_xyz
x,y,z
-x,y,-z
-x,-y,-z
x,-y,z
1/2+x,1/2+y,z
1/2-x,1/2+y,-z
1/2-x,1/2-y,-z
1/2+x,1/2-y,z
loop_
_atom_site_type_symbol
_atom_site_label
_atom_site_fract_x
_atom_site_fract_y
_atom_site_fract_z
Si Si1 0.552068 0.331335 0.060631
Si Si2 0.762914 0.342562 0.254177
Si Si3 0.167242 0.841322 0.393070
Si Si4 0.908636 0.157282 0.362547
Si Si5 0.142178 0.332517 0.849474
Si Si6 0.937932 0.657232 0.522600
Si Si7 0.965082 0.836341 0.115385
Si Si8 0.018440 0.337801 0.281531
O O1 0.543238 0.500000 0.057971
O O2 0.710382 0.297756 0.117482
O O3 0.469110 0.285659 0.071034
O O4 0.500000 0.282125 0.000000
O O5 0.771631 0.500000 0.273246
O O6 0.789189 0.233514 0.298198
O O7 0.619761 0.326792 0.183815
O O8 0.883323 0.328941 0.262932
O O9 0.286969 0.787630 0.462422
O O10 0.132987 0.750574 0.342735
O O11 0.032358 0.846583 0.373275
O O12 0.203590 0.000000 0.394107
O O13 0.967914 0.246982 0.418668
O O14 0.874672 0.000000 0.362335
O O15 0.135913 0.500000 0.852089
O O16 0.120938 0.255647 0.883854
O O17 0.029274 0.290829 0.778465
O O18 0.929662 0.500000 0.536752
O O19 0.000000 0.649497 0.500000
O O20 0.926953 0.000000 0.103878
O O21 0.056038 0.500000 0.292786
#
# Coordination Sequence:
#
# PCOD9191903 Si02
#       8
#     8   8   8   8   8   8   8   8
#     4   9  18  36  61  84 113 155 196 231 271 331
#     4   9  17  33  55  75 101 139 181 221 264 327
#     4   9  19  34  52  75 101 131 173 220 267 320
#     4  10  20  33  52  77 102 130 170 221 272 320
#     4  10  20  35  56  85 117 149 188 235 284 330
#     4  10  21  36  51  68  97 137 175 214 263 323
#     4  10  20  35  57  85 113 148 193 233 276 335
#     4   9  17  32  54  76 101 137 180 222 269 327
#
# _framework density 20.014952999999998
#
# number of rings (size 3 to 8) (size 9 to 14) (size 15 to 20)
#    0.000    2.500    1.250    0.750    0.000    3.750 
#    0.000    4.375    0.000    0.750    0.000    0.000 
#    0.000    0.000    0.000    0.000    0.000    0.000 
#
# Total GULP energy -178596.343728 kJ/mol
# GULP energy per Si atom -5581.135742 kJ/mol
# Density = 1.996940 g / cm^3
# Si number density = 20.014953 Si / 1000 Ang^3
#
#
#
# Elastic Constant Matrix: (Units=GPa)
#
#
# Indices 1 2 3 4 5 6 
#
# 1 46.5086 11.0050 4.7479 0.0000 -17.6299 0.0000
# 2 11.0050 51.0801 34.9488 0.0000 -21.6016 0.0000
# 3 4.7479 34.9488 81.7075 0.0000 -31.4986 0.0000
# 4 0.0000 0.0000 0.0000 21.4665 0.0000 -6.8678
# 5 -17.6299 -21.6016 -31.4986 0.0000 32.3401 0.0000
# 6 0.0000 0.0000 0.0000 -6.8678 0.0000 18.5580
#
#
#
# Elastic Compliance Matrix: (Units=1/GPa)
#
#
# Indices 1 2 3 4 5 6 
#
# 1 0.029704 -0.002364 0.007876 0.000000 0.022285 0.000000
# 2 -0.002364 0.030620 -0.008922 0.000000 0.010474 0.000000
# 3 0.007876 -0.008922 0.023946 0.000000 0.021657 0.000000
# 4 0.000000 0.000000 0.000000 0.052840 0.000000 0.019555
# 5 0.022285 0.010474 0.021657 0.000000 0.071160 0.000000
# 6 0.000000 0.000000 0.000000 0.019555 0.000000 0.061122
#
#
# Mechanical properties :
#
#
# Convention : Reuss Voigt Hill
#
# Bulk Modulus (GPa) = 12.91145 31.18885 22.05015
# Shear Modulus (GPa) = 16.55461 23.04587 19.80024
#
# Velocity S-wave (km/s) = 2.87908 3.39696 3.14868
# Velocity P-wave (km/s) = 4.18533 5.56798 4.92541
#
# Compressibility (1/GPa) = 0.07745066
#
# Stress axis : x y z
#
# Youngs Moduli (GPa) = 33.66515 32.65793 41.76004
#
# Poissons Ratio (x) = 0.07721 -0.32891
# Poissons Ratio (y) = 0.07959 0.37259
# Poissons Ratio (z) = -0.26515 0.29138
#
# Static dielectric constant tensor:
#      x y z
#    x 1.738450 0.000000 0.012160 
#    y 0.000000 1.691570 0.000000 
#    z 0.012160 0.000000 1.709280 
# 
# From -- ./inp_files/375569.got.cif
#   From: 2010.05.17/outbox.cif.g08.bks.cpg/sg12_188_cif.got.tgz:375569.got - 2010.06.03 13:09:07.
