data_PCOD9191465
_publ_section_title
;
Structure prediction by ZEFSAII (Michael W. Deem and Ramdas Pophale) SiO2 
 PCOD9191465
Probable space group: C 2/M
;
_chemical_formula_sum "Si O2"
_cell_formula_units_Z 48
_cell_length_a 18.903398
_cell_length_b 7.429502
_cell_length_c 25.186483
_cell_angle_alpha 90.000000
_cell_angle_beta 140.326527
_cell_angle_gamma 90.000000
_cell_volume 2258.228227
_symmetry_space_group_name_H-M "C 2/M"
_symmetry_group_IT_number 12
_symmetry_cell_setting 'monoclinic'
loop_
_space_group_symop_operation_xyz
x,y,z
-x,y,-z
-x,-y,-z
x,-y,z
1/2+x,1/2+y,z
1/2-x,1/2+y,-z
1/2-x,1/2-y,-z
1/2+x,1/2-y,z
loop_
_atom_site_type_symbol
_atom_site_label
_atom_site_fract_x
_atom_site_fract_y
_atom_site_fract_z
Si Si1 0.327852 0.217785 0.161804
Si Si2 0.399298 0.779509 0.319539
Si Si3 0.571478 0.787862 0.992728
Si Si4 0.412628 0.791018 0.498703
Si Si5 0.266046 0.282170 0.682226
Si Si6 0.478180 0.788494 0.152637
O O1 0.372443 0.279496 0.244728
O O2 0.200634 0.268629 0.079838
O O3 0.401817 0.285463 0.155578
O O4 0.333390 0.000000 0.165970
O O5 0.516993 0.716152 0.411587
O O6 0.302767 0.725416 0.305154
O O7 0.401558 0.000000 0.321704
O O8 0.543364 0.000000 0.973677
O O9 0.500000 0.710908 0.000000
O O10 0.544417 0.711219 0.918932
O O11 0.500000 0.788229 0.500000
O O12 0.300735 0.715118 0.408355
O O13 0.390023 0.000000 0.498379
O O14 0.261228 0.500000 0.678417
O O15 0.392921 0.228310 0.758820
O O16 0.450147 0.000000 0.133485
#
# Coordination Sequence:
#
# PCOD9191465 Si02
#       6
#     8   8   8   8   8   8
#     4  10  20  33  50  71  94 122 154 188 228 273
#     4   8  14  27  48  72  94 117 152 196 233 264
#     4  10  21  36  52  69  91 121 154 189 232 277
#     4   7  11  22  43  70  94 115 147 192 231 261
#     4   9  16  28  50  74  91 117 159 196 223 261
#     4  10  21  34  46  66  98 128 150 182 234 282
#
# _framework density 21.255602
#
# number of rings (size 3 to 8) (size 9 to 14) (size 15 to 20)
#    0.000    3.000    0.000    3.500    0.000    1.667 
#    0.000    0.833    0.000    5.500    0.000    0.000 
#    0.000    0.000    0.000    0.000    0.000    0.000 
#
# Total GULP energy -133893.424400 kJ/mol
# GULP energy per Si atom -5578.892683 kJ/mol
# Density = 2.120722 g / cm^3
# Si number density = 21.255602 Si / 1000 Ang^3
#
#
#
# Elastic Constant Matrix: (Units=GPa)
#
#
# Indices 1 2 3 4 5 6 
#
# 1 139.4207 -14.3423 86.8362 -0.0001 28.1850 0.0000
# 2 -14.3423 51.7561 -33.9859 0.0000 20.8978 -0.0001
# 3 86.8362 -33.9859 166.5066 -0.0001 21.3300 0.0001
# 4 -0.0001 0.0000 -0.0001 -11.0478 0.0001 45.7055
# 5 28.1850 20.8978 21.3300 0.0001 -49.4528 -0.0001
# 6 0.0000 -0.0001 0.0001 45.7055 -0.0001 -28.7701
#
#
#
# Elastic Compliance Matrix: (Units=1/GPa)
#
#
# Indices 1 2 3 4 5 6 
#
# 1 0.010274 -0.002096 -0.006086 0.000000 0.002344 0.000000
# 2 -0.002096 0.017960 0.003733 0.000000 0.008005 0.000000
# 3 -0.006086 0.003733 0.009651 0.000000 0.002272 0.000000
# 4 0.000000 0.000000 0.000000 0.016244 0.000000 0.025806
# 5 0.002344 0.008005 0.002272 0.000000 -0.014522 0.000000
# 6 0.000000 0.000000 0.000000 0.025806 0.000000 0.006238
#
#
# Mechanical properties :
#
#
# Convention : Reuss Voigt Hill
#
# Bulk Modulus (GPa) = 34.49836 48.29996 41.39916
# Shear Modulus (GPa) = 77.63659 3.42423 40.53041
#
# Velocity S-wave (km/s) = 6.05017 1.27062 4.37144
# Velocity P-wave (km/s) = 8.06669 4.99253 6.70809
#
# Compressibility (1/GPa) = 0.02898688
#
# Stress axis : x y z
#
# Youngs Moduli (GPa) = 97.33742 55.67974 103.61864
#
# Poissons Ratio (x) = 0.11671 0.63062
# Poissons Ratio (y) = 0.20403 -0.38686
# Poissons Ratio (z) = 0.59240 -0.20788
#
# Static dielectric constant tensor:
#      x y z
#    x 1.737200 0.000000 -0.034100 
#    y 0.000000 1.798860 0.000000 
#    z -0.034100 0.000000 1.754210 
# 
# From -- ./inp_files/250747.got.cif
#   From: 2010.05.17/outbox.cif.g08.bks.cpg/sg12_126_cif.got.tgz:250747.got - 2010.06.03 13:09:07.
