data_PCOD9191664
_publ_section_title
;
Structure prediction by ZEFSAII (Michael W. Deem and Ramdas Pophale) SiO2 
 PCOD9191664
Probable space group: C 2/M
;
_chemical_formula_sum "Si O2"
_cell_formula_units_Z 56
_cell_length_a 13.941658
_cell_length_b 13.301450
_cell_length_c 12.702184
_cell_angle_alpha 90.000000
_cell_angle_beta 64.636079
_cell_angle_gamma 90.000000
_cell_volume 2128.484728
_symmetry_space_group_name_H-M "C 2/M"
_symmetry_group_IT_number 12
_symmetry_cell_setting 'monoclinic'
loop_
_space_group_symop_operation_xyz
x,y,z
-x,y,-z
-x,-y,-z
x,-y,z
1/2+x,1/2+y,z
1/2-x,1/2+y,-z
1/2-x,1/2-y,-z
1/2+x,1/2-y,z
loop_
_atom_site_type_symbol
_atom_site_label
_atom_site_fract_x
_atom_site_fract_y
_atom_site_fract_z
Si Si1 0.761154 0.135797 0.028809
Si Si2 0.918886 0.892021 0.783235
Si Si3 0.321005 0.170255 0.584844
Si Si4 0.931464 0.342354 0.732535
Si Si5 0.615942 0.108863 0.797607
Si Si6 0.113624 0.827761 0.834146
Si Si7 0.802774 0.107901 0.556442
O O1 0.652513 0.115207 0.141856
O O2 0.849028 0.119889 0.077565
O O3 0.750000 0.250000 0.000000
O O4 0.809159 0.096354 0.898460
O O5 0.919526 0.780186 0.732393
O O6 0.015615 0.877197 0.821134
O O7 0.937164 0.000000 0.719346
O O8 0.404109 0.124121 0.627677
O O9 0.213446 0.175884 0.707090
O O10 0.279827 0.113872 0.501736
O O11 0.357056 0.282462 0.530437
O O12 0.042258 0.373898 0.729345
O O13 0.594730 0.210198 0.871594
O O14 0.735018 0.106907 0.695999
O O15 0.592421 0.000000 0.856614
O O16 0.859153 0.000000 0.520694
#
# Coordination Sequence:
#
# PCOD9191664 Si02
#       7
#     8   8   8   8   8   8   8
#     4   9  18  33  50  69  96 126 158 198 239 279
#     4  10  20  33  51  73  97 128 164 199 239 288
#     4   9  18  33  51  72  99 130 160 198 245 284
#     4   9  19  34  51  72 100 129 159 200 244 287
#     4   9  18  33  52  73  97 127 162 199 240 286
#     4   9  18  33  51  70  97 129 160 197 240 287
#     4   9  18  32  51  74  98 127 164 200 237 287
#
# _framework density 26.309795000000001
#
# number of rings (size 3 to 8) (size 9 to 14) (size 15 to 20)
#    0.000    2.857    0.000    0.429    0.000    4.000 
#    0.000   11.429    0.000   11.143    0.000    8.000 
#    0.000    0.000    0.000    0.000    0.000    0.000 
#
# Total GULP energy -156305.631472 kJ/mol
# GULP energy per Si atom -5582.343981 kJ/mol
# Density = 2.624991 g / cm^3
# Si number density = 26.309795 Si / 1000 Ang^3
#
#
#
# Elastic Constant Matrix: (Units=GPa)
#
#
# Indices 1 2 3 4 5 6 
#
# 1 71.9437 -3.8740 17.1515 0.0000 9.2775 0.0000
# 2 -3.8740 177.6736 4.1303 0.0000 -4.3276 0.0000
# 3 17.1515 4.1303 104.9828 0.0000 -3.6968 0.0000
# 4 0.0000 0.0000 0.0000 -13.5639 0.0000 -18.1754
# 5 9.2775 -4.3276 -3.6968 0.0000 37.7818 0.0000
# 6 0.0000 0.0000 0.0000 -18.1754 0.0000 -28.6592
#
#
#
# Elastic Compliance Matrix: (Units=1/GPa)
#
#
# Indices 1 2 3 4 5 6 
#
# 1 0.015042 0.000293 -0.002607 0.000000 -0.003915 0.000000
# 2 0.000293 0.005654 -0.000251 0.000000 0.000551 0.000000
# 3 -0.002607 -0.000251 0.010017 0.000000 0.001592 0.000000
# 4 0.000000 0.000000 0.000000 -0.490854 0.000000 0.311295
# 5 -0.003915 0.000551 0.001592 0.000000 0.027648 0.000000
# 6 0.000000 0.000000 0.000000 0.311295 0.000000 -0.232313
#
#
# Mechanical properties :
#
#
# Convention : Reuss Voigt Hill
#
# Bulk Modulus (GPa) = 39.08717 43.26842 41.17779
# Shear Modulus (GPa) = -7.67874 21.59123 6.95625
#
# Velocity S-wave (km/s) = -1.71024 2.86781 1.62780
# Velocity P-wave (km/s) = 3.31495 5.23901 4.38384
#
# Compressibility (1/GPa) = 0.02558384
#
# Stress axis : x y z
#
# Youngs Moduli (GPa) = 66.48096 176.86760 99.82847
#
# Poissons Ratio (x) = -0.05186 0.26024
# Poissons Ratio (y) = -0.01949 0.02505
# Poissons Ratio (z) = 0.17331 0.04438
#
# Static dielectric constant tensor:
#      x y z
#    x 2.038370 0.000000 -0.012950 
#    y 0.000000 2.147500 0.000000 
#    z -0.012950 0.000000 2.057400 
# 
# From -- ./inp_files/224685.got.cif
#   From: 2010.05.17/outbox.cif.g08.bks.cpg/sg12_113_cif.got.tgz:224685.got - 2010.06.03 13:09:07.
