data_PCOD9191270
_publ_section_title
;
Structure prediction by ZEFSAII (Michael W. Deem and Ramdas Pophale) SiO2 
 PCOD9191270
Probable space group: C 2/M
;
_chemical_formula_sum "Si O2"
_cell_formula_units_Z 64
_cell_length_a 23.983263
_cell_length_b 9.118154
_cell_length_c 17.268403
_cell_angle_alpha 90.000000
_cell_angle_beta 96.629546
_cell_angle_gamma 90.000000
_cell_volume 3751.056852
_symmetry_space_group_name_H-M "C 2/M"
_symmetry_group_IT_number 12
_symmetry_cell_setting 'monoclinic'
loop_
_space_group_symop_operation_xyz
x,y,z
-x,y,-z
-x,-y,-z
x,-y,z
1/2+x,1/2+y,z
1/2-x,1/2+y,-z
1/2-x,1/2-y,-z
1/2+x,1/2-y,z
loop_
_atom_site_type_symbol
_atom_site_label
_atom_site_fract_x
_atom_site_fract_y
_atom_site_fract_z
Si Si1 0.682337 0.325333 0.281192
Si Si2 0.970642 0.324242 0.322937
Si Si3 0.296452 0.673553 0.258641
Si Si4 0.978817 0.675122 0.082185
Si Si5 0.614427 0.324620 0.589151
Si Si6 0.601862 0.674780 0.824938
Si Si7 0.431733 0.825156 0.767951
Si Si8 0.192463 0.176423 0.462955
O O1 0.681692 0.500000 0.274975
O O2 0.739453 0.262340 0.254853
O O3 0.626507 0.257759 0.236068
O O4 0.682147 0.284878 0.372330
O O5 0.965821 0.500000 0.323354
O O6 0.942594 0.255857 0.394650
O O7 0.932991 0.257499 0.247636
O O8 0.033601 0.286616 0.305087
O O9 0.284372 0.500000 0.261047
O O10 0.337240 0.707677 0.338545
O O11 0.333621 0.701599 0.187943
O O12 0.968080 0.500000 0.084284
O O13 0.027499 0.707707 0.152929
O O14 0.923460 0.761649 0.100337
O O15 0.000000 0.711641 0.000000
O O16 0.605038 0.500000 0.589737
O O17 0.641433 0.281644 0.511653
O O18 0.592368 0.500000 0.817733
O O19 0.422424 0.000000 0.765735
O O20 0.250000 0.250000 0.500000
O O21 0.198535 0.000000 0.469970
#
# Coordination Sequence:
#
# PCOD9191270 Si02
#       8
#     8   8   8   8   8   8   8   8
#     4  11  22  32  48  73  99 131 171 211 248 293
#     4   9  17  30  49  71  94 126 168 209 249 294
#     4   9  17  30  48  69  97 133 167 203 248 295
#     4   9  18  34  57  83 106 129 161 201 243 289
#     4   9  17  30  48  69  95 126 163 211 262 301
#     4   9  17  29  48  76 105 131 161 199 245 294
#     4   9  19  35  52  71 100 134 162 195 246 302
#     4  10  20  33  47  69  98 129 169 213 257 299
#
# _framework density 17.061858000000001
#
# number of rings (size 3 to 8) (size 9 to 14) (size 15 to 20)
#    0.000    2.625    1.250    2.625    0.000    6.250 
#    0.000    0.625    0.000    4.500    0.000    0.000 
#    0.000    0.000    0.000    0.000    0.000    0.000 
#
# Total GULP energy -178316.751537 kJ/mol
# GULP energy per Si atom -5572.398486 kJ/mol
# Density = 1.702302 g / cm^3
# Si number density = 17.061858 Si / 1000 Ang^3
#
#
#
# Elastic Constant Matrix: (Units=GPa)
#
#
# Indices 1 2 3 4 5 6 
#
# 1 106.7989 49.2358 41.5641 0.0000 -23.9511 0.0000
# 2 49.2358 34.8684 27.1121 0.0000 -12.4807 0.0000
# 3 41.5641 27.1121 65.9287 0.0000 -27.1753 0.0000
# 4 0.0000 0.0000 0.0000 20.0057 0.0000 -8.9259
# 5 -23.9511 -12.4807 -27.1753 0.0000 26.7265 0.0000
# 6 0.0000 0.0000 0.0000 -8.9259 0.0000 31.7053
#
#
#
# Elastic Compliance Matrix: (Units=1/GPa)
#
#
# Indices 1 2 3 4 5 6 
#
# 1 0.028260 -0.037789 0.001530 0.000000 0.009235 0.000000
# 2 -0.037789 0.092888 -0.017997 0.000000 -0.008788 0.000000
# 3 0.001530 -0.017997 0.032201 0.000000 0.025709 0.000000
# 4 0.000000 0.000000 0.000000 0.057166 0.000000 0.016094
# 5 0.009235 -0.008788 0.025709 0.000000 0.067729 0.000000
# 6 0.000000 0.000000 0.000000 0.016094 0.000000 0.036071
#
#
# Mechanical properties :
#
#
# Convention : Reuss Voigt Hill
#
# Bulk Modulus (GPa) = 22.30281 49.26891 35.78586
# Shear Modulus (GPa) = 11.42142 21.66642 16.54392
#
# Velocity S-wave (km/s) = 2.59011 3.56740 3.11729
# Velocity P-wave (km/s) = 4.69521 6.77553 5.82893
#
# Compressibility (1/GPa) = 0.04483739
#
# Stress axis : x y z
#
# Youngs Moduli (GPa) = 35.38537 10.76568 31.05475
#
# Poissons Ratio (x) = 0.40683 -0.04753
# Poissons Ratio (y) = 1.33719 0.55889
# Poissons Ratio (z) = -0.05416 0.19375
#
# Static dielectric constant tensor:
#      x y z
#    x 1.577470 0.000000 -0.030530 
#    y 0.000000 1.566900 0.000000 
#    z -0.030530 0.000000 1.595320 
# 
# From -- ./inp_files/287615.got.cif
#   From: 2010.05.17/outbox.cif.g08.bks.cpg/sg12_144_cif.got.tgz:287615.got - 2010.06.03 13:09:07.
