data_PCOD9191663
_publ_section_title
;
Structure prediction by ZEFSAII (Michael W. Deem and Ramdas Pophale) SiO2 
 PCOD9191663
Probable space group: C 2/M
;
_chemical_formula_sum "Si O2"
_cell_formula_units_Z 48
_cell_length_a 28.609915
_cell_length_b 9.057444
_cell_length_c 16.369879
_cell_angle_alpha 90.000000
_cell_angle_beta 136.212721
_cell_angle_gamma 90.000000
_cell_volume 2935.371428
_symmetry_space_group_name_H-M "C 2/M"
_symmetry_group_IT_number 12
_symmetry_cell_setting 'monoclinic'
loop_
_space_group_symop_operation_xyz
x,y,z
-x,y,-z
-x,-y,-z
x,-y,z
1/2+x,1/2+y,z
1/2-x,1/2+y,-z
1/2-x,1/2-y,-z
1/2+x,1/2-y,z
loop_
_atom_site_type_symbol
_atom_site_label
_atom_site_fract_x
_atom_site_fract_y
_atom_site_fract_z
Si Si1 0.233396 0.176463 0.277251
Si Si2 0.009974 0.677462 0.607345
Si Si3 0.680696 0.323629 0.381304
Si Si4 0.721523 0.175831 0.088540
Si Si5 0.623241 0.823249 0.457333
Si Si6 0.644465 0.676032 0.845776
O O1 0.180996 0.208251 0.284939
O O2 0.218317 0.261161 0.175431
O O3 0.308419 0.214992 0.406132
O O4 0.233112 0.000000 0.262191
O O5 0.019617 0.500000 0.623124
O O6 0.074995 0.756289 0.726462
O O7 0.000000 0.718060 0.500000
O O8 0.942618 0.713540 0.573352
O O9 0.684291 0.500000 0.395235
O O10 0.750000 0.250000 0.500000
O O11 0.625484 0.256892 0.372582
O O12 0.795455 0.208530 0.143200
O O13 0.712118 0.000000 0.075853
O O14 0.668254 0.252042 0.960742
O O15 0.625454 0.000000 0.447147
O O16 0.639559 0.500000 0.848192
#
# Coordination Sequence:
#
# PCOD9191663 Si02
#       6
#     8   8   8   8   8   8
#     4   9  17  30  49  73  99 127 161 199 241 287
#     4  10  20  34  52  73 100 133 164 195 236 288
#     4   9  17  29  46  69  98 130 162 199 243 287
#     4  10  20  33  51  73  96 126 163 202 243 286
#     4   9  18  31  48  72 101 132 163 197 240 288
#     4  10  21  35  50  71  99 129 162 200 241 286
#
# _framework density 16.352274999999999
#
# number of rings (size 3 to 8) (size 9 to 14) (size 15 to 20)
#    0.000    2.500    0.000    3.500    0.000    7.667 
#    0.000    0.000    0.000    1.000    0.000    7.000 
#    0.000    0.000    0.000    0.000    0.000    0.000 
#
# Total GULP energy -133816.028302 kJ/mol
# GULP energy per Si atom -5575.667846 kJ/mol
# Density = 1.631506 g / cm^3
# Si number density = 16.352275 Si / 1000 Ang^3
#
#
#
# Elastic Constant Matrix: (Units=GPa)
#
#
# Indices 1 2 3 4 5 6 
#
# 1 140.3050 65.1589 85.7345 0.0000 -23.6529 0.0000
# 2 65.1589 46.1385 54.0723 0.0000 -14.1399 0.0000
# 3 85.7345 54.0723 115.2459 0.0000 -17.6816 0.0000
# 4 0.0000 0.0000 0.0000 31.6506 0.0000 -3.5590
# 5 -23.6529 -14.1399 -17.6816 0.0000 30.0463 0.0000
# 6 0.0000 0.0000 0.0000 -3.5590 0.0000 29.1430
#
#
#
# Elastic Compliance Matrix: (Units=1/GPa)
#
#
# Indices 1 2 3 4 5 6 
#
# 1 0.021683 -0.025204 -0.003854 0.000000 0.002940 0.000000
# 2 -0.025204 0.080529 -0.017877 0.000000 0.007536 0.000000
# 3 -0.003854 -0.017877 0.019980 0.000000 0.000310 0.000000
# 4 0.000000 0.000000 0.000000 0.032035 0.000000 0.003912
# 5 0.002940 0.007536 0.000310 0.000000 0.039326 0.000000
# 6 0.000000 0.000000 0.000000 0.003912 0.000000 0.034791
#
#
# Mechanical properties :
#
#
# Convention : Reuss Voigt Hill
#
# Bulk Modulus (GPa) = 35.30939 79.06898 57.18918
# Shear Modulus (GPa) = 15.07595 24.61622 19.84609
#
# Velocity S-wave (km/s) = 3.03965 3.88412 3.48754
# Velocity P-wave (km/s) = 5.82745 8.28092 7.16006
#
# Compressibility (1/GPa) = 0.02832108
#
# Stress axis : x y z
#
# Youngs Moduli (GPa) = 46.11941 12.41791 50.05069
#
# Poissons Ratio (x) = 0.31298 0.19290
# Poissons Ratio (y) = 1.16238 0.89478
# Poissons Ratio (z) = 0.17774 0.22200
#
# Static dielectric constant tensor:
#      x y z
#    x 1.570480 0.000000 -0.008300 
#    y 0.000000 1.544110 0.000000 
#    z -0.008300 0.000000 1.517210 
# 
# From -- ./inp_files/248793.got.cif
#   From: 2010.05.17/outbox.cif.g08.bks.cpg/sg12_125_cif.got.tgz:248793.got - 2010.06.03 13:09:07.
