data_PCOD9191066
_publ_section_title
;
Structure prediction by ZEFSAII (Michael W. Deem and Ramdas Pophale) SiO2 
 PCOD9191066
Probable space group: C 2/M
;
_chemical_formula_sum "Si O2"
_cell_formula_units_Z 64
_cell_length_a 20.126134
_cell_length_b 7.306093
_cell_length_c 27.573637
_cell_angle_alpha 90.000000
_cell_angle_beta 39.378862
_cell_angle_gamma 90.000000
_cell_volume 2572.372476
_symmetry_space_group_name_H-M "C 2/M"
_symmetry_group_IT_number 12
_symmetry_cell_setting 'monoclinic'
loop_
_space_group_symop_operation_xyz
x,y,z
-x,y,-z
-x,-y,-z
x,-y,z
1/2+x,1/2+y,z
1/2-x,1/2+y,-z
1/2-x,1/2-y,-z
1/2+x,1/2-y,z
loop_
_atom_site_type_symbol
_atom_site_label
_atom_site_fract_x
_atom_site_fract_y
_atom_site_fract_z
Si Si1 0.073605 0.723919 0.415183
Si Si2 0.990776 0.283615 0.761751
Si Si3 0.222494 0.222689 0.743635
Si Si4 0.484432 0.281268 0.872614
Si Si5 0.593741 0.208612 0.561108
Si Si6 0.801705 0.723245 0.805095
Si Si7 0.301977 0.221300 0.398241
Si Si8 0.097717 0.777037 0.978943
O O1 0.072578 0.500000 0.416381
O O2 0.193931 0.781717 0.344116
O O3 0.000000 0.786623 0.500000
O O4 0.011568 0.784807 0.401923
O O5 0.999194 0.500000 0.749155
O O6 0.911736 0.213401 0.765345
O O7 0.944130 0.256738 0.841465
O O8 0.110897 0.215902 0.689509
O O9 0.104056 0.288412 0.806522
O O10 0.270119 0.276498 0.768766
O O11 0.219119 0.000000 0.744638
O O12 0.489209 0.500000 0.874721
O O13 0.421789 0.215437 0.954934
O O14 0.645411 0.285231 0.580340
O O15 0.683509 0.209209 0.468804
O O16 0.569030 0.000000 0.588158
O O17 0.804835 0.500000 0.803091
O O18 0.706909 0.779858 0.893841
O O19 0.292253 0.000000 0.403121
O O20 0.098220 0.000000 0.978349
O O21 0.000000 0.722416 0.000000
#
# Coordination Sequence:
#
# PCOD9191066 Si02
#       8
#     8   8   8   8   8   8   8   8
#     4   9  17  26  40  67 100 124 151 199 250 287
#     4  10  21  34  49  72 104 140 169 198 244 304
#     4   9  16  28  48  74  99 127 168 212 250 291
#     4  10  20  32  52  80 105 128 162 211 256 295
#     4   9  17  30  49  71  92 121 162 209 251 287
#     4   9  16  29  51  73  97 132 170 205 244 296
#     4   9  18  32  48  66  94 130 166 198 237 294
#     4   9  15  28  50  79 105 125 160 210 256 292
#
# _framework density 24.879753999999998
#
# number of rings (size 3 to 8) (size 9 to 14) (size 15 to 20)
#    0.000    2.750    1.250    0.750    1.750    4.000 
#    0.000    0.000    0.000    2.250    0.000    0.000 
#    0.000    0.000    0.000    0.000    0.000    0.000 
#
# Total GULP energy -178849.566919 kJ/mol
# GULP energy per Si atom -5589.048966 kJ/mol
# Density = 2.482313 g / cm^3
# Si number density = 24.879754 Si / 1000 Ang^3
#
#
#
# Elastic Constant Matrix: (Units=GPa)
#
#
# Indices 1 2 3 4 5 6 
#
# 1 59.3620 -6.0165 -3.0062 -0.0002 0.0353 0.0055
# 2 -6.0165 105.7878 -3.5552 -0.0002 -2.2905 0.0133
# 3 -3.0062 -3.5552 120.1605 -0.0006 4.6062 0.0018
# 4 -0.0002 -0.0002 -0.0006 0.0139 -0.0006 5.4814
# 5 0.0353 -2.2905 4.6062 -0.0006 42.8601 -0.0001
# 6 0.0055 0.0133 0.0018 5.4814 -0.0001 -5.4940
#
#
#
# Elastic Compliance Matrix: (Units=1/GPa)
#
#
# Indices 1 2 3 4 5 6 
#
# 1 0.016968 0.000980 0.000454 -0.000019 -0.000010 0.000001
# 2 0.000980 0.009529 0.000288 -0.000024 0.000477 0.000001
# 3 0.000454 0.000288 0.008376 -0.000003 -0.000885 0.000001
# 4 -0.000019 -0.000024 -0.000003 0.182393 0.000002 0.181973
# 5 -0.000010 0.000477 -0.000885 0.000002 0.023452 0.000003
# 6 0.000001 0.000001 0.000001 0.181973 0.000003 -0.000462
#
#
# Mechanical properties :
#
#
# Convention : Reuss Voigt Hill
#
# Bulk Modulus (GPa) = 26.09808 28.90606 27.50207
# Shear Modulus (GPa) = 20.03329 27.33520 23.68425
#
# Velocity S-wave (km/s) = 2.84069 3.31825 3.08871
# Velocity P-wave (km/s) = 4.61214 5.13075 4.87834
#
# Compressibility (1/GPa) = 0.03831700
#
# Stress axis : x y z
#
# Youngs Moduli (GPa) = 58.93405 104.94667 119.38856
#
# Poissons Ratio (x) = -0.10285 -0.05419
# Poissons Ratio (y) = -0.05776 -0.03440
# Poissons Ratio (z) = -0.02675 -0.03024
#
# Static dielectric constant tensor:
#      x y z
#    x 1.941100 0.000000 0.021430 
#    y 0.000000 1.986780 0.000000 
#    z 0.021430 0.000000 1.975750 
# 
# From -- ./inp_files/365712.got.cif
#   From: 2010.05.17/outbox.cif.g08.bks.cpg/sg12_183_cif.got.tgz:365712.got - 2010.06.03 13:09:07.
