data_PCOD9191702
_publ_section_title
;
Structure prediction by ZEFSAII (Michael W. Deem and Ramdas Pophale) SiO2 
 PCOD9191702
Probable space group: C 2/M
;
_chemical_formula_sum "Si O2"
_cell_formula_units_Z 56
_cell_length_a 21.312738
_cell_length_b 9.640504
_cell_length_c 30.414450
_cell_angle_alpha 90.000000
_cell_angle_beta 154.980655
_cell_angle_gamma 90.000000
_cell_volume 2642.904851
_symmetry_space_group_name_H-M "C 2/M"
_symmetry_group_IT_number 12
_symmetry_cell_setting 'monoclinic'
loop_
_space_group_symop_operation_xyz
x,y,z
-x,y,-z
-x,-y,-z
x,-y,z
1/2+x,1/2+y,z
1/2-x,1/2+y,-z
1/2-x,1/2-y,-z
1/2+x,1/2-y,z
loop_
_atom_site_type_symbol
_atom_site_label
_atom_site_fract_x
_atom_site_fract_y
_atom_site_fract_z
Si Si1 0.246573 0.850539 0.726195
Si Si2 0.638719 0.835635 0.056616
Si Si3 0.510703 0.653700 0.212649
Si Si4 0.577454 0.658984 0.439855
Si Si5 0.030267 0.167998 0.716814
Si Si6 0.525494 0.332315 0.905505
Si Si7 0.658003 0.781312 0.583355
O O1 0.098120 0.846452 0.660205
O O2 0.360049 0.728248 0.808894
O O3 0.189344 0.838546 0.639389
O O4 0.321230 0.000000 0.780506
O O5 0.795102 0.808928 0.179561
O O6 0.633632 0.000000 0.042940
O O7 0.500000 0.804199 0.000000
O O8 0.627074 0.742497 0.005709
O O9 0.444184 0.500000 0.175236
O O10 0.497916 0.723475 0.251951
O O11 0.443587 0.714111 0.125330
O O12 0.686606 0.639986 0.315250
O O13 0.633277 0.500000 0.475293
O O14 0.574727 0.721119 0.388964
O O15 0.643083 0.738530 0.523141
O O16 0.006127 0.000000 0.701562
O O17 0.529828 0.500000 0.910560
O O18 0.500000 0.841691 0.500000
#
# Coordination Sequence:
#
# PCOD9191702 Si02
#       7
#     8   8   8   8   8   8   8
#     4   9  16  29  50  77 106 133 167 211 255 301
#     4  10  20  35  57  82 102 126 167 212 253 302
#     4   9  19  34  48  68 101 138 172 204 247 303
#     4   9  16  28  48  73  99 128 167 215 259 295
#     4   9  18  32  50  71  98 132 169 211 254 299
#     4  10  20  33  51  75 104 136 168 206 253 301
#     4   9  17  28  47  75 101 128 166 212 255 294
#
# _framework density 21.188806
#
# number of rings (size 3 to 8) (size 9 to 14) (size 15 to 20)
#    0.000    2.714    0.000    1.714    0.000    5.714 
#    0.000    2.143    0.000    5.143    0.000    0.000 
#    0.000    0.000    0.000    0.000    0.000    0.000 
#
# Total GULP energy -155893.362338 kJ/mol
# GULP energy per Si atom -5567.620083 kJ/mol
# Density = 2.114058 g / cm^3
# Si number density = 21.188806 Si / 1000 Ang^3
#
#
#
# Elastic Constant Matrix: (Units=GPa)
#
#
# Indices 1 2 3 4 5 6 
#
# 1 75.5295 12.5813 31.2736 -0.0005 -24.0842 0.0001
# 2 12.5813 44.4569 23.0458 0.0005 -17.4640 0.0001
# 3 31.2736 23.0458 112.6189 0.0001 -34.2913 0.0001
# 4 -0.0005 0.0005 0.0001 1.7162 0.0004 1.0883
# 5 -24.0842 -17.4640 -34.2913 0.0004 49.3622 0.0001
# 6 0.0001 0.0001 0.0001 1.0883 0.0001 5.5878
#
#
#
# Elastic Compliance Matrix: (Units=1/GPa)
#
#
# Indices 1 2 3 4 5 6 
#
# 1 0.016325 -0.001005 -0.002550 0.000005 0.005838 -0.000001
# 2 -0.001005 0.027135 -0.003171 -0.000010 0.006907 0.000002
# 3 -0.002550 -0.003171 0.012069 -0.000002 0.006018 0.000000
# 4 0.000005 -0.000010 -0.000002 0.664775 -0.000007 -0.129479
# 5 0.005838 0.006907 0.006018 -0.000007 0.029731 0.000001
# 6 -0.000001 0.000002 0.000000 -0.129479 0.000001 0.204181
#
#
# Mechanical properties :
#
#
# Convention : Reuss Voigt Hill
#
# Bulk Modulus (GPa) = 23.76529 40.71186 32.23858
# Shear Modulus (GPa) = 5.09324 22.38020 13.73672
#
# Velocity S-wave (km/s) = 1.55208 3.25349 2.54894
# Velocity P-wave (km/s) = 3.80161 5.77661 4.88986
#
# Compressibility (1/GPa) = 0.04207817
#
# Stress axis : x y z
#
# Youngs Moduli (GPa) = 61.25700 36.85269 82.85736
#
# Poissons Ratio (x) = 0.03702 0.21129
# Poissons Ratio (y) = 0.06154 0.26271
# Poissons Ratio (z) = 0.15621 0.11684
#
# Static dielectric constant tensor:
#      x y z
#    x 1.840720 0.000000 -0.018520 
#    y 0.000000 1.730200 0.000000 
#    z -0.018520 0.000000 1.776920 
# 
# From -- ./inp_files/365863.got.cif
#   From: 2010.05.17/outbox.cif.g08.bks.cpg/sg12_183_cif.got.tgz:365863.got - 2010.06.03 13:09:07.
