data_PCOD9191397
_publ_section_title
;
Structure prediction by ZEFSAII (Michael W. Deem and Ramdas Pophale) SiO2 
 PCOD9191397
Probable space group: C 2/M
;
_chemical_formula_sum "Si O2"
_cell_formula_units_Z 40
_cell_length_a 28.190396
_cell_length_b 8.175694
_cell_length_c 11.882730
_cell_angle_alpha 90.000000
_cell_angle_beta 126.433406
_cell_angle_gamma 90.000000
_cell_volume 2203.402389
_symmetry_space_group_name_H-M "C 2/M"
_symmetry_group_IT_number 12
_symmetry_cell_setting 'monoclinic'
loop_
_space_group_symop_operation_xyz
x,y,z
-x,y,-z
-x,-y,-z
x,-y,z
1/2+x,1/2+y,z
1/2-x,1/2+y,-z
1/2-x,1/2-y,-z
1/2+x,1/2-y,z
loop_
_atom_site_type_symbol
_atom_site_label
_atom_site_fract_x
_atom_site_fract_y
_atom_site_fract_z
Si Si1 0.219604 0.304967 0.286688
Si Si2 0.695648 0.694832 0.000197
Si Si3 0.423382 0.300246 0.284220
Si Si4 0.660259 0.302203 0.424093
Si Si5 0.054539 0.800550 0.428207
O O1 0.222312 0.500000 0.286841
O O2 0.205504 0.243711 0.142865
O O3 0.283332 0.245537 0.422576
O O4 0.172354 0.253012 0.314199
O O5 0.692970 0.500000 0.990552
O O6 0.750000 0.750000 0.000000
O O7 0.633901 0.759253 0.862526
O O8 0.423098 0.500000 0.281911
O O9 0.486519 0.247856 0.322852
O O10 0.423083 0.253329 0.415538
O O11 0.660271 0.500000 0.425397
O O12 0.600064 0.244640 0.397450
O O13 0.054410 0.000000 0.425962
#
# Coordination Sequence:
#
# PCOD9191397 Si02
#       5
#     8   8   8   8   8
#     4  10  20  33  49  72 100 128 160 197 239 288
#     4  11  21  33  50  73 100 128 158 194 240 289
#     4   8  15  27  46  73  99 122 154 198 241 281
#     4   9  17  31  52  74  95 124 163 204 242 280
#     4   8  13  26  49  73  95 120 156 202 243 275
#
# _framework density 18.153742999999999
#
# number of rings (size 3 to 8) (size 9 to 14) (size 15 to 20)
#    0.000    2.800    0.000    3.600    0.000    4.000 
#    0.000    1.000    0.000    8.400    0.000    8.400 
#    0.000    0.000    0.000    0.000    0.000    0.000 
#
# Total GULP energy -111522.659924 kJ/mol
# GULP energy per Si atom -5576.132996 kJ/mol
# Density = 1.811242 g / cm^3
# Si number density = 18.153743 Si / 1000 Ang^3
#
#
#
# Elastic Constant Matrix: (Units=GPa)
#
#
# Indices 1 2 3 4 5 6 
#
# 1 200.8883 20.0922 106.4510 0.0000 -3.8898 0.0000
# 2 20.0922 13.8557 14.1402 0.0000 -0.0293 0.0000
# 3 106.4510 14.1402 146.8671 0.0000 -5.3870 0.0000
# 4 0.0000 0.0000 0.0000 20.5486 0.0000 -4.8250
# 5 -3.8898 -0.0293 -5.3870 0.0000 18.8712 0.0000
# 6 0.0000 0.0000 0.0000 -4.8250 0.0000 23.8035
#
#
#
# Elastic Compliance Matrix: (Units=1/GPa)
#
#
# Indices 1 2 3 4 5 6 
#
# 1 0.008623 -0.006800 -0.005589 0.000000 0.000171 0.000000
# 2 -0.006800 0.085481 -0.003383 0.000000 -0.002235 0.000000
# 3 -0.005589 -0.003383 0.011261 0.000000 0.002057 0.000000
# 4 0.000000 0.000000 0.000000 0.051097 0.000000 0.010357
# 5 0.000171 -0.002235 0.002057 0.000000 0.053610 0.000000
# 6 0.000000 0.000000 0.000000 0.010357 0.000000 0.044110
#
#
# Mechanical properties :
#
#
# Convention : Reuss Voigt Hill
#
# Bulk Modulus (GPa) = 13.54635 71.44200 42.49418
# Shear Modulus (GPa) = 16.11168 27.37319 21.74244
#
# Velocity S-wave (km/s) = 2.98235 3.88732 3.46451
# Velocity P-wave (km/s) = 4.39743 7.71930 6.28192
#
# Compressibility (1/GPa) = 0.07382060
#
# Stress axis : x y z
#
# Youngs Moduli (GPa) = 115.96938 11.69847 88.80145
#
# Poissons Ratio (x) = 0.07955 0.49631
# Poissons Ratio (y) = 0.78860 0.30044
# Poissons Ratio (z) = 0.64816 0.03958
#
# Static dielectric constant tensor:
#      x y z
#    x 1.606210 0.000000 0.037180 
#    y 0.000000 1.650830 0.000000 
#    z 0.037180 0.000000 1.597040 
# 
# From -- ./inp_files/162396.got.cif
#   From: 2010.05.17/outbox.cif.g08.bks.cpg/sg12_82_cif.got.tgz:162396.got - 2010.06.03 13:09:07.
