data_PCOD9191697
_publ_section_title
;
Structure prediction by ZEFSAII (Michael W. Deem and Ramdas Pophale) SiO2 
 PCOD9191697
Probable space group: C 2/M
;
_chemical_formula_sum "Si O2"
_cell_formula_units_Z 64
_cell_length_a 14.816893
_cell_length_b 7.473560
_cell_length_c 26.048002
_cell_angle_alpha 90.000000
_cell_angle_beta 103.242464
_cell_angle_gamma 90.000000
_cell_volume 2807.725336
_symmetry_space_group_name_H-M "C 2/M"
_symmetry_group_IT_number 12
_symmetry_cell_setting 'monoclinic'
loop_
_space_group_symop_operation_xyz
x,y,z
-x,y,-z
-x,-y,-z
x,-y,z
1/2+x,1/2+y,z
1/2-x,1/2+y,-z
1/2-x,1/2-y,-z
1/2+x,1/2-y,z
loop_
_atom_site_type_symbol
_atom_site_label
_atom_site_fract_x
_atom_site_fract_y
_atom_site_fract_z
Si Si1 0.415321 0.215241 0.767789
Si Si2 0.907219 0.793507 0.964295
Si Si3 0.144492 0.213474 0.501289
Si Si4 0.222869 0.782839 0.793537
Si Si5 0.033302 0.780695 0.584839
Si Si6 0.946895 0.789952 0.297467
Si Si7 0.487770 0.217194 0.118637
Si Si8 0.285184 0.210667 0.086231
O O1 0.315064 0.274737 0.774769
O O2 0.454628 0.272492 0.718265
O O3 0.489598 0.273474 0.820689
O O4 0.413524 0.000000 0.767410
O O5 0.804998 0.711339 0.953830
O O6 0.932265 0.788301 0.907382
O O7 0.903636 0.000000 0.980863
O O8 0.000000 0.707466 0.000000
O O9 0.250000 0.250000 0.500000
O O10 0.110237 0.275886 0.553020
O O11 0.066885 0.276494 0.450462
O O12 0.135233 0.000000 0.501342
O O13 0.133013 0.716909 0.750557
O O14 0.222976 0.726716 0.853028
O O15 0.223086 0.000000 0.794982
O O16 0.051068 0.716424 0.644761
O O17 0.033018 0.000000 0.586209
O O18 0.925969 0.000000 0.299457
O O19 0.387254 0.281092 0.086670
O O20 0.489309 0.000000 0.117197
O O21 0.285450 0.000000 0.074656
#
# Coordination Sequence:
#
# PCOD9191697 Si02
#       8
#     8   8   8   8   8   8   8   8
#     4  10  20  34  51  76 108 137 168 212 262 306
#     4  10  22  38  55  78 105 132 170 219 261 303
#     4   9  17  33  57  78 102 139 180 218 260 308
#     4  10  20  33  51  75 102 134 172 210 250 303
#     4   8  17  34  52  74 107 143 173 210 262 315
#     4  10  20  34  53  77 105 138 178 214 251 308
#     4  10  20  35  55  77 103 135 169 207 258 315
#     4  10  20  35  55  75 101 135 168 206 256 309
#
# _framework density 22.794252
#
# number of rings (size 3 to 8) (size 9 to 14) (size 15 to 20)
#    0.000    2.375    2.500    0.750    0.000    3.250 
#    0.000    3.750    0.000    0.000    0.000    0.000 
#    0.000    0.000    0.000    0.000    0.000    0.000 
#
# Total GULP energy -178708.316774 kJ/mol
# GULP energy per Si atom -5584.634899 kJ/mol
# Density = 2.274237 g / cm^3
# Si number density = 22.794252 Si / 1000 Ang^3
#
#
#
# Elastic Constant Matrix: (Units=GPa)
#
#
# Indices 1 2 3 4 5 6 
#
# 1 147.5754 1.0715 33.2495 0.0000 -3.5796 0.0000
# 2 1.0715 69.0763 2.7844 0.0000 1.7362 0.0000
# 3 33.2495 2.7844 96.3104 0.0000 -10.2150 0.0000
# 4 0.0000 0.0000 0.0000 8.3966 0.0000 -5.5305
# 5 -3.5796 1.7362 -10.2150 0.0000 21.7586 0.0000
# 6 0.0000 0.0000 0.0000 -5.5305 0.0000 15.1428
#
#
#
# Elastic Compliance Matrix: (Units=1/GPa)
#
#
# Indices 1 2 3 4 5 6 
#
# 1 0.007348 -0.000012 -0.002534 0.000000 0.000020 0.000000
# 2 -0.000012 0.014536 -0.000567 0.000000 -0.001428 0.000000
# 3 -0.002534 -0.000567 0.011824 0.000000 0.005179 0.000000
# 4 0.000000 0.000000 0.000000 0.156819 0.000000 0.057274
# 5 0.000020 -0.001428 0.005179 0.000000 0.048507 0.000000
# 6 0.000000 0.000000 0.000000 0.057274 0.000000 0.086955
#
#
# Mechanical properties :
#
#
# Convention : Reuss Voigt Hill
#
# Bulk Modulus (GPa) = 36.39118 43.01920 39.70519
# Shear Modulus (GPa) = 14.64656 27.45006 21.04831
#
# Velocity S-wave (km/s) = 2.53762 3.47400 3.04205
# Velocity P-wave (km/s) = 4.95840 5.91653 5.45853
#
# Compressibility (1/GPa) = 0.02747919
#
# Stress axis : x y z
#
# Youngs Moduli (GPa) = 136.09623 68.79605 84.57579
#
# Poissons Ratio (x) = 0.00085 0.21433
# Poissons Ratio (y) = 0.00168 0.04799
# Poissons Ratio (z) = 0.34489 0.03904
#
# Static dielectric constant tensor:
#      x y z
#    x 1.853050 0.000000 0.018000 
#    y 0.000000 1.863690 0.000000 
#    z 0.018000 0.000000 1.847240 
# 
# From -- ./inp_files/339337.got.cif
#   From: 2010.05.17/outbox.cif.g08.bks.cpg/sg12_170_cif.got.tgz:339337.got - 2010.06.03 13:09:07.
