data_PCOD9191821
_publ_section_title
;
Structure prediction by ZEFSAII (Michael W. Deem and Ramdas Pophale) SiO2 
 PCOD9191821
Probable space group: C 2/M
;
_chemical_formula_sum "Si O2"
_cell_formula_units_Z 64
_cell_length_a 25.898568
_cell_length_b 9.595457
_cell_length_c 12.693585
_cell_angle_alpha 90.000000
_cell_angle_beta 91.944712
_cell_angle_gamma 90.000000
_cell_volume 3152.648130
_symmetry_space_group_name_H-M "C 2/M"
_symmetry_group_IT_number 12
_symmetry_cell_setting 'monoclinic'
loop_
_space_group_symop_operation_xyz
x,y,z
-x,y,-z
-x,-y,-z
x,-y,z
1/2+x,1/2+y,z
1/2-x,1/2+y,-z
1/2-x,1/2-y,-z
1/2+x,1/2-y,z
loop_
_atom_site_type_symbol
_atom_site_label
_atom_site_fract_x
_atom_site_fract_y
_atom_site_fract_z
Si Si1 0.500619 0.833543 0.669969
Si Si2 0.445905 0.343974 0.026890
Si Si3 0.414125 0.833165 0.483052
Si Si4 0.927329 0.155450 0.783657
Si Si5 0.166452 0.339113 0.190979
Si Si6 0.644811 0.160059 0.937823
Si Si7 0.201175 0.662814 0.538495
Si Si8 0.268139 0.838728 0.219887
O O1 0.455361 0.810528 0.579190
O O2 0.554842 0.791141 0.620719
O O3 0.480587 0.734395 0.760788
O O4 0.501388 0.000000 0.694679
O O5 0.455405 0.500000 0.071258
O O6 0.422322 0.360807 0.908635
O O7 0.500000 0.274055 0.000000
O O8 0.405138 0.253776 0.086785
O O9 0.355911 0.780290 0.495153
O O10 0.408449 0.000000 0.473714
O O11 0.879856 0.257198 0.755252
O O12 0.925210 0.000000 0.736340
O O13 0.166521 0.500000 0.223998
O O14 0.219184 0.260960 0.219347
O O15 0.158588 0.336437 0.063146
O O16 0.693174 0.203913 0.870586
O O17 0.633041 0.000000 0.909445
O O18 0.206130 0.500000 0.505352
O O19 0.250000 0.750000 0.500000
O O20 0.203842 0.665131 0.665733
O O21 0.251904 0.000000 0.199455
#
# Coordination Sequence:
#
# PCOD9191821 Si02
#       8
#     8   8   8   8   8   8   8   8
#     4   9  17  33  58  82 102 135 180 224 269 320
#     4   9  19  35  52  73 106 145 176 210 261 318
#     4   8  17  35  56  77 105 138 176 223 271 318
#     4  10  20  33  51  78 110 139 172 218 271 317
#     4  10  20  34  54  79 107 141 184 223 261 322
#     4   9  19  35  54  79 108 138 176 223 269 318
#     4  10  22  39  56  78 110 147 183 222 271 328
#     4  10  21  36  54  78 108 141 177 222 277 320
#
# _framework density 20.300395000000002
#
# number of rings (size 3 to 8) (size 9 to 14) (size 15 to 20)
#    0.000    2.625    0.000    1.875    1.750    3.250 
#    0.000    3.125    0.000    0.000    0.000    0.000 
#    0.000    0.000    0.000    0.000    0.000    0.000 
#
# Total GULP energy -178394.752808 kJ/mol
# GULP energy per Si atom -5574.836025 kJ/mol
# Density = 2.025419 g / cm^3
# Si number density = 20.300395 Si / 1000 Ang^3
#
#
#
# Elastic Constant Matrix: (Units=GPa)
#
#
# Indices 1 2 3 4 5 6 
#
# 1 122.3618 39.7650 6.4476 0.0000 -8.7107 0.0000
# 2 39.7650 60.5262 9.8653 0.0000 -3.4092 0.0000
# 3 6.4476 9.8653 34.4489 0.0000 -15.5076 0.0000
# 4 0.0000 0.0000 0.0000 -4.1380 0.0000 -3.7905
# 5 -8.7107 -3.4092 -15.5076 0.0000 22.1556 0.0000
# 6 0.0000 0.0000 0.0000 -3.7905 0.0000 29.3356
#
#
#
# Elastic Compliance Matrix: (Units=1/GPa)
#
#
# Indices 1 2 3 4 5 6 
#
# 1 0.010700 -0.007113 0.002096 0.000000 0.004579 0.000000
# 2 -0.007113 0.022081 -0.006893 0.000000 -0.004224 0.000000
# 3 0.002096 -0.006893 0.044537 0.000000 0.030936 0.000000
# 4 0.000000 0.000000 0.000000 -0.216085 0.000000 -0.027921
# 5 0.004579 -0.004224 0.030936 0.000000 0.067939 0.000000
# 6 0.000000 0.000000 0.000000 -0.027921 0.000000 0.030481
#
#
# Mechanical properties :
#
#
# Convention : Reuss Voigt Hill
#
# Bulk Modulus (GPa) = 18.69329 36.61030 27.65180
# Shear Modulus (GPa) = 3829.61067 20.22122 1924.91594
#
# Velocity S-wave (km/s) = 43.48064 3.15953 30.82652
# Velocity P-wave (km/s) = 50.29894 5.60211 35.78664
#
# Compressibility (1/GPa) = 0.05349513
#
# Stress axis : x y z
#
# Youngs Moduli (GPa) = 93.46073 45.28827 22.45342
#
# Poissons Ratio (x) = 0.32215 -0.04706
# Poissons Ratio (y) = 0.66481 0.15478
# Poissons Ratio (z) = -0.19587 0.31219
#
# Static dielectric constant tensor:
#      x y z
#    x 1.730070 0.000000 0.030680 
#    y 0.000000 1.726460 0.000000 
#    z 0.030680 0.000000 1.801280 
# 
# From -- ./inp_files/238718.got.cif
#   From: 2010.05.17/outbox.cif.g08.bks.cpg/sg12_120_cif.got.tgz:238718.got - 2010.06.03 13:09:07.
