data_PCOD9191811
_publ_section_title
;
Structure prediction by ZEFSAII (Michael W. Deem and Ramdas Pophale) SiO2 
 PCOD9191811
Probable space group: C 2/M
;
_chemical_formula_sum "Si O2"
_cell_formula_units_Z 64
_cell_length_a 16.447926
_cell_length_b 8.102491
_cell_length_c 19.293229
_cell_angle_alpha 90.000000
_cell_angle_beta 88.889012
_cell_angle_gamma 90.000000
_cell_volume 2570.709308
_symmetry_space_group_name_H-M "C 2/M"
_symmetry_group_IT_number 12
_symmetry_cell_setting 'monoclinic'
loop_
_space_group_symop_operation_xyz
x,y,z
-x,y,-z
-x,-y,-z
x,-y,z
1/2+x,1/2+y,z
1/2-x,1/2+y,-z
1/2-x,1/2-y,-z
1/2+x,1/2-y,z
loop_
_atom_site_type_symbol
_atom_site_label
_atom_site_fract_x
_atom_site_fract_y
_atom_site_fract_z
Si Si1 0.630491 0.306149 0.017608
Si Si2 0.531487 0.198778 0.642308
Si Si3 0.129107 0.196511 0.518595
Si Si4 0.220201 0.306715 0.389917
Si Si5 0.463838 0.191969 0.859016
Si Si6 0.624138 0.798655 0.771195
Si Si7 0.124843 0.809494 0.268205
Si Si8 0.279188 0.193986 0.107564
O O1 0.642027 0.500000 0.003695
O O2 0.553993 0.282997 0.068914
O O3 0.703762 0.237095 0.065549
O O4 0.643355 0.214785 0.944921
O O5 0.550576 0.264257 0.565822
O O6 0.604357 0.254169 0.693636
O O7 0.451027 0.265243 0.680535
O O8 0.527905 0.000000 0.641489
O O9 0.145084 0.280753 0.444820
O O10 0.203314 0.257458 0.567149
O O11 0.135919 0.000000 0.508434
O O12 0.230761 0.500000 0.377602
O O13 0.201166 0.224007 0.316937
O O14 0.543593 0.248366 0.816333
O O15 0.392201 0.214874 0.802902
O O16 0.472134 0.000000 0.874650
O O17 0.698002 0.737851 0.817514
O O18 0.627797 0.000000 0.770044
O O19 0.123982 0.000000 0.249196
O O20 0.261961 0.000000 0.116429
#
# Coordination Sequence:
#
# PCOD9191811 Si02
#       8
#     8   8   8   8   8   8   8   8
#     4  10  20  33  51  78 108 137 172 217 266 315
#     4  10  20  36  57  81 110 143 180 222 272 327
#     4  10  21  37  57  83 112 142 180 225 270 317
#     4  10  21  38  58  81 111 145 181 222 269 321
#     4  10  20  36  56  77 104 138 176 218 266 320
#     4   8  17  34  55  76  98 133 179 218 254 307
#     4  11  22  37  57  81 110 142 180 225 270 319
#     4   9  18  35  55  74 101 138 178 217 259 312
#
# _framework density 24.895852999999999
#
# number of rings (size 3 to 8) (size 9 to 14) (size 15 to 20)
#    0.000    2.250    0.000    3.750    0.000    4.000 
#    0.000   10.000    0.000    0.000    0.000    0.000 
#    0.000    0.000    0.000    0.000    0.000    0.000 
#
# Total GULP energy -178951.560858 kJ/mol
# GULP energy per Si atom -5592.236277 kJ/mol
# Density = 2.483919 g / cm^3
# Si number density = 24.895853 Si / 1000 Ang^3
#
#
#
# Elastic Constant Matrix: (Units=GPa)
#
#
# Indices 1 2 3 4 5 6 
#
# 1 40.4951 -5.6597 22.7909 0.0000 2.4937 0.0000
# 2 -5.6597 39.9570 -6.7865 0.0000 1.7054 0.0000
# 3 22.7909 -6.7865 146.3525 0.0000 -1.7670 0.0000
# 4 0.0000 0.0000 0.0000 22.2729 0.0000 -1.3292
# 5 2.4937 1.7054 -1.7670 0.0000 51.5732 0.0000
# 6 0.0000 0.0000 0.0000 -1.3292 0.0000 17.3059
#
#
#
# Elastic Compliance Matrix: (Units=1/GPa)
#
#
# Indices 1 2 3 4 5 6 
#
# 1 0.027593 0.003269 -0.004164 0.000000 -0.001585 0.000000
# 2 0.003269 0.025645 0.000668 0.000000 -0.000983 0.000000
# 3 -0.004164 0.000668 0.007518 0.000000 0.000437 0.000000
# 4 0.000000 0.000000 0.000000 0.045104 0.000000 0.003464
# 5 -0.001585 -0.000983 0.000437 0.000000 0.019514 0.000000
# 6 0.000000 0.000000 0.000000 0.003464 0.000000 0.058050
#
#
# Mechanical properties :
#
#
# Convention : Reuss Voigt Hill
#
# Bulk Modulus (GPa) = 16.58361 27.49935 22.04148
# Shear Modulus (GPa) = 24.51235 32.66106 28.58670
#
# Velocity S-wave (km/s) = 3.14123 3.62596 3.39226
# Velocity P-wave (km/s) = 4.45332 5.34788 4.92097
#
# Compressibility (1/GPa) = 0.06030051
#
# Stress axis : x y z
#
# Youngs Moduli (GPa) = 36.24169 38.99345 133.02123
#
# Poissons Ratio (x) = -0.12746 0.55396
# Poissons Ratio (y) = -0.11846 -0.08890
# Poissons Ratio (z) = 0.15093 -0.02606
#
# Static dielectric constant tensor:
#      x y z
#    x 2.148670 0.000000 0.016000 
#    y 0.000000 1.861820 0.000000 
#    z 0.016000 0.000000 1.942810 
# 
# From -- ./inp_files/314133.got.cif
#   From: 2010.05.17/outbox.cif.g08.bks.cpg/sg12_158_cif.got.tgz:314133.got - 2010.06.03 13:09:07.
