data_PCOD9191327
_publ_section_title
;
Structure prediction by ZEFSAII (Michael W. Deem and Ramdas Pophale) SiO2 
 PCOD9191327
Probable space group: C 2/M
;
_chemical_formula_sum "Si O2"
_cell_formula_units_Z 56
_cell_length_a 30.755254
_cell_length_b 7.855599
_cell_length_c 12.253549
_cell_angle_alpha 90.000000
_cell_angle_beta 117.597887
_cell_angle_gamma 90.000000
_cell_volume 2623.628794
_symmetry_space_group_name_H-M "C 2/M"
_symmetry_group_IT_number 12
_symmetry_cell_setting 'monoclinic'
loop_
_space_group_symop_operation_xyz
x,y,z
-x,y,-z
-x,-y,-z
x,-y,z
1/2+x,1/2+y,z
1/2-x,1/2+y,-z
1/2-x,1/2-y,-z
1/2+x,1/2-y,z
loop_
_atom_site_type_symbol
_atom_site_label
_atom_site_fract_x
_atom_site_fract_y
_atom_site_fract_z
Si Si1 0.841694 0.794606 0.373283
Si Si2 0.251295 0.303414 0.128660
Si Si3 0.943371 0.790973 0.917750
Si Si4 0.354862 0.303993 0.964929
Si Si5 0.507475 0.203590 0.380724
Si Si6 0.399493 0.694953 0.639191
Si Si7 0.600332 0.203461 0.767666
O O1 0.792917 0.725125 0.256206
O O2 0.857487 0.728386 0.511431
O O3 0.884511 0.753473 0.336407
O O4 0.838665 0.000000 0.380779
O O5 0.263770 0.500000 0.138566
O O6 0.197276 0.281582 0.116480
O O7 0.250000 0.250000 0.000000
O O8 0.904076 0.737088 0.964031
O O9 0.918608 0.730748 0.775532
O O10 0.945385 0.000000 0.919159
O O11 0.000000 0.734475 0.000000
O O12 0.349654 0.500000 0.927133
O O13 0.364053 0.288929 0.104653
O O14 0.500000 0.233999 0.500000
O O15 0.552097 0.300803 0.379650
O O16 0.455258 0.252449 0.269047
O O17 0.515521 0.000000 0.376046
O O18 0.385197 0.500000 0.646922
O O19 0.604450 0.000000 0.781584
#
# Coordination Sequence:
#
# PCOD9191327 Si02
#       7
#     8   8   8   8   8   8   8
#     4  10  21  35  54  81 112 144 185 235 284 338
#     4  11  22  37  57  84 117 152 191 239 292 344
#     4   9  19  37  60  85 114 149 191 239 285 337
#     4  11  22  37  59  85 114 148 192 241 289 340
#     4  10  20  33  48  76 115 149 179 223 286 346
#     4  10  20  36  58  82 109 148 195 240 283 333
#     4  11  21  33  53  79 113 150 185 229 282 344
#
# _framework density 21.344483
#
# number of rings (size 3 to 8) (size 9 to 14) (size 15 to 20)
#    0.000    1.714    2.857    2.143    0.000    3.143 
#    0.000    2.143    0.000    3.857    0.000    0.000 
#    0.000    0.000    0.000    0.000    0.000    0.000 
#
# Total GULP energy -156210.246913 kJ/mol
# GULP energy per Si atom -5578.937390 kJ/mol
# Density = 2.129590 g / cm^3
# Si number density = 21.344483 Si / 1000 Ang^3
#
#
#
# Elastic Constant Matrix: (Units=GPa)
#
#
# Indices 1 2 3 4 5 6 
#
# 1 79.8794 -2.8801 51.2477 0.0000 16.5379 0.0000
# 2 -2.8801 21.1231 8.7955 0.0000 4.0600 0.0000
# 3 51.2477 8.7955 151.2109 0.0000 15.0675 0.0000
# 4 0.0000 0.0000 0.0000 10.3662 0.0000 -7.9974
# 5 16.5379 4.0600 15.0675 0.0000 34.2621 0.0000
# 6 0.0000 0.0000 0.0000 -7.9974 0.0000 59.7278
#
#
#
# Elastic Compliance Matrix: (Units=1/GPa)
#
#
# Indices 1 2 3 4 5 6 
#
# 1 0.017816 0.006118 -0.005715 0.000000 -0.006811 0.000000
# 2 0.006118 0.051357 -0.004351 0.000000 -0.007126 0.000000
# 3 -0.005715 -0.004351 0.008866 0.000000 -0.000625 0.000000
# 4 0.000000 0.000000 0.000000 0.107581 0.000000 0.014405
# 5 -0.006811 -0.007126 -0.000625 0.000000 0.033594 0.000000
# 6 0.000000 0.000000 0.000000 0.014405 0.000000 0.018671
#
#
# Mechanical properties :
#
#
# Convention : Reuss Voigt Hill
#
# Bulk Modulus (GPa) = 14.25655 40.72664 27.49160
# Shear Modulus (GPa) = 18.57618 33.87457 26.22537
#
# Velocity S-wave (km/s) = 2.95329 3.98809 3.50904
# Velocity P-wave (km/s) = 4.28054 6.35048 5.41533
#
# Compressibility (1/GPa) = 0.07014318
#
# Stress axis : x y z
#
# Youngs Moduli (GPa) = 56.12790 19.47151 112.79510
#
# Poissons Ratio (x) = -0.11913 0.64467
# Poissons Ratio (y) = -0.34341 0.49075
# Poissons Ratio (z) = 0.32080 0.08472
#
# Static dielectric constant tensor:
#      x y z
#    x 1.757820 0.000000 0.033580 
#    y 0.000000 1.764160 0.000000 
#    z 0.033580 0.000000 1.859170 
# 
# From -- ./inp_files/187721.got.cif
#   From: 2010.05.17/outbox.cif.g08.bks.cpg/sg12_94_cif.got.tgz:187721.got - 2010.06.03 13:09:07.
