data_PCOD9191742
_publ_section_title
;
Structure prediction by ZEFSAII (Michael W. Deem and Ramdas Pophale) SiO2 
 PCOD9191742
Probable space group: C 2/M
;
_chemical_formula_sum "Si O2"
_cell_formula_units_Z 60
_cell_length_a 13.191844
_cell_length_b 11.769142
_cell_length_c 25.301963
_cell_angle_alpha 90.000000
_cell_angle_beta 49.177957
_cell_angle_gamma 90.000000
_cell_volume 2972.715110
_symmetry_space_group_name_H-M "C 2/M"
_symmetry_group_IT_number 12
_symmetry_cell_setting 'monoclinic'
loop_
_space_group_symop_operation_xyz
x,y,z
-x,y,-z
-x,-y,-z
x,-y,z
1/2+x,1/2+y,z
1/2-x,1/2+y,-z
1/2-x,1/2-y,-z
1/2+x,1/2-y,z
loop_
_atom_site_type_symbol
_atom_site_label
_atom_site_fract_x
_atom_site_fract_y
_atom_site_fract_z
Si Si1 0.500000 0.280755 0.000000
Si Si2 0.941512 0.869232 0.348765
Si Si3 0.073955 0.630911 0.536966
Si Si4 0.288665 0.132192 0.875722
Si Si5 0.997513 0.632142 0.894956
Si Si6 0.760871 0.633371 0.670919
Si Si7 0.832891 0.127256 0.506219
Si Si8 0.727682 0.265796 0.228144
O O1 0.636307 0.351707 0.947427
O O2 0.484074 0.204007 0.953046
O O3 0.833888 0.821147 0.343694
O O4 0.888231 0.871813 0.426985
O O5 0.085849 0.814599 0.294580
O O6 0.960075 0.000000 0.327651
O O7 0.097108 0.500000 0.506715
O O8 0.117649 0.747848 0.491923
O O9 0.172312 0.630787 0.554111
O O10 0.919047 0.643501 0.603884
O O11 0.394096 0.171513 0.884566
O O12 0.297611 0.199584 0.817832
O O13 0.316423 0.000000 0.856339
O O14 0.969449 0.500000 0.915043
O O15 0.150655 0.647758 0.823561
O O16 0.738050 0.500000 0.683335
O O17 0.727506 0.688613 0.738115
O O18 0.865974 0.000000 0.517356
#
# Coordination Sequence:
#
# PCOD9191742 Si02
#       8
#     4   8   8   8   8   8   8   8
#     4  10  20  36  60  80 106 136 166 208 258 300
#     4  10  20  33  51  76 104 137 181 226 267 319
#     4   9  17  31  52  76 103 137 178 227 280 328
#     4  10  21  36  55  80 107 136 172 210 252 307
#     4  10  21  36  55  80 107 136 172 210 252 307
#     4  10  20  33  51  76 104 137 181 226 267 319
#     4   9  17  31  52  76 103 137 178 227 280 328
#     4  11  20  35  53  74 105 144 174 212 263 310
#
# _framework density 20.183568000000001
#
# number of rings (size 3 to 8) (size 9 to 14) (size 15 to 20)
#    0.000    2.133    1.333    2.400    0.000    0.533 
#    0.000    2.667    0.000   15.200    0.000    3.733 
#    0.000    0.000    0.000    0.000    0.000    0.000 
#
# Total GULP energy -167231.491810 kJ/mol
# GULP energy per Si atom -5574.383060 kJ/mol
# Density = 2.013763 g / cm^3
# Si number density = 20.183568 Si / 1000 Ang^3
#
#
#
# Elastic Constant Matrix: (Units=GPa)
#
#
# Indices 1 2 3 4 5 6 
#
# 1 121.3559 12.9400 22.8576 0.0000 -0.0555 0.0000
# 2 12.9400 92.0995 -3.3855 0.0000 6.9642 0.0000
# 3 22.8576 -3.3855 51.9357 0.0000 -2.4928 0.0000
# 4 0.0000 0.0000 0.0000 7.4535 0.0000 -1.4555
# 5 -0.0555 6.9642 -2.4928 0.0000 29.6462 0.0000
# 6 0.0000 0.0000 0.0000 -1.4555 0.0000 11.3037
#
#
#
# Elastic Compliance Matrix: (Units=1/GPa)
#
#
# Indices 1 2 3 4 5 6 
#
# 1 0.009172 -0.001441 -0.004130 0.000000 0.000008 0.000000
# 2 -0.001441 0.011299 0.001248 0.000000 -0.002552 0.000000
# 3 -0.004130 0.001248 0.021225 0.000000 0.001484 0.000000
# 4 0.000000 0.000000 0.000000 0.137627 0.000000 0.017722
# 5 0.000008 -0.002552 0.001484 0.000000 0.034455 0.000000
# 6 0.000000 0.000000 0.000000 0.017722 0.000000 0.090748
#
#
# Mechanical properties :
#
#
# Convention : Reuss Voigt Hill
#
# Bulk Modulus (GPa) = 30.25722 36.69059 33.47391
# Shear Modulus (GPa) = 15.42310 25.21261 20.31786
#
# Velocity S-wave (km/s) = 2.76731 3.53819 3.17622
# Velocity P-wave (km/s) = 5.02337 5.90844 5.48379
#
# Compressibility (1/GPa) = 0.03304996
#
# Stress axis : x y z
#
# Youngs Moduli (GPa) = 109.02962 88.50216 47.11443
#
# Poissons Ratio (x) = 0.12754 0.19459
# Poissons Ratio (y) = 0.15712 -0.05881
# Poissons Ratio (z) = 0.45031 -0.11048
#
# Static dielectric constant tensor:
#      x y z
#    x 1.743860 0.000000 -0.003750 
#    y 0.000000 1.750450 0.000000 
#    z -0.003750 0.000000 1.684050 
# 
# From -- ./inp_files/373815.got.cif
#   From: 2010.05.17/outbox.cif.g08.bks.cpg/sg12_187_cif.got.tgz:373815.got - 2010.06.03 13:09:07.
