data_PCOD9191935
_publ_section_title
;
Structure prediction by ZEFSAII (Michael W. Deem and Ramdas Pophale) SiO2 
 PCOD9191935
Probable space group: C 2/M
;
_chemical_formula_sum "Si O2"
_cell_formula_units_Z 40
_cell_length_a 19.608591
_cell_length_b 9.017769
_cell_length_c 27.306974
_cell_angle_alpha 90.000000
_cell_angle_beta 151.405827
_cell_angle_gamma 90.000000
_cell_volume 2310.968853
_symmetry_space_group_name_H-M "C 2/M"
_symmetry_group_IT_number 12
_symmetry_cell_setting 'monoclinic'
loop_
_space_group_symop_operation_xyz
x,y,z
-x,y,-z
-x,-y,-z
x,-y,z
1/2+x,1/2+y,z
1/2-x,1/2+y,-z
1/2-x,1/2-y,-z
1/2+x,1/2-y,z
loop_
_atom_site_type_symbol
_atom_site_label
_atom_site_fract_x
_atom_site_fract_y
_atom_site_fract_z
Si Si1 0.246063 0.823755 0.784536
Si Si2 0.658627 0.822553 0.827591
Si Si3 0.967154 0.823195 0.066156
Si Si4 0.443130 0.676559 0.766399
Si Si5 0.656332 0.322653 0.617138
O O1 0.165022 0.743739 0.777338
O O2 0.407138 0.762022 0.882439
O O3 0.176188 0.792662 0.687505
O O4 0.247752 0.000000 0.793318
O O5 0.533807 0.753967 0.781443
O O6 0.646676 0.000000 0.818735
O O7 0.810859 0.784222 0.948559
O O8 0.985277 0.791205 0.135356
O O9 0.988411 0.000000 0.072453
O O10 0.442396 0.500000 0.759253
O O11 0.283307 0.738867 0.669607
O O12 0.500000 0.280594 0.500000
O O13 0.674083 0.500000 0.621348
#
# Coordination Sequence:
#
# PCOD9191935 Si02
#       5
#     8   8   8   8   8
#     4  10  20  33  52  78 104 132 170 212 252 298
#     4  11  21  33  50  74 108 143 171 203 248 299
#     4   9  19  34  51  73 104 142 175 204 244 297
#     4  10  20  34  53  78 105 132 170 214 252 295
#     4   9  19  38  60  77  97 129 168 210 258 310
#
# _framework density 17.308757
#
# number of rings (size 3 to 8) (size 9 to 14) (size 15 to 20)
#    0.000    2.200    0.000    3.000    0.000    6.000 
#    0.000    1.000    0.000    0.000    0.000    0.000 
#    0.000    0.000    0.000    0.000    0.000    0.000 
#
# Total GULP energy -111687.560599 kJ/mol
# GULP energy per Si atom -5584.378030 kJ/mol
# Density = 1.726936 g / cm^3
# Si number density = 17.308757 Si / 1000 Ang^3
#
#
#
# Elastic Constant Matrix: (Units=GPa)
#
#
# Indices 1 2 3 4 5 6 
#
# 1 156.7788 76.9979 64.9594 -0.0001 17.6952 0.0000
# 2 76.9979 58.4431 50.8608 -0.0001 9.2775 0.0000
# 3 64.9594 50.8608 112.0640 -0.0002 12.4604 -0.0001
# 4 -0.0001 -0.0001 -0.0002 23.8701 -0.0002 5.3823
# 5 17.6952 9.2775 12.4604 -0.0002 7.5325 0.0000
# 6 0.0000 0.0000 -0.0001 5.3823 0.0000 37.3195
#
#
#
# Elastic Compliance Matrix: (Units=1/GPa)
#
#
# Indices 1 2 3 4 5 6 
#
# 1 0.020066 -0.024970 0.001866 0.000000 -0.019472 0.000000
# 2 -0.024970 0.061170 -0.014010 0.000000 0.006495 0.000000
# 3 0.001866 -0.014010 0.015647 0.000000 -0.013012 0.000000
# 4 0.000000 0.000000 0.000000 0.043302 0.000001 -0.006245
# 5 -0.019472 0.006495 -0.013012 0.000001 0.192027 0.000000
# 6 0.000000 0.000000 0.000000 -0.006245 0.000000 0.027696
#
#
# Mechanical properties :
#
#
# Convention : Reuss Voigt Hill
#
# Bulk Modulus (GPa) = 44.13999 79.21359 61.67679
# Shear Modulus (GPa) = 11.32019 22.70893 17.01456
#
# Velocity S-wave (km/s) = 2.56015 3.62607 3.13869
# Velocity P-wave (km/s) = 5.85628 7.96213 6.98898
#
# Compressibility (1/GPa) = 0.02265519
#
# Stress axis : x y z
#
# Youngs Moduli (GPa) = 49.83448 16.34787 63.90958
#
# Poissons Ratio (x) = 0.40821 -0.11927
# Poissons Ratio (y) = 1.24438 0.89538
# Poissons Ratio (z) = -0.09300 0.22904
#
# Static dielectric constant tensor:
#      x y z
#    x 1.566700 0.000000 -0.018070 
#    y 0.000000 1.574320 0.000000 
#    z -0.018070 0.000000 1.567380 
# 
# From -- ./inp_files/151700.got.cif
#   From: 2010.05.17/outbox.cif.g08.bks.cpg/sg12_76_cif.got.tgz:151700.got - 2010.06.03 13:09:07.
