data_PCOD9191192
_publ_section_title
;
Structure prediction by ZEFSAII (Michael W. Deem and Ramdas Pophale) SiO2 
 PCOD9191192
Probable space group: C 2/M
;
_chemical_formula_sum "Si O2"
_cell_formula_units_Z 64
_cell_length_a 16.785343
_cell_length_b 22.222429
_cell_length_c 9.093034
_cell_angle_alpha 90.000000
_cell_angle_beta 103.427057
_cell_angle_gamma 90.000000
_cell_volume 3299.092142
_symmetry_space_group_name_H-M "C 2/M"
_symmetry_group_IT_number 12
_symmetry_cell_setting 'monoclinic'
loop_
_space_group_symop_operation_xyz
x,y,z
-x,y,-z
-x,-y,-z
x,-y,z
1/2+x,1/2+y,z
1/2-x,1/2+y,-z
1/2-x,1/2-y,-z
1/2+x,1/2-y,z
loop_
_atom_site_type_symbol
_atom_site_label
_atom_site_fract_x
_atom_site_fract_y
_atom_site_fract_z
Si Si1 0.773153 0.374816 0.866209
Si Si2 0.669143 0.429635 0.069470
Si Si3 0.520454 0.843644 0.669844
Si Si4 0.851283 0.282250 0.125951
Si Si5 0.094702 0.805515 0.080784
Si Si6 0.622594 0.932751 0.318690
Si Si7 0.330302 0.068194 0.338063
Si Si8 0.729448 0.756437 0.319819
O O1 0.828139 0.424235 0.809210
O O2 0.758923 0.324956 0.732286
O O3 0.701110 0.408557 0.922224
O O4 0.822719 0.335784 0.007763
O O5 0.643241 0.500000 0.058546
O O6 0.747041 0.424190 0.212838
O O7 0.607744 0.377254 0.095451
O O8 0.500000 0.819557 0.500000
O O9 0.555472 0.793040 0.788680
O O10 0.445917 0.881611 0.700455
O O11 0.597035 0.888592 0.680394
O O12 0.850466 0.221240 0.031254
O O13 0.795082 0.278705 0.245842
O O14 0.139829 0.770450 0.235718
O O15 0.000000 0.793920 0.000000
O O16 0.677889 0.925009 0.489224
O O17 0.586829 0.000000 0.312292
O O18 0.358326 0.000000 0.323009
O O19 0.750000 0.750000 0.500000
#
# Coordination Sequence:
#
# PCOD9191192 Si02
#       8
#     8   8   8   8   8   8   8   8
#     4  11  21  37  60  87 120 159 201 254 299 361
#     4  11  21  40  65  86 112 161 208 251 308 365
#     4  10  20  32  57  81 123 161 204 244 301 358
#     4  11  22  41  59  86 122 157 201 247 303 360
#     4  11  24  42  63  94 126 156 195 256 313 360
#     4  10  22  35  52  89 127 161 203 248 295 356
#     4   9  18  35  57  80 116 162 208 251 293 350
#     4  11  24  41  70  91 119 162 209 253 306 367
#
# _framework density 19.399276
#
# number of rings (size 3 to 8) (size 9 to 14) (size 15 to 20)
#    0.000    1.500    3.750    1.500    8.750    1.750 
#    0.000    0.625    0.000    0.000    0.000    0.875 
#    0.000    0.000    0.000    0.000    0.000    0.000 
#
# Total GULP energy -178481.304196 kJ/mol
# GULP energy per Si atom -5577.540756 kJ/mol
# Density = 1.935512 g / cm^3
# Si number density = 19.399276 Si / 1000 Ang^3
#
#
#
# Elastic Constant Matrix: (Units=GPa)
#
#
# Indices 1 2 3 4 5 6 
#
# 1 49.9751 8.2459 34.2412 0.0000 9.2495 0.0000
# 2 8.2459 87.2485 31.3829 0.0000 11.5198 0.0000
# 3 34.2412 31.3829 114.6527 0.0000 7.9669 0.0000
# 4 0.0000 0.0000 0.0000 26.4537 0.0000 7.1342
# 5 9.2495 11.5198 7.9669 0.0000 24.8422 0.0000
# 6 0.0000 0.0000 0.0000 7.1342 0.0000 19.8501
#
#
#
# Elastic Compliance Matrix: (Units=1/GPa)
#
#
# Indices 1 2 3 4 5 6 
#
# 1 0.026584 0.001334 -0.007746 0.000000 -0.008033 0.000000
# 2 0.001334 0.013388 -0.003679 0.000000 -0.005525 0.000000
# 3 -0.007746 -0.003679 0.011991 0.000000 0.000745 0.000000
# 4 0.000000 0.000000 0.000000 0.041859 0.000000 -0.015044
# 5 -0.008033 -0.005525 0.000745 0.000000 0.045568 0.000000
# 6 0.000000 0.000000 0.000000 -0.015044 0.000000 0.055784
#
#
# Mechanical properties :
#
#
# Convention : Reuss Voigt Hill
#
# Bulk Modulus (GPa) = 31.46568 44.40182 37.93375
# Shear Modulus (GPa) = 22.12868 26.09630 24.11249
#
# Velocity S-wave (km/s) = 3.38108 3.67170 3.52939
# Velocity P-wave (km/s) = 5.61227 6.39635 6.01709
#
# Compressibility (1/GPa) = 0.03178066
#
# Stress axis : x y z
#
# Youngs Moduli (GPa) = 37.61646 74.69188 83.39709
#
# Poissons Ratio (x) = -0.09967 0.64604
# Poissons Ratio (y) = -0.05020 0.30684
# Poissons Ratio (z) = 0.29140 0.27481
#
# Static dielectric constant tensor:
#      x y z
#    x 1.691250 0.000000 0.008740 
#    y 0.000000 1.756570 0.000000 
#    z 0.008740 0.000000 1.702440 
# 
# From -- ./inp_files/78804.got.cif
#   From: 2010.05.17/outbox.cif.g08.bks.cpg/sg12_40_cif.got.tgz:78804.got - 2010.06.03 13:09:07.
