data_PCOD9191626
_publ_section_title
;
Structure prediction by ZEFSAII (Michael W. Deem and Ramdas Pophale) SiO2 
 PCOD9191626
Probable space group: C 2/M
;
_chemical_formula_sum "Si O2"
_cell_formula_units_Z 64
_cell_length_a 25.240106
_cell_length_b 7.681367
_cell_length_c 14.994344
_cell_angle_alpha 90.000000
_cell_angle_beta 88.871803
_cell_angle_gamma 90.000000
_cell_volume 2906.517626
_symmetry_space_group_name_H-M "C 2/M"
_symmetry_group_IT_number 12
_symmetry_cell_setting 'monoclinic'
loop_
_space_group_symop_operation_xyz
x,y,z
-x,y,-z
-x,-y,-z
x,-y,z
1/2+x,1/2+y,z
1/2-x,1/2+y,-z
1/2-x,1/2-y,-z
1/2+x,1/2-y,z
loop_
_atom_site_type_symbol
_atom_site_label
_atom_site_fract_x
_atom_site_fract_y
_atom_site_fract_z
Si Si1 0.555038 0.297467 0.538174
Si Si2 0.516798 0.789939 0.221491
Si Si3 0.700372 0.711601 0.821281
Si Si4 0.328309 0.299341 0.987971
Si Si5 0.595836 0.294947 0.724741
Si Si6 0.902478 0.295899 0.639810
Si Si7 0.816425 0.204658 0.788763
Si Si8 0.057386 0.709940 0.033997
O O1 0.500000 0.221136 0.500000
O O2 0.543776 0.500000 0.558132
O O3 0.578299 0.219810 0.628889
O O4 0.597838 0.287680 0.457226
O O5 0.457068 0.726589 0.214772
O O6 0.545799 0.726115 0.309217
O O7 0.553836 0.740419 0.137929
O O8 0.515059 0.000000 0.222541
O O9 0.698418 0.500000 0.825560
O O10 0.648100 0.775559 0.771181
O O11 0.754478 0.766066 0.772400
O O12 0.700679 0.776475 0.924395
O O13 0.311614 0.500000 0.980445
O O14 0.324151 0.218707 0.889099
O O15 0.390730 0.291693 0.009676
O O16 0.606147 0.500000 0.711797
O O17 0.910035 0.500000 0.624719
O O18 0.853716 0.275868 0.709425
O O19 0.828324 0.000000 0.792896
O O20 0.061716 0.500000 0.024934
O O21 0.000000 0.761256 0.000000
#
# Coordination Sequence:
#
# PCOD9191626 Si02
#       8
#     8   8   8   8   8   8   8   8
#     4  10  20  36  59  87 118 149 185 232 284 340
#     4  10  20  33  52  81 115 149 186 230 280 334
#     4  10  22  40  59  83 115 150 192 238 284 336
#     4  10  21  36  56  83 113 148 192 237 281 334
#     4  10  21  37  59  85 115 152 188 230 287 343
#     4  11  22  37  59  86 115 149 188 234 285 335
#     4  11  23  39  60  85 113 151 196 238 284 336
#     4  10  20  33  50  77 115 155 191 230 279 334
#
# _framework density 22.019476000000001
#
# number of rings (size 3 to 8) (size 9 to 14) (size 15 to 20)
#    0.000    1.750    2.500    1.875    0.000    3.500 
#    0.000    0.625    0.000    0.000    0.000    0.000 
#    0.000    0.000    0.000    0.000    0.000    0.000 
#
# Total GULP energy -178732.164792 kJ/mol
# GULP energy per Si atom -5585.380150 kJ/mol
# Density = 2.196936 g / cm^3
# Si number density = 22.019476 Si / 1000 Ang^3
#
#
#
# Elastic Constant Matrix: (Units=GPa)
#
#
# Indices 1 2 3 4 5 6 
#
# 1 121.2164 -5.4713 28.6168 0.0000 -10.2542 0.0000
# 2 -5.4713 48.8166 6.4612 0.0000 3.9121 0.0000
# 3 28.6168 6.4612 89.1287 0.0000 -12.3411 0.0000
# 4 0.0000 0.0000 0.0000 9.2131 0.0000 -3.0470
# 5 -10.2542 3.9121 -12.3411 0.0000 28.1066 0.0000
# 6 0.0000 0.0000 0.0000 -3.0470 0.0000 21.5263
#
#
#
# Elastic Compliance Matrix: (Units=1/GPa)
#
#
# Indices 1 2 3 4 5 6 
#
# 1 0.009119 0.001229 -0.002747 0.000000 0.001950 0.000000
# 2 0.001229 0.021230 -0.002428 0.000000 -0.003573 0.000000
# 3 -0.002747 -0.002428 0.012975 0.000000 0.005033 0.000000
# 4 0.000000 0.000000 0.000000 0.113871 0.000000 0.016118
# 5 0.001950 -0.003573 0.005033 0.000000 0.038997 0.000000
# 6 0.000000 0.000000 0.000000 0.016118 0.000000 0.048736
#
#
# Mechanical properties :
#
#
# Convention : Reuss Voigt Hill
#
# Bulk Modulus (GPa) = 28.22350 35.37502 31.79926
# Shear Modulus (GPa) = 18.89424 27.07286 22.98355
#
# Velocity S-wave (km/s) = 2.93246 3.51022 3.23427
# Velocity P-wave (km/s) = 4.93063 5.70343 5.33105
#
# Compressibility (1/GPa) = 0.03543146
#
# Stress axis : x y z
#
# Youngs Moduli (GPa) = 109.66587 47.10234 77.07372
#
# Poissons Ratio (x) = -0.05790 0.21172
# Poissons Ratio (y) = -0.13482 0.18717
# Poissons Ratio (z) = 0.30124 0.11439
#
# Static dielectric constant tensor:
#      x y z
#    x 1.803670 0.000000 0.031110 
#    y 0.000000 1.796200 0.000000 
#    z 0.031110 0.000000 1.855520 
# 
# From -- ./inp_files/238724.got.cif
#   From: 2010.05.17/outbox.cif.g08.bks.cpg/sg12_120_cif.got.tgz:238724.got - 2010.06.03 13:09:07.
