data_PCOD9191186
_publ_section_title
;
Structure prediction by ZEFSAII (Michael W. Deem and Ramdas Pophale) SiO2 
 PCOD9191186
Probable space group: C 2/M
;
_chemical_formula_sum "Si O2"
_cell_formula_units_Z 58
_cell_length_a 24.226076
_cell_length_b 8.082426
_cell_length_c 23.574773
_cell_angle_alpha 90.000000
_cell_angle_beta 145.932368
_cell_angle_gamma 90.000000
_cell_volume 2585.788736
_symmetry_space_group_name_H-M "C 2/M"
_symmetry_group_IT_number 12
_symmetry_cell_setting 'monoclinic'
loop_
_space_group_symop_operation_xyz
x,y,z
-x,y,-z
-x,-y,-z
x,-y,z
1/2+x,1/2+y,z
1/2-x,1/2+y,-z
1/2-x,1/2-y,-z
1/2+x,1/2-y,z
loop_
_atom_site_type_symbol
_atom_site_label
_atom_site_fract_x
_atom_site_fract_y
_atom_site_fract_z
Si Si1 0.780854 0.192704 0.652011
Si Si2 0.780003 0.813675 0.854421
Si Si3 0.099522 0.815209 0.634902
Si Si4 0.582048 0.196291 0.936739
Si Si5 0.920083 0.191017 0.570269
Si Si6 0.032571 0.199000 0.264987
Si Si7 0.500000 0.000000 0.500000
Si Si8 0.892707 0.692372 0.848639
O O1 0.674931 0.216624 0.534217
O O2 0.865354 0.246772 0.679411
O O3 0.800989 0.290134 0.727128
O O4 0.797034 0.000000 0.678545
O O5 0.694716 0.700893 0.756000
O O6 0.868640 0.790770 0.884717
O O7 0.743398 0.000000 0.822895
O O8 0.822238 0.770025 0.951905
O O9 0.082683 0.650325 0.583001
O O10 0.006628 0.806726 0.598422
O O11 0.101281 0.000000 0.609199
O O12 0.556094 0.239499 0.850047
O O13 0.486579 0.252304 0.892434
O O14 0.587501 0.000000 0.946868
O O15 0.960441 0.257945 0.664467
O O16 0.889626 0.000000 0.553497
O O17 0.026426 0.000000 0.260433
O O18 0.906640 0.500000 0.875183
#
# Coordination Sequence:
#
# PCOD9191186 Si02
#       8
#     8   8   8   8   8   8   2   8
#     4  10  20  32  56  88 122 156 196 246 300 365
#     4  12  24  40  61  87 120 160 208 257 304 369
#     4  11  26  45  66  93 127 166 208 256 305 362
#     4  10  21  38  60  89 120 157 200 249 312 370
#     4  10  22  39  60  84 119 160 202 251 306 364
#     4   9  19  38  59  87 119 156 200 248 304 366
#     4  12  26  48  68  94 126 164 214 252 306 370
#     4  10  21  36  57  86 122 159 199 247 307 374
#
# _framework density 22.430292000000001
#
# number of rings (size 3 to 8) (size 9 to 14) (size 15 to 20)
#    0.000    1.655    0.690    3.517    2.897    4.414 
#    0.000    0.690    0.000    0.000    0.000    0.000 
#    0.000    0.000    0.000    0.000    0.000    0.000 
#
# Total GULP energy -161883.662307 kJ/mol
# GULP energy per Si atom -5582.195252 kJ/mol
# Density = 2.237924 g / cm^3
# Si number density = 22.430292 Si / 1000 Ang^3
#
#
#
# Elastic Constant Matrix: (Units=GPa)
#
#
# Indices 1 2 3 4 5 6 
#
# 1 26.4334 17.5543 10.5460 0.0000 -18.1532 0.0000
# 2 17.5543 94.8216 33.8016 0.0000 -6.6040 0.0000
# 3 10.5460 33.8016 147.0163 0.0000 -19.0661 0.0000
# 4 0.0000 0.0000 0.0000 35.0005 0.0000 0.0336
# 5 -18.1532 -6.6040 -19.0661 0.0000 29.7418 0.0000
# 6 0.0000 0.0000 0.0000 0.0336 0.0000 12.8544
#
#
#
# Elastic Compliance Matrix: (Units=1/GPa)
#
#
# Indices 1 2 3 4 5 6 
#
# 1 0.075964 -0.012035 0.003255 0.000000 0.045779 0.000000
# 2 -0.012035 0.013418 -0.003041 0.000000 -0.006316 0.000000
# 3 0.003255 -0.003041 0.008112 0.000000 0.006512 0.000000
# 4 0.000000 0.000000 0.000000 0.028571 0.000000 -0.000075
# 5 0.045779 -0.006316 0.006512 0.000000 0.064336 0.000000
# 6 0.000000 0.000000 0.000000 -0.000075 0.000000 0.077795
#
#
# Mechanical properties :
#
#
# Convention : Reuss Voigt Hill
#
# Bulk Modulus (GPa) = 13.54054 43.56392 28.55223
# Shear Modulus (GPa) = 15.79998 29.27731 22.53864
#
# Velocity S-wave (km/s) = 2.65694 3.61675 3.17335
# Velocity P-wave (km/s) = 3.93221 6.07497 5.11701
#
# Compressibility (1/GPa) = 0.07385230
#
# Stress axis : x y z
#
# Youngs Moduli (GPa) = 13.16414 74.52511 123.27250
#
# Poissons Ratio (x) = 0.89692 -0.40124
# Poissons Ratio (y) = 0.15843 0.37485
# Poissons Ratio (z) = -0.04285 0.22662
#
# Static dielectric constant tensor:
#      x y z
#    x 1.837440 0.000000 0.002170 
#    y 0.000000 1.809760 0.000000 
#    z 0.002170 0.000000 1.858220 
# 
# From -- ./inp_files/351512.got.cif
#   From: 2010.05.17/outbox.cif.g08.bks.cpg/sg12_176_cif.got.tgz:351512.got - 2010.06.03 13:09:07.
