data_PCOD9191031
_publ_section_title
;
Structure prediction by ZEFSAII (Michael W. Deem and Ramdas Pophale) SiO2 
 PCOD9191031
Probable space group: C 2/M
;
_chemical_formula_sum "Si O2"
_cell_formula_units_Z 48
_cell_length_a 22.152520
_cell_length_b 23.928317
_cell_length_c 11.183340
_cell_angle_alpha 90.000000
_cell_angle_beta 26.687804
_cell_angle_gamma 90.000000
_cell_volume 2662.427243
_symmetry_space_group_name_H-M "C 2/M"
_symmetry_group_IT_number 12
_symmetry_cell_setting 'monoclinic'
loop_
_space_group_symop_operation_xyz
x,y,z
-x,y,-z
-x,-y,-z
x,-y,z
1/2+x,1/2+y,z
1/2-x,1/2+y,-z
1/2-x,1/2-y,-z
1/2+x,1/2-y,z
loop_
_atom_site_type_symbol
_atom_site_label
_atom_site_fract_x
_atom_site_fract_y
_atom_site_fract_z
Si Si1 0.309555 0.567043 0.730276
Si Si2 0.356483 0.255257 0.204948
Si Si3 0.628877 0.209734 0.230016
Si Si4 0.386911 0.433088 0.867602
Si Si5 0.208251 0.352658 0.325521
Si Si6 0.921078 0.648878 0.930222
O O1 0.295130 0.500000 0.746232
O O2 0.455242 0.582933 0.417692
O O3 0.323707 0.580024 0.847794
O O4 0.185076 0.598150 0.887813
O O5 0.250000 0.250000 0.500000
O O6 0.291551 0.300131 0.229538
O O7 0.500000 0.275824 0.000000
O O8 0.386231 0.194866 0.092259
O O9 0.500000 0.244675 0.500000
O O10 0.651477 0.166604 0.297148
O O11 0.605559 0.180653 0.146527
O O12 0.750000 0.250000 0.000000
O O13 0.380233 0.500000 0.891847
O O14 0.307140 0.402864 0.114862
O O15 0.080447 0.365822 0.637796
#
# Coordination Sequence:
#
# PCOD9191031 Si02
#       6
#     8   8   8   8   8   8
#     4   9  19  35  57  89 124 155 187 230 291 355
#     4  12  26  43  58  83 116 158 205 245 290 340
#     4  10  20  32  51  84 115 145 182 231 295 348
#     4   9  19  35  57  89 124 155 188 229 289 358
#     4  11  22  37  58  85 119 152 192 241 292 351
#     4  11  22  37  58  85 119 152 193 240 291 352
#
# _framework density 18.028662000000001
#
# number of rings (size 3 to 8) (size 9 to 14) (size 15 to 20)
#    0.000    1.667    5.000    1.000    2.333    2.000 
#    0.000    1.667    0.000    2.000    0.000    0.000 
#    0.000    0.000    0.000    0.000    0.000    0.000 
#
# Total GULP energy -133732.374664 kJ/mol
# GULP energy per Si atom -5572.182278 kJ/mol
# Density = 1.798763 g / cm^3
# Si number density = 18.028662 Si / 1000 Ang^3
#
#
#
# Elastic Constant Matrix: (Units=GPa)
#
#
# Indices 1 2 3 4 5 6 
#
# 1 51.6785 14.0484 33.2489 -0.0002 4.2740 0.0003
# 2 14.0484 59.5119 67.3816 -0.0011 1.1576 0.0002
# 3 33.2489 67.3816 170.9276 -0.0033 -4.0002 0.0012
# 4 -0.0002 -0.0011 -0.0033 37.2932 0.0008 -3.6568
# 5 4.2740 1.1576 -4.0002 0.0008 28.2605 -0.0004
# 6 0.0003 0.0002 0.0012 -3.6568 -0.0004 8.8239
#
#
#
# Elastic Compliance Matrix: (Units=1/GPa)
#
#
# Indices 1 2 3 4 5 6 
#
# 1 0.022574 -0.000311 -0.004362 0.000000 -0.004019 0.000000
# 2 -0.000311 0.030601 -0.012071 0.000000 -0.002915 0.000001
# 3 -0.004362 -0.012071 0.011523 0.000001 0.002785 -0.000001
# 4 0.000000 0.000000 0.000001 0.027950 0.000000 0.011583
# 5 -0.004019 -0.002915 0.002785 0.000000 0.036507 0.000001
# 6 0.000000 0.000001 -0.000001 0.011583 0.000001 0.118129
#
#
# Mechanical properties :
#
#
# Convention : Reuss Voigt Hill
#
# Bulk Modulus (GPa) = 32.04284 56.83063 44.43673
# Shear Modulus (GPa) = 17.17180 26.03811 21.60496
#
# Velocity S-wave (km/s) = 3.08956 3.80447 3.46550
# Velocity P-wave (km/s) = 5.52622 7.13368 6.38077
#
# Compressibility (1/GPa) = 0.03120822
#
# Stress axis : x y z
#
# Youngs Moduli (GPa) = 44.29850 32.67916 86.78578
#
# Poissons Ratio (x) = 0.01017 0.37860
# Poissons Ratio (y) = 0.01379 1.04757
# Poissons Ratio (z) = 0.19325 0.39446
#
# Static dielectric constant tensor:
#      x y z
#    x 1.628550 0.000000 -0.019760 
#    y 0.000000 1.706220 0.000000 
#    z -0.019760 0.000000 1.659550 
# 
# From -- ./inp_files/122553.got.cif
#   From: 2010.05.17/outbox.cif.g08.bks.cpg/sg12_62_cif.got.tgz:122553.got - 2010.06.03 13:09:07.
