data_PCOD9191447
_publ_section_title
;
Structure prediction by ZEFSAII (Michael W. Deem and Ramdas Pophale) SiO2 
 PCOD9191447
Probable space group: C 2/M
;
_chemical_formula_sum "Si O2"
_cell_formula_units_Z 56
_cell_length_a 13.880431
_cell_length_b 25.606097
_cell_length_c 9.104347
_cell_angle_alpha 90.000000
_cell_angle_beta 119.898136
_cell_angle_gamma 90.000000
_cell_volume 2805.243975
_symmetry_space_group_name_H-M "C 2/M"
_symmetry_group_IT_number 12
_symmetry_cell_setting 'monoclinic'
loop_
_space_group_symop_operation_xyz
x,y,z
-x,y,-z
-x,-y,-z
x,-y,z
1/2+x,1/2+y,z
1/2-x,1/2+y,-z
1/2-x,1/2-y,-z
1/2+x,1/2-y,z
loop_
_atom_site_type_symbol
_atom_site_label
_atom_site_fract_x
_atom_site_fract_y
_atom_site_fract_z
Si Si1 0.203425 0.659526 0.711264
Si Si2 0.759292 0.721258 0.817421
Si Si3 0.813866 0.359912 0.643018
Si Si4 0.417198 0.608021 0.809288
Si Si5 0.882756 0.059790 0.484345
Si Si6 0.963767 0.683646 0.174468
Si Si7 0.485713 0.295756 0.310918
O O1 0.247987 0.718040 0.774421
O O2 0.173447 0.647110 0.520829
O O3 0.305121 0.621075 0.810817
O O4 0.101897 0.655697 0.744302
O O5 0.755613 0.691464 0.661439
O O6 0.647975 0.702645 0.816726
O O7 0.869847 0.704042 0.988829
O O8 0.728661 0.405687 0.624915
O O9 0.938979 0.355711 0.799618
O O10 0.401552 0.564994 0.672939
O O11 0.454842 0.659551 0.741005
O O12 0.500000 0.594400 0.000000
O O13 0.000000 0.078250 0.500000
O O14 0.865939 0.000000 0.425801
O O15 0.017673 0.737622 0.278805
O O16 0.500000 0.298816 0.500000
#
# Coordination Sequence:
#
# PCOD9191447 Si02
#       7
#     8   8   8   8   8   8   8
#     4  10  20  33  49  78 118 156 185 216 261 324
#     4  11  20  32  50  79 117 155 193 228 268 317
#     4  11  21  35  57  79 105 145 191 234 280 336
#     4  11  20  33  56  85 114 142 181 231 283 329
#     4  10  23  43  64  84 105 134 180 239 298 352
#     4  11  21  33  50  79 120 159 191 224 264 321
#     4  11  20  33  52  80 120 161 198 227 264 319
#
# _framework density 19.962612
#
# number of rings (size 3 to 8) (size 9 to 14) (size 15 to 20)
#    0.000    1.286    0.000   10.286    0.000    0.286 
#    0.000    0.000    0.000    8.571    0.000    0.000 
#    0.000    0.000    0.000    0.000    0.000    0.000 
#
# Total GULP energy -156178.448418 kJ/mol
# GULP energy per Si atom -5577.801729 kJ/mol
# Density = 1.991718 g / cm^3
# Si number density = 19.962612 Si / 1000 Ang^3
#
#
#
# Elastic Constant Matrix: (Units=GPa)
#
#
# Indices 1 2 3 4 5 6 
#
# 1 124.7672 48.1869 12.8853 0.0000 14.1478 0.0000
# 2 48.1869 48.6589 17.9153 0.0000 8.7871 0.0000
# 3 12.8853 17.9153 48.1817 0.0000 22.2616 0.0000
# 4 0.0000 0.0000 0.0000 4.8654 0.0000 0.4852
# 5 14.1478 8.7871 22.2616 0.0000 35.4249 0.0000
# 6 0.0000 0.0000 0.0000 0.4852 0.0000 22.6035
#
#
#
# Elastic Compliance Matrix: (Units=1/GPa)
#
#
# Indices 1 2 3 4 5 6 
#
# 1 0.013488 -0.013887 0.003458 0.000000 -0.004115 0.000000
# 2 -0.013887 0.038115 -0.012193 0.000000 0.003754 0.000000
# 3 0.003458 -0.012193 0.033262 0.000000 -0.019259 0.000000
# 4 0.000000 0.000000 0.000000 0.205973 0.000000 -0.004422
# 5 -0.004115 0.003754 -0.019259 0.000000 0.041044 0.000000
# 6 0.000000 0.000000 0.000000 -0.004422 0.000000 0.044336
#
#
# Mechanical properties :
#
#
# Convention : Reuss Voigt Hill
#
# Bulk Modulus (GPa) = 25.23947 42.17587 33.70767
# Shear Modulus (GPa) = 11.50304 22.08679 16.79492
#
# Velocity S-wave (km/s) = 2.40308 3.32988 2.90370
# Velocity P-wave (km/s) = 4.51338 5.99645 5.30698
#
# Compressibility (1/GPa) = 0.03962049
#
# Stress axis : x y z
#
# Youngs Moduli (GPa) = 74.14121 26.23658 30.06442
#
# Poissons Ratio (x) = 0.36435 -0.10395
# Poissons Ratio (y) = 1.02959 0.36657
# Poissons Ratio (z) = -0.25636 0.31990
#
# Static dielectric constant tensor:
#      x y z
#    x 1.789950 0.000000 0.024580 
#    y 0.000000 1.693580 0.000000 
#    z 0.024580 0.000000 1.806610 
# 
# From -- ./inp_files/67079.got.cif
#   From: 2010.05.17/outbox.cif.g08.bks.cpg/sg12_34_cif.got.tgz:67079.got - 2010.06.03 13:09:07.
