data_PCOD9191438
_publ_section_title
;
Structure prediction by ZEFSAII (Michael W. Deem and Ramdas Pophale) SiO2 
 PCOD9191438
Probable space group: C 2/M
;
_chemical_formula_sum "Si O2"
_cell_formula_units_Z 48
_cell_length_a 17.943945
_cell_length_b 14.732562
_cell_length_c 11.568497
_cell_angle_alpha 90.000000
_cell_angle_beta 67.083979
_cell_angle_gamma 90.000000
_cell_volume 2816.883442
_symmetry_space_group_name_H-M "C 2/M"
_symmetry_group_IT_number 12
_symmetry_cell_setting 'monoclinic'
loop_
_space_group_symop_operation_xyz
x,y,z
-x,y,-z
-x,-y,-z
x,-y,z
1/2+x,1/2+y,z
1/2-x,1/2+y,-z
1/2-x,1/2-y,-z
1/2+x,1/2-y,z
loop_
_atom_site_type_symbol
_atom_site_label
_atom_site_fract_x
_atom_site_fract_y
_atom_site_fract_z
Si Si1 0.757198 0.725965 0.174342
Si Si2 0.013961 0.596264 0.130327
Si Si3 0.295812 0.894366 0.932581
Si Si4 0.630680 0.609712 0.372772
Si Si5 0.562114 0.273013 0.856029
Si Si6 0.029916 0.892184 0.663081
O O1 0.719684 0.823282 0.161313
O O2 0.707993 0.671827 0.301398
O O3 0.849873 0.747860 0.149605
O O4 0.755186 0.656013 0.066819
O O5 0.982998 0.500000 0.194957
O O6 0.969280 0.685702 0.196643
O O7 0.108636 0.602689 0.098569
O O8 0.000000 0.595327 0.000000
O O9 0.269330 0.000000 0.933231
O O10 0.646088 0.500000 0.356526
O O11 0.561174 0.634513 0.320400
O O12 0.590291 0.629981 0.521118
O O13 0.558599 0.353265 0.766985
O O14 0.500000 0.289216 0.000000
O O15 0.027908 0.000000 0.670387
#
# Coordination Sequence:
#
# PCOD9191438 Si02
#       6
#     8   8   8   8   8   8
#     4  11  21  32  53  79 106 139 179 215 265 313
#     4   9  16  30  49  69  99 134 169 210 255 299
#     4  10  20  33  49  75 109 140 172 215 261 314
#     4   9  19  37  60  80  99 137 186 223 256 303
#     4  11  21  34  51  80 114 138 172 212 269 323
#     4   9  20  38  57  77 106 140 177 221 263 309
#
# _framework density 17.040109000000001
#
# number of rings (size 3 to 8) (size 9 to 14) (size 15 to 20)
#    0.000    2.167    3.333    2.500    2.333    2.333 
#    0.000    0.000    0.000    1.000    0.000    4.667 
#    0.000    0.000    0.000    0.000    0.000    0.000 
#
# Total GULP energy -133633.966357 kJ/mol
# GULP energy per Si atom -5568.081932 kJ/mol
# Density = 1.700133 g / cm^3
# Si number density = 17.040109 Si / 1000 Ang^3
#
#
#
# Elastic Constant Matrix: (Units=GPa)
#
#
# Indices 1 2 3 4 5 6 
#
# 1 65.9006 36.5864 39.6215 0.0000 -17.1716 0.0000
# 2 36.5864 70.6948 27.9068 0.0000 -2.4967 0.0000
# 3 39.6215 27.9068 58.8687 0.0000 -5.2579 0.0000
# 4 0.0000 0.0000 0.0000 24.6880 0.0000 -0.2481
# 5 -17.1716 -2.4967 -5.2579 0.0000 14.7954 0.0000
# 6 0.0000 0.0000 0.0000 -0.2481 0.0000 30.4598
#
#
#
# Elastic Compliance Matrix: (Units=1/GPa)
#
#
# Indices 1 2 3 4 5 6 
#
# 1 0.048201 -0.014930 -0.021267 0.000000 0.045864 0.000000
# 2 -0.014930 0.022026 -0.001661 0.000000 -0.014201 0.000000
# 3 -0.021267 -0.001661 0.030838 0.000000 -0.014004 0.000000
# 4 0.000000 0.000000 0.000000 0.040509 0.000000 0.000330
# 5 0.045864 -0.014201 -0.014004 0.000000 0.113446 0.000000
# 6 0.000000 0.000000 0.000000 0.000330 0.000000 0.032833
#
#
# Mechanical properties :
#
#
# Convention : Reuss Voigt Hill
#
# Bulk Modulus (GPa) = 39.45223 44.85485 42.15354
# Shear Modulus (GPa) = 13.44021 20.07861 16.75941
#
# Velocity S-wave (km/s) = 2.81150 3.43638 3.13953
# Velocity P-wave (km/s) = 5.80880 6.49039 6.15903
#
# Compressibility (1/GPa) = 0.02534711
#
# Stress axis : x y z
#
# Youngs Moduli (GPa) = 20.74667 45.40040 32.42788
#
# Poissons Ratio (x) = 0.67783 0.68965
# Poissons Ratio (y) = 0.30975 0.05388
# Poissons Ratio (z) = 0.44123 0.07543
#
# Static dielectric constant tensor:
#      x y z
#    x 1.580300 0.000000 -0.004730 
#    y 0.000000 1.613050 0.000000 
#    z -0.004730 0.000000 1.566490 
# 
# From -- ./inp_files/142714.got.cif
#   From: 2010.05.17/outbox.cif.g08.bks.cpg/sg12_72_cif.got.tgz:142714.got - 2010.06.03 13:09:07.
