data_PCOD9191453
_publ_section_title
;
Structure prediction by ZEFSAII (Michael W. Deem and Ramdas Pophale) SiO2 
 PCOD9191453
Probable space group: C 2/M
;
_chemical_formula_sum "Si O2"
_cell_formula_units_Z 32
_cell_length_a 17.703228
_cell_length_b 21.800758
_cell_length_c 5.111971
_cell_angle_alpha 90.000000
_cell_angle_beta 101.517824
_cell_angle_gamma 90.000000
_cell_volume 1933.203781
_symmetry_space_group_name_H-M "C 2/M"
_symmetry_group_IT_number 12
_symmetry_cell_setting 'monoclinic'
loop_
_space_group_symop_operation_xyz
x,y,z
-x,y,-z
-x,-y,-z
x,-y,z
1/2+x,1/2+y,z
1/2-x,1/2+y,-z
1/2-x,1/2-y,-z
1/2+x,1/2-y,z
loop_
_atom_site_type_symbol
_atom_site_label
_atom_site_fract_x
_atom_site_fract_y
_atom_site_fract_z
Si Si1 0.192331 0.714024 0.651810
Si Si2 0.947784 0.253057 0.714714
Si Si3 0.338303 0.324600 0.971322
Si Si4 0.554327 0.429615 0.783137
O O1 0.250000 0.750000 0.500000
O O2 0.116112 0.698482 0.434235
O O3 0.250317 0.664718 0.817280
O O4 0.166643 0.763500 0.852287
O O5 0.896663 0.195622 0.779825
O O6 0.000000 0.237977 0.500000
O O7 0.000000 0.271299 0.000000
O O8 0.376992 0.381262 0.142206
O O9 0.500000 0.416530 0.500000
O O10 0.582126 0.500000 0.780537
O O11 0.500000 0.425539 0.000000
#
# Coordination Sequence:
#
# PCOD9191453 Si02
#       4
#     8   8   8   8
#     4   9  20  32  45  73  96 131 169 204 251 308
#     4  11  20  30  47  72  98 130 165 197 247 305
#     4  10  20  33  50  67 102 135 165 210 252 292
#     4  10  23  36  50  74  99 133 179 211 237 284
#
# _framework density 16.552831999999999
#
# number of rings (size 3 to 8) (size 9 to 14) (size 15 to 20)
#    0.000    2.000    2.500    0.750   10.500    0.000 
#    0.000    0.000    0.000    0.000    0.000    0.000 
#    0.000    2.000    0.000    8.750    0.000   14.250 
#
# Total GULP energy -89128.578174 kJ/mol
# GULP energy per Si atom -5570.536136 kJ/mol
# Density = 1.651516 g / cm^3
# Si number density = 16.552832 Si / 1000 Ang^3
#
#
#
# Elastic Constant Matrix: (Units=GPa)
#
#
# Indices 1 2 3 4 5 6 
#
# 1 113.9048 45.1335 64.0268 0.0000 25.1359 0.0000
# 2 45.1335 65.4870 33.7609 0.0000 24.7897 0.0000
# 3 64.0268 33.7609 127.4504 0.0000 20.4619 0.0000
# 4 0.0000 0.0000 0.0000 18.0444 0.0000 13.5011
# 5 25.1359 24.7897 20.4619 0.0000 59.5632 0.0000
# 6 0.0000 0.0000 0.0000 13.5011 0.0000 13.9565
#
#
#
# Elastic Compliance Matrix: (Units=1/GPa)
#
#
# Indices 1 2 3 4 5 6 
#
# 1 0.014891 -0.006884 -0.005406 0.000000 -0.001561 0.000000
# 2 -0.006884 0.023232 -0.001704 0.000000 -0.006178 0.000000
# 3 -0.005406 -0.001704 0.011148 0.000000 -0.000839 0.000000
# 4 0.000000 0.000000 0.000000 0.200649 0.000000 -0.194102
# 5 -0.001561 -0.006178 -0.000839 0.000000 0.020308 0.000000
# 6 0.000000 0.000000 0.000000 -0.194102 0.000000 0.259420
#
#
# Mechanical properties :
#
#
# Convention : Reuss Voigt Hill
#
# Bulk Modulus (GPa) = 46.98736 65.85382 56.42059
# Shear Modulus (GPa) = 8.85379 29.24090 19.04734
#
# Velocity S-wave (km/s) = 2.31526 4.20756 3.39588
# Velocity P-wave (km/s) = 5.96617 7.96713 7.03812
#
# Compressibility (1/GPa) = 0.02128232
#
# Stress axis : x y z
#
# Youngs Moduli (GPa) = 67.15673 43.04407 89.70140
#
# Poissons Ratio (x) = 0.29633 0.48494
# Poissons Ratio (y) = 0.46233 0.15282
# Poissons Ratio (z) = 0.36306 0.07333
#
# Static dielectric constant tensor:
#      x y z
#    x 1.622260 0.000000 0.027640 
#    y 0.000000 1.544410 0.000000 
#    z 0.027640 0.000000 1.679820 
# 
# From -- ./inp_files/14851.got.cif
#   From: 2010.05.17/outbox.cif.g08.bks.cpg/sg12_8_cif.got.tgz:14851.got - 2010.06.03 13:09:07.
