data_PCOD9191440
_publ_section_title
;
Structure prediction by ZEFSAII (Michael W. Deem and Ramdas Pophale) SiO2 
 PCOD9191440
Probable space group: C 2/M
;
_chemical_formula_sum "Si O2"
_cell_formula_units_Z 48
_cell_length_a 29.160751
_cell_length_b 10.430635
_cell_length_c 14.498887
_cell_angle_alpha 90.000000
_cell_angle_beta 140.832736
_cell_angle_gamma 90.000000
_cell_volume 2785.331632
_symmetry_space_group_name_H-M "C 2/M"
_symmetry_group_IT_number 12
_symmetry_cell_setting 'monoclinic'
loop_
_space_group_symop_operation_xyz
x,y,z
-x,y,-z
-x,-y,-z
x,-y,z
1/2+x,1/2+y,z
1/2-x,1/2+y,-z
1/2-x,1/2-y,-z
1/2+x,1/2-y,z
loop_
_atom_site_type_symbol
_atom_site_label
_atom_site_fract_x
_atom_site_fract_y
_atom_site_fract_z
Si Si1 0.668074 0.353803 0.567145
Si Si2 0.016691 0.154736 0.424023
Si Si3 0.973465 0.639743 0.853703
Si Si4 0.203737 0.145559 0.218689
Si Si5 0.333844 0.284833 0.639989
Si Si6 0.062809 0.848980 0.882086
O O1 0.686927 0.500000 0.624945
O O2 0.595587 0.308458 0.506991
O O3 0.733631 0.253262 0.683713
O O4 0.649821 0.358377 0.429302
O O5 0.000000 0.205273 0.500000
O O6 0.955019 0.183261 0.251925
O O7 0.019578 0.000000 0.434361
O O8 0.990501 0.500000 0.839793
O O9 0.887562 0.664535 0.721141
O O10 0.012226 0.755442 0.862260
O O11 0.000000 0.641293 0.000000
O O12 0.161224 0.153208 0.251055
O O13 0.232769 0.000000 0.256215
O O14 0.144681 0.167885 0.046353
O O15 0.250000 0.250000 0.500000
O O16 0.044707 0.000000 0.867959
#
# Coordination Sequence:
#
# PCOD9191440 Si02
#       6
#     8   8   8   8   8   8
#     4  10  20  34  55  79 107 143 183 223 264 319
#     4   9  18  35  59  83 104 134 182 233 277 322
#     4  11  22  35  53  80 112 146 181 222 268 317
#     4  10  21  34  52  78 112 147 177 217 265 321
#     4  10  20  33  49  76 110 145 178 209 258 316
#     4  10  20  36  56  79 107 143 183 224 270 322
#
# _framework density 17.233136999999999
#
# number of rings (size 3 to 8) (size 9 to 14) (size 15 to 20)
#    0.000    2.000    3.333    0.500    0.000    7.000 
#    0.000    0.833    0.000    2.000    0.000    0.000 
#    0.000    0.000    0.000    0.000    0.000    0.000 
#
# Total GULP energy -133642.934787 kJ/mol
# GULP energy per Si atom -5568.455616 kJ/mol
# Density = 1.719391 g / cm^3
# Si number density = 17.233137 Si / 1000 Ang^3
#
#
#
# Elastic Constant Matrix: (Units=GPa)
#
#
# Indices 1 2 3 4 5 6 
#
# 1 96.2436 30.2998 54.9971 0.0000 -11.8745 0.0000
# 2 30.2998 85.0596 53.8889 0.0000 4.3585 0.0000
# 3 54.9971 53.8889 119.9748 0.0000 -5.1367 0.0000
# 4 0.0000 0.0000 0.0000 10.8081 0.0000 0.5417
# 5 -11.8745 4.3585 -5.1367 0.0000 24.4322 0.0000
# 6 0.0000 0.0000 0.0000 0.5417 0.0000 13.9352
#
#
#
# Elastic Compliance Matrix: (Units=1/GPa)
#
#
# Indices 1 2 3 4 5 6 
#
# 1 0.015118 -0.002105 -0.005705 0.000000 0.006524 0.000000
# 2 -0.002105 0.017237 -0.007016 0.000000 -0.005573 0.000000
# 3 -0.005705 -0.007016 0.014164 0.000000 0.001457 0.000000
# 4 0.000000 0.000000 0.000000 0.092704 0.000000 -0.003604
# 5 0.006524 -0.005573 0.001457 0.000000 0.045401 0.000000
# 6 0.000000 0.000000 0.000000 -0.003604 0.000000 0.071901
#
#
# Mechanical properties :
#
#
# Convention : Reuss Voigt Hill
#
# Bulk Modulus (GPa) = 59.28931 64.40549 61.84740
# Shear Modulus (GPa) = 17.13508 20.64126 18.88817
#
# Velocity S-wave (km/s) = 3.15669 3.46463 3.31424
# Velocity P-wave (km/s) = 6.91124 7.31157 7.11422
#
# Compressibility (1/GPa) = 0.01686645
#
# Stress axis : x y z
#
# Youngs Moduli (GPa) = 66.14555 58.01575 70.60079
#
# Poissons Ratio (x) = 0.12212 0.40281
# Poissons Ratio (y) = 0.13924 0.49532
# Poissons Ratio (z) = 0.37739 0.40703
#
# Static dielectric constant tensor:
#      x y z
#    x 1.589430 0.000000 -0.008300 
#    y 0.000000 1.600630 0.000000 
#    z -0.008300 0.000000 1.609060 
# 
# From -- ./inp_files/174868.got.cif
#   From: 2010.05.17/outbox.cif.g08.bks.cpg/sg12_88_cif.got.tgz:174868.got - 2010.06.03 13:09:07.
