data_PCOD9191454
_publ_section_title
;
Structure prediction by ZEFSAII (Michael W. Deem and Ramdas Pophale) SiO2 
 PCOD9191454
Probable space group: C 2/M
;
_chemical_formula_sum "Si O2"
_cell_formula_units_Z 56
_cell_length_a 20.659034
_cell_length_b 7.583714
_cell_length_c 18.629774
_cell_angle_alpha 90.000000
_cell_angle_beta 113.044567
_cell_angle_gamma 90.000000
_cell_volume 2685.852002
_symmetry_space_group_name_H-M "C 2/M"
_symmetry_group_IT_number 12
_symmetry_cell_setting 'monoclinic'
loop_
_space_group_symop_operation_xyz
x,y,z
-x,y,-z
-x,-y,-z
x,-y,z
1/2+x,1/2+y,z
1/2-x,1/2+y,-z
1/2-x,1/2-y,-z
1/2+x,1/2-y,z
loop_
_atom_site_type_symbol
_atom_site_label
_atom_site_fract_x
_atom_site_fract_y
_atom_site_fract_z
Si Si1 0.392871 0.210241 0.097470
Si Si2 0.661996 0.291167 0.077645
Si Si3 0.815130 0.292381 0.360979
Si Si4 0.810968 0.717169 0.201352
Si Si5 0.667499 0.788628 0.477388
Si Si6 0.950329 0.710298 0.855254
Si Si7 0.348803 0.785438 0.684900
O O1 0.360359 0.276168 0.157658
O O2 0.470595 0.281323 0.113522
O O3 0.398624 0.000000 0.108170
O O4 0.343309 0.239923 0.007541
O O5 0.666377 0.500000 0.082465
O O6 0.731650 0.223019 0.147867
O O7 0.591796 0.238625 0.089607
O O8 0.832125 0.500000 0.367377
O O9 0.833167 0.221238 0.290174
O O10 0.847760 0.218210 0.449237
O O11 0.730445 0.274626 0.331884
O O12 0.810675 0.500000 0.202584
O O13 0.750000 0.750000 0.500000
O O14 0.631986 0.727149 0.387945
O O15 0.658478 0.000000 0.476178
O O16 0.954964 0.500000 0.848074
O O17 0.902120 0.777726 0.768933
O O18 0.347623 0.000000 0.685017
#
# Coordination Sequence:
#
# PCOD9191454 Si02
#       7
#     8   8   8   8   8   8   8
#     4  10  21  36  50  66  92 127 160 188 228 283
#     4  11  21  34  52  72  92 116 154 203 241 270
#     4   9  15  27  46  68  92 120 151 185 228 271
#     4   9  18  32  50  70  93 122 156 191 230 276
#     4   8  14  23  40  65  93 118 144 183 225 265
#     4  10  20  33  50  69  94 127 157 187 228 279
#     4   9  16  27  43  68  95 119 150 187 225 266
#
# _framework density 20.849996000000001
#
# number of rings (size 3 to 8) (size 9 to 14) (size 15 to 20)
#    0.000    2.571    1.429    1.286    0.000    2.286 
#    0.000    1.429    0.000    0.857    0.000    6.000 
#    0.000    0.000    0.000   23.571    0.000   17.429 
#
# Total GULP energy -156139.474000 kJ/mol
# GULP energy per Si atom -5576.409786 kJ/mol
# Density = 2.080254 g / cm^3
# Si number density = 20.849996 Si / 1000 Ang^3
#
#
#
# Elastic Constant Matrix: (Units=GPa)
#
#
# Indices 1 2 3 4 5 6 
#
# 1 71.4467 1.8509 27.3341 0.0000 -34.5635 0.0000
# 2 1.8509 45.7853 -2.7857 0.0000 -1.8265 0.0000
# 3 27.3341 -2.7857 138.6442 0.0000 -54.7496 0.0000
# 4 0.0000 0.0000 0.0000 8.1908 0.0000 3.2896
# 5 -34.5635 -1.8265 -54.7496 0.0000 37.5616 0.0000
# 6 0.0000 0.0000 0.0000 3.2896 0.0000 5.1812
#
#
#
# Elastic Compliance Matrix: (Units=1/GPa)
#
#
# Indices 1 2 3 4 5 6 
#
# 1 0.032754 0.001423 0.012960 0.000000 0.049099 0.000000
# 2 0.001423 0.022190 0.002612 0.000000 0.006196 0.000000
# 3 0.012960 0.002612 0.022313 0.000000 0.044575 0.000000
# 4 0.000000 0.000000 0.000000 0.163874 0.000000 -0.104044
# 5 0.049099 0.006196 0.044575 0.000000 0.137077 0.000000
# 6 0.000000 0.000000 0.000000 -0.104044 0.000000 0.259064
#
#
# Mechanical properties :
#
#
# Convention : Reuss Voigt Hill
#
# Bulk Modulus (GPa) = 8.98908 34.29718 21.64313
# Shear Modulus (GPa) = 7.80807 25.48518 16.64662
#
# Velocity S-wave (km/s) = 1.93727 3.49995 2.82866
# Velocity P-wave (km/s) = 3.05363 5.72871 4.59036
#
# Compressibility (1/GPa) = 0.11124615
#
# Stress axis : x y z
#
# Youngs Moduli (GPa) = 30.53074 45.06607 44.81791
#
# Poissons Ratio (x) = -0.06414 -0.58084
# Poissons Ratio (y) = -0.04345 -0.11706
# Poissons Ratio (z) = -0.39568 -0.11771
#
# Static dielectric constant tensor:
#      x y z
#    x 1.729940 0.000000 -0.031710 
#    y 0.000000 1.680750 0.000000 
#    z -0.031710 0.000000 1.802530 
# 
# From -- ./inp_files/275489.got.cif
#   From: 2010.05.17/outbox.cif.g08.bks.cpg/sg12_138_cif.got.tgz:275489.got - 2010.06.03 13:09:07.
