data_PCOD9191920
_publ_section_title
;
Structure prediction by ZEFSAII (Michael W. Deem and Ramdas Pophale) SiO2 
 PCOD9191920
Probable space group: C 2/M
;
_chemical_formula_sum "Si O2"
_cell_formula_units_Z 64
_cell_length_a 14.690707
_cell_length_b 7.713467
_cell_length_c 30.115435
_cell_angle_alpha 90.000000
_cell_angle_beta 76.336797
_cell_angle_gamma 90.000000
_cell_volume 3315.996961
_symmetry_space_group_name_H-M "C 2/M"
_symmetry_group_IT_number 12
_symmetry_cell_setting 'monoclinic'
loop_
_space_group_symop_operation_xyz
x,y,z
-x,y,-z
-x,-y,-z
x,-y,z
1/2+x,1/2+y,z
1/2-x,1/2+y,-z
1/2-x,1/2-y,-z
1/2+x,1/2-y,z
loop_
_atom_site_type_symbol
_atom_site_label
_atom_site_fract_x
_atom_site_fract_y
_atom_site_fract_z
Si Si1 0.522422 0.292307 0.252275
Si Si2 0.035842 0.787767 0.925957
Si Si3 0.644163 0.292362 0.999983
Si Si4 0.234048 0.707670 0.252448
Si Si5 0.397754 0.701614 0.505180
Si Si6 0.157509 0.790019 0.673744
Si Si7 0.414013 0.287781 0.178294
Si Si8 0.707236 0.204544 0.568008
O O1 0.514893 0.500000 0.252321
O O2 0.628227 0.249908 0.252361
O O3 0.444599 0.231788 0.296810
O O4 0.488061 0.232233 0.207604
O O5 0.060993 0.727628 0.873831
O O6 0.933539 0.732121 0.955400
O O7 0.036336 0.000000 0.924940
O O8 0.109708 0.732113 0.955356
O O9 0.636678 0.500000 0.999982
O O10 0.750000 0.250000 0.000000
O O11 0.241658 0.500000 0.252508
O O12 0.268494 0.768337 0.297047
O O13 0.311763 0.767803 0.207815
O O14 0.500000 0.781470 0.500000
O O15 0.404927 0.500000 0.517959
O O16 0.365938 0.712166 0.457715
O O17 0.310547 0.774881 0.543417
O O18 0.182186 0.729621 0.621915
O O19 0.157907 0.000000 0.672794
O O20 0.414484 0.500000 0.177276
O O21 0.706623 0.000000 0.557838
#
# Coordination Sequence:
#
# PCOD9191920 Si02
#       8
#     8   8   8   8   8   8   8   8
#     4   9  18  32  50  70  92 122 158 193 233 281
#     4   8  15  29  47  65  90 126 161 188 226 289
#     4   9  17  29  46  68  92 121 157 195 235 280
#     4   9  18  32  50  71  94 122 157 196 236 277
#     4   9  19  36  54  72  99 132 160 189 232 284
#     4   9  19  35  50  66  95 131 158 185 231 287
#     4   8  15  30  49  67  91 125 160 191 230 285
#     4  10  20  33  52  77  99 123 160 201 234 268
#
# _framework density 19.300380000000001
#
# number of rings (size 3 to 8) (size 9 to 14) (size 15 to 20)
#    0.000    3.125    0.000    2.625    0.000    3.750 
#    0.000    6.875    0.000    1.500    0.000    0.000 
#    0.000    0.000    0.000    0.000    0.000    0.000 
#
# Total GULP energy -178369.219892 kJ/mol
# GULP energy per Si atom -5574.038122 kJ/mol
# Density = 1.925645 g / cm^3
# Si number density = 19.300380 Si / 1000 Ang^3
#
#
#
# Elastic Constant Matrix: (Units=GPa)
#
#
# Indices 1 2 3 4 5 6 
#
# 1 198.5655 -4.2977 97.9013 0.0000 -0.0374 0.0000
# 2 -4.2977 25.0333 -5.4256 0.0000 -2.9876 0.0000
# 3 97.9013 -5.4256 186.0663 0.0000 -5.8840 0.0000
# 4 0.0000 0.0000 0.0000 10.1099 0.0000 1.4314
# 5 -0.0374 -2.9876 -5.8840 0.0000 7.6727 0.0000
# 6 0.0000 0.0000 0.0000 1.4314 0.0000 22.5221
#
#
#
# Elastic Compliance Matrix: (Units=1/GPa)
#
#
# Indices 1 2 3 4 5 6 
#
# 1 0.006859 0.000044 -0.003695 0.000000 -0.002783 0.000000
# 2 0.000044 0.042478 0.001782 0.000000 0.017906 0.000000
# 3 -0.003695 0.001782 0.007576 0.000000 0.006485 0.000000
# 4 0.000000 0.000000 0.000000 0.099811 0.000000 -0.006343
# 5 -0.002783 0.017906 0.006485 0.000000 0.142264 0.000000
# 6 0.000000 0.000000 0.000000 -0.006343 0.000000 0.044804
#
#
# Mechanical properties :
#
#
# Convention : Reuss Voigt Hill
#
# Bulk Modulus (GPa) = 18.80658 65.11344 41.96001
# Shear Modulus (GPa) = 13.68911 29.49342 21.59127
#
# Velocity S-wave (km/s) = 2.66609 3.91337 3.34832
# Velocity P-wave (km/s) = 4.38665 7.36406 6.06103
#
# Compressibility (1/GPa) = 0.05317287
#
# Stress axis : x y z
#
# Youngs Moduli (GPa) = 145.80294 23.54186 131.99799
#
# Poissons Ratio (x) = -0.00105 0.48779
# Poissons Ratio (y) = -0.00647 -0.23515
# Poissons Ratio (z) = 0.53881 -0.04194
#
# Static dielectric constant tensor:
#      x y z
#    x 1.674420 0.000000 -0.009480 
#    y 0.000000 1.732520 0.000000 
#    z -0.009480 0.000000 1.651930 
# 
# From -- ./inp_files/374802.got.cif
#   From: 2010.05.17/outbox.cif.g08.bks.cpg/sg12_188_cif.got.tgz:374802.got - 2010.06.03 13:09:07.
