data_PCOD9191061
_publ_section_title
;
Structure prediction by ZEFSAII (Michael W. Deem and Ramdas Pophale) SiO2 
 PCOD9191061
Probable space group: C 2/M
;
_chemical_formula_sum "Si O2"
_cell_formula_units_Z 58
_cell_length_a 17.307663
_cell_length_b 7.385505
_cell_length_c 21.259088
_cell_angle_alpha 90.000000
_cell_angle_beta 53.349587
_cell_angle_gamma 90.000000
_cell_volume 2180.198431
_symmetry_space_group_name_H-M "C 2/M"
_symmetry_group_IT_number 12
_symmetry_cell_setting 'monoclinic'
loop_
_space_group_symop_operation_xyz
x,y,z
-x,y,-z
-x,-y,-z
x,-y,z
1/2+x,1/2+y,z
1/2-x,1/2+y,-z
1/2-x,1/2-y,-z
1/2+x,1/2-y,z
loop_
_atom_site_type_symbol
_atom_site_label
_atom_site_fract_x
_atom_site_fract_y
_atom_site_fract_z
Si Si1 0.372495 0.294052 0.515882
Si Si2 0.839072 0.222211 0.667646
Si Si3 0.352346 0.717551 0.391752
Si Si4 0.883639 0.286994 0.237650
Si Si5 0.144817 0.784299 0.933766
Si Si6 0.000000 0.500000 0.000000
Si Si7 0.138414 0.787367 0.206740
Si Si8 0.416005 0.703205 0.899745
O O1 0.409206 0.500000 0.498694
O O2 0.388484 0.217527 0.578119
O O3 0.397871 0.215218 0.435187
O O4 0.255147 0.295562 0.566262
O O5 0.725987 0.277846 0.720274
O O6 0.883391 0.280895 0.712541
O O7 0.839638 0.000000 0.666047
O O8 0.343131 0.500000 0.401261
O O9 0.405742 0.758514 0.301274
O O10 0.885619 0.500000 0.224538
O O11 0.968863 0.193615 0.158615
O O12 0.246961 0.732873 0.856425
O O13 0.068539 0.658507 0.937662
O O14 0.128261 0.000000 0.938810
O O15 0.129922 0.719895 0.014277
O O16 0.106413 0.704021 0.155833
O O17 0.109424 0.000000 0.220858
O O18 0.375215 0.500000 0.916943
#
# Coordination Sequence:
#
# PCOD9191061 Si02
#       8
#     8   8   8   8   8   2   8   8
#     4   8  14  26  44  71 103 139 180 222 275 343
#     4   8  16  30  53  80 106 141 186 232 287 346
#     4   9  15  25  44  70 105 140 176 227 283 337
#     4  10  20  32  52  79 109 145 188 237 290 345
#     4  11  25  42  64  93 122 156 197 240 288 352
#     4  12  26  44  68  94 124 152 192 244 308 338
#     4  10  20  39  62  84 116 157 193 238 295 351
#     4  10  23  39  58  84 115 152 197 240 287 348
#
# _framework density 26.603083000000002
#
# number of rings (size 3 to 8) (size 9 to 14) (size 15 to 20)
#    0.000    2.483    0.690    2.276    2.897    1.103 
#    0.000    2.759    0.000    0.828    0.000    5.793 
#    0.000    0.000    0.000    0.000    0.000    0.000 
#
# Total GULP energy -161803.772107 kJ/mol
# GULP energy per Si atom -5579.440417 kJ/mol
# Density = 2.654253 g / cm^3
# Si number density = 26.603083 Si / 1000 Ang^3
#
#
#
# Elastic Constant Matrix: (Units=GPa)
#
#
# Indices 1 2 3 4 5 6 
#
# 1 50.7635 6.5272 55.9919 0.0005 19.4831 0.0017
# 2 6.5272 119.5241 -11.7958 0.0005 8.3441 0.0033
# 3 55.9919 -11.7958 196.9926 0.0000 61.5915 0.0001
# 4 0.0005 0.0005 0.0000 11.6837 0.0000 -18.9863
# 5 19.4831 8.3441 61.5915 0.0000 73.1060 0.0004
# 6 0.0017 0.0033 0.0001 -18.9863 0.0004 -5.5702
#
#
#
# Elastic Compliance Matrix: (Units=1/GPa)
#
#
# Indices 1 2 3 4 5 6 
#
# 1 0.029404 -0.002390 -0.008330 0.000002 -0.000545 0.000002
# 2 -0.002390 0.008805 0.001794 0.000001 -0.001880 0.000001
# 3 -0.008330 0.001794 0.009397 0.000000 -0.005901 0.000000
# 4 0.000002 0.000001 0.000000 0.013089 0.000000 -0.044615
# 5 -0.000545 -0.001880 -0.005901 0.000000 0.019011 0.000000
# 6 0.000002 0.000001 0.000000 -0.044615 0.000000 -0.027455
#
#
# Mechanical properties :
#
#
# Convention : Reuss Voigt Hill
#
# Bulk Modulus (GPa) = 33.60844 52.08077 42.84460
# Shear Modulus (GPa) = 62.48411 36.94768 49.71589
#
# Velocity S-wave (km/s) = 4.85165 3.73077 4.32765
# Velocity P-wave (km/s) = 6.63667 6.17881 6.41183
#
# Compressibility (1/GPa) = 0.02975443
#
# Stress axis : x y z
#
# Youngs Moduli (GPa) = 34.00904 113.56767 106.42142
#
# Poissons Ratio (x) = 0.27140 0.88651
# Poissons Ratio (y) = 0.08127 -0.19095
# Poissons Ratio (z) = 0.28330 -0.20377
#
# Static dielectric constant tensor:
#      x y z
#    x 2.177350 0.000000 0.086400 
#    y 0.000000 2.004290 0.000000 
#    z 0.086400 0.000000 2.123020 
# 
# From -- ./inp_files/313902.got.cif
#   From: 2010.05.17/outbox.cif.g08.bks.cpg/sg12_157_cif.got.tgz:313902.got - 2010.06.03 13:09:07.
