data_PCOD9191715
_publ_section_title
;
Structure prediction by ZEFSAII (Michael W. Deem and Ramdas Pophale) SiO2 
 PCOD9191715
Probable space group: C 2/M
;
_chemical_formula_sum "Si O2"
_cell_formula_units_Z 28
_cell_length_a 19.259889
_cell_length_b 7.568158
_cell_length_c 6.779327
_cell_angle_alpha 90.000000
_cell_angle_beta 92.265061
_cell_angle_gamma 90.000000
_cell_volume 987.395396
_symmetry_space_group_name_H-M "C 2/M"
_symmetry_group_IT_number 12
_symmetry_cell_setting 'monoclinic'
loop_
_space_group_symop_operation_xyz
x,y,z
-x,y,-z
-x,-y,-z
x,-y,z
1/2+x,1/2+y,z
1/2-x,1/2+y,-z
1/2-x,1/2-y,-z
1/2+x,1/2-y,z
loop_
_atom_site_type_symbol
_atom_site_label
_atom_site_fract_x
_atom_site_fract_y
_atom_site_fract_z
Si Si1 0.586986 0.810370 0.122382
Si Si2 0.000000 0.000000 0.500000
Si Si3 0.000000 0.000000 0.000000
Si Si4 0.884799 0.707542 0.347190
Si Si5 0.765179 0.789806 0.770727
O O1 0.604844 0.793505 0.891408
O O2 0.555101 0.000000 0.159503
O O3 0.535873 0.649477 0.143161
O O4 0.658826 0.792593 0.247509
O O5 0.939486 0.843818 0.441829
O O6 0.892564 0.500000 0.403636
O O7 0.803654 0.768992 0.353369
O O8 0.770720 0.000000 0.751334
O O9 0.750000 0.750000 0.000000
#
# Coordination Sequence:
#
# PCOD9191715 Si02
#       5
#     8   2   2   8   8
#     4  10  20  33  51  75 107 139 169 210 257 310
#     4  12  20  28  52  76 108 142 164 206 264 306
#     4  12  20  32  48  80 112 134 172 202 268 310
#     4   9  20  33  48  76 107 136 170 208 255 308
#     4   9  16  29  49  73 103 132 165 206 253 310
#
# _framework density 28.357433
#
# number of rings (size 3 to 8) (size 9 to 14) (size 15 to 20)
#    0.000    2.286    1.429    4.286    8.000    0.000 
#    0.000    0.000    0.000    0.000    0.000    8.000 
#    0.000    0.000    0.000    0.000    0.000    0.000 
#
# Total GULP energy -78041.924792 kJ/mol
# GULP energy per Si atom -5574.423199 kJ/mol
# Density = 2.829289 g / cm^3
# Si number density = 28.357433 Si / 1000 Ang^3
#
#
#
# Elastic Constant Matrix: (Units=GPa)
#
#
# Indices 1 2 3 4 5 6 
#
# 1 188.2896 104.9707 62.0341 0.0000 71.1282 0.0000
# 2 104.9707 293.2207 65.5567 0.0000 65.7464 0.0000
# 3 62.0341 65.5567 230.3315 0.0000 60.9917 0.0000
# 4 0.0000 0.0000 0.0000 -156.7357 0.0000 156.6964
# 5 71.1282 65.7464 60.9917 0.0000 81.5495 0.0000
# 6 0.0000 0.0000 0.0000 156.6964 0.0000 -66.7014
#
#
#
# Elastic Compliance Matrix: (Units=1/GPa)
#
#
# Indices 1 2 3 4 5 6 
#
# 1 0.008574 -0.001682 -0.000261 0.000000 -0.005927 0.000000
# 2 -0.001682 0.004518 -0.000320 0.000000 -0.001936 0.000000
# 3 -0.000261 -0.000320 0.005455 0.000000 -0.003594 0.000000
# 4 0.000000 0.000000 0.000000 0.004731 0.000000 0.011114
# 5 -0.005927 -0.001936 -0.003594 0.000000 0.021680 0.000000
# 6 0.000000 0.000000 0.000000 0.011114 0.000000 0.011117
#
#
# Mechanical properties :
#
#
# Convention : Reuss Voigt Hill
#
# Bulk Modulus (GPa) = 71.32744 130.77387 101.05065
# Shear Modulus (GPa) = 76.60003 3.57450 40.08727
#
# Velocity S-wave (km/s) = 5.20298 1.12395 3.76392
# Velocity P-wave (km/s) = 7.82957 6.92103 7.38928
#
# Compressibility (1/GPa) = 0.01401985
#
# Stress axis : x y z
#
# Youngs Moduli (GPa) = 116.63826 221.32368 183.33032
#
# Poissons Ratio (x) = 0.37227 0.04784
# Poissons Ratio (y) = 0.19619 0.05872
# Poissons Ratio (z) = 0.03044 0.07089
#
# Static dielectric constant tensor:
#      x y z
#    x 2.263200 0.000000 -0.070420 
#    y 0.000000 2.150140 0.000000 
#    z -0.070420 0.000000 2.117670 
# 
# From -- ./inp_files/161682.got.cif
#   From: 2010.05.17/outbox.cif.g08.bks.cpg/sg12_81_cif.got.tgz:161682.got - 2010.06.03 13:09:07.
