data_PCOD9191234
_publ_section_title
;
Structure prediction by ZEFSAII (Michael W. Deem and Ramdas Pophale) SiO2 
 PCOD9191234
Probable space group: C 2/M
;
_chemical_formula_sum "Si O2"
_cell_formula_units_Z 60
_cell_length_a 23.490299
_cell_length_b 8.026921
_cell_length_c 27.544937
_cell_angle_alpha 90.000000
_cell_angle_beta 153.729042
_cell_angle_gamma 90.000000
_cell_volume 2298.831485
_symmetry_space_group_name_H-M "C 2/M"
_symmetry_group_IT_number 12
_symmetry_cell_setting 'monoclinic'
loop_
_space_group_symop_operation_xyz
x,y,z
-x,y,-z
-x,-y,-z
x,-y,z
1/2+x,1/2+y,z
1/2-x,1/2+y,-z
1/2-x,1/2-y,-z
1/2+x,1/2-y,z
loop_
_atom_site_type_symbol
_atom_site_label
_atom_site_fract_x
_atom_site_fract_y
_atom_site_fract_z
Si Si1 0.647733 0.199447 0.380539
Si Si2 0.635963 0.314576 0.061323
Si Si3 0.606004 0.178388 0.938435
Si Si4 0.686006 0.192538 0.204724
Si Si5 0.083059 0.806715 0.738688
Si Si6 0.243545 0.201422 0.640608
Si Si7 0.528837 0.194971 0.595664
Si Si8 0.146282 0.000000 0.907435
O O1 0.750000 0.250000 0.500000
O O2 0.511381 0.283701 0.288387
O O3 0.697317 0.250548 0.365650
O O4 0.632126 0.000000 0.370196
O O5 0.591670 0.500000 0.018033
O O6 0.580554 0.198464 0.976596
O O7 0.627493 0.275422 0.112019
O O8 0.789624 0.302619 0.167796
O O9 0.583572 0.348471 0.892525
O O10 0.546182 0.000000 0.874785
O O11 0.759108 0.140124 0.048442
O O12 0.673173 0.258437 0.249668
O O13 0.841506 0.207449 0.317366
O O14 0.653433 0.000000 0.176977
O O15 0.998916 0.752656 0.627758
O O16 0.119324 0.000000 0.761684
O O17 0.098570 0.269617 0.532080
O O18 0.234831 0.000000 0.635530
O O19 0.558968 0.000000 0.617303
#
# Coordination Sequence:
#
# PCOD9191234 Si02
#       8
#     8   8   8   8   8   8   8   4
#     4  11  21  34  50  66  82 110 151 201 249 291
#     4  11  20  31  48  69  97 130 158 189 229 280
#     4   9  15  28  45  70 100 134 161 187 221 265
#     4  10  20  33  45  62  86 119 153 186 232 286
#     4  11  21  33  46  65  88 117 155 196 241 290
#     4  10  21  34  48  61  81 113 149 195 243 286
#     4  11  20  30  46  64  84 108 144 194 239 284
#     4   8  16  26  46  72 100 130 164 186 214 266
#
# _framework density 26.100218000000002
#
# number of rings (size 3 to 8) (size 9 to 14) (size 15 to 20)
#    0.400    1.333    2.000    6.400    0.000    3.200 
#    0.000    0.000    0.000    0.000    0.000    0.000 
#    0.000    0.000    0.000    7.200    0.000    2.667 
#
# Total GULP energy -167524.302841 kJ/mol
# GULP energy per Si atom -5584.143428 kJ/mol
# Density = 2.604081 g / cm^3
# Si number density = 26.100218 Si / 1000 Ang^3
#
#
#
# Elastic Constant Matrix: (Units=GPa)
#
#
# Indices 1 2 3 4 5 6 
#
# 1 152.6609 42.0209 38.4762 -0.0001 -22.1267 0.0003
# 2 42.0209 141.0322 29.8166 0.0008 -5.9970 0.0030
# 3 38.4762 29.8166 141.6103 -0.0002 -4.3106 -0.0001
# 4 -0.0001 0.0008 -0.0002 21.0662 -0.0001 1.3152
# 5 -22.1267 -5.9970 -4.3106 -0.0001 47.5379 0.0001
# 6 0.0003 0.0030 -0.0001 1.3152 0.0001 37.5387
#
#
#
# Elastic Compliance Matrix: (Units=1/GPa)
#
#
# Indices 1 2 3 4 5 6 
#
# 1 0.007970 -0.001881 -0.001668 0.000000 0.003321 0.000000
# 2 -0.001881 0.007895 -0.001151 0.000000 0.000016 -0.000001
# 3 -0.001668 -0.001151 0.007751 0.000000 -0.000219 0.000000
# 4 0.000000 0.000000 0.000000 0.047573 0.000000 -0.001667
# 5 0.003321 0.000016 -0.000219 0.000000 0.022564 0.000000
# 6 0.000000 -0.000001 0.000000 -0.001667 0.000000 0.026698
#
#
# Mechanical properties :
#
#
# Convention : Reuss Voigt Hill
#
# Bulk Modulus (GPa) = 70.34502 72.88120 71.61311
# Shear Modulus (GPa) = 37.15015 42.89453 40.02234
#
# Velocity S-wave (km/s) = 3.77684 4.05835 3.92013
# Velocity P-wave (km/s) = 6.78453 7.06714 6.92728
#
# Compressibility (1/GPa) = 0.01421565
#
# Stress axis : x y z
#
# Youngs Moduli (GPa) = 125.47031 126.66344 129.02241
#
# Poissons Ratio (x) = 0.23822 0.21526
# Poissons Ratio (y) = 0.23598 0.14848
# Poissons Ratio (z) = 0.20933 0.14577
#
# Static dielectric constant tensor:
#      x y z
#    x 2.135690 0.000000 -0.004600 
#    y 0.000000 2.275150 0.000000 
#    z -0.004600 0.000000 2.094470 
# 
# From -- ./inp_files/367178.got.cif
#   From: 2010.05.17/outbox.cif.g08.bks.cpg/sg12_184_cif.got.tgz:367178.got - 2010.06.03 13:09:07.
