data_PCOD9191687
_publ_section_title
;
Structure prediction by ZEFSAII (Michael W. Deem and Ramdas Pophale) SiO2 
 PCOD9191687
Probable space group: C 2/M
;
_chemical_formula_sum "Si O2"
_cell_formula_units_Z 48
_cell_length_a 17.912553
_cell_length_b 9.292260
_cell_length_c 13.662387
_cell_angle_alpha 90.000000
_cell_angle_beta 79.113589
_cell_angle_gamma 90.000000
_cell_volume 2233.152979
_symmetry_space_group_name_H-M "C 2/M"
_symmetry_group_IT_number 12
_symmetry_cell_setting 'monoclinic'
loop_
_space_group_symop_operation_xyz
x,y,z
-x,y,-z
-x,-y,-z
x,-y,z
1/2+x,1/2+y,z
1/2-x,1/2+y,-z
1/2-x,1/2-y,-z
1/2+x,1/2-y,z
loop_
_atom_site_type_symbol
_atom_site_label
_atom_site_fract_x
_atom_site_fract_y
_atom_site_fract_z
Si Si1 0.670249 0.660365 0.806309
Si Si2 0.822563 0.335793 0.523615
Si Si3 0.934799 0.338003 0.310082
Si Si4 0.800337 0.672785 0.903303
Si Si5 0.443549 0.665129 0.609284
Si Si6 0.075669 0.163519 0.029524
O O1 0.668791 0.500000 0.762399
O O2 0.620454 0.766977 0.755344
O O3 0.756443 0.702495 0.812507
O O4 0.630399 0.650937 0.921991
O O5 0.802572 0.500000 0.556476
O O6 0.750000 0.250000 0.500000
O O7 0.883249 0.344388 0.420338
O O8 0.868300 0.251364 0.596374
O O9 0.957049 0.500000 0.277370
O O10 0.007754 0.242900 0.318860
O O11 0.801182 0.500000 0.916584
O O12 0.882747 0.741479 0.899749
O O13 0.750000 0.750000 0.000000
O O14 0.500000 0.663956 0.500000
O O15 0.426202 0.500000 0.637879
O O16 0.059677 0.000000 0.068920
O O17 0.000000 0.226919 0.000000
#
# Coordination Sequence:
#
# PCOD9191687 Si02
#       6
#     8   8   8   8   8   8
#     4   9  18  32  50  72  98 130 166 203 244 290
#     4  10  20  34  52  75 101 129 165 205 245 291
#     4  10  20  33  51  75 101 130 164 202 243 290
#     4   9  17  30  49  72  97 128 166 203 241 290
#     4   9  17  31  52  74  97 129 165 200 242 292
#     4   9  18  33  52  74 100 130 164 203 246 290
#
# _framework density 21.494271999999999
#
# number of rings (size 3 to 8) (size 9 to 14) (size 15 to 20)
#    0.000    2.667    0.000    3.000    0.000    7.667 
#    0.000    1.667    0.000    6.000    0.000    0.000 
#    0.000    0.000    0.000    0.000    0.000    0.000 
#
# Total GULP energy -133919.447361 kJ/mol
# GULP energy per Si atom -5579.976973 kJ/mol
# Density = 2.144535 g / cm^3
# Si number density = 21.494272 Si / 1000 Ang^3
#
#
#
# Elastic Constant Matrix: (Units=GPa)
#
#
# Indices 1 2 3 4 5 6 
#
# 1 163.1429 96.7116 32.7929 0.0000 61.1047 0.0000
# 2 96.7116 187.3729 46.0531 0.0000 61.1261 0.0000
# 3 32.7929 46.0531 46.9610 0.0000 19.9598 0.0000
# 4 0.0000 0.0000 0.0000 17.7370 0.0000 14.9493
# 5 61.1047 61.1261 19.9598 0.0000 56.2421 0.0000
# 6 0.0000 0.0000 0.0000 14.9493 0.0000 36.1039
#
#
#
# Elastic Compliance Matrix: (Units=1/GPa)
#
#
# Indices 1 2 3 4 5 6 
#
# 1 0.011306 -0.002507 -0.001618 0.000000 -0.008985 0.000000
# 2 -0.002507 0.009985 -0.005401 0.000000 -0.006211 0.000000
# 3 -0.001618 -0.005401 0.028827 0.000000 -0.002603 0.000000
# 4 0.000000 0.000000 0.000000 0.086602 0.000000 -0.035859
# 5 -0.008985 -0.006211 -0.002603 0.000000 0.035216 0.000000
# 6 0.000000 0.000000 0.000000 -0.035859 0.000000 0.042546
#
#
# Mechanical properties :
#
#
# Convention : Reuss Voigt Hill
#
# Bulk Modulus (GPa) = 32.18946 83.17691 57.68319
# Shear Modulus (GPa) = 20.50113 36.81120 28.65617
#
# Velocity S-wave (km/s) = 3.09171 4.14285 3.65526
# Velocity P-wave (km/s) = 5.26813 7.85274 6.68651
#
# Compressibility (1/GPa) = 0.03106607
#
# Stress axis : x y z
#
# Youngs Moduli (GPa) = 88.44751 100.15378 34.68989
#
# Poissons Ratio (x) = 0.25107 0.05612
# Poissons Ratio (y) = 0.22172 0.18736
# Poissons Ratio (z) = 0.14310 0.54094
#
# Static dielectric constant tensor:
#      x y z
#    x 1.837300 0.000000 -0.041320 
#    y 0.000000 1.763290 0.000000 
#    z -0.041320 0.000000 1.806530 
# 
# From -- ./inp_files/221623.got.cif
#   From: 2010.05.17/outbox.cif.g08.bks.cpg/sg12_111_cif.got.tgz:221623.got - 2010.06.03 13:09:07.
