data_PCOD9191297
_publ_section_title
;
Structure prediction by ZEFSAII (Michael W. Deem and Ramdas Pophale) SiO2 
 PCOD9191297
Probable space group: C 2/M
;
_chemical_formula_sum "Si O2"
_cell_formula_units_Z 56
_cell_length_a 18.786369
_cell_length_b 7.731526
_cell_length_c 30.664333
_cell_angle_alpha 90.000000
_cell_angle_beta 140.940673
_cell_angle_gamma 90.000000
_cell_volume 2806.519927
_symmetry_space_group_name_H-M "C 2/M"
_symmetry_group_IT_number 12
_symmetry_cell_setting 'monoclinic'
loop_
_space_group_symop_operation_xyz
x,y,z
-x,y,-z
-x,-y,-z
x,-y,z
1/2+x,1/2+y,z
1/2-x,1/2+y,-z
1/2-x,1/2-y,-z
1/2+x,1/2-y,z
loop_
_atom_site_type_symbol
_atom_site_label
_atom_site_fract_x
_atom_site_fract_y
_atom_site_fract_z
Si Si1 0.671387 0.291953 0.503260
Si Si2 0.619321 0.705425 0.935486
Si Si3 0.927606 0.205487 0.784932
Si Si4 0.548970 0.796154 0.067973
Si Si5 0.754314 0.707841 0.636087
Si Si6 0.084575 0.787433 0.632201
Si Si7 0.759577 0.699539 0.781392
O O1 0.664310 0.500000 0.503505
O O2 0.750000 0.250000 0.500000
O O3 0.723699 0.226509 0.573632
O O4 0.543558 0.229787 0.434690
O O5 0.609779 0.500000 0.935091
O O6 0.553935 0.755405 0.859625
O O7 0.547042 0.782682 0.940763
O O8 0.750000 0.750000 0.000000
O O9 0.877084 0.245793 0.713707
O O10 0.845466 0.296247 0.780951
O O11 0.915646 0.000000 0.785773
O O12 0.665250 0.721840 0.143871
O O13 0.571102 0.000000 0.070860
O O14 0.500000 0.720459 0.000000
O O15 0.748196 0.500000 0.632345
O O16 0.661329 0.766956 0.627479
O O17 0.145741 0.726416 0.705881
O O18 0.086545 0.000000 0.633939
O O19 0.736084 0.500000 0.781695
#
# Coordination Sequence:
#
# PCOD9191297 Si02
#       7
#     8   8   8   8   8   8   8
#     4  10  20  33  48  68  97 128 156 191 237 286
#     4  10  20  33  50  72  99 131 165 201 243 290
#     4   9  17  29  47  72  97 120 152 198 245 282
#     4   9  17  30  49  73 101 130 161 200 243 289
#     4   9  17  31  52  72  89 118 161 200 234 279
#     4   8  14  28  51  72  87 114 160 201 227 265
#     4   8  14  27  48  70  91 121 160 197 235 278
#
# _framework density 19.953536
#
# number of rings (size 3 to 8) (size 9 to 14) (size 15 to 20)
#    0.000    3.000    0.000    2.143    0.000    4.286 
#    0.000    4.286    0.000    7.714    0.000    0.000 
#    0.000    0.000    0.000    0.000    0.000    0.000 
#
# Total GULP energy -155945.877226 kJ/mol
# GULP energy per Si atom -5569.495615 kJ/mol
# Density = 1.990812 g / cm^3
# Si number density = 19.953536 Si / 1000 Ang^3
#
#
#
# Elastic Constant Matrix: (Units=GPa)
#
#
# Indices 1 2 3 4 5 6 
#
# 1 53.8613 -1.7733 78.6880 0.0000 -8.9341 0.0005
# 2 -1.7733 35.0434 9.4152 -0.0001 -2.6984 0.0010
# 3 78.6880 9.4152 260.8625 0.0000 -17.0573 0.0000
# 4 0.0000 -0.0001 0.0000 13.8538 0.0000 1.7731
# 5 -8.9341 -2.6984 -17.0573 0.0000 27.9342 -0.0001
# 6 0.0005 0.0010 0.0000 1.7731 -0.0001 14.5184
#
#
#
# Elastic Compliance Matrix: (Units=1/GPa)
#
#
# Indices 1 2 3 4 5 6 
#
# 1 0.034611 0.004917 -0.010273 0.000000 0.005272 -0.000002
# 2 0.004917 0.029649 -0.002357 0.000000 0.002997 -0.000002
# 3 -0.010273 -0.002357 0.007070 0.000000 0.000804 0.000001
# 4 0.000000 0.000000 0.000000 0.073329 0.000000 -0.008955
# 5 0.005272 0.002997 0.000804 0.000000 0.038265 0.000000
# 6 -0.000002 -0.000002 0.000001 -0.008955 0.000000 0.069972
#
#
# Mechanical properties :
#
#
# Convention : Reuss Voigt Hill
#
# Bulk Modulus (GPa) = 17.88796 58.04745 37.96771
# Shear Modulus (GPa) = 17.42434 28.82377 23.12406
#
# Velocity S-wave (km/s) = 2.95828 3.80484 3.40795
# Velocity P-wave (km/s) = 4.54454 6.96110 5.87834
#
# Compressibility (1/GPa) = 0.05590352
#
# Stress axis : x y z
#
# Youngs Moduli (GPa) = 28.89285 33.72794 141.44551
#
# Poissons Ratio (x) = -0.16585 1.45306
# Poissons Ratio (y) = -0.14208 0.33345
# Poissons Ratio (z) = 0.29681 0.07951
#
# Static dielectric constant tensor:
#      x y z
#    x 1.633080 0.000000 -0.029150 
#    y 0.000000 1.742410 0.000000 
#    z -0.029150 0.000000 1.776890 
# 
# From -- ./inp_files/377774.got.cif
#   From: 2010.05.17/outbox.cif.g08.bks.cpg/sg12_189_cif.got.tgz:377774.got - 2010.06.03 13:09:07.
