data_PCOD9191854
_publ_section_title
;
Structure prediction by ZEFSAII (Michael W. Deem and Ramdas Pophale) SiO2 
 PCOD9191854
Probable space group: C 2/M
;
_chemical_formula_sum "Si O2"
_cell_formula_units_Z 56
_cell_length_a 17.236065
_cell_length_b 20.237158
_cell_length_c 12.328834
_cell_angle_alpha 90.000000
_cell_angle_beta 49.292681
_cell_angle_gamma 90.000000
_cell_volume 3259.928638
_symmetry_space_group_name_H-M "C 2/M"
_symmetry_group_IT_number 12
_symmetry_cell_setting 'monoclinic'
loop_
_space_group_symop_operation_xyz
x,y,z
-x,y,-z
-x,-y,-z
x,-y,z
1/2+x,1/2+y,z
1/2-x,1/2+y,-z
1/2-x,1/2-y,-z
1/2+x,1/2-y,z
loop_
_atom_site_type_symbol
_atom_site_label
_atom_site_fract_x
_atom_site_fract_y
_atom_site_fract_z
Si Si1 0.704264 0.077782 0.955871
Si Si2 0.114339 0.220804 0.848803
Si Si3 0.346941 0.298574 0.426816
Si Si4 0.471642 0.924911 0.234430
Si Si5 0.502100 0.809428 0.371392
Si Si6 0.787479 0.634405 0.280407
Si Si7 0.736818 0.188534 0.092607
O O1 0.745776 0.107122 0.805638
O O2 0.724286 0.000000 0.946984
O O3 0.579958 0.087268 0.074647
O O4 0.747060 0.121028 0.015703
O O5 0.120690 0.184286 0.726101
O O6 0.155438 0.295313 0.790589
O O7 0.188186 0.191478 0.873487
O O8 0.000000 0.222991 0.000000
O O9 0.250000 0.250000 0.500000
O O10 0.436999 0.255088 0.398252
O O11 0.303104 0.353202 0.549952
O O12 0.461180 0.870819 0.338293
O O13 0.374277 0.914264 0.247002
O O14 0.475333 0.000000 0.271964
O O15 0.500000 0.822243 0.500000
O O16 0.620563 0.803555 0.235760
O O17 0.750000 0.250000 0.000000
#
# Coordination Sequence:
#
# PCOD9191854 Si02
#       7
#     8   8   8   8   8   8   8
#     4  10  21  36  55  84 120 151 184 234 292 344
#     4  11  20  35  57  83 114 143 184 239 288 338
#     4  10  20  33  51  80 112 150 183 226 279 322
#     4  10  20  33  52  80 117 160 190 218 281 356
#     4  11  21  34  52  80 120 150 182 237 282 332
#     4  11  19  32  56  82 117 151 184 229 278 341
#     4  11  22  34  58  86 113 146 192 232 282 342
#
# _framework density 17.178290000000001
#
# number of rings (size 3 to 8) (size 9 to 14) (size 15 to 20)
#    0.000    1.429    4.286    4.286    0.000    1.429 
#    0.000    0.000    0.000    0.429    0.000   10.000 
#    0.000    0.000    0.000    0.000    0.000    0.000 
#
# Total GULP energy -156203.905541 kJ/mol
# GULP energy per Si atom -5578.710912 kJ/mol
# Density = 1.713919 g / cm^3
# Si number density = 17.178290 Si / 1000 Ang^3
#
#
#
# Elastic Constant Matrix: (Units=GPa)
#
#
# Indices 1 2 3 4 5 6 
#
# 1 64.4586 15.7499 33.7385 0.0000 0.0787 0.0000
# 2 15.7499 66.1260 39.9348 0.0000 2.5157 0.0000
# 3 33.7385 39.9348 121.1566 0.0000 18.9984 0.0000
# 4 0.0000 0.0000 0.0000 14.2198 0.0000 -2.8234
# 5 0.0787 2.5157 18.9984 0.0000 18.7771 0.0000
# 6 0.0000 0.0000 0.0000 -2.8234 0.0000 16.9871
#
#
#
# Elastic Compliance Matrix: (Units=1/GPa)
#
#
# Indices 1 2 3 4 5 6 
#
# 1 0.018824 -0.001227 -0.005766 0.000000 0.005919 0.000000
# 2 -0.001227 0.019283 -0.006668 0.000000 0.004168 0.000000
# 3 -0.005766 -0.006668 0.014160 0.000000 -0.013409 0.000000
# 4 0.000000 0.000000 0.000000 0.072725 0.000000 0.012087
# 5 0.005919 0.004168 -0.013409 0.000000 0.066240 0.000000
# 6 0.000000 0.000000 0.000000 0.012087 0.000000 0.060877
#
#
# Mechanical properties :
#
#
# Convention : Reuss Voigt Hill
#
# Bulk Modulus (GPa) = 40.08605 47.84307 43.96456
# Shear Modulus (GPa) = 17.37643 20.81801 19.09722
#
# Velocity S-wave (km/s) = 3.18391 3.48498 3.33784
# Velocity P-wave (km/s) = 6.07473 6.64115 6.36424
#
# Compressibility (1/GPa) = 0.02494633
#
# Stress axis : x y z
#
# Youngs Moduli (GPa) = 53.12285 51.85872 70.62149
#
# Poissons Ratio (x) = 0.06361 0.40720
# Poissons Ratio (y) = 0.06516 0.47091
# Poissons Ratio (z) = 0.30630 0.34579
#
# Static dielectric constant tensor:
#      x y z
#    x 1.579460 0.000000 0.012680 
#    y 0.000000 1.576750 0.000000 
#    z 0.012680 0.000000 1.589350 
# 
# From -- ./inp_files/158236.got.cif
#   From: 2010.05.17/outbox.cif.g08.bks.cpg/sg12_80_cif.got.tgz:158236.got - 2010.06.03 13:09:07.
