data_PCOD9191767
_publ_section_title
;
Structure prediction by ZEFSAII (Michael W. Deem and Ramdas Pophale) SiO2 
 PCOD9191767
Probable space group: C 2/M
;
_chemical_formula_sum "Si O2"
_cell_formula_units_Z 58
_cell_length_a 21.059826
_cell_length_b 7.405073
_cell_length_c 18.840247
_cell_angle_alpha 90.000000
_cell_angle_beta 71.258455
_cell_angle_gamma 90.000000
_cell_volume 2782.341284
_symmetry_space_group_name_H-M "C 2/M"
_symmetry_group_IT_number 12
_symmetry_cell_setting 'monoclinic'
loop_
_space_group_symop_operation_xyz
x,y,z
-x,y,-z
-x,-y,-z
x,-y,z
1/2+x,1/2+y,z
1/2-x,1/2+y,-z
1/2-x,1/2-y,-z
1/2+x,1/2-y,z
loop_
_atom_site_type_symbol
_atom_site_label
_atom_site_fract_x
_atom_site_fract_y
_atom_site_fract_z
Si Si1 0.194964 0.284382 0.960565
Si Si2 0.947982 0.279851 0.204619
Si Si3 0.247045 0.793706 0.633358
Si Si4 0.546345 0.220548 0.049873
Si Si5 0.000000 0.000000 0.500000
Si Si6 0.894847 0.280192 0.531455
Si Si7 0.602296 0.794198 0.630348
Si Si8 0.302623 0.782065 0.197858
O O1 0.187897 0.500000 0.955748
O O2 0.214310 0.218246 0.874993
O O3 0.250000 0.250000 0.000000
O O4 0.121937 0.216642 0.010521
O O5 0.948900 0.500000 0.207255
O O6 0.937997 0.213393 0.288684
O O7 0.879754 0.232097 0.187309
O O8 0.011097 0.221221 0.135571
O O9 0.319407 0.730913 0.581816
O O10 0.180464 0.702389 0.625915
O O11 0.241058 0.785102 0.720631
O O12 0.241083 0.000000 0.611507
O O13 0.546690 0.000000 0.050590
O O14 0.500000 0.273221 0.000000
O O15 0.950158 0.161045 0.550076
O O16 0.902128 0.500000 0.535304
O O17 0.902935 0.217062 0.446255
O O18 0.579230 0.000000 0.631353
O O19 0.298797 0.000000 0.201862
#
# Coordination Sequence:
#
# PCOD9191767 Si02
#       8
#     8   8   8   8   2   8   8   8
#     4  10  20  33  51  76 109 147 184 234 288 348
#     4   8  13  25  49  81 105 135 176 227 286 335
#     4  10  20  33  57  88 117 142 185 245 297 354
#     4   9  14  25  50  78 101 132 186 233 272 331
#     4  12  26  40  68  78 116 172 204 236 288 350
#     4  10  23  41  59  88 118 156 207 243 287 353
#     4   9  18  33  57  86 122 146 177 244 303 349
#     4   9  17  31  52  77 108 144 184 229 288 348
#
# _framework density 20.845752000000001
#
# number of rings (size 3 to 8) (size 9 to 14) (size 15 to 20)
#    0.000    2.621    1.379    1.862    2.897    0.552 
#    0.000    1.379    0.000    7.034    0.000    0.000 
#    0.000    0.000    0.000    0.000    0.000    0.000 
#
# Total GULP energy -161509.328629 kJ/mol
# GULP energy per Si atom -5569.287194 kJ/mol
# Density = 2.079831 g / cm^3
# Si number density = 20.845752 Si / 1000 Ang^3
#
#
#
# Elastic Constant Matrix: (Units=GPa)
#
#
# Indices 1 2 3 4 5 6 
#
# 1 77.4207 1.1626 49.8350 0.0000 -10.9268 0.0000
# 2 1.1626 78.3755 0.7126 0.0000 -5.7363 0.0001
# 3 49.8350 0.7126 129.1359 0.0000 -8.0733 0.0000
# 4 0.0000 0.0000 0.0000 0.8318 0.0000 1.8520
# 5 -10.9268 -5.7363 -8.0733 0.0000 24.5345 0.0001
# 6 0.0000 0.0001 0.0000 1.8520 0.0001 -10.3691
#
#
#
# Elastic Compliance Matrix: (Units=1/GPa)
#
#
# Indices 1 2 3 4 5 6 
#
# 1 0.017973 0.000225 -0.006569 0.000000 0.005896 0.000000
# 2 0.000225 0.012986 0.000039 -0.000001 0.003149 0.000000
# 3 -0.006569 0.000039 0.010308 0.000000 0.000475 0.000000
# 4 0.000000 -0.000001 0.000000 0.860175 0.000000 0.153632
# 5 0.005896 0.003149 0.000475 0.000000 0.044277 0.000000
# 6 0.000000 0.000000 0.000000 0.153632 0.000000 -0.069001
#
#
# Mechanical properties :
#
#
# Convention : Reuss Voigt Hill
#
# Bulk Modulus (GPa) = 34.89634 43.15027 39.02331
# Shear Modulus (GPa) = 5.56246 18.54756 12.05501
#
# Velocity S-wave (km/s) = 1.63529 2.98611 2.40739
# Velocity P-wave (km/s) = 4.51023 5.71260 5.14665
#
# Compressibility (1/GPa) = 0.02865630
#
# Stress axis : x y z
#
# Youngs Moduli (GPa) = 55.63755 77.00671 97.00941
#
# Poissons Ratio (x) = -0.01730 0.63724
# Poissons Ratio (y) = -0.01250 -0.00374
# Poissons Ratio (z) = 0.36547 -0.00297
#
# Static dielectric constant tensor:
#      x y z
#    x 1.743080 0.000000 0.016640 
#    y 0.000000 1.842260 0.000000 
#    z 0.016640 0.000000 1.772090 
# 
# From -- ./inp_files/281078.got.cif
#   From: 2010.05.17/outbox.cif.g08.bks.cpg/sg12_141_cif.got.tgz:281078.got - 2010.06.03 13:09:07.
