data_PCOD9191255
_publ_section_title
;
Structure prediction by ZEFSAII (Michael W. Deem and Ramdas Pophale) SiO2 
 PCOD9191255
Probable space group: C 2/M
;
_chemical_formula_sum "Si O2"
_cell_formula_units_Z 64
_cell_length_a 19.393532
_cell_length_b 7.467194
_cell_length_c 20.908782
_cell_angle_alpha 90.000000
_cell_angle_beta 96.264101
_cell_angle_gamma 90.000000
_cell_volume 3009.832727
_symmetry_space_group_name_H-M "C 2/M"
_symmetry_group_IT_number 12
_symmetry_cell_setting 'monoclinic'
loop_
_space_group_symop_operation_xyz
x,y,z
-x,y,-z
-x,-y,-z
x,-y,z
1/2+x,1/2+y,z
1/2-x,1/2+y,-z
1/2-x,1/2-y,-z
1/2+x,1/2-y,z
loop_
_atom_site_type_symbol
_atom_site_label
_atom_site_fract_x
_atom_site_fract_y
_atom_site_fract_z
Si Si1 0.478897 0.204718 0.898449
Si Si2 0.573148 0.783366 0.366020
Si Si3 0.653307 0.217865 0.042779
Si Si4 0.866345 0.280071 0.100515
Si Si5 0.168568 0.714775 0.492136
Si Si6 0.551096 0.207803 0.567275
Si Si7 0.751261 0.796071 0.828162
Si Si8 0.118104 0.788617 0.227114
O O1 0.424561 0.277180 0.944855
O O2 0.554461 0.283312 0.894232
O O3 0.436302 0.206306 0.827931
O O4 0.491946 0.000000 0.919758
O O5 0.630086 0.721532 0.423768
O O6 0.497348 0.716347 0.381488
O O7 0.595228 0.735522 0.297207
O O8 0.570761 0.000000 0.369313
O O9 0.704228 0.294116 0.101390
O O10 0.655946 0.000000 0.048025
O O11 0.666747 0.269750 0.971258
O O12 0.865451 0.500000 0.103446
O O13 0.821238 0.214857 0.155924
O O14 0.160138 0.500000 0.492426
O O15 0.250000 0.750000 0.500000
O O16 0.123506 0.784224 0.548158
O O17 0.500000 0.210130 0.500000
O O18 0.564247 0.000000 0.585445
O O19 0.804786 0.717024 0.782096
O O20 0.736955 0.000000 0.806283
O O21 0.119401 0.000000 0.212531
#
# Coordination Sequence:
#
# PCOD9191255 Si02
#       8
#     8   8   8   8   8   8   8   8
#     4   9  17  30  48  67  88 116 151 191 231 273
#     4   9  17  32  54  72  88 121 164 193 216 259
#     4   9  16  27  46  70  90 111 146 191 235 278
#     4   9  16  28  47  68  88 113 149 191 233 278
#     4   9  17  30  50  77 105 126 147 182 227 270
#     4   7  12  26  48  71  92 117 152 187 214 250
#     4   9  18  31  45  63  91 124 153 184 227 280
#     4  10  20  33  47  65  91 122 156 192 229 269
#
# _framework density 21.263639999999999
#
# number of rings (size 3 to 8) (size 9 to 14) (size 15 to 20)
#    0.000    3.125    0.000    2.625    0.000    2.500 
#    0.000    3.125    0.000   11.250    0.000    0.000 
#    0.000    0.000    0.000    0.000    0.000    0.000 
#
# Total GULP energy -178340.737200 kJ/mol
# GULP energy per Si atom -5573.148037 kJ/mol
# Density = 2.121524 g / cm^3
# Si number density = 21.263640 Si / 1000 Ang^3
#
#
#
# Elastic Constant Matrix: (Units=GPa)
#
#
# Indices 1 2 3 4 5 6 
#
# 1 137.1594 -2.1689 46.0431 0.0000 -41.5389 0.0000
# 2 -2.1689 67.7946 -2.4542 0.0000 -1.5891 0.0000
# 3 46.0431 -2.4542 102.4445 0.0000 -44.4567 0.0000
# 4 0.0000 0.0000 0.0000 4.5833 0.0000 4.0059
# 5 -41.5389 -1.5891 -44.4567 0.0000 36.5760 0.0000
# 6 0.0000 0.0000 0.0000 4.0059 0.0000 9.2479
#
#
#
# Elastic Compliance Matrix: (Units=1/GPa)
#
#
# Indices 1 2 3 4 5 6 
#
# 1 0.011199 0.000728 0.001094 0.000000 0.014081 0.000000
# 2 0.000728 0.014900 0.001417 0.000000 0.003196 0.000000
# 3 0.001094 0.001417 0.020886 0.000000 0.026691 0.000000
# 4 0.000000 0.000000 0.000000 0.351113 0.000000 -0.152091
# 5 0.014081 0.003196 0.026691 0.000000 0.075912 0.000000
# 6 0.000000 0.000000 0.000000 -0.152091 0.000000 0.174013
#
#
# Mechanical properties :
#
#
# Convention : Reuss Voigt Hill
#
# Bulk Modulus (GPa) = 18.70425 43.35982 31.03204
# Shear Modulus (GPa) = 7.58304 27.81336 17.69820
#
# Velocity S-wave (km/s) = 1.89049 3.62059 2.88813
# Velocity P-wave (km/s) = 3.68520 6.15743 5.07418
#
# Compressibility (1/GPa) = 0.05346377
#
# Stress axis : x y z
#
# Youngs Moduli (GPa) = 89.29154 67.11444 47.87857
#
# Poissons Ratio (x) = -0.04886 -0.05240
# Poissons Ratio (y) = -0.06500 -0.06783
# Poissons Ratio (z) = -0.09773 -0.09508
#
# Static dielectric constant tensor:
#      x y z
#    x 1.827340 0.000000 -0.044790 
#    y 0.000000 1.847590 0.000000 
#    z -0.044790 0.000000 1.727950 
# 
# From -- ./inp_files/319148.got.cif
#   From: 2010.05.17/outbox.cif.g08.bks.cpg/sg12_160_cif.got.tgz:319148.got - 2010.06.03 13:09:07.
