data_PCOD9191623
_publ_section_title
;
Structure prediction by ZEFSAII (Michael W. Deem and Ramdas Pophale) SiO2 
 PCOD9191623
Probable space group: C 2/M
;
_chemical_formula_sum "Si O2"
_cell_formula_units_Z 48
_cell_length_a 20.511162
_cell_length_b 16.956861
_cell_length_c 11.553769
_cell_angle_alpha 90.000000
_cell_angle_beta 27.587730
_cell_angle_gamma 90.000000
_cell_volume 1860.972863
_symmetry_space_group_name_H-M "C 2/M"
_symmetry_group_IT_number 12
_symmetry_cell_setting 'monoclinic'
loop_
_space_group_symop_operation_xyz
x,y,z
-x,y,-z
-x,-y,-z
x,-y,z
1/2+x,1/2+y,z
1/2-x,1/2+y,-z
1/2-x,1/2-y,-z
1/2+x,1/2-y,z
loop_
_atom_site_type_symbol
_atom_site_label
_atom_site_fract_x
_atom_site_fract_y
_atom_site_fract_z
Si Si1 0.004614 0.755479 0.766978
Si Si2 0.064459 0.910578 0.271158
Si Si3 0.420805 0.908920 0.943792
Si Si4 0.298065 0.683961 0.272682
Si Si5 0.653573 0.091281 0.288289
Si Si6 0.272305 0.911339 0.411957
O O1 0.982859 0.832514 0.722731
O O2 0.170300 0.740573 0.509439
O O3 0.934341 0.670134 0.845242
O O4 0.925528 0.772214 0.011453
O O5 0.000000 0.906290 0.500000
O O6 0.029982 0.000000 0.280777
O O7 0.234027 0.906108 0.993030
O O8 0.303016 0.895614 0.228357
O O9 0.404379 0.000000 0.925359
O O10 0.572688 0.908351 0.771006
O O11 0.229706 0.631705 0.277132
O O12 0.326535 0.633714 0.342271
O O13 0.500000 0.124360 0.500000
O O14 0.632651 0.000000 0.353329
O O15 0.221980 0.000000 0.494562
#
# Coordination Sequence:
#
# PCOD9191623 Si02
#       6
#     8   8   8   8   8   8
#     4  10  21  35  53  79 109 142 179 223 270 321
#     4   9  19  37  58  78 106 145 183 219 267 328
#     4   8  15  30  53  81 109 139 178 224 272 319
#     4  10  20  33  50  77 110 144 179 219 267 321
#     4   9  18  33  54  79 104 133 177 231 276 312
#     4   8  14  28  53  80 105 138 182 228 270 314
#
# _framework density 25.792960999999998
#
# number of rings (size 3 to 8) (size 9 to 14) (size 15 to 20)
#    0.000    3.000    0.000    1.500    0.000    4.000 
#    0.000    4.167    0.000    0.500    0.000   11.667 
#    0.000    6.000    0.000    0.000    0.000    0.000 
#
# Total GULP energy -134119.227417 kJ/mol
# GULP energy per Si atom -5588.301142 kJ/mol
# Density = 2.573426 g / cm^3
# Si number density = 25.792961 Si / 1000 Ang^3
#
#
#
# Elastic Constant Matrix: (Units=GPa)
#
#
# Indices 1 2 3 4 5 6 
#
# 1 77.8329 63.7206 37.8321 0.0006 4.9718 -0.0005
# 2 63.7206 197.8171 69.1338 0.0006 16.6377 -0.0005
# 3 37.8321 69.1338 209.6648 0.0009 30.1399 -0.0008
# 4 0.0006 0.0006 0.0009 39.5319 -0.0006 3.0487
# 5 4.9718 16.6377 30.1399 -0.0006 36.0504 0.0005
# 6 -0.0005 -0.0005 -0.0008 3.0487 0.0005 29.1093
#
#
#
# Elastic Compliance Matrix: (Units=1/GPa)
#
#
# Indices 1 2 3 4 5 6 
#
# 1 0.017917 -0.005299 -0.001684 0.000000 0.001383 0.000000
# 2 -0.005299 0.007327 -0.001226 0.000000 -0.001626 0.000000
# 3 -0.001684 -0.001226 0.006096 0.000000 -0.004298 0.000000
# 4 0.000000 0.000000 0.000000 0.025502 0.000001 -0.002671
# 5 0.001383 -0.001626 -0.004298 0.000001 0.031892 -0.000001
# 6 0.000000 0.000000 0.000000 -0.002671 -0.000001 0.034633
#
#
# Mechanical properties :
#
#
# Convention : Reuss Voigt Hill
#
# Bulk Modulus (GPa) = 67.02234 91.85421 79.43827
# Shear Modulus (GPa) = 34.54015 41.91353 38.22684
#
# Velocity S-wave (km/s) = 3.66338 4.03550 3.85394
# Velocity P-wave (km/s) = 6.62835 7.57648 7.11822
#
# Compressibility (1/GPa) = 0.01492040
#
# Stress axis : x y z
#
# Youngs Moduli (GPa) = 55.81425 136.47539 164.05140
#
# Poissons Ratio (x) = 0.72317 0.27634
# Poissons Ratio (y) = 0.29575 0.20117
# Poissons Ratio (z) = 0.09402 0.16735
#
# Static dielectric constant tensor:
#      x y z
#    x 2.125390 0.000000 -0.034580 
#    y 0.000000 2.066400 0.000000 
#    z -0.034580 0.000000 2.012610 
# 
# From -- ./inp_files/251437.got.cif
#   From: 2010.05.17/outbox.cif.g08.bks.cpg/sg12_126_cif.got.tgz:251437.got - 2010.06.03 13:09:07.
