data_PCOD9191645
_publ_section_title
;
Structure prediction by ZEFSAII (Michael W. Deem and Ramdas Pophale) SiO2 
 PCOD9191645
Probable space group: C 2/M
;
_chemical_formula_sum "Si O2"
_cell_formula_units_Z 56
_cell_length_a 24.262455
_cell_length_b 8.574227
_cell_length_c 15.382960
_cell_angle_alpha 90.000000
_cell_angle_beta 60.880354
_cell_angle_gamma 90.000000
_cell_volume 2795.663828
_symmetry_space_group_name_H-M "C 2/M"
_symmetry_group_IT_number 12
_symmetry_cell_setting 'monoclinic'
loop_
_space_group_symop_operation_xyz
x,y,z
-x,y,-z
-x,-y,-z
x,-y,z
1/2+x,1/2+y,z
1/2-x,1/2+y,-z
1/2-x,1/2-y,-z
1/2+x,1/2-y,z
loop_
_atom_site_type_symbol
_atom_site_label
_atom_site_fract_x
_atom_site_fract_y
_atom_site_fract_z
Si Si1 0.559237 0.811138 0.683359
Si Si2 0.689432 0.814364 0.493307
Si Si3 0.442772 0.315893 0.987675
Si Si4 0.736464 0.680328 0.285041
Si Si5 0.213504 0.686064 0.114178
Si Si6 0.574067 0.311873 0.195065
Si Si7 0.620735 0.180557 0.813971
O O1 0.621116 0.761360 0.581966
O O2 0.491417 0.741221 0.710242
O O3 0.576396 0.764253 0.769660
O O4 0.555411 0.000000 0.684067
O O5 0.750000 0.750000 0.500000
O O6 0.694938 0.768620 0.387897
O O7 0.691420 0.000000 0.501401
O O8 0.453437 0.500000 0.970025
O O9 0.385318 0.282798 0.095476
O O10 0.500000 0.246437 0.000000
O O11 0.433205 0.254493 0.899291
O O12 0.716791 0.500000 0.293603
O O13 0.739040 0.750204 0.186522
O O14 0.807046 0.684555 0.270147
O O15 0.218173 0.500000 0.107924
O O16 0.140261 0.739550 0.172681
O O17 0.250000 0.750000 0.000000
O O18 0.578824 0.500000 0.194578
O O19 0.605898 0.000000 0.845890
#
# Coordination Sequence:
#
# PCOD9191645 Si02
#       7
#     8   8   8   8   8   8   8
#     4  10  21  38  58  88 127 165 205 255 317 380
#     4  11  22  39  63  94 132 172 215 267 325 385
#     4  10  20  33  50  81 119 154 196 247 303 368
#     4  11  23  42  65  94 127 165 215 269 321 383
#     4  12  26  46  69  95 127 170 216 265 318 378
#     4  11  23  40  62  89 124 167 212 264 320 377
#     4  10  20  34  55  85 121 160 200 248 309 372
#
# _framework density 20.031020999999999
#
# number of rings (size 3 to 8) (size 9 to 14) (size 15 to 20)
#    0.000    1.286    2.857    3.429    0.000    6.000 
#    0.000    0.714    0.000    4.286    0.000    0.000 
#    0.000    0.000    0.000    0.000    0.000    0.000 
#
# Total GULP energy -156261.380967 kJ/mol
# GULP energy per Si atom -5580.763606 kJ/mol
# Density = 1.998543 g / cm^3
# Si number density = 20.031021 Si / 1000 Ang^3
#
#
#
# Elastic Constant Matrix: (Units=GPa)
#
#
# Indices 1 2 3 4 5 6 
#
# 1 96.9045 21.6338 25.1130 0.0000 -13.1545 0.0000
# 2 21.6338 52.0926 10.9386 0.0000 -3.1648 0.0001
# 3 25.1130 10.9386 92.9163 0.0000 -7.5702 0.0000
# 4 0.0000 0.0000 0.0000 32.4381 0.0000 -3.5702
# 5 -13.1545 -3.1648 -7.5702 0.0000 30.0438 0.0000
# 6 0.0000 0.0001 0.0000 -3.5702 0.0000 28.9264
#
#
#
# Elastic Compliance Matrix: (Units=1/GPa)
#
#
# Indices 1 2 3 4 5 6 
#
# 1 0.012555 -0.004419 -0.002515 0.000000 0.004398 0.000000
# 2 -0.004419 0.021307 -0.001316 0.000000 -0.000022 0.000000
# 3 -0.002515 -0.001316 0.011737 0.000000 0.001718 0.000000
# 4 0.000000 0.000000 0.000000 0.031253 0.000000 0.003857
# 5 0.004398 -0.000022 0.001718 0.000000 0.035641 0.000000
# 6 0.000000 0.000000 0.000000 0.003857 0.000000 0.035047
#
#
# Mechanical properties :
#
#
# Convention : Reuss Voigt Hill
#
# Bulk Modulus (GPa) = 34.36460 39.69824 37.03142
# Shear Modulus (GPa) = 28.77925 30.56351 29.67138
#
# Velocity S-wave (km/s) = 3.79454 3.91040 3.85290
# Velocity P-wave (km/s) = 6.03249 6.34426 6.19034
#
# Compressibility (1/GPa) = 0.02909972
#
# Stress axis : x y z
#
# Youngs Moduli (GPa) = 79.65225 46.93376 85.20140
#
# Poissons Ratio (x) = 0.20738 0.21426
# Poissons Ratio (y) = 0.35195 0.11211
# Poissons Ratio (z) = 0.20030 0.06176
#
# Static dielectric constant tensor:
#      x y z
#    x 1.742730 0.000000 -0.040380 
#    y 0.000000 1.691960 0.000000 
#    z -0.040380 0.000000 1.748860 
# 
# From -- ./inp_files/238339.got.cif
#   From: 2010.05.17/outbox.cif.g08.bks.cpg/sg12_120_cif.got.tgz:238339.got - 2010.06.03 13:09:07.
