data_PCOD9191319
_publ_section_title
;
Structure prediction by ZEFSAII (Michael W. Deem and Ramdas Pophale) SiO2 
 PCOD9191319
Probable space group: C 2/M
;
_chemical_formula_sum "Si O2"
_cell_formula_units_Z 56
_cell_length_a 10.094947
_cell_length_b 19.535471
_cell_length_c 24.727222
_cell_angle_alpha 90.000000
_cell_angle_beta 150.851330
_cell_angle_gamma 90.000000
_cell_volume 2375.205911
_symmetry_space_group_name_H-M "C 2/M"
_symmetry_group_IT_number 12
_symmetry_cell_setting 'monoclinic'
loop_
_space_group_symop_operation_xyz
x,y,z
-x,y,-z
-x,-y,-z
x,-y,z
1/2+x,1/2+y,z
1/2-x,1/2+y,-z
1/2-x,1/2-y,-z
1/2+x,1/2-y,z
loop_
_atom_site_type_symbol
_atom_site_label
_atom_site_fract_x
_atom_site_fract_y
_atom_site_fract_z
Si Si1 0.351647 0.076173 0.184481
Si Si2 0.992006 0.922115 0.437872
Si Si3 0.028790 0.578318 0.892643
Si Si4 0.712680 0.693336 0.319263
Si Si5 0.396345 0.803093 0.909596
Si Si6 0.617061 0.419553 0.366651
Si Si7 0.629752 0.794497 0.740159
O O1 0.676964 0.071580 0.309820
O O2 0.320855 0.094335 0.110229
O O3 0.278625 0.134555 0.200566
O O4 0.238242 0.000000 0.153403
O O5 0.132069 0.893861 0.434012
O O6 0.000000 0.889504 0.500000
O O7 0.105139 0.000000 0.484504
O O8 0.085519 0.500000 0.927176
O O9 0.073646 0.631781 0.956287
O O10 0.704377 0.583276 0.763759
O O11 0.414301 0.676398 0.187849
O O12 0.766488 0.630929 0.378848
O O13 0.638572 0.762416 0.326244
O O14 0.901184 0.703213 0.334912
O O15 0.360110 0.758921 0.842341
O O16 0.500000 0.766313 0.000000
O O17 0.692076 0.500000 0.390180
#
# Coordination Sequence:
#
# PCOD9191319 Si02
#       7
#     8   8   8   8   8   8   8
#     4   9  17  30  51  73  97 130 164 202 243 290
#     4   8  14  26  50  83 107 126 158 200 245 291
#     4   8  14  28  47  70  95 123 161 199 241 294
#     4   9  20  32  48  72  94 129 166 203 248 286
#     4   9  19  31  48  74  95 125 167 209 259 293
#     4   8  14  26  47  72  99 125 157 196 235 287
#     4  10  20  33  48  72  95 128 169 207 242 298
#
# _framework density 23.576902
#
# number of rings (size 3 to 8) (size 9 to 14) (size 15 to 20)
#    0.857    2.429    0.000    2.571    2.000    1.429 
#    0.000    0.000    0.000    2.143    0.000    4.000 
#    0.000    0.000    0.000    0.000    0.000    0.000 
#
# Total GULP energy -156058.918749 kJ/mol
# GULP energy per Si atom -5573.532812 kJ/mol
# Density = 2.352324 g / cm^3
# Si number density = 23.576902 Si / 1000 Ang^3
#
#
#
# Elastic Constant Matrix: (Units=GPa)
#
#
# Indices 1 2 3 4 5 6 
#
# 1 94.5871 44.2266 18.8434 -0.0010 -22.4087 -0.0013
# 2 44.2266 100.5241 11.6432 0.0006 -24.8162 0.0006
# 3 18.8434 11.6432 45.8726 -0.0018 -8.5828 -0.0021
# 4 -0.0010 0.0006 -0.0018 9.8198 0.0017 -20.9075
# 5 -22.4087 -24.8162 -8.5828 0.0017 40.2562 -0.0013
# 6 -0.0013 0.0006 -0.0021 -20.9075 -0.0013 28.8368
#
#
#
# Elastic Compliance Matrix: (Units=1/GPa)
#
#
# Indices 1 2 3 4 5 6 
#
# 1 0.014692 -0.004946 -0.003979 -0.000003 0.004281 -0.000002
# 2 -0.004946 0.013526 -0.000371 0.000006 0.005506 0.000004
# 3 -0.003979 -0.000371 0.024029 -0.000013 0.002680 -0.000008
# 4 -0.000003 0.000006 -0.000013 -0.187310 0.000002 -0.135805
# 5 0.004281 0.005506 0.002680 0.000002 0.031189 0.000003
# 6 -0.000002 0.000004 -0.000008 -0.135805 0.000003 -0.063784
#
#
# Mechanical properties :
#
#
# Convention : Reuss Voigt Hill
#
# Bulk Modulus (GPa) = 29.71310 43.37892 36.54601
# Shear Modulus (GPa) = -36.27209 26.86727 -4.70241
#
# Velocity S-wave (km/s) = -3.92657 3.37940 -1.41380
# Velocity P-wave (km/s) = 2.81555 5.80224 3.58738
#
# Compressibility (1/GPa) = 0.03365519
#
# Stress axis : x y z
#
# Youngs Moduli (GPa) = 68.06540 73.93065 41.61568
#
# Poissons Ratio (x) = 0.36567 0.16557
# Poissons Ratio (y) = 0.33666 0.01545
# Poissons Ratio (z) = 0.27081 0.02745
#
# Static dielectric constant tensor:
#      x y z
#    x 1.945670 0.000000 0.046460 
#    y 0.000000 1.910700 0.000000 
#    z 0.046460 0.000000 1.917480 
# 
# From -- ./inp_files/336185.got.cif
#   From: 2010.05.17/outbox.cif.g08.bks.cpg/sg12_169_cif.got.tgz:336185.got - 2010.06.03 13:09:07.
