data_PCOD9191100
_publ_section_title
;
Structure prediction by ZEFSAII (Michael W. Deem and Ramdas Pophale) SiO2 
 PCOD9191100
Probable space group: C 2/M
;
_chemical_formula_sum "Si O2"
_cell_formula_units_Z 56
_cell_length_a 9.832068
_cell_length_b 21.251818
_cell_length_c 12.921209
_cell_angle_alpha 90.000000
_cell_angle_beta 68.335413
_cell_angle_gamma 90.000000
_cell_volume 2509.160957
_symmetry_space_group_name_H-M "C 2/M"
_symmetry_group_IT_number 12
_symmetry_cell_setting 'monoclinic'
loop_
_space_group_symop_operation_xyz
x,y,z
-x,y,-z
-x,-y,-z
x,-y,z
1/2+x,1/2+y,z
1/2-x,1/2+y,-z
1/2-x,1/2-y,-z
1/2+x,1/2-y,z
loop_
_atom_site_type_symbol
_atom_site_label
_atom_site_fract_x
_atom_site_fract_y
_atom_site_fract_z
Si Si1 0.846200 0.320187 0.083738
Si Si2 0.110430 0.790052 0.564908
Si Si3 0.879787 0.930334 0.205394
Si Si4 0.094317 0.069127 0.579420
Si Si5 0.796177 0.825991 0.073619
Si Si6 0.531062 0.186442 0.740869
Si Si7 0.537316 0.068556 0.369137
O O1 0.852211 0.244932 0.064690
O O2 0.845726 0.325805 0.206962
O O3 0.721215 0.344768 0.042092
O O4 0.000000 0.348205 0.000000
O O5 0.250000 0.750000 0.500000
O O6 0.162631 0.861707 0.560088
O O7 0.044579 0.754804 0.683955
O O8 0.000000 0.786049 0.500000
O O9 0.975044 0.927926 0.284603
O O10 0.882489 0.874531 0.121594
O O11 0.711180 0.927682 0.296165
O O12 0.900624 0.000000 0.153007
O O13 0.000000 0.068692 0.500000
O O14 0.170236 0.000000 0.556440
O O15 0.629068 0.819758 0.162513
O O16 0.536961 0.129250 0.659475
O O17 0.500000 0.069280 0.500000
O O18 0.489245 0.000000 0.340112
#
# Coordination Sequence:
#
# PCOD9191100 Si02
#       7
#     8   8   8   8   8   8   8
#     4   9  18  33  52  77  99 134 174 229 292 341
#     4  11  25  37  55  87 121 157 197 242 291 342
#     4   9  17  30  53  77 101 141 183 227 277 334
#     4   9  19  36  53  73 108 153 197 231 276 341
#     4   9  18  33  54  76 104 132 179 230 285 349
#     4  10  20  32  53  77 108 142 182 233 282 336
#     4   9  18  31  47  73 107 145 182 217 271 337
#
# _framework density 22.318217000000001
#
# number of rings (size 3 to 8) (size 9 to 14) (size 15 to 20)
#    0.000    2.571    0.000    1.286    8.000    0.000 
#    0.000    0.714    0.000    5.143    0.000    8.000 
#    0.000    0.000    0.000    0.000    0.000    0.000 
#
# Total GULP energy -156028.809775 kJ/mol
# GULP energy per Si atom -5572.457492 kJ/mol
# Density = 2.226742 g / cm^3
# Si number density = 22.318217 Si / 1000 Ang^3
#
#
#
# Elastic Constant Matrix: (Units=GPa)
#
#
# Indices 1 2 3 4 5 6 
#
# 1 57.3019 32.0282 35.3558 0.0000 14.6041 0.0000
# 2 32.0282 151.2684 37.0604 0.0000 18.4669 0.0000
# 3 35.3558 37.0604 96.3052 0.0000 30.8470 0.0000
# 4 0.0000 0.0000 0.0000 29.2492 0.0000 2.1647
# 5 14.6041 18.4669 30.8470 0.0000 38.0114 0.0000
# 6 0.0000 0.0000 0.0000 2.1647 0.0000 4.7518
#
#
#
# Elastic Compliance Matrix: (Units=1/GPa)
#
#
# Indices 1 2 3 4 5 6 
#
# 1 0.024016 -0.003130 -0.006951 0.000000 -0.002066 0.000000
# 2 -0.003130 0.007790 -0.001381 0.000000 -0.001462 0.000000
# 3 -0.006951 -0.001381 0.016750 0.000000 -0.010252 0.000000
# 4 0.000000 0.000000 0.000000 0.035382 0.000000 -0.016119
# 5 -0.002066 -0.001462 -0.010252 0.000000 0.036132 0.000000
# 6 0.000000 0.000000 0.000000 -0.016119 0.000000 0.217789
#
#
# Mechanical properties :
#
#
# Convention : Reuss Voigt Hill
#
# Bulk Modulus (GPa) = 39.00999 57.08491 48.04745
# Shear Modulus (GPa) = 13.53820 27.76456 20.65138
#
# Velocity S-wave (km/s) = 2.46559 3.53091 3.04520
# Velocity P-wave (km/s) = 5.06186 6.50049 5.82575
#
# Compressibility (1/GPa) = 0.02563446
#
# Stress axis : x y z
#
# Youngs Moduli (GPa) = 41.63907 128.36745 59.69977
#
# Poissons Ratio (x) = 0.40177 0.41495
# Poissons Ratio (y) = 0.13032 0.08242
# Poissons Ratio (z) = 0.28942 0.17722
#
# Static dielectric constant tensor:
#      x y z
#    x 1.965460 0.000000 -0.054400 
#    y 0.000000 1.814660 0.000000 
#    z -0.054400 0.000000 1.902030 
# 
# From -- ./inp_files/133140.got.cif
#   From: 2010.05.17/outbox.cif.g08.bks.cpg/sg12_67_cif.got.tgz:133140.got - 2010.06.03 13:09:07.
