data_PCOD9191090
_publ_section_title
;
Structure prediction by ZEFSAII (Michael W. Deem and Ramdas Pophale) SiO2 
 PCOD9191090
Probable space group: C 2/M
;
_chemical_formula_sum "Si O2"
_cell_formula_units_Z 56
_cell_length_a 27.329723
_cell_length_b 9.252102
_cell_length_c 10.715483
_cell_angle_alpha 90.000000
_cell_angle_beta 82.432953
_cell_angle_gamma 90.000000
_cell_volume 2685.893266
_symmetry_space_group_name_H-M "C 2/M"
_symmetry_group_IT_number 12
_symmetry_cell_setting 'monoclinic'
loop_
_space_group_symop_operation_xyz
x,y,z
-x,y,-z
-x,-y,-z
x,-y,z
1/2+x,1/2+y,z
1/2-x,1/2+y,-z
1/2-x,1/2-y,-z
1/2+x,1/2-y,z
loop_
_atom_site_type_symbol
_atom_site_label
_atom_site_fract_x
_atom_site_fract_y
_atom_site_fract_z
Si Si1 0.965792 0.835017 0.886638
Si Si2 0.376025 0.327990 0.467154
Si Si3 0.192076 0.832929 0.278947
Si Si4 0.887684 0.666323 0.066364
Si Si5 0.044536 0.667942 0.708238
Si Si6 0.199568 0.166037 0.995653
Si Si7 0.275202 0.671802 0.373612
O O1 0.921654 0.733401 0.946432
O O2 0.997562 0.762297 0.766205
O O3 0.950868 0.000000 0.862240
O O4 0.000000 0.842409 0.000000
O O5 0.386587 0.500000 0.464681
O O6 0.349827 0.288767 0.607448
O O7 0.424083 0.238474 0.413738
O O8 0.333182 0.302088 0.377312
O O9 0.175266 0.830245 0.142229
O O10 0.241865 0.739187 0.276186
O O11 0.204854 0.000000 0.306200
O O12 0.875530 0.500000 0.044827
O O13 0.838008 0.758687 0.085357
O O14 0.919303 0.672564 0.182570
O O15 0.032176 0.500000 0.689749
O O16 0.208060 0.000000 0.957549
O O17 0.250000 0.250000 0.000000
O O18 0.268149 0.500000 0.379163
O O19 0.250000 0.750000 0.500000
#
# Coordination Sequence:
#
# PCOD9191090 Si02
#       7
#     8   8   8   8   8   8   8
#     4   9  17  32  55  81 108 140 176 217 266 319
#     4   9  18  32  50  75 104 136 173 217 269 320
#     4   9  20  37  53  71 101 139 180 225 269 316
#     4  10  21  37  55  79 111 145 179 218 267 319
#     4  10  20  32  52  83 114 141 172 217 268 321
#     4  11  24  40  57  78 106 143 187 228 268 317
#     4   9  17  29  47  71  98 133 173 215 262 313
#
# _framework density 20.849674
#
# number of rings (size 3 to 8) (size 9 to 14) (size 15 to 20)
#    0.000    2.429    0.000    3.000    2.000    7.429 
#    0.000    0.000    0.000    0.857    0.000    6.000 
#    0.000    0.000    0.000    0.000    0.000    0.000 
#
# Total GULP energy -156279.416503 kJ/mol
# GULP energy per Si atom -5581.407732 kJ/mol
# Density = 2.080222 g / cm^3
# Si number density = 20.849674 Si / 1000 Ang^3
#
#
#
# Elastic Constant Matrix: (Units=GPa)
#
#
# Indices 1 2 3 4 5 6 
#
# 1 22.7622 15.9282 0.6084 0.0000 -14.7537 0.0000
# 2 15.9282 101.4737 21.9729 0.0000 -17.0388 0.0000
# 3 0.6084 21.9729 78.9750 0.0000 -22.7927 0.0000
# 4 0.0000 0.0000 0.0000 22.4546 0.0000 -7.9542
# 5 -14.7537 -17.0388 -22.7927 0.0000 33.8786 0.0000
# 6 0.0000 0.0000 0.0000 -7.9542 0.0000 29.6382
#
#
#
# Elastic Compliance Matrix: (Units=1/GPa)
#
#
# Indices 1 2 3 4 5 6 
#
# 1 0.072120 -0.007948 0.011871 0.000000 0.035397 0.000000
# 2 -0.007948 0.011844 -0.003120 0.000000 0.000397 0.000000
# 3 0.011871 -0.003120 0.017966 0.000000 0.015688 0.000000
# 4 0.000000 0.000000 0.000000 0.049213 0.000000 0.013208
# 5 0.035397 0.000397 0.015688 0.000000 0.055687 0.000000
# 6 0.000000 0.000000 0.000000 0.013208 0.000000 0.037285
#
#
# Mechanical properties :
#
#
# Convention : Reuss Voigt Hill
#
# Bulk Modulus (GPa) = 9.65818 31.13665 20.39741
# Shear Modulus (GPa) = 18.04927 28.17436 23.11181
#
# Velocity S-wave (km/s) = 2.94545 3.68000 3.33302
# Velocity P-wave (km/s) = 4.02615 5.74655 4.96149
#
# Compressibility (1/GPa) = 0.10353922
#
# Stress axis : x y z
#
# Youngs Moduli (GPa) = 13.86583 84.42747 55.65921
#
# Poissons Ratio (x) = 0.67099 -0.66075
# Poissons Ratio (y) = 0.11020 0.17363
# Poissons Ratio (z) = -0.16461 0.26338
#
# Static dielectric constant tensor:
#      x y z
#    x 1.754860 0.000000 0.021450 
#    y 0.000000 1.706040 0.000000 
#    z 0.021450 0.000000 1.815240 
# 
# From -- ./inp_files/186420.got.cif
#   From: 2010.05.17/outbox.cif.g08.bks.cpg/sg12_94_cif.got.tgz:186420.got - 2010.06.03 13:09:07.
