data_PCOD9191433
_publ_section_title
;
Structure prediction by ZEFSAII (Michael W. Deem and Ramdas Pophale) SiO2 
 PCOD9191433
Probable space group: C 2/M
;
_chemical_formula_sum "Si O2"
_cell_formula_units_Z 56
_cell_length_a 26.673941
_cell_length_b 7.458965
_cell_length_c 13.977251
_cell_angle_alpha 90.000000
_cell_angle_beta 118.341606
_cell_angle_gamma 90.000000
_cell_volume 2447.573565
_symmetry_space_group_name_H-M "C 2/M"
_symmetry_group_IT_number 12
_symmetry_cell_setting 'monoclinic'
loop_
_space_group_symop_operation_xyz
x,y,z
-x,y,-z
-x,-y,-z
x,-y,z
1/2+x,1/2+y,z
1/2-x,1/2+y,-z
1/2-x,1/2-y,-z
1/2+x,1/2-y,z
loop_
_atom_site_type_symbol
_atom_site_label
_atom_site_fract_x
_atom_site_fract_y
_atom_site_fract_z
Si Si1 0.108309 0.715776 0.375712
Si Si2 0.282045 0.785888 0.629353
Si Si3 0.171913 0.201348 0.831580
Si Si4 0.300682 0.289952 0.940504
Si Si5 0.411520 0.215459 0.949023
Si Si6 0.488328 0.781973 0.836797
Si Si7 0.828351 0.214955 0.369978
O O1 0.108881 0.500000 0.368890
O O2 0.154908 0.781681 0.339437
O O3 0.045364 0.777503 0.288129
O O4 0.131049 0.756599 0.502122
O O5 0.250000 0.750000 0.500000
O O6 0.235223 0.714189 0.661667
O O7 0.286884 0.000000 0.650818
O O8 0.169255 0.282798 0.934993
O O9 0.149996 0.285273 0.712844
O O10 0.148446 0.000000 0.818223
O O11 0.240349 0.196386 0.875180
O O12 0.288351 0.500000 0.944373
O O13 0.346456 0.272808 0.898384
O O14 0.446437 0.267188 0.886692
O O15 0.410678 0.000000 0.948024
O O16 0.449451 0.280128 0.073815
O O17 0.491721 0.000000 0.837171
O O18 0.823356 0.000000 0.355002
#
# Coordination Sequence:
#
# PCOD9191433 Si02
#       7
#     8   8   8   8   8   8   8
#     4   9  16  27  44  67  95 122 150 193 235 270
#     4   8  14  23  37  58  85 115 145 176 215 262
#     4   9  19  34  51  69  94 128 162 193 231 285
#     4  10  20  33  49  73  98 121 155 201 245 280
#     4   9  17  32  53  72  93 126 162 196 234 282
#     4   8  16  30  50  74  95 123 165 196 226 283
#     4   9  17  29  45  66  91 123 158 188 226 281
#
# _framework density 22.879804
#
# number of rings (size 3 to 8) (size 9 to 14) (size 15 to 20)
#    0.000    3.143    0.000    1.286    2.000    1.143 
#    0.000    2.857    0.000    0.857    0.000    6.000 
#    0.000    0.000    0.000    0.000    0.000    0.000 
#
# Total GULP energy -156036.240297 kJ/mol
# GULP energy per Si atom -5572.722868 kJ/mol
# Density = 2.282773 g / cm^3
# Si number density = 22.879804 Si / 1000 Ang^3
#
#
#
# Elastic Constant Matrix: (Units=GPa)
#
#
# Indices 1 2 3 4 5 6 
#
# 1 36.7577 -6.5663 -2.5376 0.0000 6.1943 0.0000
# 2 -6.5663 77.8134 -3.8140 0.0000 0.1741 0.0000
# 3 -2.5376 -3.8140 106.6223 0.0000 4.9818 0.0000
# 4 0.0000 0.0000 0.0000 3.7784 0.0000 -3.0992
# 5 6.1943 0.1741 4.9818 0.0000 36.3238 0.0000
# 6 0.0000 0.0000 0.0000 -3.0992 0.0000 3.9477
#
#
#
# Elastic Compliance Matrix: (Units=1/GPa)
#
#
# Indices 1 2 3 4 5 6 
#
# 1 0.028562 0.002471 0.001003 0.000000 -0.005020 0.000000
# 2 0.002471 0.013088 0.000553 0.000000 -0.000560 0.000000
# 3 0.001003 0.000553 0.009491 0.000000 -0.001475 0.000000
# 4 0.000000 0.000000 0.000000 0.743316 0.000000 0.583551
# 5 -0.005020 -0.000560 -0.001475 0.000000 0.028591 0.000000
# 6 0.000000 0.000000 0.000000 0.583551 0.000000 0.711435
#
#
# Mechanical properties :
#
#
# Convention : Reuss Voigt Hill
#
# Bulk Modulus (GPa) = 16.89359 21.70641 19.30000
# Shear Modulus (GPa) = 3.23381 24.41741 13.82561
#
# Velocity S-wave (km/s) = 1.19015 3.27035 2.46086
# Velocity P-wave (km/s) = 3.04767 4.87525 4.06548
#
# Compressibility (1/GPa) = 0.05919404
#
# Stress axis : x y z
#
# Youngs Moduli (GPa) = 35.01194 76.40528 105.35757
#
# Poissons Ratio (x) = -0.18876 -0.10564
# Poissons Ratio (y) = -0.08650 -0.05828
# Poissons Ratio (z) = -0.03511 -0.04226
#
# Static dielectric constant tensor:
#      x y z
#    x 1.837800 0.000000 -0.025380 
#    y 0.000000 1.868660 0.000000 
#    z -0.025380 0.000000 1.920170 
# 
# From -- ./inp_files/244287.got.cif
#   From: 2010.05.17/outbox.cif.g08.bks.cpg/sg12_123_cif.got.tgz:244287.got - 2010.06.03 13:09:07.
