data_PCOD9191839
_publ_section_title
;
Structure prediction by ZEFSAII (Michael W. Deem and Ramdas Pophale) SiO2 
 PCOD9191839
Probable space group: C 2/M
;
_chemical_formula_sum "Si O2"
_cell_formula_units_Z 58
_cell_length_a 8.449980
_cell_length_b 21.336135
_cell_length_c 18.744954
_cell_angle_alpha 90.000000
_cell_angle_beta 111.436579
_cell_angle_gamma 90.000000
_cell_volume 3145.739584
_symmetry_space_group_name_H-M "C 2/M"
_symmetry_group_IT_number 12
_symmetry_cell_setting 'monoclinic'
loop_
_space_group_symop_operation_xyz
x,y,z
-x,y,-z
-x,-y,-z
x,-y,z
1/2+x,1/2+y,z
1/2-x,1/2+y,-z
1/2-x,1/2-y,-z
1/2+x,1/2-y,z
loop_
_atom_site_type_symbol
_atom_site_label
_atom_site_fract_x
_atom_site_fract_y
_atom_site_fract_z
Si Si1 0.185072 0.572308 0.292509
Si Si2 0.574292 0.199595 0.905081
Si Si3 0.938073 0.167363 0.410235
Si Si4 0.296465 0.098960 0.867986
Si Si5 0.320747 0.722475 0.664410
Si Si6 0.887307 0.159115 0.047733
Si Si7 0.000000 0.500000 0.000000
Si Si8 0.599832 0.174481 0.752662
O O1 0.171653 0.500000 0.311879
O O2 0.321981 0.611810 0.359910
O O3 0.235194 0.575411 0.216958
O O4 0.007267 0.610300 0.270080
O O5 0.394103 0.165063 0.874335
O O6 0.553054 0.272726 0.916526
O O7 0.660359 0.184154 0.843385
O O8 0.698301 0.171532 0.985264
O O9 0.823958 0.230898 0.389809
O O10 0.000000 0.154775 0.500000
O O11 0.094561 0.180842 0.382852
O O12 0.132630 0.111923 0.889954
O O13 0.419971 0.053861 0.932819
O O14 0.466182 0.768687 0.718381
O O15 0.241052 0.682757 0.715696
O O16 0.000000 0.136744 0.000000
#
# Coordination Sequence:
#
# PCOD9191839 Si02
#       8
#     8   8   8   8   8   8   2   8
#     4  10  22  39  58  79 109 150 196 231 271 335
#     4  10  20  33  51  79 110 144 177 220 288 335
#     4  10  20  36  61  87 117 148 181 228 283 341
#     4  11  22  39  58  76 104 154 190 226 274 332
#     4   9  19  35  55  90 114 142 180 225 286 340
#     4  11  22  31  50  82 112 134 179 238 285 327
#     4  12  20  40  62  68 102 156 212 214 256 336
#     4   9  20  32  56  81 113 147 178 229 279 337
#
# _framework density 18.437636000000001
#
# number of rings (size 3 to 8) (size 9 to 14) (size 15 to 20)
#    0.000    1.931    2.069    2.069    9.655    0.276 
#    0.000    1.034    0.000    0.828    0.000    0.000 
#    0.000    0.000    0.000    0.000    0.000    0.000 
#
# Total GULP energy -161669.026094 kJ/mol
# GULP energy per Si atom -5574.794003 kJ/mol
# Density = 1.839567 g / cm^3
# Si number density = 18.437636 Si / 1000 Ang^3
#
#
#
# Elastic Constant Matrix: (Units=GPa)
#
#
# Indices 1 2 3 4 5 6 
#
# 1 73.7354 28.7215 9.8952 0.0000 -24.9934 0.0000
# 2 28.7215 94.3231 35.3163 0.0000 -12.8909 0.0000
# 3 9.8952 35.3163 95.0834 0.0000 -8.1528 0.0000
# 4 0.0000 0.0000 0.0000 15.5707 0.0000 -1.7618
# 5 -24.9934 -12.8909 -8.1528 0.0000 26.9309 0.0000
# 6 0.0000 0.0000 0.0000 -1.7618 0.0000 1.6084
#
#
#
# Elastic Compliance Matrix: (Units=1/GPa)
#
#
# Indices 1 2 3 4 5 6 
#
# 1 0.021190 -0.004366 0.000948 0.000000 0.017863 0.000000
# 2 -0.004366 0.013803 -0.004572 0.000000 0.001171 0.000000
# 3 0.000948 -0.004572 0.012324 0.000000 0.002422 0.000000
# 4 0.000000 0.000000 0.000000 0.073309 0.000000 0.080299
# 5 0.017863 0.001171 0.002422 0.000000 0.055004 0.000000
# 6 0.000000 0.000000 0.000000 0.080299 0.000000 0.709692
#
#
# Mechanical properties :
#
#
# Convention : Reuss Voigt Hill
#
# Bulk Modulus (GPa) = 31.91062 45.66755 38.78909
# Shear Modulus (GPa) = 5.48397 21.43592 13.45994
#
# Velocity S-wave (km/s) = 1.72650 3.41342 2.70483
# Velocity P-wave (km/s) = 4.61728 6.35277 5.55324
#
# Compressibility (1/GPa) = 0.03133753
#
# Stress axis : x y z
#
# Youngs Moduli (GPa) = 47.19135 72.44658 81.14048
#
# Poissons Ratio (x) = 0.31631 -0.07693
# Poissons Ratio (y) = 0.20605 0.37098
# Poissons Ratio (z) = -0.04474 0.33123
#
# Static dielectric constant tensor:
#      x y z
#    x 1.674450 0.000000 -0.008860 
#    y 0.000000 1.610140 0.000000 
#    z -0.008860 0.000000 1.645800 
# 
# From -- ./inp_files/258194.got.cif
#   From: 2010.05.17/outbox.cif.g08.bks.cpg/sg12_130_cif.got.tgz:258194.got - 2010.06.03 13:09:07.
