data_PCOD9191182
_publ_section_title
;
Structure prediction by ZEFSAII (Michael W. Deem and Ramdas Pophale) SiO2 
 PCOD9191182
Probable space group: C 2/M
;
_chemical_formula_sum "Si O2"
_cell_formula_units_Z 42
_cell_length_a 10.424396
_cell_length_b 13.262171
_cell_length_c 12.224654
_cell_angle_alpha 90.000000
_cell_angle_beta 97.741444
_cell_angle_gamma 90.000000
_cell_volume 1674.656745
_symmetry_space_group_name_H-M "C 2/M"
_symmetry_group_IT_number 12
_symmetry_cell_setting 'monoclinic'
loop_
_space_group_symop_operation_xyz
x,y,z
-x,y,-z
-x,-y,-z
x,-y,z
1/2+x,1/2+y,z
1/2-x,1/2+y,-z
1/2-x,1/2-y,-z
1/2+x,1/2-y,z
loop_
_atom_site_type_symbol
_atom_site_label
_atom_site_fract_x
_atom_site_fract_y
_atom_site_fract_z
Si Si1 0.205490 0.891231 0.588576
Si Si2 0.500000 0.000000 0.000000
Si Si3 0.725921 0.607581 0.955998
Si Si4 0.841225 0.217351 0.845037
Si Si5 0.174974 0.331737 0.627125
Si Si6 0.960709 0.607879 0.763431
O O1 0.134117 0.785064 0.599896
O O2 0.277036 0.878469 0.480118
O O3 0.320463 0.894760 0.691116
O O4 0.137208 0.000000 0.585242
O O5 0.622131 0.912999 0.000865
O O6 0.677576 0.500000 0.904886
O O7 0.733605 0.702213 0.876511
O O8 0.651322 0.637661 0.057269
O O9 0.791612 0.168996 0.727507
O O10 0.961388 0.288156 0.828424
O O11 0.061578 0.387945 0.677308
O O12 0.975629 0.500000 0.831146
#
# Coordination Sequence:
#
# PCOD9191182 Si02
#       6
#     8   2   8   8   8   8
#     4   9  19  37  54  80 114 147 185 236 279 323
#     4   8  20  36  68  80 100 150 188 228 284 324
#     4   9  20  37  56  82 111 138 183 227 277 325
#     4  10  21  34  52  86 117 139 177 239 274 328
#     4  10  20  32  56  83 112 146 187 227 283 328
#     4  10  20  34  59  85 110 145 190 230 275 327
#
# _framework density 25.079765999999999
#
# number of rings (size 3 to 8) (size 9 to 14) (size 15 to 20)
#    0.571    1.905    0.000    1.714    2.667    3.810 
#    0.000    0.952    0.000   17.143    0.000    0.000 
#    0.000    0.000    0.000    0.000    0.000    0.000 
#
# Total GULP energy -117134.913178 kJ/mol
# GULP energy per Si atom -5577.853008 kJ/mol
# Density = 2.502268 g / cm^3
# Si number density = 25.079766 Si / 1000 Ang^3
#
#
#
# Elastic Constant Matrix: (Units=GPa)
#
#
# Indices 1 2 3 4 5 6 
#
# 1 57.0934 29.1655 30.2996 0.0000 3.5736 0.0000
# 2 29.1655 120.7446 14.3222 0.0000 -15.0276 0.0000
# 3 30.2996 14.3222 97.6813 0.0000 -18.5022 0.0000
# 4 0.0000 0.0000 0.0000 30.7903 0.0000 5.5454
# 5 3.5736 -15.0276 -18.5022 0.0000 32.8113 0.0000
# 6 0.0000 0.0000 0.0000 5.5454 0.0000 12.7439
#
#
#
# Elastic Compliance Matrix: (Units=1/GPa)
#
#
# Indices 1 2 3 4 5 6 
#
# 1 0.026660 -0.006728 -0.009423 0.000000 -0.011299 0.000000
# 2 -0.006728 0.010511 0.001787 0.000000 0.006555 0.000000
# 3 -0.009423 0.001787 0.014832 0.000000 0.010209 0.000000
# 4 0.000000 0.000000 0.000000 0.035239 0.000000 -0.015334
# 5 -0.011299 0.006555 0.010209 0.000000 0.040467 0.000000
# 6 0.000000 0.000000 0.000000 -0.015334 0.000000 0.085141
#
#
# Mechanical properties :
#
#
# Convention : Reuss Voigt Hill
#
# Bulk Modulus (GPa) = 42.96475 47.01042 44.98759
# Shear Modulus (GPa) = 20.05314 28.71791 24.38553
#
# Velocity S-wave (km/s) = 2.83074 3.38755 3.12159
# Velocity P-wave (km/s) = 5.27755 5.83830 5.56499
#
# Compressibility (1/GPa) = 0.02327489
#
# Stress axis : x y z
#
# Youngs Moduli (GPa) = 37.50869 95.13928 67.42176
#
# Poissons Ratio (x) = 0.64012 0.63535
# Poissons Ratio (y) = 0.25237 -0.12051
# Poissons Ratio (z) = 0.35346 -0.17006
#
# Static dielectric constant tensor:
#      x y z
#    x 2.024260 0.000000 0.163310 
#    y 0.000000 2.095290 0.000000 
#    z 0.163310 0.000000 2.308060 
# 
# From -- ./inp_files/129677.got.cif
#   From: 2010.05.17/outbox.cif.g08.bks.cpg/sg12_65_cif.got.tgz:129677.got - 2010.06.03 13:09:07.
