data_PCOD9191971
_publ_section_title
;
Structure prediction by ZEFSAII (Michael W. Deem and Ramdas Pophale) SiO2 
 PCOD9191971
Probable space group: C 2/M
;
_chemical_formula_sum "Si O2"
_cell_formula_units_Z 40
_cell_length_a 15.578176
_cell_length_b 7.976613
_cell_length_c 31.494137
_cell_angle_alpha 90.000000
_cell_angle_beta 29.656599
_cell_angle_gamma 90.000000
_cell_volume 1936.399719
_symmetry_space_group_name_H-M "C 2/M"
_symmetry_group_IT_number 12
_symmetry_cell_setting 'monoclinic'
loop_
_space_group_symop_operation_xyz
x,y,z
-x,y,-z
-x,-y,-z
x,-y,z
1/2+x,1/2+y,z
1/2-x,1/2+y,-z
1/2-x,1/2-y,-z
1/2+x,1/2-y,z
loop_
_atom_site_type_symbol
_atom_site_label
_atom_site_fract_x
_atom_site_fract_y
_atom_site_fract_z
Si Si1 0.205882 0.203078 0.720808
Si Si2 0.702610 0.299023 0.908557
Si Si3 0.929145 0.297518 0.401071
Si Si4 0.397090 0.685552 0.905336
Si Si5 0.995609 0.700676 0.277884
O O1 0.401511 0.259421 0.645403
O O2 0.127323 0.248462 0.708669
O O3 0.078970 0.268679 0.813263
O O4 0.200115 0.000000 0.725846
O O5 0.727019 0.500000 0.906361
O O6 0.799313 0.192227 0.902443
O O7 0.805302 0.259853 0.821125
O O8 0.500000 0.265564 0.000000
O O9 0.937138 0.500000 0.396269
O O10 0.750000 0.250000 0.500000
O O11 0.943500 0.233144 0.346396
O O12 0.439689 0.500000 0.902802
O O13 0.250000 0.750000 0.000000
O O14 0.985761 0.500000 0.284400
#
# Coordination Sequence:
#
# PCOD9191971 Si02
#       5
#     8   8   8   8   8
#     4   9  20  38  58  79 111 148 183 226 278 331
#     4   9  18  32  54  79 106 144 184 220 270 330
#     4  10  22  39  59  83 109 144 186 230 279 331
#     4  10  20  33  52  78 110 145 183 224 270 325
#     4   9  19  36  57  81 111 144 184 229 274 327
#
# _framework density 20.656891999999999
#
# number of rings (size 3 to 8) (size 9 to 14) (size 15 to 20)
#    0.000    2.600    0.000    0.600    2.800    3.600 
#    0.000    4.000    0.000    0.000    0.000    0.000 
#    0.000    0.000    0.000    0.000    0.000    0.000 
#
# Total GULP energy -111421.559996 kJ/mol
# GULP energy per Si atom -5571.078000 kJ/mol
# Density = 2.060988 g / cm^3
# Si number density = 20.656892 Si / 1000 Ang^3
#
#
#
# Elastic Constant Matrix: (Units=GPa)
#
#
# Indices 1 2 3 4 5 6 
#
# 1 87.5323 2.2548 90.0790 0.0028 1.2691 -0.0016
# 2 2.2548 8.9233 18.2103 -0.0145 0.9528 -0.0044
# 3 90.0790 18.2103 215.7486 0.0064 -3.0872 0.0004
# 4 0.0028 -0.0145 0.0064 25.2157 0.0010 1.6936
# 5 1.2691 0.9528 -3.0872 0.0010 40.4853 -0.0001
# 6 -0.0016 -0.0044 0.0004 1.6936 -0.0001 23.3416
#
#
#
# Elastic Compliance Matrix: (Units=1/GPa)
#
#
# Indices 1 2 3 4 5 6 
#
# 1 0.021855 0.016132 -0.010513 0.000009 -0.001866 0.000004
# 2 0.016132 0.147965 -0.019302 0.000087 -0.005460 0.000023
# 3 -0.010513 -0.019302 0.010677 -0.000012 0.001598 -0.000004
# 4 0.000009 0.000087 -0.000012 0.039852 -0.000004 -0.002892
# 5 -0.001866 -0.005460 0.001598 -0.000004 0.025009 -0.000001
# 6 0.000004 0.000023 -0.000004 -0.002892 -0.000001 0.043052
#
#
# Mechanical properties :
#
#
# Convention : Reuss Voigt Hill
#
# Bulk Modulus (GPa) = 6.53047 59.25471 32.89259
# Shear Modulus (GPa) = 13.63068 31.25252 22.44160
#
# Velocity S-wave (km/s) = 2.57156 3.89387 3.29963
# Velocity P-wave (km/s) = 3.46201 6.99741 5.52038
#
# Compressibility (1/GPa) = 0.15312827
#
# Stress axis : x y z
#
# Youngs Moduli (GPa) = 45.75643 6.75837 93.66352
#
# Poissons Ratio (x) = -0.10902 0.98469
# Poissons Ratio (y) = -0.73812 1.80792
# Poissons Ratio (z) = 0.48104 0.13045
#
# Static dielectric constant tensor:
#      x y z
#    x 1.713990 0.000000 0.013310 
#    y 0.000000 1.777240 0.000000 
#    z 0.013310 0.000000 1.783320 
# 
# From -- ./inp_files/151682.got.cif
#   From: 2010.05.17/outbox.cif.g08.bks.cpg/sg12_76_cif.got.tgz:151682.got - 2010.06.03 13:09:07.
