data_PCOD9191284
_publ_section_title
;
Structure prediction by ZEFSAII (Michael W. Deem and Ramdas Pophale) SiO2 
 PCOD9191284
Probable space group: C 2/M
;
_chemical_formula_sum "Si O2"
_cell_formula_units_Z 56
_cell_length_a 17.098970
_cell_length_b 26.208176
_cell_length_c 13.627344
_cell_angle_alpha 90.000000
_cell_angle_beta 28.555328
_cell_angle_gamma 90.000000
_cell_volume 2919.122896
_symmetry_space_group_name_H-M "C 2/M"
_symmetry_group_IT_number 12
_symmetry_cell_setting 'monoclinic'
loop_
_space_group_symop_operation_xyz
x,y,z
-x,y,-z
-x,-y,-z
x,-y,z
1/2+x,1/2+y,z
1/2-x,1/2+y,-z
1/2-x,1/2-y,-z
1/2+x,1/2-y,z
loop_
_atom_site_type_symbol
_atom_site_label
_atom_site_fract_x
_atom_site_fract_y
_atom_site_fract_z
Si Si1 0.074237 0.191390 0.749245
Si Si2 0.682243 0.825861 0.805506
Si Si3 0.120705 0.742776 0.494975
Si Si4 0.857666 0.892791 0.462378
Si Si5 0.278447 0.799171 0.897865
Si Si6 0.333817 0.000000 0.046884
Si Si7 0.226967 0.110932 0.106857
Si Si8 0.220532 0.500000 0.663240
O O1 0.090913 0.224155 0.628544
O O2 0.218395 0.209910 0.659376
O O3 0.109103 0.133456 0.678177
O O4 0.885367 0.198315 0.987622
O O5 0.821151 0.782992 0.650607
O O6 0.717847 0.860584 0.671515
O O7 0.698776 0.862018 0.879927
O O8 0.500000 0.804198 0.000000
O O9 0.957456 0.710703 0.657176
O O10 0.803026 0.950451 0.526652
O O11 0.029855 0.887351 0.329451
O O12 0.250000 0.750000 0.000000
O O13 0.276876 0.851712 0.962420
O O14 0.281565 0.948062 0.049045
O O15 0.259044 0.000000 0.240349
O O16 0.528338 0.000000 0.850449
#
# Coordination Sequence:
#
# PCOD9191284 Si02
#       8
#     8   8   8   8   8   4   8   4
#     4   8  17  31  48  68  84 122 169 208 252 296
#     4  11  22  31  46  72  97 131 172 207 251 301
#     4   9  18  32  49  65  93 126 164 211 255 295
#     4  10  20  33  48  66  94 132 171 212 249 287
#     4   9  19  33  52  70  93 127 176 212 255 301
#     4  11  23  33  47  69 100 138 172 207 250 292
#     4  11  22  35  51  72 100 136 175 217 249 300
#     4  11  21  33  45  69  98 134 175 208 245 298
#
# _framework density 19.183845000000002
#
# number of rings (size 3 to 8) (size 9 to 14) (size 15 to 20)
#    0.000    2.143    1.429    2.571   10.000    0.571 
#    0.000    0.000    0.000    0.000    0.000    0.000 
#    0.000    0.000    0.000    6.429    0.000    0.929 
#
# Total GULP energy -156292.850675 kJ/mol
# GULP energy per Si atom -5581.887524 kJ/mol
# Density = 1.914018 g / cm^3
# Si number density = 19.183845 Si / 1000 Ang^3
#
#
#
# Elastic Constant Matrix: (Units=GPa)
#
#
# Indices 1 2 3 4 5 6 
#
# 1 23.6024 31.5822 30.4476 0.0113 -6.3210 -0.0095
# 2 31.5822 140.8276 65.0909 0.0077 -8.7929 -0.0124
# 3 30.4476 65.0909 137.8443 0.0374 -26.4988 -0.0277
# 4 0.0113 0.0077 0.0374 29.6660 -0.0227 -4.5998
# 5 -6.3210 -8.7929 -26.4988 -0.0227 21.1656 0.0155
# 6 -0.0095 -0.0124 -0.0277 -4.5998 0.0155 24.7778
#
#
#
# Elastic Compliance Matrix: (Units=1/GPa)
#
#
# Indices 1 2 3 4 5 6 
#
# 1 0.070825 -0.011226 -0.009447 -0.000007 0.004660 0.000007
# 2 -0.011226 0.010934 -0.003233 0.000003 -0.002858 0.000000
# 3 -0.009447 -0.003233 0.013258 -0.000003 0.012435 0.000001
# 4 -0.000007 0.000003 -0.000003 0.034708 0.000028 0.006443
# 5 0.004660 -0.002858 0.012435 0.000028 0.063019 -0.000020
# 6 0.000007 0.000000 0.000001 0.006443 -0.000020 0.041555
#
#
# Mechanical properties :
#
#
# Convention : Reuss Voigt Hill
#
# Bulk Modulus (GPa) = 21.18395 61.83505 41.50950
# Shear Modulus (GPa) = 16.78716 26.79879 21.79298
#
# Velocity S-wave (km/s) = 2.96136 3.74163 3.37413
# Velocity P-wave (km/s) = 4.77069 7.13927 6.07160
#
# Compressibility (1/GPa) = 0.04720554
#
# Stress axis : x y z
#
# Youngs Moduli (GPa) = 14.11926 91.45579 75.42414
#
# Poissons Ratio (x) = 1.02666 0.71256
# Poissons Ratio (y) = 0.15850 0.24384
# Poissons Ratio (z) = 0.13339 0.29567
#
# Static dielectric constant tensor:
#      x y z
#    x 1.683450 -0.000020 -0.001880 
#    y -0.000020 1.691960 0.000010 
#    z -0.001880 0.000010 1.690770 
# 
# From -- ./inp_files/286618.got.cif
#   From: 2010.05.17/outbox.cif.g08.bks.cpg/sg12_144_cif.got.tgz:286618.got - 2010.06.03 13:09:07.
