data_PCOD9191866
_publ_section_title
;
Structure prediction by ZEFSAII (Michael W. Deem and Ramdas Pophale) SiO2 
 PCOD9191866
Probable space group: C 2/M
;
_chemical_formula_sum "Si O2"
_cell_formula_units_Z 48
_cell_length_a 33.106216
_cell_length_b 14.435649
_cell_length_c 10.795185
_cell_angle_alpha 90.000000
_cell_angle_beta 152.755331
_cell_angle_gamma 90.000000
_cell_volume 2361.801442
_symmetry_space_group_name_H-M "C 2/M"
_symmetry_group_IT_number 12
_symmetry_cell_setting 'monoclinic'
loop_
_space_group_symop_operation_xyz
x,y,z
-x,y,-z
-x,-y,-z
x,-y,z
1/2+x,1/2+y,z
1/2-x,1/2+y,-z
1/2-x,1/2-y,-z
1/2+x,1/2-y,z
loop_
_atom_site_type_symbol
_atom_site_label
_atom_site_fract_x
_atom_site_fract_y
_atom_site_fract_z
Si Si1 0.263415 0.279678 0.833722
Si Si2 0.920382 0.109142 0.368502
Si Si3 0.672874 0.605690 0.650099
Si Si4 0.346963 0.769887 0.815705
Si Si5 0.587338 0.602432 0.155927
Si Si6 0.603752 0.890461 0.260287
O O1 0.234901 0.193325 0.839815
O O2 0.330295 0.235772 0.914406
O O3 0.175315 0.329306 0.534286
O O4 0.325319 0.354967 0.065684
O O5 0.913982 0.121853 0.500662
O O6 0.000000 0.148224 0.500000
O O7 0.923005 0.000000 0.356613
O O8 0.702286 0.500000 0.757975
O O9 0.657747 0.609490 0.460248
O O10 0.250000 0.750000 0.500000
O O11 0.402407 0.684042 0.912981
O O12 0.379228 0.862252 0.836355
O O13 0.593945 0.500000 0.115918
O O14 0.500000 0.607745 0.000000
O O15 0.617386 0.000000 0.319288
O O16 0.500000 0.868192 0.000000
#
# Coordination Sequence:
#
# PCOD9191866 Si02
#       6
#     8   8   8   8   8   8
#     4  11  22  37  59  84 112 152 186 229 281 335
#     4  10  23  40  59  84 112 146 190 237 282 330
#     4  10  21  38  57  81 113 148 189 234 279 332
#     4  10  20  33  51  82 111 143 183 223 276 332
#     4  10  20  33  54  82 113 148 183 228 283 335
#     4  10  21  36  54  80 115 150 184 226 275 331
#
# _framework density 20.323468999999999
#
# number of rings (size 3 to 8) (size 9 to 14) (size 15 to 20)
#    0.000    1.833    3.333    1.500    2.333    4.000 
#    0.000    0.000    0.000    0.500    0.000    0.000 
#    0.000    0.000    0.000    0.000    0.000    0.000 
#
# Total GULP energy -133617.259731 kJ/mol
# GULP energy per Si atom -5567.385822 kJ/mol
# Density = 2.027721 g / cm^3
# Si number density = 20.323469 Si / 1000 Ang^3
#
#
#
# Elastic Constant Matrix: (Units=GPa)
#
#
# Indices 1 2 3 4 5 6 
#
# 1 90.3270 47.1453 27.4101 0.0000 23.6416 0.0000
# 2 47.1453 75.1129 29.1964 0.0000 21.2640 0.0000
# 3 27.4101 29.1964 78.5452 0.0000 14.7307 0.0000
# 4 0.0000 0.0000 0.0000 24.9420 0.0000 13.8282
# 5 23.6416 21.2640 14.7307 0.0000 22.1995 0.0000
# 6 0.0000 0.0000 0.0000 13.8282 0.0000 5.2866
#
#
#
# Elastic Compliance Matrix: (Units=1/GPa)
#
#
# Indices 1 2 3 4 5 6 
#
# 1 0.018586 -0.007924 -0.001430 0.000000 -0.011255 0.000000
# 2 -0.007924 0.022820 -0.003655 0.000000 -0.010994 0.000000
# 3 -0.001430 -0.003655 0.015587 0.000000 -0.005319 0.000000
# 4 0.000000 0.000000 0.000000 -0.089062 0.000000 0.232957
# 5 -0.011255 -0.010994 -0.005319 0.000000 0.071092 0.000000
# 6 0.000000 0.000000 0.000000 0.232957 0.000000 -0.420186
#
#
# Mechanical properties :
#
#
# Convention : Reuss Voigt Hill
#
# Bulk Modulus (GPa) = 32.28438 50.16541 41.22489
# Shear Modulus (GPa) = -14.50035 19.83451 2.66708
#
# Velocity S-wave (km/s) = -2.67400 3.12739 1.14681
# Velocity P-wave (km/s) = 2.52707 6.14637 4.69915
#
# Compressibility (1/GPa) = 0.03097473
#
# Stress axis : x y z
#
# Youngs Moduli (GPa) = 53.80273 43.82107 64.15702
#
# Poissons Ratio (x) = 0.34723 0.09174
# Poissons Ratio (y) = 0.42633 0.23452
# Poissons Ratio (z) = 0.07693 0.16019
#
# Static dielectric constant tensor:
#      x y z
#    x 1.819410 0.000000 -0.051220 
#    y 0.000000 1.732110 0.000000 
#    z -0.051220 0.000000 1.789220 
# 
# From -- ./inp_files/183868.got.cif
#   From: 2010.05.17/outbox.cif.g08.bks.cpg/sg12_92_cif.got.tgz:183868.got - 2010.06.03 13:09:07.
