data_PCOD9191436
_publ_section_title
;
Structure prediction by ZEFSAII (Michael W. Deem and Ramdas Pophale) SiO2 
 PCOD9191436
Probable space group: C 2/M
;
_chemical_formula_sum "Si O2"
_cell_formula_units_Z 64
_cell_length_a 24.602800
_cell_length_b 8.806842
_cell_length_c 17.446629
_cell_angle_alpha 90.000000
_cell_angle_beta 102.919860
_cell_angle_gamma 90.000000
_cell_volume 3684.512155
_symmetry_space_group_name_H-M "C 2/M"
_symmetry_group_IT_number 12
_symmetry_cell_setting 'monoclinic'
loop_
_space_group_symop_operation_xyz
x,y,z
-x,y,-z
-x,-y,-z
x,-y,z
1/2+x,1/2+y,z
1/2-x,1/2+y,-z
1/2-x,1/2-y,-z
1/2+x,1/2-y,z
loop_
_atom_site_type_symbol
_atom_site_label
_atom_site_fract_x
_atom_site_fract_y
_atom_site_fract_z
Si Si1 0.801810 0.324467 0.058900
Si Si2 0.413596 0.175767 0.992402
Si Si3 0.973887 0.817231 0.152752
Si Si4 0.186234 0.318335 0.316965
Si Si5 0.316335 0.315651 0.357033
Si Si6 0.597773 0.319582 0.176828
Si Si7 0.687612 0.317409 0.476030
Si Si8 0.867341 0.816833 0.215891
O O1 0.789885 0.500000 0.072245
O O2 0.855021 0.317364 0.019380
O O3 0.820384 0.239796 0.141972
O O4 0.750000 0.250000 0.000000
O O5 0.458001 0.242735 0.066452
O O6 0.426039 0.000000 0.978860
O O7 0.407272 0.269676 0.912933
O O8 0.927031 0.768877 0.199517
O O9 0.037325 0.780441 0.193929
O O10 0.029899 0.000000 0.857304
O O11 0.185898 0.500000 0.321944
O O12 0.251194 0.269523 0.327777
O O13 0.147835 0.263190 0.235744
O O14 0.163822 0.249221 0.389954
O O15 0.316272 0.500000 0.355028
O O16 0.337346 0.273635 0.448838
O O17 0.352559 0.262256 0.296502
O O18 0.605942 0.500000 0.184523
O O19 0.689502 0.500000 0.471790
O O20 0.750000 0.250000 0.500000
O O21 0.866904 0.000000 0.216032
#
# Coordination Sequence:
#
# PCOD9191436 Si02
#       8
#     8   8   8   8   8   8   8   8
#     4  10  21  34  47  68  99 133 165 202 245 292
#     4  10  21  35  51  71  96 130 171 209 249 296
#     4   9  19  35  53  72  97 129 169 210 252 295
#     4  10  20  33  49  75 105 132 163 203 251 300
#     4   8  16  30  52  77 100 125 159 200 242 294
#     4  11  22  34  50  74 101 130 166 211 253 298
#     4   9  16  30  50  74 103 134 163 197 244 299
#     4   9  17  33  54  73  95 128 164 205 248 291
#
# _framework density 17.370007000000001
#
# number of rings (size 3 to 8) (size 9 to 14) (size 15 to 20)
#    0.000    2.500    0.000    3.000    1.750    4.000 
#    0.000    3.125    0.000    0.750    0.000    5.250 
#    0.000    0.000    0.000    0.000    0.000    0.000 
#
# Total GULP energy -178400.695059 kJ/mol
# GULP energy per Si atom -5575.021721 kJ/mol
# Density = 1.733047 g / cm^3
# Si number density = 17.370007 Si / 1000 Ang^3
#
#
#
# Elastic Constant Matrix: (Units=GPa)
#
#
# Indices 1 2 3 4 5 6 
#
# 1 31.6428 15.3191 24.7406 0.0000 -7.1811 0.0000
# 2 15.3191 36.0180 15.4731 0.0000 -2.7694 0.0000
# 3 24.7406 15.4731 81.0740 0.0000 -24.6052 0.0000
# 4 0.0000 0.0000 0.0000 30.3627 0.0000 2.5987
# 5 -7.1811 -2.7694 -24.6052 0.0000 26.5885 0.0000
# 6 0.0000 0.0000 0.0000 2.5987 0.0000 18.0497
#
#
#
# Elastic Compliance Matrix: (Units=1/GPa)
#
#
# Indices 1 2 3 4 5 6 
#
# 1 0.048328 -0.015532 -0.011560 0.000000 0.000737 0.000000
# 2 -0.015532 0.035414 -0.003021 0.000000 -0.003302 0.000000
# 3 -0.011560 -0.003021 0.021408 0.000000 0.016374 0.000000
# 4 0.000000 0.000000 0.000000 0.033346 0.000000 -0.004801
# 5 0.000737 -0.003302 0.016374 0.000000 0.052618 0.000000
# 6 0.000000 0.000000 0.000000 -0.004801 0.000000 0.056094
#
#
# Mechanical properties :
#
#
# Convention : Reuss Voigt Hill
#
# Bulk Modulus (GPa) = 22.25984 28.86671 25.56328
# Shear Modulus (GPa) = 15.50828 21.21362 18.36095
#
# Velocity S-wave (km/s) = 2.99125 3.49847 3.25476
# Velocity P-wave (km/s) = 4.97725 5.74229 5.37340
#
# Compressibility (1/GPa) = 0.04492396
#
# Stress axis : x y z
#
# Youngs Moduli (GPa) = 20.69211 28.23743 46.71146
#
# Poissons Ratio (x) = 0.43858 0.53997
# Poissons Ratio (y) = 0.32139 0.14113
# Poissons Ratio (z) = 0.23919 0.08531
#
# Static dielectric constant tensor:
#      x y z
#    x 1.606300 0.000000 -0.027200 
#    y 0.000000 1.585540 0.000000 
#    z -0.027200 0.000000 1.591310 
# 
# From -- ./inp_files/244245.got.cif
#   From: 2010.05.17/outbox.cif.g08.bks.cpg/sg12_123_cif.got.tgz:244245.got - 2010.06.03 13:09:07.
