data_PCOD9191643
_publ_section_title
;
Structure prediction by ZEFSAII (Michael W. Deem and Ramdas Pophale) SiO2 
 PCOD9191643
Probable space group: C 2/M
;
_chemical_formula_sum "Si O2"
_cell_formula_units_Z 44
_cell_length_a 18.331510
_cell_length_b 20.417029
_cell_length_c 6.724969
_cell_angle_alpha 90.000000
_cell_angle_beta 96.126637
_cell_angle_gamma 90.000000
_cell_volume 2502.611639
_symmetry_space_group_name_H-M "C 2/M"
_symmetry_group_IT_number 12
_symmetry_cell_setting 'monoclinic'
loop_
_space_group_symop_operation_xyz
x,y,z
-x,y,-z
-x,-y,-z
x,-y,z
1/2+x,1/2+y,z
1/2-x,1/2+y,-z
1/2-x,1/2-y,-z
1/2+x,1/2-y,z
loop_
_atom_site_type_symbol
_atom_site_label
_atom_site_fract_x
_atom_site_fract_y
_atom_site_fract_z
Si Si1 0.182845 0.641630 0.483903
Si Si2 0.719110 0.306174 0.836722
Si Si3 0.000000 0.680291 0.000000
Si Si4 0.606881 0.070166 0.143772
Si Si5 0.239826 0.423693 0.886746
Si Si6 0.427309 0.757139 0.352698
O O1 0.224652 0.685475 0.331457
O O2 0.155967 0.579009 0.352564
O O3 0.232377 0.614392 0.676738
O O4 0.114643 0.682087 0.554050
O O5 0.640456 0.290698 0.716766
O O6 0.750000 0.250000 0.000000
O O7 0.716342 0.374890 0.954751
O O8 0.945857 0.631447 0.871852
O O9 0.043233 0.721813 0.853288
O O10 0.569641 0.000000 0.137506
O O11 0.659110 0.074430 0.966440
O O12 0.263779 0.500000 0.879154
O O13 0.500000 0.737286 0.500000
#
# Coordination Sequence:
#
# PCOD9191643 Si02
#       6
#     8   8   4   8   8   8
#     4  11  20  38  59  83 117 155 202 242 298 351
#     4  11  23  39  63  88 119 159 202 251 297 348
#     4  12  21  36  50  78 123 158 196 234 294 348
#     4  10  20  33  50  80 118 160 197 234 281 350
#     4  10  21  37  60  87 117 154 202 248 293 348
#     4  12  24  36  57  86 120 155 195 248 297 351
#
# _framework density 17.581634000000001
#
# number of rings (size 3 to 8) (size 9 to 14) (size 15 to 20)
#    0.000    1.091    5.455    2.455    0.000    0.727 
#    0.000    0.909    0.000    0.545    0.000    1.909 
#    0.000    0.000    0.000    0.000    0.000    0.000 
#
# Total GULP energy -122597.506661 kJ/mol
# GULP energy per Si atom -5572.613939 kJ/mol
# Density = 1.754162 g / cm^3
# Si number density = 17.581634 Si / 1000 Ang^3
#
#
#
# Elastic Constant Matrix: (Units=GPa)
#
#
# Indices 1 2 3 4 5 6 
#
# 1 74.9318 31.4497 31.6368 0.0000 2.0439 0.0000
# 2 31.4497 76.2333 34.5298 0.0000 5.2514 0.0000
# 3 31.6368 34.5298 101.4678 0.0000 -6.9648 0.0000
# 4 0.0000 0.0000 0.0000 10.4738 0.0000 14.1349
# 5 2.0439 5.2514 -6.9648 0.0000 37.1902 0.0000
# 6 0.0000 0.0000 0.0000 14.1349 0.0000 47.6082
#
#
#
# Elastic Compliance Matrix: (Units=1/GPa)
#
#
# Indices 1 2 3 4 5 6 
#
# 1 0.017139 -0.005397 -0.003565 0.000000 -0.000848 0.000000
# 2 -0.005397 0.017598 -0.004514 0.000000 -0.003034 0.000000
# 3 -0.003565 -0.004514 0.012724 0.000000 0.003216 0.000000
# 4 0.000000 0.000000 0.000000 0.159308 0.000000 -0.047299
# 5 -0.000848 -0.003034 0.003216 0.000000 0.027966 0.000000
# 6 0.000000 0.000000 0.000000 -0.047299 0.000000 0.035048
#
#
# Mechanical properties :
#
#
# Convention : Reuss Voigt Hill
#
# Bulk Modulus (GPa) = 48.76243 49.76284 49.26264
# Shear Modulus (GPa) = 16.47056 29.38888 22.92972
#
# Velocity S-wave (km/s) = 3.06405 4.09292 3.61527
# Velocity P-wave (km/s) = 6.34925 7.12048 6.74589
#
# Compressibility (1/GPa) = 0.02050759
#
# Stress axis : x y z
#
# Youngs Moduli (GPa) = 58.34562 56.82499 78.59266
#
# Poissons Ratio (x) = 0.30671 0.28020
# Poissons Ratio (y) = 0.31492 0.35476
# Poissons Ratio (z) = 0.20802 0.25651
#
# Static dielectric constant tensor:
#      x y z
#    x 1.613520 0.000000 0.037840 
#    y 0.000000 1.612990 0.000000 
#    z 0.037840 0.000000 1.635340 
# 
# From -- ./inp_files/16024.got.cif
#   From: 2010.05.17/outbox.cif.g08.bks.cpg/sg12_9_cif.got.tgz:16024.got - 2010.06.03 13:09:07.
