data_PCOD9191899
_publ_section_title
;
Structure prediction by ZEFSAII (Michael W. Deem and Ramdas Pophale) SiO2 
 PCOD9191899
Probable space group: C 2/M
;
_chemical_formula_sum "Si O2"
_cell_formula_units_Z 56
_cell_length_a 16.437982
_cell_length_b 7.534627
_cell_length_c 18.277059
_cell_angle_alpha 90.000000
_cell_angle_beta 111.405215
_cell_angle_gamma 90.000000
_cell_volume 2107.544706
_symmetry_space_group_name_H-M "C 2/M"
_symmetry_group_IT_number 12
_symmetry_cell_setting 'monoclinic'
loop_
_space_group_symop_operation_xyz
x,y,z
-x,y,-z
-x,-y,-z
x,-y,z
1/2+x,1/2+y,z
1/2-x,1/2+y,-z
1/2-x,1/2-y,-z
1/2+x,1/2-y,z
loop_
_atom_site_type_symbol
_atom_site_label
_atom_site_fract_x
_atom_site_fract_y
_atom_site_fract_z
Si Si1 0.744211 0.712318 0.190214
Si Si2 0.145630 0.705445 0.909179
Si Si3 0.596938 0.212619 0.044931
Si Si4 0.597293 0.784196 0.666395
Si Si5 0.635448 0.784559 0.523655
Si Si6 0.981017 0.204549 0.768122
Si Si7 0.330624 0.708303 0.624561
O O1 0.750393 0.500000 0.193171
O O2 0.797585 0.786953 0.137290
O O3 0.644579 0.750638 0.136846
O O4 0.802607 0.766209 0.278409
O O5 0.170445 0.500000 0.921311
O O6 0.044578 0.709786 0.848593
O O7 0.150390 0.782730 0.991829
O O8 0.593452 0.000000 0.037123
O O9 0.500000 0.282351 0.000000
O O10 0.581050 0.730964 0.577421
O O11 0.537710 0.710925 0.711354
O O12 0.589337 0.000000 0.667083
O O13 0.617950 0.723947 0.435712
O O14 0.734533 0.721650 0.574838
O O15 0.633664 0.000000 0.520592
O O16 0.888900 0.282961 0.709762
O O17 0.968802 0.000000 0.785445
O O18 0.319277 0.500000 0.637775
#
# Coordination Sequence:
#
# PCOD9191899 Si02
#       7
#     8   8   8   8   8   8   8
#     4   9  18  33  53  74  97 130 168 205 244 288
#     4   9  19  36  54  72  99 133 167 203 243 292
#     4  10  21  35  51  75 105 132 161 202 249 294
#     4   9  19  35  53  75 102 130 165 207 247 292
#     4   9  18  34  54  72  96 135 173 202 242 297
#     4  10  20  33  52  77 102 129 163 206 252 294
#     4   9  19  34  50  73 103 131 165 209 250 289
#
# _framework density 26.571204000000002
#
# number of rings (size 3 to 8) (size 9 to 14) (size 15 to 20)
#    0.000    2.714    0.000    1.714    0.000    6.571 
#    0.000    4.286    0.000    0.000    0.000    0.000 
#    0.000    0.000    0.000    0.000    0.000    0.000 
#
# Total GULP energy -156492.422678 kJ/mol
# GULP energy per Si atom -5589.015096 kJ/mol
# Density = 2.651073 g / cm^3
# Si number density = 26.571204 Si / 1000 Ang^3
#
#
#
# Elastic Constant Matrix: (Units=GPa)
#
#
# Indices 1 2 3 4 5 6 
#
# 1 51.0340 -3.4655 18.1473 0.0000 2.9792 0.0000
# 2 -3.4655 74.7966 -1.4396 0.0000 1.1954 0.0000
# 3 18.1473 -1.4396 180.8725 0.0000 7.8427 0.0000
# 4 0.0000 0.0000 0.0000 19.3696 0.0000 2.2680
# 5 2.9792 1.1954 7.8427 0.0000 53.9318 0.0000
# 6 0.0000 0.0000 0.0000 2.2680 0.0000 9.3452
#
#
#
# Elastic Compliance Matrix: (Units=1/GPa)
#
#
# Indices 1 2 3 4 5 6 
#
# 1 0.020420 0.000921 -0.002004 0.000000 -0.000857 0.000000
# 2 0.000921 0.013418 0.000030 0.000000 -0.000353 0.000000
# 3 -0.002004 0.000030 0.005762 0.000000 -0.000728 0.000000
# 4 0.000000 0.000000 0.000000 0.053137 0.000000 -0.012896
# 5 -0.000857 -0.000353 -0.000728 0.000000 0.018703 0.000000
# 6 0.000000 0.000000 0.000000 -0.012896 0.000000 0.110137
#
#
# Mechanical properties :
#
#
# Convention : Reuss Voigt Hill
#
# Bulk Modulus (GPa) = 26.67137 37.02085 31.84611
# Shear Modulus (GPa) = 21.17011 36.09336 28.63174
#
# Velocity S-wave (km/s) = 2.82571 3.68960 3.28616
# Velocity P-wave (km/s) = 4.55034 5.66690 5.13904
#
# Compressibility (1/GPa) = 0.03749339
#
# Stress axis : x y z
#
# Youngs Moduli (GPa) = 48.97142 74.52405 173.56152
#
# Poissons Ratio (x) = -0.06865 0.34787
# Poissons Ratio (y) = -0.04511 -0.00515
# Poissons Ratio (z) = 0.09815 -0.00221
#
# Static dielectric constant tensor:
#      x y z
#    x 2.215720 0.000000 0.028030 
#    y 0.000000 1.996820 0.000000 
#    z 0.028030 0.000000 2.052150 
# 
# From -- ./inp_files/313701.got.cif
#   From: 2010.05.17/outbox.cif.g08.bks.cpg/sg12_157_cif.got.tgz:313701.got - 2010.06.03 13:09:07.
