data_PCOD9191097
_publ_section_title
;
Structure prediction by ZEFSAII (Michael W. Deem and Ramdas Pophale) SiO2 
 PCOD9191097
Probable space group: C 2/M
;
_chemical_formula_sum "Si O2"
_cell_formula_units_Z 48
_cell_length_a 20.652186
_cell_length_b 25.166143
_cell_length_c 5.404264
_cell_angle_alpha 90.000000
_cell_angle_beta 51.068600
_cell_angle_gamma 90.000000
_cell_volume 2184.954483
_symmetry_space_group_name_H-M "C 2/M"
_symmetry_group_IT_number 12
_symmetry_cell_setting 'monoclinic'
loop_
_space_group_symop_operation_xyz
x,y,z
-x,y,-z
-x,-y,-z
x,-y,z
1/2+x,1/2+y,z
1/2-x,1/2+y,-z
1/2-x,1/2-y,-z
1/2+x,1/2-y,z
loop_
_atom_site_type_symbol
_atom_site_label
_atom_site_fract_x
_atom_site_fract_y
_atom_site_fract_z
Si Si1 0.091538 0.374702 0.217092
Si Si2 0.575325 0.554982 0.511261
Si Si3 0.363419 0.063566 0.374370
Si Si4 0.247331 0.305993 0.871644
Si Si5 0.410987 0.661812 0.210074
Si Si6 0.695688 0.396410 0.900069
O O1 0.115346 0.409662 0.407810
O O2 0.000000 0.353087 0.500000
O O3 0.089220 0.411517 0.976075
O O4 0.157246 0.326987 0.997079
O O5 0.500000 0.553283 0.500000
O O6 0.574657 0.500000 0.663983
O O7 0.574071 0.610203 0.655399
O O8 0.660749 0.557665 0.154918
O O9 0.266331 0.079774 0.555386
O O10 0.373652 0.000000 0.362067
O O11 0.326744 0.308330 0.496545
O O12 0.250000 0.250000 0.000000
O O13 0.264949 0.350702 0.031486
O O14 0.383222 0.633354 0.026597
O O15 0.500000 0.691240 0.000000
#
# Coordination Sequence:
#
# PCOD9191097 Si02
#       6
#     8   8   8   8   8   8
#     4  11  24  45  67  99 136 171 222 281 331 396
#     4  10  20  32  52  85 127 170 208 248 304 374
#     4  11  23  41  68  98 134 179 219 268 335 402
#     4  10  24  46  66  90 125 167 213 275 338 395
#     4  11  21  39  62  91 124 165 211 269 320 385
#     4  10  21  40  59  87 131 163 211 265 320 384
#
# _framework density 21.968422
#
# number of rings (size 3 to 8) (size 9 to 14) (size 15 to 20)
#    0.000    1.500    3.333    1.500    0.000    4.333 
#    3.000    0.000    0.000    0.000    0.000    0.000 
#    0.000    0.000    0.000    0.000    0.000    0.000 
#
# Total GULP energy -133728.547537 kJ/mol
# GULP energy per Si atom -5572.022814 kJ/mol
# Density = 2.191842 g / cm^3
# Si number density = 21.968422 Si / 1000 Ang^3
#
#
#
# Elastic Constant Matrix: (Units=GPa)
#
#
# Indices 1 2 3 4 5 6 
#
# 1 55.0098 -2.7462 16.0243 0.0000 -13.6161 0.0000
# 2 -2.7462 79.3031 32.8042 0.0000 -15.7744 0.0000
# 3 16.0243 32.8042 133.8133 0.0000 -27.1728 0.0000
# 4 0.0000 0.0000 0.0000 -19.5911 0.0000 -2.8723
# 5 -13.6161 -15.7744 -27.1728 0.0000 46.3529 0.0000
# 6 0.0000 0.0000 0.0000 -2.8723 0.0000 41.0351
#
#
#
# Elastic Compliance Matrix: (Units=1/GPa)
#
#
# Indices 1 2 3 4 5 6 
#
# 1 0.020286 0.002634 -0.001910 0.000000 0.005735 0.000000
# 2 0.002634 0.014787 -0.003135 0.000000 0.003968 0.000000
# 3 -0.001910 -0.003135 0.009240 0.000000 0.003789 0.000000
# 4 0.000000 0.000000 0.000000 -0.050525 0.000000 -0.003537
# 5 0.005735 0.003968 0.003789 0.000000 0.026830 0.000000
# 6 0.000000 0.000000 0.000000 -0.003537 0.000000 0.024122
#
#
# Mechanical properties :
#
#
# Convention : Reuss Voigt Hill
#
# Bulk Modulus (GPa) = 25.32276 40.03232 32.67754
# Shear Modulus (GPa) = 79.71265 28.36230 54.03748
#
# Velocity S-wave (km/s) = 6.03025 3.59701 4.96500
# Velocity P-wave (km/s) = 7.74836 5.95933 6.91197
#
# Compressibility (1/GPa) = 0.03949017
#
# Stress axis : x y z
#
# Youngs Moduli (GPa) = 49.29474 67.62690 108.22969
#
# Poissons Ratio (x) = -0.17810 0.20674
# Poissons Ratio (y) = -0.12982 0.33925
# Poissons Ratio (z) = 0.09416 0.21198
#
# Static dielectric constant tensor:
#      x y z
#    x 1.832700 0.000000 -0.086140 
#    y 0.000000 1.727310 0.000000 
#    z -0.086140 0.000000 1.918780 
# 
# From -- ./inp_files/21794.got.cif
#   From: 2010.05.17/outbox.cif.g08.bks.cpg/sg12_11_cif.got.tgz:21794.got - 2010.06.03 13:09:07.
