data_PCOD9191620
_publ_section_title
;
Structure prediction by ZEFSAII (Michael W. Deem and Ramdas Pophale) SiO2 
 PCOD9191620
Probable space group: C 2/M
;
_chemical_formula_sum "Si O2"
_cell_formula_units_Z 64
_cell_length_a 21.979579
_cell_length_b 22.021926
_cell_length_c 7.307019
_cell_angle_alpha 90.000000
_cell_angle_beta 62.972551
_cell_angle_gamma 90.000000
_cell_volume 3150.574218
_symmetry_space_group_name_H-M "C 2/M"
_symmetry_group_IT_number 12
_symmetry_cell_setting 'monoclinic'
loop_
_space_group_symop_operation_xyz
x,y,z
-x,y,-z
-x,-y,-z
x,-y,z
1/2+x,1/2+y,z
1/2-x,1/2+y,-z
1/2-x,1/2-y,-z
1/2+x,1/2-y,z
loop_
_atom_site_type_symbol
_atom_site_label
_atom_site_fract_x
_atom_site_fract_y
_atom_site_fract_z
Si Si1 0.946226 0.739728 0.307134
Si Si2 0.733435 0.207717 0.782584
Si Si3 0.171244 0.095470 0.344577
Si Si4 0.767273 0.068653 0.373837
Si Si5 0.528895 0.619619 0.665355
Si Si6 0.616954 0.383344 0.035196
Si Si7 0.905862 0.738054 0.937395
Si Si8 0.810536 0.318091 0.577943
O O1 0.947116 0.812855 0.314333
O O2 0.927192 0.728551 0.120933
O O3 0.886608 0.706848 0.500020
O O4 0.023154 0.721710 0.256359
O O5 0.797417 0.163464 0.719766
O O6 0.664035 0.201057 0.993495
O O7 0.759307 0.276565 0.764672
O O8 0.710634 0.197234 0.603373
O O9 0.225461 0.068284 0.414318
O O10 0.098990 0.083891 0.544545
O O11 0.152603 0.082928 0.158986
O O12 0.705720 0.111046 0.387098
O O13 0.762900 0.000000 0.315303
O O14 0.834845 0.101327 0.200174
O O15 0.500000 0.625276 0.500000
O O16 0.462931 0.597609 0.868469
O O17 0.609548 0.310019 0.070153
#
# Coordination Sequence:
#
# PCOD9191620 Si02
#       8
#     8   8   8   8   8   8   8   8
#     4   9  15  26  46  70 105 142 160 196 261 321
#     4   9  15  27  48  76 107 128 161 210 268 324
#     4  10  20  34  53  75 101 141 167 213 270 310
#     4  11  23  38  53  71 100 142 190 221 247 290
#     4   9  17  29  47  75 109 135 163 203 259 319
#     4  10  20  33  50  77 105 135 171 213 253 309
#     4   9  16  26  45  76 106 133 162 202 256 325
#     4   9  16  29  49  73 100 136 170 210 258 308
#
# _framework density 20.313758
#
# number of rings (size 3 to 8) (size 9 to 14) (size 15 to 20)
#    0.000    2.500    2.500    0.750    0.000    2.500 
#    0.000    1.250    0.000    2.250    0.000   15.750 
#    0.000    1.500    0.000    0.000    0.000    0.000 
#
# Total GULP energy -178164.149347 kJ/mol
# GULP energy per Si atom -5567.629667 kJ/mol
# Density = 2.026752 g / cm^3
# Si number density = 20.313758 Si / 1000 Ang^3
#
#
#
# Elastic Constant Matrix: (Units=GPa)
#
#
# Indices 1 2 3 4 5 6 
#
# 1 76.4022 18.6709 24.4865 0.0000 -12.4054 0.0000
# 2 18.6709 72.1219 -1.6122 0.0000 -20.2008 0.0000
# 3 24.4865 -1.6122 48.1703 0.0000 -22.0768 0.0000
# 4 0.0000 0.0000 0.0000 -1.0240 0.0000 2.0824
# 5 -12.4054 -20.2008 -22.0768 0.0000 33.5178 0.0000
# 6 0.0000 0.0000 0.0000 2.0824 0.0000 1.8403
#
#
#
# Elastic Compliance Matrix: (Units=1/GPa)
#
#
# Indices 1 2 3 4 5 6 
#
# 1 0.017384 -0.006008 -0.011099 0.000000 -0.004498 0.000000
# 2 -0.006008 0.020828 0.012154 0.000000 0.018334 0.000000
# 3 -0.011099 0.012154 0.040512 0.000000 0.029901 0.000000
# 4 0.000000 0.000000 0.000000 -0.295824 0.000000 0.334741
# 5 -0.004498 0.018334 0.029901 0.000000 0.058915 0.000000
# 6 0.000000 0.000000 0.000000 0.334741 0.000000 0.164600
#
#
# Mechanical properties :
#
#
# Convention : Reuss Voigt Hill
#
# Bulk Modulus (GPa) = 14.53121 31.08720 22.80921
# Shear Modulus (GPa) = 127.35262 17.21010 72.28136
#
# Velocity S-wave (km/s) = 7.92647 2.91385 5.97158
# Velocity P-wave (km/s) = 9.53629 5.16309 7.66806
#
# Compressibility (1/GPa) = 0.06881737
#
# Stress axis : x y z
#
# Youngs Moduli (GPa) = 57.52469 48.01269 24.68382
#
# Poissons Ratio (x) = 0.28847 0.27397
# Poissons Ratio (y) = 0.34562 -0.30001
# Poissons Ratio (z) = 0.63848 -0.58355
#
# Static dielectric constant tensor:
#      x y z
#    x 1.791560 0.000000 -0.001060 
#    y 0.000000 1.709250 0.000000 
#    z -0.001060 0.000000 1.818990 
# 
# From -- ./inp_files/98868.got.cif
#   From: 2010.05.17/outbox.cif.g08.bks.cpg/sg12_50_cif.got.tgz:98868.got - 2010.06.03 13:09:07.
