data_PCOD9191419
_publ_section_title
;
Structure prediction by ZEFSAII (Michael W. Deem and Ramdas Pophale) SiO2 
 PCOD9191419
Probable space group: C 2/M
;
_chemical_formula_sum "Si O2"
_cell_formula_units_Z 60
_cell_length_a 27.118182
_cell_length_b 9.373496
_cell_length_c 27.584789
_cell_angle_alpha 90.000000
_cell_angle_beta 151.047924
_cell_angle_gamma 90.000000
_cell_volume 3394.275457
_symmetry_space_group_name_H-M "C 2/M"
_symmetry_group_IT_number 12
_symmetry_cell_setting 'monoclinic'
loop_
_space_group_symop_operation_xyz
x,y,z
-x,y,-z
-x,-y,-z
x,-y,z
1/2+x,1/2+y,z
1/2-x,1/2+y,-z
1/2-x,1/2-y,-z
1/2+x,1/2-y,z
loop_
_atom_site_type_symbol
_atom_site_label
_atom_site_fract_x
_atom_site_fract_y
_atom_site_fract_z
Si Si1 0.385699 0.667648 0.767086
Si Si2 0.539336 0.837639 0.641067
Si Si3 0.119646 0.167598 0.432681
Si Si4 0.863147 0.332720 0.651594
Si Si5 0.275817 0.343017 0.317231
Si Si6 0.000000 0.745467 0.500000
Si Si7 0.244889 0.833868 0.815830
Si Si8 0.946177 0.831820 0.005016
O O1 0.378369 0.500000 0.749460
O O2 0.405493 0.758729 0.736124
O O3 0.280872 0.723415 0.700847
O O4 0.473155 0.688959 0.882556
O O5 0.447965 0.748780 0.586120
O O6 0.525684 0.838101 0.571114
O O7 0.644586 0.755924 0.742530
O O8 0.540427 0.000000 0.659699
O O9 0.104126 0.245952 0.367920
O O10 0.239753 0.178290 0.547907
O O11 0.093677 0.000000 0.408050
O O12 0.889006 0.500000 0.670210
O O13 0.243120 0.500000 0.306626
O O14 0.397730 0.332713 0.423712
O O15 0.246439 0.327798 0.235462
O O16 0.346031 0.763213 0.924150
O O17 0.233669 0.000000 0.819345
O O18 0.918257 0.000000 0.979362
O O19 0.000000 0.797826 0.000000
#
# Coordination Sequence:
#
# PCOD9191419 Si02
#       8
#     8   8   8   8   8   4   8   8
#     4  11  22  34  54  81 111 144 182 229 278 327
#     4  11  22  36  55  79 110 148 186 225 271 328
#     4  10  21  38  59  82 112 147 185 228 274 326
#     4  10  21  37  58  84 112 144 184 230 277 326
#     4  10  20  33  49  72 106 145 183 224 270 321
#     4  10  22  34  50  78 110 148 186 224 262 320
#     4  10  21  35  53  77 106 143 186 227 271 326
#     4  10  20  36  55  78 110 148 185 228 278 330
#
# _framework density 17.676819999999999
#
# number of rings (size 3 to 8) (size 9 to 14) (size 15 to 20)
#    0.000    1.733    1.333    3.200    0.000    9.333 
#    0.000    0.000    0.000    0.800    0.000    0.000 
#    0.000    0.000    0.000    0.000    0.000    0.000 
#
# Total GULP energy -167528.751979 kJ/mol
# GULP energy per Si atom -5584.291733 kJ/mol
# Density = 1.763659 g / cm^3
# Si number density = 17.676820 Si / 1000 Ang^3
#
#
#
# Elastic Constant Matrix: (Units=GPa)
#
#
# Indices 1 2 3 4 5 6 
#
# 1 71.1399 52.3952 23.8332 0.0000 -1.7450 0.0000
# 2 52.3952 139.7898 47.1883 0.0000 -0.6727 0.0000
# 3 23.8332 47.1883 68.5671 0.0000 -1.0393 0.0000
# 4 0.0000 0.0000 0.0000 19.2173 0.0000 1.4315
# 5 -1.7450 -0.6727 -1.0393 0.0000 24.8066 0.0000
# 6 0.0000 0.0000 0.0000 1.4315 0.0000 19.8062
#
#
#
# Elastic Compliance Matrix: (Units=1/GPa)
#
#
# Indices 1 2 3 4 5 6 
#
# 1 0.019722 -0.006615 -0.002286 0.000000 0.001112 0.000000
# 2 -0.006615 0.011537 -0.005647 0.000000 -0.000389 0.000000
# 3 -0.002286 -0.005647 0.019272 0.000000 0.000493 0.000000
# 4 0.000000 0.000000 0.000000 0.052318 0.000000 -0.003781
# 5 0.001112 -0.000389 0.000493 0.000000 0.040400 0.000000
# 6 0.000000 0.000000 0.000000 -0.003781 0.000000 0.050762
#
#
# Mechanical properties :
#
#
# Convention : Reuss Voigt Hill
#
# Bulk Modulus (GPa) = 46.64916 58.48113 52.56514
# Shear Modulus (GPa) = 21.71528 23.17136 22.44332
#
# Velocity S-wave (km/s) = 3.50874 3.62447 3.56708
# Velocity P-wave (km/s) = 6.54693 7.11836 6.83862
#
# Compressibility (1/GPa) = 0.02143662
#
# Stress axis : x y z
#
# Youngs Moduli (GPa) = 50.70489 86.67572 51.88818
#
# Poissons Ratio (x) = 0.57337 0.11860
# Poissons Ratio (y) = 0.33542 0.29299
# Poissons Ratio (z) = 0.11590 0.48942
#
# Static dielectric constant tensor:
#      x y z
#    x 1.587440 0.000000 -0.008150 
#    y 0.000000 1.603340 0.000000 
#    z -0.008150 0.000000 1.589720 
# 
# From -- ./inp_files/368913.got.cif
#   From: 2010.05.17/outbox.cif.g08.bks.cpg/sg12_185_cif.got.tgz:368913.got - 2010.06.03 13:09:07.
