data_PCOD9191371
_publ_section_title
;
Structure prediction by ZEFSAII (Michael W. Deem and Ramdas Pophale) SiO2 
 PCOD9191371
Probable space group: C 2/M
;
_chemical_formula_sum "Si O2"
_cell_formula_units_Z 56
_cell_length_a 27.282101
_cell_length_b 7.720605
_cell_length_c 14.115318
_cell_angle_alpha 90.000000
_cell_angle_beta 117.977049
_cell_angle_gamma 90.000000
_cell_volume 2625.712636
_symmetry_space_group_name_H-M "C 2/M"
_symmetry_group_IT_number 12
_symmetry_cell_setting 'monoclinic'
loop_
_space_group_symop_operation_xyz
x,y,z
-x,y,-z
-x,-y,-z
x,-y,z
1/2+x,1/2+y,z
1/2-x,1/2+y,-z
1/2-x,1/2-y,-z
1/2+x,1/2-y,z
loop_
_atom_site_type_symbol
_atom_site_label
_atom_site_fract_x
_atom_site_fract_y
_atom_site_fract_z
Si Si1 0.934450 0.208736 0.041160
Si Si2 0.562885 0.712045 0.165435
Si Si3 0.582624 0.700583 0.384004
Si Si4 0.863270 0.208723 0.374342
Si Si5 0.328064 0.795572 0.045006
Si Si6 0.264229 0.301939 0.171357
Si Si7 0.471967 0.801824 0.370389
O O1 0.915913 0.265940 0.918654
O O2 0.933772 0.000000 0.042879
O O3 0.892403 0.273109 0.081939
O O4 0.998059 0.263244 0.110922
O O5 0.564072 0.500000 0.167900
O O6 0.591681 0.775582 0.287640
O O7 0.599302 0.500000 0.395584
O O8 0.613612 0.777211 0.504031
O O9 0.516213 0.705334 0.344773
O O10 0.803314 0.277715 0.287642
O O11 0.909597 0.243725 0.335625
O O12 0.859802 0.000000 0.377406
O O13 0.304009 0.702065 0.114790
O O14 0.315978 0.000000 0.045970
O O15 0.293001 0.728160 0.921947
O O16 0.252483 0.500000 0.188494
O O17 0.500000 0.789995 0.500000
O O18 0.471235 0.000000 0.338672
#
# Coordination Sequence:
#
# PCOD9191371 Si02
#       7
#     8   8   8   8   8   8   8
#     4   9  17  32  51  69  92 122 153 187 231 274
#     4   8  16  30  49  71  92 119 155 189 223 271
#     4   9  16  28  46  67  89 117 156 192 220 262
#     4   9  17  29  46  65  87 119 156 190 222 264
#     4  10  20  33  49  70  93 118 153 195 235 274
#     4   9  19  34  49  67  92 123 156 189 230 276
#     4   9  17  27  38  59  93 126 150 177 221 271
#
# _framework density 21.327542000000001
#
# number of rings (size 3 to 8) (size 9 to 14) (size 15 to 20)
#    0.000    3.000    0.000    1.714    2.000    2.857 
#    0.000    2.143    0.000    0.857    0.000    0.000 
#    0.000    0.000    0.000    0.000    0.000    0.429 
#
# Total GULP energy -156038.761241 kJ/mol
# GULP energy per Si atom -5572.812901 kJ/mol
# Density = 2.127900 g / cm^3
# Si number density = 21.327542 Si / 1000 Ang^3
#
#
#
# Elastic Constant Matrix: (Units=GPa)
#
#
# Indices 1 2 3 4 5 6 
#
# 1 29.4044 -6.2737 -8.5120 0.0000 -4.9311 0.0000
# 2 -6.2737 36.3687 -5.0878 0.0000 0.0835 0.0000
# 3 -8.5120 -5.0878 89.4151 0.0000 -8.3241 0.0000
# 4 0.0000 0.0000 0.0000 4.6694 0.0000 0.5123
# 5 -4.9311 0.0835 -8.3241 0.0000 27.4962 0.0000
# 6 0.0000 0.0000 0.0000 0.5123 0.0000 -6.3694
#
#
#
# Elastic Compliance Matrix: (Units=1/GPa)
#
#
# Indices 1 2 3 4 5 6 
#
# 1 0.038357 0.007275 0.004840 0.000000 0.008322 0.000000
# 2 0.007275 0.029101 0.002533 0.000000 0.001983 0.000000
# 3 0.004840 0.002533 0.012213 0.000000 0.004558 0.000000
# 4 0.000000 0.000000 0.000000 0.212287 0.000000 0.017076
# 5 0.008322 0.001983 0.004558 0.000000 0.039235 0.000000
# 6 0.000000 0.000000 0.000000 0.017076 0.000000 -0.155627
#
#
# Mechanical properties :
#
#
# Convention : Reuss Voigt Hill
#
# Bulk Modulus (GPa) = 9.17708 12.82680 11.00194
# Shear Modulus (GPa) = 27.38348 16.83002 22.10675
#
# Velocity S-wave (km/s) = 3.58711 2.81218 3.22302
# Velocity P-wave (km/s) = 4.63344 4.07084 4.36122
#
# Compressibility (1/GPa) = 0.10896716
#
# Stress axis : x y z
#
# Youngs Moduli (GPa) = 26.07061 34.36321 81.88003
#
# Poissons Ratio (x) = -0.24998 -0.39631
# Poissons Ratio (y) = -0.18966 -0.20740
# Poissons Ratio (z) = -0.12619 -0.08704
#
# Static dielectric constant tensor:
#      x y z
#    x 1.737450 0.000000 0.013100 
#    y 0.000000 1.781290 0.000000 
#    z 0.013100 0.000000 1.872150 
# 
# From -- ./inp_files/243653.got.cif
#   From: 2010.05.17/outbox.cif.g08.bks.cpg/sg12_122_cif.got.tgz:243653.got - 2010.06.03 13:09:07.
