data_PCOD9191928
_publ_section_title
;
Structure prediction by ZEFSAII (Michael W. Deem and Ramdas Pophale) SiO2 
 PCOD9191928
Probable space group: C 2/M
;
_chemical_formula_sum "Si O2"
_cell_formula_units_Z 64
_cell_length_a 14.358989
_cell_length_b 9.249653
_cell_length_c 29.763393
_cell_angle_alpha 90.000000
_cell_angle_beta 108.041562
_cell_angle_gamma 90.000000
_cell_volume 3758.681968
_symmetry_space_group_name_H-M "C 2/M"
_symmetry_group_IT_number 12
_symmetry_cell_setting 'monoclinic'
loop_
_space_group_symop_operation_xyz
x,y,z
-x,y,-z
-x,-y,-z
x,-y,z
1/2+x,1/2+y,z
1/2-x,1/2+y,-z
1/2-x,1/2-y,-z
1/2+x,1/2-y,z
loop_
_atom_site_type_symbol
_atom_site_label
_atom_site_fract_x
_atom_site_fract_y
_atom_site_fract_z
Si Si1 0.548907 0.673537 0.078145
Si Si2 0.217371 0.172099 0.738951
Si Si3 0.800710 0.670936 0.575289
Si Si4 0.600523 0.671277 0.490476
Si Si5 0.917090 0.671459 0.822893
Si Si6 0.685269 0.328771 0.327665
Si Si7 0.847085 0.826883 0.997913
Si Si8 0.515067 0.671408 0.756659
O O1 0.554286 0.500000 0.085382
O O2 0.571711 0.754536 0.127346
O O3 0.622179 0.712527 0.048369
O O4 0.440168 0.707449 0.043413
O O5 0.308749 0.197126 0.786091
O O6 0.240282 0.259343 0.697153
O O7 0.115883 0.212782 0.747513
O O8 0.214346 0.000000 0.728475
O O9 0.817269 0.500000 0.582901
O O10 0.692781 0.691774 0.537522
O O11 0.876013 0.739185 0.550734
O O12 0.807194 0.750804 0.623598
O O13 0.500000 0.712587 0.500000
O O14 0.595361 0.500000 0.478705
O O15 0.931987 0.500000 0.828336
O O16 0.991877 0.740661 0.798214
O O17 0.701652 0.500000 0.334541
O O18 0.576973 0.306633 0.290367
O O19 0.834704 0.000000 0.997164
O O20 0.750000 0.750000 0.000000
O O21 0.519681 0.500000 0.767931
#
# Coordination Sequence:
#
# PCOD9191928 Si02
#       8
#     8   8   8   8   8   8   8   8
#     4   9  19  36  53  71 102 139 168 198 248 309
#     4   9  19  36  54  73 100 132 168 208 249 294
#     4  10  20  34  53  76 103 133 165 207 254 295
#     4   9  19  36  55  74  99 133 171 207 246 298
#     4  10  20  33  52  78 103 128 165 213 253 288
#     4  10  20  34  53  76 102 133 169 206 247 299
#     4   9  19  35  54  75 100 133 170 208 249 295
#     4   9  19  36  55  73  99 137 171 202 248 303
#
# _framework density 17.027246000000002
#
# number of rings (size 3 to 8) (size 9 to 14) (size 15 to 20)
#    0.000    2.625    0.000    1.875    0.000    5.250 
#    0.000   10.000    0.000    0.000    0.000    0.000 
#    0.000    0.000    0.000    0.000    0.000    0.000 
#
# Total GULP energy -178533.668649 kJ/mol
# GULP energy per Si atom -5579.177145 kJ/mol
# Density = 1.698849 g / cm^3
# Si number density = 17.027246 Si / 1000 Ang^3
#
#
#
# Elastic Constant Matrix: (Units=GPa)
#
#
# Indices 1 2 3 4 5 6 
#
# 1 157.3804 68.2486 63.5515 0.0000 -28.7947 0.0000
# 2 68.2486 74.3605 83.6083 0.0000 -18.6063 0.0000
# 3 63.5515 83.6083 135.7005 0.0000 -32.5624 0.0000
# 4 0.0000 0.0000 0.0000 36.3865 0.0000 -5.0968
# 5 -28.7947 -18.6063 -32.5624 0.0000 13.7670 0.0000
# 6 0.0000 0.0000 0.0000 -5.0968 0.0000 31.4271
#
#
#
# Elastic Compliance Matrix: (Units=1/GPa)
#
#
# Indices 1 2 3 4 5 6 
#
# 1 0.019957 -0.028755 0.020953 0.000000 0.052439 0.000000
# 2 -0.028755 0.085892 -0.060194 0.000000 -0.086432 0.000000
# 3 0.020953 -0.060194 0.059288 0.000000 0.102703 0.000000
# 4 0.000000 0.000000 0.000000 0.028122 0.000000 0.004561
# 5 0.052439 -0.086432 0.102703 0.000000 0.308423 0.000000
# 6 0.000000 0.000000 0.000000 0.004561 0.000000 0.032559
#
#
# Mechanical properties :
#
#
# Convention : Reuss Voigt Hill
#
# Bulk Modulus (GPa) = 34.30955 88.69535 61.50245
# Shear Modulus (GPa) = 7.35351 26.45165 16.90258
#
# Velocity S-wave (km/s) = 2.08040 3.94571 3.15410
# Velocity P-wave (km/s) = 5.09551 8.54175 7.03299
#
# Compressibility (1/GPa) = 0.02914640
#
# Stress axis : x y z
#
# Youngs Moduli (GPa) = 50.10832 11.64246 16.86689
#
# Poissons Ratio (x) = 0.33477 -0.35342
# Poissons Ratio (y) = 1.44084 1.01529
# Poissons Ratio (z) = -1.04994 0.70081
#
# Static dielectric constant tensor:
#      x y z
#    x 1.558740 0.000000 0.008830 
#    y 0.000000 1.563960 0.000000 
#    z 0.008830 0.000000 1.546840 
# 
# From -- ./inp_files/359951.got.cif
#   From: 2010.05.17/outbox.cif.g08.bks.cpg/sg12_180_cif.got.tgz:359951.got - 2010.06.03 13:09:07.
