data_PCOD9191173
_publ_section_title
;
Structure prediction by ZEFSAII (Michael W. Deem and Ramdas Pophale) SiO2 
 PCOD9191173
Probable space group: C 2/M
;
_chemical_formula_sum "Si O2"
_cell_formula_units_Z 56
_cell_length_a 33.280413
_cell_length_b 17.463562
_cell_length_c 5.454671
_cell_angle_alpha 90.000000
_cell_angle_beta 120.741128
_cell_angle_gamma 90.000000
_cell_volume 2724.762726
_symmetry_space_group_name_H-M "C 2/M"
_symmetry_group_IT_number 12
_symmetry_cell_setting 'monoclinic'
loop_
_space_group_symop_operation_xyz
x,y,z
-x,y,-z
-x,-y,-z
x,-y,z
1/2+x,1/2+y,z
1/2-x,1/2+y,-z
1/2-x,1/2-y,-z
1/2+x,1/2-y,z
loop_
_atom_site_type_symbol
_atom_site_label
_atom_site_fract_x
_atom_site_fract_y
_atom_site_fract_z
Si Si1 0.203872 0.837603 0.449703
Si Si2 0.601795 0.093449 0.893764
Si Si3 0.607674 0.407239 0.327150
Si Si4 0.553775 0.406942 0.656966
Si Si5 0.735636 0.811278 0.750787
Si Si6 0.702461 0.090441 0.029103
Si Si7 0.052669 0.406618 0.236305
O O1 0.158195 0.871024 0.429597
O O2 0.216357 0.847634 0.202303
O O3 0.292724 0.754321 0.513833
O O4 0.249947 0.878095 0.705425
O O5 0.570718 0.118360 0.561012
O O6 0.599911 0.000000 0.889719
O O7 0.655054 0.116155 0.009616
O O8 0.584002 0.119129 0.103677
O O9 0.612282 0.500000 0.350629
O O10 0.582468 0.382417 0.502456
O O11 0.577786 0.387547 0.990666
O O12 0.500000 0.380433 0.500000
O O13 0.552787 0.500000 0.640170
O O14 0.750000 0.750000 0.000000
O O15 0.703452 0.876810 0.758028
O O16 0.703530 0.000000 0.033263
O O17 0.053934 0.500000 0.246689
O O18 0.000000 0.384520 0.000000
#
# Coordination Sequence:
#
# PCOD9191173 Si02
#       7
#     8   8   8   8   8   8   8
#     4  10  21  37  55  80 115 152 201 243 282 345
#     4   9  18  29  45  73 104 135 173 213 271 338
#     4  10  20  32  55  88 119 157 201 245 295 349
#     4   9  18  33  52  81 123 159 191 241 301 356
#     4   9  21  39  56  75 112 151 196 235 287 344
#     4  10  21  34  54  82 116 149 183 234 290 346
#     4   9  16  28  45  67 100 136 171 217 269 328
#
# _framework density 20.552247000000001
#
# number of rings (size 3 to 8) (size 9 to 14) (size 15 to 20)
#    0.000    2.571    0.000    1.286    6.000    4.571 
#    0.000    0.000    0.000    0.000    0.000    4.000 
#    0.000    0.000    0.000    0.000    0.000    0.000 
#
# Total GULP energy -155964.675696 kJ/mol
# GULP energy per Si atom -5570.166989 kJ/mol
# Density = 2.050547 g / cm^3
# Si number density = 20.552247 Si / 1000 Ang^3
#
#
#
# Elastic Constant Matrix: (Units=GPa)
#
#
# Indices 1 2 3 4 5 6 
#
# 1 148.1186 16.5712 29.3332 0.0000 -8.0090 0.0000
# 2 16.5712 23.4778 11.0659 0.0000 2.9942 0.0000
# 3 29.3332 11.0659 64.5417 0.0000 -5.3924 0.0000
# 4 0.0000 0.0000 0.0000 9.1262 0.0000 -9.8187
# 5 -8.0090 2.9942 -5.3924 0.0000 39.5339 0.0000
# 6 0.0000 0.0000 0.0000 -9.8187 0.0000 14.1436
#
#
#
# Elastic Compliance Matrix: (Units=1/GPa)
#
#
# Indices 1 2 3 4 5 6 
#
# 1 0.007869 -0.004493 -0.002675 0.000000 0.001570 0.000000
# 2 -0.004493 0.049763 -0.006960 0.000000 -0.005629 0.000000
# 3 -0.002675 -0.006960 0.018108 0.000000 0.002455 0.000000
# 4 0.000000 0.000000 0.000000 0.432913 0.000000 0.300535
# 5 0.001570 -0.005629 0.002455 0.000000 0.026374 0.000000
# 6 0.000000 0.000000 0.000000 0.300535 0.000000 0.279339
#
#
# Mechanical properties :
#
#
# Convention : Reuss Voigt Hill
#
# Bulk Modulus (GPa) = 21.05997 38.89766 29.97881
# Shear Modulus (GPa) = 5.82445 24.50526 15.16486
#
# Velocity S-wave (km/s) = 1.68527 3.45677 2.71932
# Velocity P-wave (km/s) = 3.74915 5.90760 4.94752
#
# Compressibility (1/GPa) = 0.04748344
#
# Stress axis : x y z
#
# Youngs Moduli (GPa) = 127.08729 20.09511 55.22445
#
# Poissons Ratio (x) = 0.09030 0.14770
# Poissons Ratio (y) = 0.57105 0.38437
# Poissons Ratio (z) = 0.33991 0.13987
#
# Static dielectric constant tensor:
#      x y z
#    x 1.801630 0.000000 -0.138120 
#    y 0.000000 1.709600 0.000000 
#    z -0.138120 0.000000 2.024080 
# 
# From -- ./inp_files/28820.got.cif
#   From: 2010.05.17/outbox.cif.g08.bks.cpg/sg12_15_cif.got.tgz:28820.got - 2010.06.03 13:09:07.
