data_PCOD9191901
_publ_section_title
;
Structure prediction by ZEFSAII (Michael W. Deem and Ramdas Pophale) SiO2 
 PCOD9191901
Probable space group: C 2/M
;
_chemical_formula_sum "Si O2"
_cell_formula_units_Z 64
_cell_length_a 20.259189
_cell_length_b 8.655879
_cell_length_c 23.270808
_cell_angle_alpha 90.000000
_cell_angle_beta 64.188730
_cell_angle_gamma 90.000000
_cell_volume 3673.666217
_symmetry_space_group_name_H-M "C 2/M"
_symmetry_group_IT_number 12
_symmetry_cell_setting 'monoclinic'
loop_
_space_group_symop_operation_xyz
x,y,z
-x,y,-z
-x,-y,-z
x,-y,z
1/2+x,1/2+y,z
1/2-x,1/2+y,-z
1/2-x,1/2-y,-z
1/2+x,1/2-y,z
loop_
_atom_site_type_symbol
_atom_site_label
_atom_site_fract_x
_atom_site_fract_y
_atom_site_fract_z
Si Si1 0.149115 0.314616 0.804578
Si Si2 0.175174 0.185010 0.554040
Si Si3 0.021879 0.813528 0.555406
Si Si4 0.772789 0.185565 0.052541
Si Si5 0.894878 0.686622 0.306792
Si Si6 0.547467 0.186367 0.305798
Si Si7 0.577118 0.686768 0.943775
Si Si8 0.203555 0.312922 0.197301
O O1 0.149996 0.500000 0.805930
O O2 0.125638 0.264665 0.749690
O O3 0.094292 0.253540 0.874497
O O4 0.229318 0.251737 0.790832
O O5 0.250000 0.250000 0.500000
O O6 0.104335 0.232674 0.542687
O O7 0.158453 0.245867 0.624359
O O8 0.178083 0.000000 0.553575
O O9 0.000000 0.761470 0.500000
O O10 0.968243 0.749672 0.624774
O O11 0.018788 0.000000 0.557831
O O12 0.854479 0.232530 0.041633
O O13 0.719498 0.232966 0.125230
O O14 0.771619 0.000000 0.050001
O O15 0.750000 0.250000 0.000000
O O16 0.890928 0.500000 0.310864
O O17 0.977495 0.732885 0.293573
O O18 0.624730 0.238075 0.250352
O O19 0.548192 0.000000 0.307692
O O20 0.577572 0.500000 0.939446
O O21 0.500000 0.735711 0.000000
O O22 0.206714 0.500000 0.198359
#
# Coordination Sequence:
#
# PCOD9191901 Si02
#       8
#     8   8   8   8   8   8   8   8
#     4  10  20  33  52  77 102 130 165 207 250 291
#     4  10  20  34  53  75 100 132 167 204 248 296
#     4   9  19  35  52  72 100 130 160 200 248 291
#     4   9  18  32  50  72  99 130 163 201 244 290
#     4   9  19  35  52  73 102 132 165 206 249 293
#     4   9  18  34  54  73  96 129 167 203 240 288
#     4   9  19  36  54  72  99 134 168 204 248 297
#     4   9  19  35  52  72 101 134 165 201 247 296
#
# _framework density 17.421288000000001
#
# number of rings (size 3 to 8) (size 9 to 14) (size 15 to 20)
#    0.000    2.750    0.000    1.500    0.000    6.500 
#    0.000    5.000    0.000    0.000    0.000    0.000 
#    0.000    0.000    0.000    0.000    0.000    0.000 
#
# Total GULP energy -178453.648638 kJ/mol
# GULP energy per Si atom -5576.676520 kJ/mol
# Density = 1.738164 g / cm^3
# Si number density = 17.421288 Si / 1000 Ang^3
#
#
#
# Elastic Constant Matrix: (Units=GPa)
#
#
# Indices 1 2 3 4 5 6 
#
# 1 113.4601 27.9108 137.8266 0.0001 -0.2914 0.0001
# 2 27.9108 10.9536 35.8320 0.0003 -0.1870 0.0004
# 3 137.8266 35.8320 200.2651 0.0000 -0.4737 0.0001
# 4 0.0001 0.0003 0.0000 30.1176 0.0000 3.1073
# 5 -0.2914 -0.1870 -0.4737 0.0000 44.6499 0.0001
# 6 0.0001 0.0004 0.0001 3.1073 0.0001 22.9965
#
#
#
# Elastic Compliance Matrix: (Units=1/GPa)
#
#
# Indices 1 2 3 4 5 6 
#
# 1 0.061430 -0.043962 -0.034412 0.000000 -0.000148 0.000001
# 2 -0.043962 0.251617 -0.014763 -0.000002 0.000610 -0.000004
# 3 -0.034412 -0.014763 0.031318 0.000000 0.000046 0.000000
# 4 0.000000 -0.000002 0.000000 0.033673 0.000000 -0.004550
# 5 -0.000148 0.000610 0.000046 0.000000 0.022399 0.000000
# 6 0.000001 -0.000004 0.000000 -0.004550 0.000000 0.044100
#
#
# Mechanical properties :
#
#
# Convention : Reuss Voigt Hill
#
# Bulk Modulus (GPa) = 6.32546 80.86864 43.59705
# Shear Modulus (GPa) = 7.31522 27.76009 17.53766
#
# Velocity S-wave (km/s) = 2.05137 3.99614 3.17626
# Velocity P-wave (km/s) = 3.04132 8.23483 6.20734
#
# Compressibility (1/GPa) = 0.15809127
#
# Stress axis : x y z
#
# Youngs Moduli (GPa) = 16.27870 3.97429 31.93048
#
# Poissons Ratio (x) = 0.17472 1.09879
# Poissons Ratio (y) = 0.71564 0.47140
# Poissons Ratio (z) = 0.56018 0.05867
#
# Static dielectric constant tensor:
#      x y z
#    x 1.583760 0.000000 -0.002280 
#    y 0.000000 1.591950 0.000000 
#    z -0.002280 0.000000 1.566970 
# 
# From -- ./inp_files/319979.got.cif
#   From: 2010.05.17/outbox.cif.g08.bks.cpg/sg12_160_cif.got.tgz:319979.got - 2010.06.03 13:09:07.
