data_PCOD9191782
_publ_section_title
;
Structure prediction by ZEFSAII (Michael W. Deem and Ramdas Pophale) SiO2 
 PCOD9191782
Probable space group: C 2/M
;
_chemical_formula_sum "Si O2"
_cell_formula_units_Z 64
_cell_length_a 20.563716
_cell_length_b 8.689975
_cell_length_c 20.544845
_cell_angle_alpha 90.000000
_cell_angle_beta 89.721800
_cell_angle_gamma 90.000000
_cell_volume 3671.283090
_symmetry_space_group_name_H-M "C 2/M"
_symmetry_group_IT_number 12
_symmetry_cell_setting 'monoclinic'
loop_
_space_group_symop_operation_xyz
x,y,z
-x,y,-z
-x,-y,-z
x,-y,z
1/2+x,1/2+y,z
1/2-x,1/2+y,-z
1/2-x,1/2-y,-z
1/2+x,1/2-y,z
loop_
_atom_site_type_symbol
_atom_site_label
_atom_site_fract_x
_atom_site_fract_y
_atom_site_fract_z
Si Si1 0.075881 0.815228 0.679189
Si Si2 0.823808 0.683887 0.924663
Si Si3 0.926966 0.813295 0.677577
Si Si4 0.674551 0.184179 0.573106
Si Si5 0.674908 0.686128 0.430410
Si Si6 0.570366 0.684659 0.173821
Si Si7 0.817960 0.314467 0.075080
Si Si8 0.572209 0.184820 0.822225
O O1 0.126628 0.754924 0.626355
O O2 0.089474 0.748858 0.750818
O O3 0.001479 0.768427 0.662416
O O4 0.077765 0.000000 0.682047
O O5 0.827279 0.500000 0.919925
O O6 0.876794 0.757257 0.877280
O O7 0.751344 0.740423 0.908003
O O8 0.834686 0.727806 0.000407
O O9 0.874875 0.759951 0.624879
O O10 0.912551 0.766426 0.752025
O O11 0.925047 0.000000 0.676574
O O12 0.658785 0.244822 0.500935
O O13 0.750160 0.226716 0.585633
O O14 0.669723 0.000000 0.574593
O O15 0.671484 0.500000 0.434890
O O16 0.567083 0.500000 0.172828
O O17 0.498916 0.751118 0.159961
O O18 0.811031 0.500000 0.077390
O O19 0.874115 0.269230 0.124935
O O20 0.569605 0.000000 0.819793
#
# Coordination Sequence:
#
# PCOD9191782 Si02
#       8
#     8   8   8   8   8   8   8   8
#     4  10  20  35  54  76 103 134 170 212 256 306
#     4  10  20  35  55  79 106 137 176 219 261 308
#     4   8  17  34  54  73  95 131 174 209 246 299
#     4  10  20  33  51  77 105 132 165 209 258 306
#     4   9  18  35  55  72  96 133 173 209 248 300
#     4  10  20  35  54  78 108 139 174 216 263 314
#     4   9  20  37  55  76 105 140 175 215 264 315
#     4  10  20  36  56  77 104 138 176 217 262 312
#
# _framework density 17.432597000000001
#
# number of rings (size 3 to 8) (size 9 to 14) (size 15 to 20)
#    0.000    2.500    0.000    2.625    0.000    4.000 
#    0.000   11.250    0.000    0.000    0.000    0.000 
#    0.000    0.000    0.000    0.000    0.000    0.000 
#
# Total GULP energy -178538.145832 kJ/mol
# GULP energy per Si atom -5579.317057 kJ/mol
# Density = 1.739292 g / cm^3
# Si number density = 17.432597 Si / 1000 Ang^3
#
#
#
# Elastic Constant Matrix: (Units=GPa)
#
#
# Indices 1 2 3 4 5 6 
#
# 1 156.5839 52.6264 142.0525 0.0000 0.6137 0.0000
# 2 52.6264 42.7113 50.5819 0.0000 -2.1938 0.0000
# 3 142.0525 50.5819 150.1262 0.0000 0.6257 0.0000
# 4 0.0000 0.0000 0.0000 31.4020 0.0000 -4.7551
# 5 0.6137 -2.1938 0.6257 0.0000 44.3651 0.0000
# 6 0.0000 0.0000 0.0000 -4.7551 0.0000 31.6028
#
#
#
# Elastic Compliance Matrix: (Units=1/GPa)
#
#
# Indices 1 2 3 4 5 6 
#
# 1 0.046989 -0.008769 -0.041506 0.000000 -0.000498 0.000000
# 2 -0.008769 0.040793 -0.005456 0.000000 0.002215 0.000000
# 3 -0.041506 -0.005456 0.047774 0.000000 -0.000369 0.000000
# 4 0.000000 0.000000 0.000000 0.032588 0.000000 0.004903
# 5 -0.000498 0.002215 -0.000369 0.000000 0.022662 0.000000
# 6 0.000000 0.000000 0.000000 0.004903 0.000000 0.032380
#
#
# Mechanical properties :
#
#
# Convention : Reuss Voigt Hill
#
# Bulk Modulus (GPa) = 41.50208 93.32701 67.41454
# Shear Modulus (GPa) = 14.59084 28.41801 21.50443
#
# Velocity S-wave (km/s) = 2.89621 4.04191 3.51604
# Velocity P-wave (km/s) = 5.91970 8.68532 7.43229
#
# Compressibility (1/GPa) = 0.02409518
#
# Stress axis : x y z
#
# Youngs Moduli (GPa) = 21.28140 24.51391 20.93168
#
# Poissons Ratio (x) = 0.21497 0.86878
# Poissons Ratio (y) = 0.18662 0.11421
# Poissons Ratio (z) = 0.88330 0.13375
#
# Static dielectric constant tensor:
#      x y z
#    x 1.571730 0.000000 0.013330 
#    y 0.000000 1.590030 0.000000 
#    z 0.013330 0.000000 1.572460 
# 
# From -- ./inp_files/314081.got.cif
#   From: 2010.05.17/outbox.cif.g08.bks.cpg/sg12_158_cif.got.tgz:314081.got - 2010.06.03 13:09:07.
