data_PCOD9191263
_publ_section_title
;
Structure prediction by ZEFSAII (Michael W. Deem and Ramdas Pophale) SiO2 
 PCOD9191263
Probable space group: C 2/M
;
_chemical_formula_sum "Si O2"
_cell_formula_units_Z 56
_cell_length_a 14.644291
_cell_length_b 7.279563
_cell_length_c 19.833709
_cell_angle_alpha 90.000000
_cell_angle_beta 80.127296
_cell_angle_gamma 90.000000
_cell_volume 2083.042284
_symmetry_space_group_name_H-M "C 2/M"
_symmetry_group_IT_number 12
_symmetry_cell_setting 'monoclinic'
loop_
_space_group_symop_operation_xyz
x,y,z
-x,y,-z
-x,-y,-z
x,-y,z
1/2+x,1/2+y,z
1/2-x,1/2+y,-z
1/2-x,1/2-y,-z
1/2+x,1/2-y,z
loop_
_atom_site_type_symbol
_atom_site_label
_atom_site_fract_x
_atom_site_fract_y
_atom_site_fract_z
Si Si1 0.483534 0.774833 0.333613
Si Si2 0.821311 0.723154 0.626535
Si Si3 0.897282 0.710082 0.479589
Si Si4 0.455159 0.276388 0.901272
Si Si5 0.797991 0.792121 0.836494
Si Si6 0.660794 0.208979 0.745509
Si Si7 0.138244 0.778751 0.946329
O O1 0.588574 0.724111 0.339663
O O2 0.418780 0.708754 0.404019
O O3 0.435188 0.711621 0.270621
O O4 0.481632 0.000000 0.333908
O O5 0.819807 0.500000 0.625455
O O6 0.834756 0.787276 0.547661
O O7 0.729515 0.793702 0.672796
O O8 0.867597 0.500000 0.472906
O O9 0.000000 0.704911 0.500000
O O10 0.452728 0.500000 0.899591
O O11 0.395612 0.208558 0.845646
O O12 0.561356 0.225265 0.899830
O O13 0.402787 0.220646 0.976837
O O14 0.727731 0.701516 0.792766
O O15 0.736724 0.797674 0.912424
O O16 0.814995 0.000000 0.810478
O O17 0.642249 0.000000 0.769255
O O18 0.144054 0.000000 0.946502
#
# Coordination Sequence:
#
# PCOD9191263 Si02
#       7
#     8   8   8   8   8   8   8
#     4   8  15  30  49  67  91 122 153 187 231 281
#     4   9  17  31  51  70  88 116 158 200 228 262
#     4   7  11  23  46  70  86 109 150 194 232 268
#     4   8  16  32  52  72  95 121 149 186 234 278
#     4  10  20  33  47  67  98 129 153 183 227 275
#     4  10  21  33  45  66  97 130 155 179 227 284
#     4   9  17  32  54  74  90 117 157 193 226 267
#
# _framework density 26.883756999999999
#
# number of rings (size 3 to 8) (size 9 to 14) (size 15 to 20)
#    0.000    3.286    0.000    3.000    0.000    2.286 
#    0.000    2.857    0.000    3.857    0.000    0.000 
#    0.000    0.000    0.000    0.000    0.000    0.000 
#
# Total GULP energy -156513.902498 kJ/mol
# GULP energy per Si atom -5589.782232 kJ/mol
# Density = 2.682257 g / cm^3
# Si number density = 26.883757 Si / 1000 Ang^3
#
#
#
# Elastic Constant Matrix: (Units=GPa)
#
#
# Indices 1 2 3 4 5 6 
#
# 1 165.6163 5.7176 49.1219 0.0000 38.5613 0.0000
# 2 5.7176 131.7845 8.5138 0.0000 5.0669 0.0000
# 3 49.1219 8.5138 57.0911 0.0000 -5.1861 0.0000
# 4 0.0000 0.0000 0.0000 6.5548 0.0000 -16.6880
# 5 38.5613 5.0669 -5.1861 0.0000 62.3698 0.0000
# 6 0.0000 0.0000 0.0000 -16.6880 0.0000 -10.1958
#
#
#
# Elastic Compliance Matrix: (Units=1/GPa)
#
#
# Indices 1 2 3 4 5 6 
#
# 1 0.010730 0.000468 -0.009983 0.000000 -0.007502 0.000000
# 2 0.000468 0.007715 -0.001649 0.000000 -0.001053 0.000000
# 3 -0.009983 -0.001649 0.027129 0.000000 0.008562 0.000000
# 4 0.000000 0.000000 0.000000 0.029526 0.000000 -0.048326
# 5 -0.007502 -0.001053 0.008562 0.000000 0.021469 0.000000
# 6 0.000000 0.000000 0.000000 -0.048326 0.000000 -0.018982
#
#
# Mechanical properties :
#
#
# Convention : Reuss Voigt Hill
#
# Bulk Modulus (GPa) = 43.01888 53.46651 48.24269
# Shear Modulus (GPa) = 46.44121 31.15500 38.79810
#
# Velocity S-wave (km/s) = 4.16081 3.40792 3.80304
# Velocity P-wave (km/s) = 6.25457 5.95117 6.10476
#
# Compressibility (1/GPa) = 0.02324561
#
# Stress axis : x y z
#
# Youngs Moduli (GPa) = 93.20015 129.62018 36.86086
#
# Poissons Ratio (x) = -0.06064 0.36799
# Poissons Ratio (y) = -0.04360 0.06077
# Poissons Ratio (z) = 0.93043 0.21371
#
# Static dielectric constant tensor:
#      x y z
#    x 2.066540 0.000000 0.064020 
#    y 0.000000 1.992810 0.000000 
#    z 0.064020 0.000000 2.140370 
# 
# From -- ./inp_files/309461.got.cif
#   From: 2010.05.17/outbox.cif.g08.bks.cpg/sg12_155_cif.got.tgz:309461.got - 2010.06.03 13:09:07.
