data_PCOD9191287
_publ_section_title
;
Structure prediction by ZEFSAII (Michael W. Deem and Ramdas Pophale) SiO2 
 PCOD9191287
Probable space group: C 2/M
;
_chemical_formula_sum "Si O2"
_cell_formula_units_Z 64
_cell_length_a 28.847141
_cell_length_b 9.033076
_cell_length_c 21.353308
_cell_angle_alpha 90.000000
_cell_angle_beta 135.324488
_cell_angle_gamma 90.000000
_cell_volume 3912.145955
_symmetry_space_group_name_H-M "C 2/M"
_symmetry_group_IT_number 12
_symmetry_cell_setting 'monoclinic'
loop_
_space_group_symop_operation_xyz
x,y,z
-x,y,-z
-x,-y,-z
x,-y,z
1/2+x,1/2+y,z
1/2-x,1/2+y,-z
1/2-x,1/2-y,-z
1/2+x,1/2-y,z
loop_
_atom_site_type_symbol
_atom_site_label
_atom_site_fract_x
_atom_site_fract_y
_atom_site_fract_z
Si Si1 0.592428 0.675434 0.636125
Si Si2 0.101938 0.829086 0.508327
Si Si3 0.194975 0.320644 0.401778
Si Si4 0.788536 0.678488 0.094523
Si Si5 0.758702 0.328044 0.688260
Si Si6 0.766794 0.675273 0.212120
Si Si7 0.431676 0.324973 0.247791
Si Si8 0.561822 0.175138 0.344386
O O1 0.610763 0.500000 0.652905
O O2 0.567691 0.704214 0.542083
O O3 0.657583 0.773473 0.706548
O O4 0.553344 0.696936 0.663121
O O5 0.180344 0.821121 0.597616
O O6 0.086028 0.720554 0.436926
O O7 0.086536 0.000000 0.475627
O O8 0.202867 0.500000 0.411435
O O9 0.250000 0.250000 0.500000
O O10 0.206130 0.271597 0.340827
O O11 0.122119 0.284024 0.356704
O O12 0.790900 0.500000 0.092256
O O13 0.753055 0.717646 0.126774
O O14 0.862826 0.743206 0.168221
O O15 0.750000 0.750000 0.000000
O O16 0.775697 0.500000 0.712687
O O17 0.770935 0.247539 0.765780
O O18 0.761724 0.500000 0.212356
O O19 0.423997 0.500000 0.230003
O O20 0.493096 0.259698 0.269054
O O21 0.550892 0.000000 0.330045
#
# Coordination Sequence:
#
# PCOD9191287 Si02
#       8
#     8   8   8   8   8   8   8   8
#     4   8  16  30  46  63  88 125 165 200 236 285
#     4   9  16  28  45  63  87 123 168 209 243 287
#     4  10  20  33  48  67  93 129 175 220 257 292
#     4  10  20  35  56  82 108 130 156 191 236 294
#     4   9  17  30  47  66  93 130 170 210 249 293
#     4   9  17  28  46  74 102 125 154 197 242 285
#     4  10  20  35  52  69  95 131 165 199 242 293
#     4  11  22  32  44  66  96 128 166 213 256 290
#
# _framework density 16.359307000000001
#
# number of rings (size 3 to 8) (size 9 to 14) (size 15 to 20)
#    0.000    2.500    1.250    2.250    0.000    5.500 
#    0.000    2.500    0.000    0.000    0.000    0.875 
#    0.000    7.000    0.000    0.000    0.000    0.000 
#
# Total GULP energy -178312.879920 kJ/mol
# GULP energy per Si atom -5572.277497 kJ/mol
# Density = 1.632207 g / cm^3
# Si number density = 16.359307 Si / 1000 Ang^3
#
#
#
# Elastic Constant Matrix: (Units=GPa)
#
#
# Indices 1 2 3 4 5 6 
#
# 1 143.3142 49.9808 51.7774 0.0000 -16.2032 0.0000
# 2 49.9808 46.5448 36.2402 0.0000 -11.4193 0.0000
# 3 51.7774 36.2402 79.4226 0.0000 -17.5303 0.0000
# 4 0.0000 0.0000 0.0000 24.0311 0.0000 -2.2361
# 5 -16.2032 -11.4193 -17.5303 0.0000 22.4623 0.0000
# 6 0.0000 0.0000 0.0000 -2.2361 0.0000 23.2718
#
#
#
# Elastic Compliance Matrix: (Units=1/GPa)
#
#
# Indices 1 2 3 4 5 6 
#
# 1 0.011595 -0.010055 -0.002722 0.000000 0.001128 0.000000
# 2 -0.010055 0.042757 -0.011789 0.000000 0.005283 0.000000
# 3 -0.002722 -0.011789 0.021732 0.000000 0.009004 0.000000
# 4 0.000000 0.000000 0.000000 0.041988 0.000000 0.004035
# 5 0.001128 0.005283 0.009004 0.000000 0.055045 0.000000
# 6 0.000000 0.000000 0.000000 0.004035 0.000000 0.043358
#
#
# Mechanical properties :
#
#
# Convention : Reuss Voigt Hill
#
# Bulk Modulus (GPa) = 37.10235 60.58649 48.84442
# Shear Modulus (GPa) = 18.20885 22.70526 20.45705
#
# Velocity S-wave (km/s) = 3.33987 3.72951 3.54005
# Velocity P-wave (km/s) = 6.13204 7.46063 6.82872
#
# Compressibility (1/GPa) = 0.02695247
#
# Stress axis : x y z
#
# Youngs Moduli (GPa) = 86.24078 23.38806 46.01520
#
# Poissons Ratio (x) = 0.23517 0.12526
# Poissons Ratio (y) = 0.86716 0.54245
# Poissons Ratio (z) = 0.23477 0.27571
#
# Static dielectric constant tensor:
#      x y z
#    x 1.588930 0.000000 -0.012270 
#    y 0.000000 1.546380 0.000000 
#    z -0.012270 0.000000 1.541950 
# 
# From -- ./inp_files/326975.got.cif
#   From: 2010.05.17/outbox.cif.g08.bks.cpg/sg12_164_cif.got.tgz:326975.got - 2010.06.03 13:09:07.
