data_PCOD9191309
_publ_section_title
;
Structure prediction by ZEFSAII (Michael W. Deem and Ramdas Pophale) SiO2 
 PCOD9191309
Probable space group: C 2/M
;
_chemical_formula_sum "Si O2"
_cell_formula_units_Z 64
_cell_length_a 17.495948
_cell_length_b 13.481890
_cell_length_c 24.342702
_cell_angle_alpha 90.000000
_cell_angle_beta 146.642230
_cell_angle_gamma 90.000000
_cell_volume 3157.281657
_symmetry_space_group_name_H-M "C 2/M"
_symmetry_group_IT_number 12
_symmetry_cell_setting 'monoclinic'
loop_
_space_group_symop_operation_xyz
x,y,z
-x,y,-z
-x,-y,-z
x,-y,z
1/2+x,1/2+y,z
1/2-x,1/2+y,-z
1/2-x,1/2-y,-z
1/2+x,1/2-y,z
loop_
_atom_site_type_symbol
_atom_site_label
_atom_site_fract_x
_atom_site_fract_y
_atom_site_fract_z
Si Si1 0.764816 0.119333 0.019228
Si Si2 0.508733 0.615373 0.438676
Si Si3 0.487165 0.116652 0.057430
Si Si4 0.382550 0.878604 0.184450
Si Si5 0.635646 0.613758 0.107352
Si Si6 0.775945 0.696294 0.724246
Si Si7 0.189501 0.385662 0.369948
Si Si8 0.913396 0.112498 0.792364
O O1 0.927187 0.146957 0.120715
O O2 0.771220 0.000000 0.021241
O O3 0.662422 0.146936 0.007519
O O4 0.688804 0.149015 0.916608
O O5 0.500000 0.614746 0.500000
O O6 0.493758 0.500000 0.411741
O O7 0.376537 0.680464 0.342395
O O8 0.663913 0.654466 0.518888
O O9 0.606937 0.177290 0.160097
O O10 0.506088 0.000000 0.083593
O O11 0.500000 0.122802 0.000000
O O12 0.278634 0.845092 0.170119
O O13 0.537911 0.839997 0.288695
O O14 0.395900 0.000000 0.190982
O O15 0.638084 0.500000 0.086915
O O16 0.614393 0.607008 0.158968
O O17 0.500000 0.662560 0.000000
O O18 0.797266 0.617349 0.688370
O O19 0.805723 0.801288 0.712038
O O20 0.187407 0.500000 0.386947
O O21 0.895234 0.000000 0.759484
#
# Coordination Sequence:
#
# PCOD9191309 Si02
#       8
#     8   8   8   8   8   8   8   8
#     4   9  16  30  48  66  96 137 171 198 237 287
#     4   8  15  28  50  77 101 120 149 202 261 310
#     4  10  20  33  48  70 104 140 169 196 233 296
#     4   9  14  24  48  74  97 127 155 195 255 302
#     4   9  15  26  44  66  93 127 168 209 248 280
#     4  11  19  30  49  71  97 133 165 203 242 295
#     4   9  16  29  51  81 104 119 151 200 259 316
#     4  10  21  33  45  65  96 136 174 210 243 279
#
# _framework density 20.270603000000001
#
# number of rings (size 3 to 8) (size 9 to 14) (size 15 to 20)
#    0.000    2.625    2.500    1.875    0.000    1.000 
#    0.000    0.000    0.000    4.125    0.000    1.750 
#    0.000   12.000    0.000    0.000    0.000    0.875 
#
# Total GULP energy -178268.602163 kJ/mol
# GULP energy per Si atom -5570.893818 kJ/mol
# Density = 2.022447 g / cm^3
# Si number density = 20.270603 Si / 1000 Ang^3
#
#
#
# Elastic Constant Matrix: (Units=GPa)
#
#
# Indices 1 2 3 4 5 6 
#
# 1 92.6327 -4.3842 43.4105 0.0000 34.1365 0.0000
# 2 -4.3842 82.8770 20.1527 0.0000 12.5834 0.0000
# 3 43.4105 20.1527 82.4795 -0.0001 47.5368 0.0000
# 4 0.0000 0.0000 -0.0001 22.1115 0.0000 4.9239
# 5 34.1365 12.5834 47.5368 0.0000 40.6503 0.0000
# 6 0.0000 0.0000 0.0000 4.9239 0.0000 8.0666
#
#
#
# Elastic Compliance Matrix: (Units=1/GPa)
#
#
# Indices 1 2 3 4 5 6 
#
# 1 0.016566 0.003330 -0.002824 0.000000 -0.011640 0.000000
# 2 0.003330 0.013509 -0.003164 0.000000 -0.003278 0.000000
# 3 -0.002824 -0.003164 0.038196 0.000000 -0.041315 0.000000
# 4 0.000000 0.000000 0.000000 0.052340 0.000000 -0.031948
# 5 -0.011640 -0.003278 -0.041315 0.000000 0.083704 0.000000
# 6 0.000000 0.000000 0.000000 -0.031948 0.000000 0.143470
#
#
# Mechanical properties :
#
#
# Convention : Reuss Voigt Hill
#
# Bulk Modulus (GPa) = 15.88443 41.81637 28.85040
# Shear Modulus (GPa) = 13.36593 27.41968 20.39281
#
# Velocity S-wave (km/s) = 2.57062 3.68187 3.17524
# Velocity P-wave (km/s) = 4.08215 6.22485 5.26368
#
# Compressibility (1/GPa) = 0.06295473
#
# Stress axis : x y z
#
# Youngs Moduli (GPa) = 60.36542 74.02243 26.18095
#
# Poissons Ratio (x) = -0.24652 0.07394
# Poissons Ratio (y) = -0.20104 0.08284
# Poissons Ratio (z) = 0.17048 0.23423
#
# Static dielectric constant tensor:
#      x y z
#    x 1.752840 0.000000 0.053240 
#    y 0.000000 1.829750 0.000000 
#    z 0.053240 0.000000 1.738810 
# 
# From -- ./inp_files/344061.got.cif
#   From: 2010.05.17/outbox.cif.g08.bks.cpg/sg12_173_cif.got.tgz:344061.got - 2010.06.03 13:09:07.
