data_PCOD9191576
_publ_section_title
;
Structure prediction by ZEFSAII (Michael W. Deem and Ramdas Pophale) SiO2 
 PCOD9191576
Probable space group: C 2/M
;
_chemical_formula_sum "Si O2"
_cell_formula_units_Z 64
_cell_length_a 14.850346
_cell_length_b 7.601846
_cell_length_c 26.422119
_cell_angle_alpha 90.000000
_cell_angle_beta 115.359627
_cell_angle_gamma 90.000000
_cell_volume 2695.364103
_symmetry_space_group_name_H-M "C 2/M"
_symmetry_group_IT_number 12
_symmetry_cell_setting 'monoclinic'
loop_
_space_group_symop_operation_xyz
x,y,z
-x,y,-z
-x,-y,-z
x,-y,z
1/2+x,1/2+y,z
1/2-x,1/2+y,-z
1/2-x,1/2-y,-z
1/2+x,1/2-y,z
loop_
_atom_site_type_symbol
_atom_site_label
_atom_site_fract_x
_atom_site_fract_y
_atom_site_fract_z
Si Si1 0.083280 0.713355 0.208264
Si Si2 0.817800 0.287145 0.586532
Si Si3 0.934362 0.201503 0.913124
Si Si4 0.303571 0.711277 0.253362
Si Si5 0.482958 0.208491 0.702621
Si Si6 0.895146 0.290561 0.495931
Si Si7 0.643847 0.287846 0.950241
Si Si8 0.713844 0.296292 0.863778
O O1 0.077043 0.500000 0.200432
O O2 0.064776 0.791970 0.148443
O O3 0.197601 0.759015 0.251463
O O4 0.016956 0.775458 0.239401
O O5 0.821779 0.500000 0.587169
O O6 0.861534 0.222262 0.543111
O O7 0.701717 0.238954 0.562351
O O8 0.890899 0.221984 0.648000
O O9 0.831891 0.290978 0.904406
O O10 0.043204 0.275490 0.953004
O O11 0.926045 0.000000 0.928456
O O12 0.303235 0.500000 0.251720
O O13 0.411292 0.764262 0.299214
O O14 0.298503 0.783741 0.194529
O O15 0.467908 0.000000 0.703919
O O16 0.907688 0.500000 0.504740
O O17 0.000000 0.220297 0.500000
O O18 0.633826 0.500000 0.945826
O O19 0.653099 0.215798 0.895245
O O20 0.750000 0.250000 0.000000
O O21 0.685406 0.500000 0.853442
#
# Coordination Sequence:
#
# PCOD9191576 Si02
#       8
#     8   8   8   8   8   8   8   8
#     4   9  19  35  52  72 101 136 167 197 245 305
#     4   9  19  34  50  73 103 132 167 209 250 296
#     4  10  20  35  55  78 101 128 167 212 249 289
#     4   9  18  33  52  73  99 131 166 201 241 295
#     4  10  20  33  50  74 105 135 164 205 251 293
#     4   9  18  34  54  73  97 132 171 210 253 298
#     4  10  22  37  53  75 103 133 167 208 255 304
#     4   9  19  37  56  74 101 137 170 203 250 305
#
# _framework density 23.744474
#
# number of rings (size 3 to 8) (size 9 to 14) (size 15 to 20)
#    0.000    2.625    0.000    1.875    0.000    7.250 
#    0.000    2.500    0.000    0.000    0.000    0.000 
#    0.000    0.000    0.000    0.000    0.000    0.000 
#
# Total GULP energy -178657.042777 kJ/mol
# GULP energy per Si atom -5583.032587 kJ/mol
# Density = 2.369043 g / cm^3
# Si number density = 23.744474 Si / 1000 Ang^3
#
#
#
# Elastic Constant Matrix: (Units=GPa)
#
#
# Indices 1 2 3 4 5 6 
#
# 1 141.1978 -0.3877 20.7804 0.0000 32.4572 0.0000
# 2 -0.3877 56.3253 -4.6814 0.0000 -4.5016 0.0000
# 3 20.7804 -4.6814 52.9702 0.0000 22.8223 0.0000
# 4 0.0000 0.0000 0.0000 16.8543 0.0000 8.9039
# 5 32.4572 -4.5016 22.8223 0.0000 31.6030 0.0000
# 6 0.0000 0.0000 0.0000 8.9039 0.0000 18.6220
#
#
#
# Elastic Compliance Matrix: (Units=1/GPa)
#
#
# Indices 1 2 3 4 5 6 
#
# 1 0.009314 -0.000692 0.000652 0.000000 -0.010135 0.000000
# 2 -0.000692 0.018028 0.000656 0.000000 0.002804 0.000000
# 3 0.000652 0.000656 0.027479 0.000000 -0.020420 0.000000
# 4 0.000000 0.000000 0.000000 0.079384 0.000000 -0.037956
# 5 -0.010135 0.002804 -0.020420 0.000000 0.057197 0.000000
# 6 0.000000 0.000000 0.000000 -0.037956 0.000000 0.071848
#
#
# Mechanical properties :
#
#
# Convention : Reuss Voigt Hill
#
# Bulk Modulus (GPa) = 17.84015 31.32397 24.58206
# Shear Modulus (GPa) = 17.81247 29.06800 23.44024
#
# Velocity S-wave (km/s) = 2.74190 3.50265 3.14536
# Velocity P-wave (km/s) = 4.18972 5.43864 4.85451
#
# Compressibility (1/GPa) = 0.05605333
#
# Stress axis : x y z
#
# Youngs Moduli (GPa) = 107.36280 55.46944 36.39172
#
# Poissons Ratio (x) = 0.03837 -0.02371
# Poissons Ratio (y) = 0.07427 -0.02389
# Poissons Ratio (z) = -0.06995 -0.03641
#
# Static dielectric constant tensor:
#      x y z
#    x 1.916460 0.000000 0.014030 
#    y 0.000000 1.878620 0.000000 
#    z 0.014030 0.000000 1.946060 
# 
# From -- ./inp_files/375055.got.cif
#   From: 2010.05.17/outbox.cif.g08.bks.cpg/sg12_188_cif.got.tgz:375055.got - 2010.06.03 13:09:07.
