data_PCOD9191882
_publ_section_title
;
Structure prediction by ZEFSAII (Michael W. Deem and Ramdas Pophale) SiO2 
 PCOD9191882
Probable space group: C 2/M
;
_chemical_formula_sum "Si O2"
_cell_formula_units_Z 64
_cell_length_a 28.852322
_cell_length_b 9.358164
_cell_length_c 14.388033
_cell_angle_alpha 90.000000
_cell_angle_beta 74.442366
_cell_angle_gamma 90.000000
_cell_volume 3742.501436
_symmetry_space_group_name_H-M "C 2/M"
_symmetry_group_IT_number 12
_symmetry_cell_setting 'monoclinic'
loop_
_space_group_symop_operation_xyz
x,y,z
-x,y,-z
-x,-y,-z
x,-y,z
1/2+x,1/2+y,z
1/2-x,1/2+y,-z
1/2-x,1/2-y,-z
1/2+x,1/2-y,z
loop_
_atom_site_type_symbol
_atom_site_label
_atom_site_fract_x
_atom_site_fract_y
_atom_site_fract_z
Si Si1 0.576578 0.169783 0.613986
Si Si2 0.314509 0.829128 0.794203
Si Si3 0.362760 0.667338 0.936477
Si Si4 0.123575 0.329546 0.783700
Si Si5 0.984020 0.837105 0.617384
Si Si6 0.943348 0.828964 0.034019
Si Si7 0.607194 0.829877 0.390252
Si Si8 0.703859 0.669489 0.846430
O O1 0.609817 0.198650 0.684420
O O2 0.526760 0.255876 0.646634
O O3 0.601500 0.206504 0.502081
O O4 0.565908 0.000000 0.617805
O O5 0.345162 0.758229 0.859481
O O6 0.341520 0.797791 0.682928
O O7 0.259013 0.782712 0.824762
O O8 0.314690 0.000000 0.807577
O O9 0.363754 0.500000 0.910855
O O10 0.414231 0.705220 0.954781
O O11 0.324202 0.686283 0.040839
O O12 0.124904 0.500000 0.797773
O O13 0.082893 0.258107 0.870665
O O14 0.173367 0.257779 0.788218
O O15 0.000000 0.838569 0.500000
O O16 0.934028 0.753095 0.644011
O O17 0.978741 0.000000 0.652079
O O18 0.936453 0.000000 0.053308
O O19 0.000000 0.799869 0.000000
O O20 0.598553 0.000000 0.386309
O O21 0.702834 0.500000 0.824430
#
# Coordination Sequence:
#
# PCOD9191882 Si02
#       8
#     8   8   8   8   8   8   8   8
#     4   9  18  33  51  71  99 134 167 198 240 293
#     4  10  20  33  52  75  97 127 166 205 245 292
#     4   9  18  32  51  74 100 130 161 197 245 296
#     4  10  20  33  52  76  98 127 169 209 242 284
#     4   9  17  29  47  71  96 124 162 203 238 278
#     4   9  19  36  54  74 104 137 163 193 242 297
#     4   9  18  33  50  70 101 135 163 198 245 292
#     4   9  19  36  53  71  97 128 163 202 249 301
#
# _framework density 17.100860999999998
#
# number of rings (size 3 to 8) (size 9 to 14) (size 15 to 20)
#    0.000    2.750    0.000    1.875    0.000    6.750 
#    0.000    3.125    0.000    0.000    0.000    0.000 
#    0.000    0.000    0.000    0.000    0.000    0.000 
#
# Total GULP energy -178408.437685 kJ/mol
# GULP energy per Si atom -5575.263678 kJ/mol
# Density = 1.706194 g / cm^3
# Si number density = 17.100861 Si / 1000 Ang^3
#
#
#
# Elastic Constant Matrix: (Units=GPa)
#
#
# Indices 1 2 3 4 5 6 
#
# 1 137.9979 45.7644 60.6442 0.0000 4.1501 0.0000
# 2 45.7644 37.2238 40.3172 0.0000 9.3506 0.0000
# 3 60.6442 40.3172 61.8617 0.0000 17.2383 0.0000
# 4 0.0000 0.0000 0.0000 19.4702 0.0000 5.7105
# 5 4.1501 9.3506 17.2383 0.0000 23.1115 0.0000
# 6 0.0000 0.0000 0.0000 5.7105 0.0000 26.9679
#
#
#
# Elastic Compliance Matrix: (Units=1/GPa)
#
#
# Indices 1 2 3 4 5 6 
#
# 1 0.014834 -0.006799 -0.012795 0.000000 0.009630 0.000000
# 2 -0.006799 0.096105 -0.057406 0.000000 0.005156 0.000000
# 3 -0.012795 -0.057406 0.074492 0.000000 -0.030038 0.000000
# 4 0.000000 0.000000 0.000000 0.054762 0.000000 -0.011596
# 5 0.009630 0.005156 -0.030038 0.000000 0.061858 0.000000
# 6 0.000000 0.000000 0.000000 -0.011596 0.000000 0.039537
#
#
# Mechanical properties :
#
#
# Convention : Reuss Voigt Hill
#
# Bulk Modulus (GPa) = 31.81545 58.94833 45.38189
# Shear Modulus (GPa) = 9.88013 19.93375 14.90694
#
# Velocity S-wave (km/s) = 2.40626 3.41788 2.95567
# Velocity P-wave (km/s) = 5.13470 7.07966 6.18412
#
# Compressibility (1/GPa) = 0.03143127
#
# Stress axis : x y z
#
# Youngs Moduli (GPa) = 67.41055 10.40525 13.42421
#
# Poissons Ratio (x) = 0.07074 0.17176
# Poissons Ratio (y) = 0.45832 0.77064
# Poissons Ratio (z) = 0.86252 0.59733
#
# Static dielectric constant tensor:
#      x y z
#    x 1.566450 0.000000 -0.010960 
#    y 0.000000 1.573050 0.000000 
#    z -0.010960 0.000000 1.576980 
# 
# From -- ./inp_files/248281.got.cif
#   From: 2010.05.17/outbox.cif.g08.bks.cpg/sg12_125_cif.got.tgz:248281.got - 2010.06.03 13:09:07.
