data_PCOD9191048
_publ_section_title
;
Structure prediction by ZEFSAII (Michael W. Deem and Ramdas Pophale) SiO2 
 PCOD9191048
Probable space group: C 2/M
;
_chemical_formula_sum "Si O2"
_cell_formula_units_Z 56
_cell_length_a 15.283087
_cell_length_b 15.428097
_cell_length_c 13.391936
_cell_angle_alpha 90.000000
_cell_angle_beta 74.794420
_cell_angle_gamma 90.000000
_cell_volume 3047.123483
_symmetry_space_group_name_H-M "C 2/M"
_symmetry_group_IT_number 12
_symmetry_cell_setting 'monoclinic'
loop_
_space_group_symop_operation_xyz
x,y,z
-x,y,-z
-x,-y,-z
x,-y,z
1/2+x,1/2+y,z
1/2-x,1/2+y,-z
1/2-x,1/2-y,-z
1/2+x,1/2-y,z
loop_
_atom_site_type_symbol
_atom_site_label
_atom_site_fract_x
_atom_site_fract_y
_atom_site_fract_z
Si Si1 0.963038 0.396418 0.906026
Si Si2 0.821933 0.329228 0.678598
Si Si3 0.403688 0.743796 0.475737
Si Si4 0.770615 0.679529 0.911016
Si Si5 0.020114 0.397397 0.671641
Si Si6 0.365739 0.600093 0.324008
Si Si7 0.919438 0.103744 0.093524
O O1 0.970620 0.500000 0.906817
O O2 0.858058 0.373595 0.920924
O O3 0.017245 0.370814 0.789502
O O4 0.000000 0.360900 0.000000
O O5 0.833232 0.261515 0.585552
O O6 0.798205 0.286667 0.792404
O O7 0.739453 0.392500 0.676983
O O8 0.917481 0.379144 0.662882
O O9 0.500000 0.727192 0.500000
O O10 0.415818 0.832996 0.409246
O O11 0.381521 0.664970 0.409933
O O12 0.678309 0.626647 0.922211
O O13 0.750000 0.750000 0.000000
O O14 0.040322 0.500000 0.655461
O O15 0.387950 0.500000 0.339468
O O16 0.420900 0.631465 0.209062
O O17 0.926996 0.000000 0.094353
O O18 0.000000 0.138577 0.000000
#
# Coordination Sequence:
#
# PCOD9191048 Si02
#       7
#     8   8   8   8   8   8   8
#     4   9  18  33  52  75 106 140 169 203 253 312
#     4   9  19  35  53  75 102 131 171 219 257 298
#     4  10  21  34  51  77 107 133 166 213 258 308
#     4  10  20  32  52  78 103 134 169 209 260 314
#     4   9  18  33  54  79 105 134 169 211 259 308
#     4  10  20  35  55  75 100 139 177 211 257 307
#     4   9  19  35  54  75  99 132 178 225 257 291
#
# _framework density 18.377988999999999
#
# number of rings (size 3 to 8) (size 9 to 14) (size 15 to 20)
#    0.000    2.571    0.000    1.286    0.000   13.143 
#    0.000    0.000    0.000    1.714    0.000    0.000 
#    0.000    0.000    0.000    0.000    0.000    0.000 
#
# Total GULP energy -156100.940275 kJ/mol
# GULP energy per Si atom -5575.033581 kJ/mol
# Density = 1.833616 g / cm^3
# Si number density = 18.377989 Si / 1000 Ang^3
#
#
#
# Elastic Constant Matrix: (Units=GPa)
#
#
# Indices 1 2 3 4 5 6 
#
# 1 49.9867 7.8864 48.3426 0.0000 1.6109 0.0000
# 2 7.8864 60.6246 50.5355 0.0000 8.0103 0.0000
# 3 48.3426 50.5355 148.2139 0.0000 7.0154 0.0000
# 4 0.0000 0.0000 0.0000 26.0350 0.0000 9.9831
# 5 1.6109 8.0103 7.0154 0.0000 30.3980 0.0000
# 6 0.0000 0.0000 0.0000 9.9831 0.0000 -199.1069
#
#
#
# Elastic Compliance Matrix: (Units=1/GPa)
#
#
# Indices 1 2 3 4 5 6 
#
# 1 0.030760 0.006153 -0.012109 0.000000 -0.000457 0.000000
# 2 0.006153 0.024847 -0.010266 0.000000 -0.004504 0.000000
# 3 -0.012109 -0.010266 0.014194 0.000000 0.000071 0.000000
# 4 0.000000 0.000000 0.000000 0.037685 0.000000 0.001890
# 5 -0.000457 -0.004504 0.000071 0.000000 0.034092 0.000000
# 6 0.000000 0.000000 0.000000 0.001890 0.000000 -0.004928
#
#
# Mechanical properties :
#
#
# Convention : Reuss Voigt Hill
#
# Bulk Modulus (GPa) = 26.76884 52.48380 39.62632
# Shear Modulus (GPa) = 27.54120 -18.39740 4.57190
#
# Velocity S-wave (km/s) = 3.87537 -3.16738 1.57896
# Velocity P-wave (km/s) = 5.88405 3.90430 4.99327
#
# Compressibility (1/GPa) = 0.03735687
#
# Stress axis : x y z
#
# Youngs Moduli (GPa) = 32.50939 40.24647 70.45478
#
# Poissons Ratio (x) = -0.24764 0.85316
# Poissons Ratio (y) = -0.20003 0.72326
# Poissons Ratio (z) = 0.39367 0.41315
#
# Static dielectric constant tensor:
#      x y z
#    x 1.641090 0.000000 -0.006650 
#    y 0.000000 1.604470 0.000000 
#    z -0.006650 0.000000 1.679560 
# 
# From -- ./inp_files/214167.got.cif
#   From: 2010.05.17/outbox.cif.g08.bks.cpg/sg12_108_cif.got.tgz:214167.got - 2010.06.03 13:09:07.
