data_PCOD9191207
_publ_section_title
;
Structure prediction by ZEFSAII (Michael W. Deem and Ramdas Pophale) SiO2 
 PCOD9191207
Probable space group: C 2/M
;
_chemical_formula_sum "Si O2"
_cell_formula_units_Z 38
_cell_length_a 14.375657
_cell_length_b 21.162865
_cell_length_c 9.101234
_cell_angle_alpha 90.000000
_cell_angle_beta 137.360095
_cell_angle_gamma 90.000000
_cell_volume 1875.600109
_symmetry_space_group_name_H-M "C 2/M"
_symmetry_group_IT_number 12
_symmetry_cell_setting 'monoclinic'
loop_
_space_group_symop_operation_xyz
x,y,z
-x,y,-z
-x,-y,-z
x,-y,z
1/2+x,1/2+y,z
1/2-x,1/2+y,-z
1/2-x,1/2-y,-z
1/2+x,1/2-y,z
loop_
_atom_site_type_symbol
_atom_site_label
_atom_site_fract_x
_atom_site_fract_y
_atom_site_fract_z
Si Si1 0.659080 0.139777 0.669529
Si Si2 0.500000 0.500000 0.500000
Si Si3 0.116976 0.895105 0.847875
Si Si4 0.849475 0.158032 0.633336
Si Si5 0.720732 0.288369 0.767589
Si Si6 0.000000 0.262775 0.000000
O O1 0.500000 0.123960 0.500000
O O2 0.720560 0.133519 0.576505
O O3 0.679655 0.214889 0.728824
O O4 0.757037 0.100084 0.892657
O O5 0.592682 0.445407 0.692496
O O6 0.142275 0.827643 0.799246
O O7 0.973515 0.891611 0.768825
O O8 0.815413 0.181564 0.431754
O O9 0.910038 0.217707 0.791864
O O10 0.886396 0.297074 0.967000
#
# Coordination Sequence:
#
# PCOD9191207 Si02
#       6
#     8   2   8   8   8   4
#     4  11  23  37  66 102 134 164 204 270 342 392
#     4  12  28  48  68  90 122 184 234 278 292 380
#     4  12  23  43  65  90 130 173 230 261 318 381
#     4  11  20  39  58  97 136 169 206 256 328 402
#     4  11  22  33  64  97 141 168 205 265 331 401
#     4  10  20  32  58  98 140 164 196 258 342 400
#
# _framework density 20.260182
#
# number of rings (size 3 to 8) (size 9 to 14) (size 15 to 20)
#    0.000    0.842    6.316    4.421    5.895    0.000 
#    0.000    2.632    0.000    4.421    0.000    0.000 
#    0.000    0.000    0.000    0.000    0.000    0.000 
#
# Total GULP energy -105848.873110 kJ/mol
# GULP energy per Si atom -5570.993322 kJ/mol
# Density = 2.021407 g / cm^3
# Si number density = 20.260182 Si / 1000 Ang^3
#
#
#
# Elastic Constant Matrix: (Units=GPa)
#
#
# Indices 1 2 3 4 5 6 
#
# 1 114.9350 -3.6088 46.9167 0.0000 24.6569 0.0000
# 2 -3.6088 28.1161 9.4416 0.0000 5.7243 0.0000
# 3 46.9167 9.4416 126.9624 0.0000 10.0944 0.0000
# 4 0.0000 0.0000 0.0000 77.9067 0.0000 -28.7035
# 5 24.6569 5.7243 10.0944 0.0000 45.7290 0.0000
# 6 0.0000 0.0000 0.0000 -28.7035 0.0000 7.1662
#
#
#
# Elastic Compliance Matrix: (Units=1/GPa)
#
#
# Indices 1 2 3 4 5 6 
#
# 1 0.011827 0.004145 -0.004204 0.000000 -0.005968 0.000000
# 2 0.004145 0.038678 -0.003914 0.000000 -0.006213 0.000000
# 3 -0.004204 -0.003914 0.009672 0.000000 0.000622 0.000000
# 4 0.000000 0.000000 0.000000 -0.026982 0.000000 -0.108072
# 5 -0.005968 -0.006213 0.000622 0.000000 0.025726 0.000000
# 6 0.000000 0.000000 0.000000 -0.108072 0.000000 -0.293328
#
#
# Mechanical properties :
#
#
# Convention : Reuss Voigt Hill
#
# Bulk Modulus (GPa) = 19.14606 41.72362 30.43484
# Shear Modulus (GPa) = -23.91775 40.64465 8.36345
#
# Velocity S-wave (km/s) = -3.43961 4.48385 2.03396
# Velocity P-wave (km/s) = 2.51077 6.88804 4.53548
#
# Compressibility (1/GPa) = 0.05223006
#
# Stress axis : x y z
#
# Youngs Moduli (GPa) = 84.55071 25.85447 103.39558
#
# Poissons Ratio (x) = -0.10717 0.43470
# Poissons Ratio (y) = -0.35046 0.40470
# Poissons Ratio (z) = 0.35548 0.10120
#
# Static dielectric constant tensor:
#      x y z
#    x 1.822740 0.000000 -0.001410 
#    y 0.000000 1.684160 0.000000 
#    z -0.001410 0.000000 1.763910 
# 
# From -- ./inp_files/65622.got.cif
#   From: 2010.05.17/outbox.cif.g08.bks.cpg/sg12_33_cif.got.tgz:65622.got - 2010.06.03 13:09:07.
