data_PCOD9191493
_publ_section_title
;
Structure prediction by ZEFSAII (Michael W. Deem and Ramdas Pophale) SiO2 
 PCOD9191493
Probable space group: C 2/M
;
_chemical_formula_sum "Si O2"
_cell_formula_units_Z 48
_cell_length_a 18.119012
_cell_length_b 9.686746
_cell_length_c 15.659106
_cell_angle_alpha 90.000000
_cell_angle_beta 118.230847
_cell_angle_gamma 90.000000
_cell_volume 2421.471755
_symmetry_space_group_name_H-M "C 2/M"
_symmetry_group_IT_number 12
_symmetry_cell_setting 'monoclinic'
loop_
_space_group_symop_operation_xyz
x,y,z
-x,y,-z
-x,-y,-z
x,-y,z
1/2+x,1/2+y,z
1/2-x,1/2+y,-z
1/2-x,1/2-y,-z
1/2+x,1/2-y,z
loop_
_atom_site_type_symbol
_atom_site_label
_atom_site_fract_x
_atom_site_fract_y
_atom_site_fract_z
Si Si1 0.086782 0.160125 0.098169
Si Si2 0.392124 0.846423 0.235590
Si Si3 0.906146 0.655289 0.445976
Si Si4 0.926705 0.335874 0.738719
Si Si5 0.758244 0.341330 0.840063
Si Si6 0.255895 0.343824 0.376676
O O1 0.070362 0.237582 0.178077
O O2 0.161339 0.247331 0.095493
O O3 0.112359 0.000000 0.124109
O O4 0.000000 0.163343 0.000000
O O5 0.386124 0.855203 0.334537
O O6 0.488410 0.814536 0.266839
O O7 0.325321 0.732311 0.171011
O O8 0.372756 0.000000 0.190174
O O9 0.909907 0.500000 0.485355
O O10 0.830990 0.743848 0.442593
O O11 0.000000 0.715514 0.500000
O O12 0.923367 0.500000 0.760537
O O13 0.837815 0.306254 0.645218
O O14 0.766991 0.500000 0.872159
O O15 0.751193 0.342706 0.731784
O O16 0.274914 0.500000 0.413383
#
# Coordination Sequence:
#
# PCOD9191493 Si02
#       6
#     8   8   8   8   8   8
#     4  10  20  33  50  72  96 122 154 192 234 281
#     4   9  17  31  50  70  95 126 158 194 235 276
#     4   9  17  29  46  68  93 123 158 193 231 276
#     4   9  18  32  50  71  94 123 158 195 235 278
#     4   9  17  30  49  71  94 123 159 193 228 277
#     4   8  15  28  45  65  89 119 155 191 229 275
#
# _framework density 19.822655000000001
#
# number of rings (size 3 to 8) (size 9 to 14) (size 15 to 20)
#    0.000    3.000    0.000    2.000    0.000    6.333 
#    0.000    1.667    0.000    0.000    0.000    0.000 
#    0.000    0.000    0.000    0.000    0.000    0.000 
#
# Total GULP energy -133766.506773 kJ/mol
# GULP energy per Si atom -5573.604449 kJ/mol
# Density = 1.977754 g / cm^3
# Si number density = 19.822655 Si / 1000 Ang^3
#
#
#
# Elastic Constant Matrix: (Units=GPa)
#
#
# Indices 1 2 3 4 5 6 
#
# 1 140.5186 87.0204 26.6682 0.0000 39.7241 0.0000
# 2 87.0204 116.8790 44.1689 0.0000 28.9820 0.0000
# 3 26.6682 44.1689 35.8515 0.0000 19.9054 0.0000
# 4 0.0000 0.0000 0.0000 20.6409 0.0000 9.2085
# 5 39.7241 28.9820 19.9054 0.0000 27.2438 0.0000
# 6 0.0000 0.0000 0.0000 9.2085 0.0000 46.6217
#
#
#
# Elastic Compliance Matrix: (Units=1/GPa)
#
#
# Indices 1 2 3 4 5 6 
#
# 1 0.021837 -0.016869 0.020617 0.000000 -0.028959 0.000000
# 2 -0.016869 0.029361 -0.033549 0.000000 0.017874 0.000000
# 3 0.020617 -0.033549 0.085414 0.000000 -0.056779 0.000000
# 4 0.000000 0.000000 0.000000 0.053129 0.000000 -0.010494
# 5 -0.028959 0.017874 -0.056779 0.000000 0.101401 0.000000
# 6 0.000000 0.000000 0.000000 -0.010494 0.000000 0.023522
#
#
# Mechanical properties :
#
#
# Convention : Reuss Voigt Hill
#
# Bulk Modulus (GPa) = 12.98523 67.66266 40.32395
# Shear Modulus (GPa) = 12.50207 27.92741 20.21474
#
# Velocity S-wave (km/s) = 2.51409 3.75755 3.19686
# Velocity P-wave (km/s) = 3.87201 7.28243 5.83207
#
# Compressibility (1/GPa) = 0.07701057
#
# Stress axis : x y z
#
# Youngs Moduli (GPa) = 45.79481 34.05837 11.70775
#
# Poissons Ratio (x) = 0.57452 -0.24138
# Poissons Ratio (y) = 0.77249 0.39278
# Poissons Ratio (z) = -0.94416 1.14263
#
# Static dielectric constant tensor:
#      x y z
#    x 1.719740 0.000000 -0.009700 
#    y 0.000000 1.697090 0.000000 
#    z -0.009700 0.000000 1.706570 
# 
# From -- ./inp_files/273622.got.cif
#   From: 2010.05.17/outbox.cif.g08.bks.cpg/sg12_137_cif.got.tgz:273622.got - 2010.06.03 13:09:07.
