data_PCOD9191619
_publ_section_title
;
Structure prediction by ZEFSAII (Michael W. Deem and Ramdas Pophale) SiO2 
 PCOD9191619
Probable space group: C 2/M
;
_chemical_formula_sum "Si O2"
_cell_formula_units_Z 32
_cell_length_a 12.408358
_cell_length_b 13.307357
_cell_length_c 15.439063
_cell_angle_alpha 90.000000
_cell_angle_beta 30.899969
_cell_angle_gamma 90.000000
_cell_volume 1309.187968
_symmetry_space_group_name_H-M "C 2/M"
_symmetry_group_IT_number 12
_symmetry_cell_setting 'monoclinic'
loop_
_space_group_symop_operation_xyz
x,y,z
-x,y,-z
-x,-y,-z
x,-y,z
1/2+x,1/2+y,z
1/2-x,1/2+y,-z
1/2-x,1/2-y,-z
1/2+x,1/2-y,z
loop_
_atom_site_type_symbol
_atom_site_label
_atom_site_fract_x
_atom_site_fract_y
_atom_site_fract_z
Si Si1 0.659197 0.163875 0.765534
Si Si2 0.690790 0.663792 0.159931
Si Si3 0.086911 0.340471 0.628552
Si Si4 0.704298 0.607005 0.679615
O O1 0.804337 0.127338 0.743839
O O2 0.663459 0.115858 0.667273
O O3 0.709441 0.283750 0.720937
O O4 0.420893 0.152204 0.962550
O O5 0.630210 0.782709 0.203994
O O6 0.514648 0.612321 0.223456
O O7 0.250000 0.250000 0.500000
O O8 0.112549 0.395526 0.520162
O O9 0.703857 0.500000 0.728022
#
# Coordination Sequence:
#
# PCOD9191619 Si02
#       4
#     8   8   8   8
#     4   9  17  33  55  74  96 135 172 198 243 309
#     4   9  17  33  55  74  96 135 172 198 243 309
#     4   8  16  29  47  69  97 132 162 192 241 300
#     4  10  20  33  50  77 105 128 163 214 251 280
#
# _framework density 24.442633000000001
#
# number of rings (size 3 to 8) (size 9 to 14) (size 15 to 20)
#    0.000    3.500    0.000    3.000    0.000    9.000 
#    0.000   15.000    0.000    0.000    0.000    0.000 
#    0.000    0.000    0.000    0.000    0.000    0.000 
#
# Total GULP energy -89168.526659 kJ/mol
# GULP energy per Si atom -5573.032916 kJ/mol
# Density = 2.438700 g / cm^3
# Si number density = 24.442633 Si / 1000 Ang^3
#
#
#
# Elastic Constant Matrix: (Units=GPa)
#
#
# Indices 1 2 3 4 5 6 
#
# 1 102.9409 -8.0989 14.1951 -0.0012 8.2275 -0.0003
# 2 -8.0989 98.7026 -6.3004 -0.0298 -3.8761 0.0097
# 3 14.1951 -6.3004 67.6394 -0.0356 -1.7955 0.0135
# 4 -0.0012 -0.0298 -0.0356 -0.1001 0.0090 -2.4779
# 5 8.2275 -3.8761 -1.7955 0.0090 41.8775 -0.0004
# 6 -0.0003 0.0097 0.0135 -2.4779 -0.0004 3.1300
#
#
#
# Elastic Compliance Matrix: (Units=1/GPa)
#
#
# Indices 1 2 3 4 5 6 
#
# 1 0.010222 0.000622 -0.002141 0.000003 -0.002042 0.000011
# 2 0.000622 0.010271 0.000849 -0.000117 0.000865 -0.000128
# 3 -0.002141 0.000849 0.015343 -0.000188 0.001157 -0.000218
# 4 0.000003 -0.000117 -0.000188 -0.485016 0.000080 -0.383967
# 5 -0.002042 0.000865 0.001157 0.000080 0.024410 0.000059
# 6 0.000011 -0.000128 -0.000218 -0.383967 0.000059 0.015522
#
#
# Mechanical properties :
#
#
# Convention : Reuss Voigt Hill
#
# Bulk Modulus (GPa) = 28.98993 29.87494 29.43243
# Shear Modulus (GPa) = -12.61324 26.94727 7.16701
#
# Velocity S-wave (km/s) = -2.27410 3.32395 1.71422
# Velocity P-wave (km/s) = 2.23400 5.19428 3.99820
#
# Compressibility (1/GPa) = 0.03449474
#
# Stress axis : x y z
#
# Youngs Moduli (GPa) = 97.83030 97.36515 65.17439
#
# Poissons Ratio (x) = -0.06054 0.13957
# Poissons Ratio (y) = -0.06083 -0.05534
# Poissons Ratio (z) = 0.20950 -0.08267
#
# Static dielectric constant tensor:
#      x y z
#    x 2.043580 -0.000010 0.012100 
#    y -0.000010 2.039190 0.000010 
#    z 0.012100 0.000010 1.960500 
# 
# From -- ./inp_files/59447.got.cif
#   From: 2010.05.17/outbox.cif.g08.bks.cpg/sg12_30_cif.got.tgz:59447.got - 2010.06.03 13:09:07.
