data_PCOD9191399
_publ_section_title
;
Structure prediction by ZEFSAII (Michael W. Deem and Ramdas Pophale) SiO2 
 PCOD9191399
Probable space group: C 2/M
;
_chemical_formula_sum "Si O2"
_cell_formula_units_Z 40
_cell_length_a 16.702098
_cell_length_b 7.323926
_cell_length_c 13.929681
_cell_angle_alpha 90.000000
_cell_angle_beta 117.717227
_cell_angle_gamma 90.000000
_cell_volume 1508.425817
_symmetry_space_group_name_H-M "C 2/M"
_symmetry_group_IT_number 12
_symmetry_cell_setting 'monoclinic'
loop_
_space_group_symop_operation_xyz
x,y,z
-x,y,-z
-x,-y,-z
x,-y,z
1/2+x,1/2+y,z
1/2-x,1/2+y,-z
1/2-x,1/2-y,-z
1/2+x,1/2-y,z
loop_
_atom_site_type_symbol
_atom_site_label
_atom_site_fract_x
_atom_site_fract_y
_atom_site_fract_z
Si Si1 0.933764 0.212532 0.766835
Si Si2 0.730936 0.778376 0.637599
Si Si3 0.602305 0.290817 0.964801
Si Si4 0.219108 0.721205 0.843629
Si Si5 0.557629 0.220615 0.440174
O O1 0.833467 0.290714 0.697565
O O2 0.974412 0.220473 0.682194
O O3 0.004832 0.290347 0.883347
O O4 0.922050 0.000000 0.785999
O O5 0.691233 0.733105 0.720537
O O6 0.660815 0.716495 0.517919
O O7 0.733951 0.000000 0.632654
O O8 0.587512 0.500000 0.985655
O O9 0.656644 0.291062 0.893908
O O10 0.677375 0.215301 0.079266
O O11 0.218532 0.500000 0.851191
O O12 0.500000 0.279898 0.500000
O O13 0.555284 0.000000 0.438156
#
# Coordination Sequence:
#
# PCOD9191399 Si02
#       5
#     8   8   8   8   8
#     4  10  20  33  49  72 101 127 155 196 242 285
#     4   9  18  32  50  72  97 126 161 198 236 281
#     4   9  18  31  49  74  99 124 158 198 238 281
#     4   9  17  32  53  72  94 127 162 196 235 280
#     4  10  20  34  52  72  94 125 165 200 232 280
#
# _framework density 26.517713000000001
#
# number of rings (size 3 to 8) (size 9 to 14) (size 15 to 20)
#    0.000    2.600    0.000    1.800    0.000    3.600 
#    0.000    6.000    0.000    0.000    0.000    7.000 
#    0.000    0.000    0.000    0.000    0.000    0.000 
#
# Total GULP energy -111871.468208 kJ/mol
# GULP energy per Si atom -5593.573410 kJ/mol
# Density = 2.645736 g / cm^3
# Si number density = 26.517713 Si / 1000 Ang^3
#
#
#
# Elastic Constant Matrix: (Units=GPa)
#
#
# Indices 1 2 3 4 5 6 
#
# 1 88.2288 -0.4084 13.6415 0.0000 12.5081 0.0000
# 2 -0.4084 111.1470 2.5927 0.0000 4.0212 0.0000
# 3 13.6415 2.5927 159.7657 0.0000 18.3603 0.0000
# 4 0.0000 0.0000 0.0000 3.1133 0.0000 -1.5897
# 5 12.5081 4.0212 18.3603 0.0000 54.8782 0.0000
# 6 0.0000 0.0000 0.0000 -1.5897 0.0000 -0.9317
#
#
#
# Elastic Compliance Matrix: (Units=1/GPa)
#
#
# Indices 1 2 3 4 5 6 
#
# 1 0.011796 0.000149 -0.000727 0.000000 -0.002456 0.000000
# 2 0.000149 0.009024 -0.000082 0.000000 -0.000668 0.000000
# 3 -0.000727 -0.000082 0.006555 0.000000 -0.002021 0.000000
# 4 0.000000 0.000000 0.000000 0.171656 0.000000 -0.292877
# 5 -0.002456 -0.000668 -0.002021 0.000000 0.019507 0.000000
# 6 0.000000 0.000000 0.000000 -0.292877 0.000000 -0.573590
#
#
# Mechanical properties :
#
#
# Convention : Reuss Voigt Hill
#
# Bulk Modulus (GPa) = 38.38345 43.42147 40.90246
# Shear Modulus (GPa) = -14.49078 34.29968 9.90445
#
# Velocity S-wave (km/s) = -2.34018 3.60038 1.93472
# Velocity P-wave (km/s) = 2.68406 5.80463 4.52205
#
# Compressibility (1/GPa) = 0.02605289
#
# Stress axis : x y z
#
# Youngs Moduli (GPa) = 84.77801 110.81908 152.55804
#
# Poissons Ratio (x) = -0.01653 0.11096
# Poissons Ratio (y) = -0.01265 0.01258
# Poissons Ratio (z) = 0.06166 0.00914
#
# Static dielectric constant tensor:
#      x y z
#    x 2.126440 0.000000 0.035050 
#    y 0.000000 2.050820 0.000000 
#    z 0.035050 0.000000 1.998980 
# 
# From -- ./inp_files/140805.got.cif
#   From: 2010.05.17/outbox.cif.g08.bks.cpg/sg12_71_cif.got.tgz:140805.got - 2010.06.03 13:09:07.
