data_PCOD9191151
_publ_section_title
;
Structure prediction by ZEFSAII (Michael W. Deem and Ramdas Pophale) SiO2 
 PCOD9191151
Probable space group: C 2/M
;
_chemical_formula_sum "Si O2"
_cell_formula_units_Z 64
_cell_length_a 29.185943
_cell_length_b 10.462241
_cell_length_c 14.446035
_cell_angle_alpha 90.000000
_cell_angle_beta 129.718828
_cell_angle_gamma 90.000000
_cell_volume 3392.973913
_symmetry_space_group_name_H-M "C 2/M"
_symmetry_group_IT_number 12
_symmetry_cell_setting 'monoclinic'
loop_
_space_group_symop_operation_xyz
x,y,z
-x,y,-z
-x,-y,-z
x,-y,z
1/2+x,1/2+y,z
1/2-x,1/2+y,-z
1/2-x,1/2-y,-z
1/2+x,1/2-y,z
loop_
_atom_site_type_symbol
_atom_site_label
_atom_site_fract_x
_atom_site_fract_y
_atom_site_fract_z
Si Si1 0.750741 0.859059 0.577430
Si Si2 0.361080 0.751703 0.818544
Si Si3 0.147763 0.147735 0.692015
Si Si4 0.375378 0.854741 0.484602
Si Si5 0.288902 0.144837 0.895591
Si Si6 0.644161 0.353591 0.902255
Si Si7 0.558815 0.853925 0.236385
Si Si8 0.957995 0.144437 0.078163
O O1 0.750000 0.750000 0.500000
O O2 0.810031 0.840620 0.713907
O O3 0.692466 0.847567 0.565678
O O4 0.749799 0.000000 0.532822
O O5 0.329408 0.835858 0.856813
O O6 0.388368 0.831389 0.769180
O O7 0.414361 0.675208 0.936402
O O8 0.117810 0.247865 0.584455
O O9 0.219666 0.162184 0.780990
O O10 0.131814 0.170198 0.778707
O O11 0.133764 0.000000 0.650305
O O12 0.415962 0.834785 0.627669
O O13 0.385367 0.000000 0.463470
O O14 0.296199 0.000000 0.940545
O O15 0.310519 0.251011 0.996363
O O16 0.667448 0.500000 0.940424
O O17 0.584554 0.347015 0.886692
O O18 0.508202 0.751290 0.149513
O O19 0.537199 0.000000 0.199890
O O20 0.981709 0.000000 0.101949
#
# Coordination Sequence:
#
# PCOD9191151 Si02
#       8
#     8   8   8   8   8   8   8   8
#     4  11  22  37  58  85 120 159 193 233 287 344
#     4  11  21  37  60  88 120 153 191 233 284 344
#     4  10  20  36  58  86 115 150 192 236 288 348
#     4  10  22  39  57  84 118 154 192 234 287 345
#     4  10  20  32  54  88 120 150 188 230 282 350
#     4   9  20  38  58  81 115 151 190 241 294 341
#     4  11  24  41  59  82 116 156 195 239 287 337
#     4  10  23  41  60  84 112 149 198 245 285 337
#
# _framework density 18.862508999999999
#
# number of rings (size 3 to 8) (size 9 to 14) (size 15 to 20)
#    0.000    1.750    2.500    1.500    0.000    7.500 
#    0.000    0.625    0.000    3.750    0.000    0.000 
#    0.000    0.000    0.000    0.000    0.000    0.000 
#
# Total GULP energy -178721.663621 kJ/mol
# GULP energy per Si atom -5585.051988 kJ/mol
# Density = 1.881958 g / cm^3
# Si number density = 18.862509 Si / 1000 Ang^3
#
#
#
# Elastic Constant Matrix: (Units=GPa)
#
#
# Indices 1 2 3 4 5 6 
#
# 1 35.1838 30.2276 25.4056 0.0000 -11.3184 0.0000
# 2 30.2276 113.9565 58.0699 0.0000 -11.2880 0.0000
# 3 25.4056 58.0699 87.1166 0.0000 -3.8160 0.0000
# 4 0.0000 0.0000 0.0000 33.8170 0.0000 -1.5709
# 5 -11.3184 -11.2880 -3.8160 0.0000 30.9922 0.0000
# 6 0.0000 0.0000 0.0000 -1.5709 0.0000 15.2834
#
#
#
# Elastic Compliance Matrix: (Units=1/GPa)
#
#
# Indices 1 2 3 4 5 6 
#
# 1 0.043649 -0.006237 -0.008016 0.000000 0.012682 0.000000
# 2 -0.006237 0.014634 -0.007844 0.000000 0.002086 0.000000
# 3 -0.008016 -0.007844 0.018894 0.000000 -0.003458 0.000000
# 4 0.000000 0.000000 0.000000 0.029713 0.000000 0.003054
# 5 0.012682 0.002086 -0.003458 0.000000 0.037232 0.000000
# 6 0.000000 0.000000 0.000000 0.003054 0.000000 0.065744
#
#
# Mechanical properties :
#
#
# Convention : Reuss Voigt Hill
#
# Bulk Modulus (GPa) = 30.32008 51.51814 40.91911
# Shear Modulus (GPa) = 18.86413 24.18877 21.52645
#
# Velocity S-wave (km/s) = 3.16584 3.58491 3.38187
# Velocity P-wave (km/s) = 5.42887 6.67137 6.08193
#
# Compressibility (1/GPa) = 0.03298144
#
# Stress axis : x y z
#
# Youngs Moduli (GPa) = 22.91021 68.33623 52.92722
#
# Poissons Ratio (x) = 0.42621 0.42428
# Poissons Ratio (y) = 0.14289 0.41517
# Poissons Ratio (z) = 0.18365 0.53604
#
# Static dielectric constant tensor:
#      x y z
#    x 1.654170 0.000000 -0.005440 
#    y 0.000000 1.651220 0.000000 
#    z -0.005440 0.000000 1.631790 
# 
# From -- ./inp_files/250034.got.cif
#   From: 2010.05.17/outbox.cif.g08.bks.cpg/sg12_126_cif.got.tgz:250034.got - 2010.06.03 13:09:07.
