data_PCOD9191276
_publ_section_title
;
Structure prediction by ZEFSAII (Michael W. Deem and Ramdas Pophale) SiO2 
 PCOD9191276
Probable space group: C 2/M
;
_chemical_formula_sum "Si O2"
_cell_formula_units_Z 48
_cell_length_a 18.709828
_cell_length_b 11.046984
_cell_length_c 10.286709
_cell_angle_alpha 90.000000
_cell_angle_beta 87.303017
_cell_angle_gamma 90.000000
_cell_volume 2123.775777
_symmetry_space_group_name_H-M "C 2/M"
_symmetry_group_IT_number 12
_symmetry_cell_setting 'monoclinic'
loop_
_space_group_symop_operation_xyz
x,y,z
-x,y,-z
-x,-y,-z
x,-y,z
1/2+x,1/2+y,z
1/2-x,1/2+y,-z
1/2-x,1/2-y,-z
1/2+x,1/2-y,z
loop_
_atom_site_type_symbol
_atom_site_label
_atom_site_fract_x
_atom_site_fract_y
_atom_site_fract_z
Si Si1 0.284567 0.859471 0.577839
Si Si2 0.563994 0.138959 0.800720
Si Si3 0.447178 0.855228 0.616680
Si Si4 0.305208 0.372538 0.925298
Si Si5 0.146212 0.631874 0.048753
Si Si6 0.845175 0.130343 0.224651
O O1 0.250000 0.750000 0.500000
O O2 0.365874 0.822320 0.598159
O O3 0.233276 0.865964 0.707613
O O4 0.283752 0.000000 0.524267
O O5 0.485018 0.165693 0.753050
O O6 0.580920 0.139724 0.953037
O O7 0.612639 0.248212 0.742766
O O8 0.582133 0.000000 0.757018
O O9 0.500000 0.806082 0.500000
O O10 0.447039 0.000000 0.603175
O O11 0.322749 0.500000 0.858185
O O12 0.340324 0.251336 0.869138
O O13 0.336127 0.374335 0.069790
O O14 0.219259 0.368116 0.952348
O O15 0.144042 0.500000 0.114907
O O16 0.878155 0.000000 0.261880
#
# Coordination Sequence:
#
# PCOD9191276 Si02
#       6
#     8   8   8   8   8   8
#     4  10  20  33  48  65  85 110 141 175 212 254
#     4   9  16  27  45  66  86 111 145 179 206 240
#     4   9  17  29  45  63  83 109 140 174 212 252
#     4   8  13  22  36  56  84 112 135 164 205 247
#     4   8  13  21  36  59  83 107 138 173 202 233
#     4   9  17  28  43  64  89 114 138 170 214 256
#
# _framework density 22.601255999999999
#
# number of rings (size 3 to 8) (size 9 to 14) (size 15 to 20)
#    0.000    3.167    0.000    1.000    0.000    2.000 
#    0.000    0.833    0.000    4.000    0.000    7.000 
#    0.000    0.000    0.000   55.500    0.000   27.000 
#
# Total GULP energy -133756.567163 kJ/mol
# GULP energy per Si atom -5573.190298 kJ/mol
# Density = 2.254981 g / cm^3
# Si number density = 22.601256 Si / 1000 Ang^3
#
#
#
# Elastic Constant Matrix: (Units=GPa)
#
#
# Indices 1 2 3 4 5 6 
#
# 1 130.2119 71.8888 36.0967 0.0000 29.7316 0.0000
# 2 71.8888 204.0443 40.7626 0.0000 21.3496 0.0000
# 3 36.0967 40.7626 67.4405 0.0000 17.7392 0.0000
# 4 0.0000 0.0000 0.0000 14.9736 0.0000 9.9174
# 5 29.7316 21.3496 17.7392 0.0000 39.6662 0.0000
# 6 0.0000 0.0000 0.0000 9.9174 0.0000 25.9879
#
#
#
# Elastic Compliance Matrix: (Units=1/GPa)
#
#
# Indices 1 2 3 4 5 6 
#
# 1 0.011333 -0.002826 -0.002860 0.000000 -0.005695 0.000000
# 2 -0.002826 0.006381 -0.002264 0.000000 -0.000304 0.000000
# 3 -0.002860 -0.002264 0.019088 0.000000 -0.005174 0.000000
# 4 0.000000 0.000000 0.000000 0.089374 0.000000 -0.034106
# 5 -0.005695 -0.000304 -0.005174 0.000000 0.031956 0.000000
# 6 0.000000 0.000000 0.000000 -0.034106 0.000000 0.051495
#
#
# Mechanical properties :
#
#
# Convention : Reuss Voigt Hill
#
# Bulk Modulus (GPa) = 47.84282 77.68811 62.76546
# Shear Modulus (GPa) = 21.50596 32.98876 27.24736
#
# Velocity S-wave (km/s) = 3.08805 3.82461 3.47590
# Velocity P-wave (km/s) = 5.82485 7.34517 6.62874
#
# Compressibility (1/GPa) = 0.02090178
#
# Stress axis : x y z
#
# Youngs Moduli (GPa) = 88.23871 156.72678 52.38829
#
# Poissons Ratio (x) = 0.44285 0.14983
# Poissons Ratio (y) = 0.24933 0.11862
# Poissons Ratio (z) = 0.25237 0.35488
#
# Static dielectric constant tensor:
#      x y z
#    x 1.848140 0.000000 -0.012620 
#    y 0.000000 1.936930 0.000000 
#    z -0.012620 0.000000 1.855450 
# 
# From -- ./inp_files/222584.got.cif
#   From: 2010.05.17/outbox.cif.g08.bks.cpg/sg12_112_cif.got.tgz:222584.got - 2010.06.03 13:09:07.
