data_PCOD9191281
_publ_section_title
;
Structure prediction by ZEFSAII (Michael W. Deem and Ramdas Pophale) SiO2 
 PCOD9191281
Probable space group: C 2/M
;
_chemical_formula_sum "Si O2"
_cell_formula_units_Z 64
_cell_length_a 33.435331
_cell_length_b 7.297867
_cell_length_c 12.067738
_cell_angle_alpha 90.000000
_cell_angle_beta 76.685449
_cell_angle_gamma 90.000000
_cell_volume 2865.457878
_symmetry_space_group_name_H-M "C 2/M"
_symmetry_group_IT_number 12
_symmetry_cell_setting 'monoclinic'
loop_
_space_group_symop_operation_xyz
x,y,z
-x,y,-z
-x,-y,-z
x,-y,z
1/2+x,1/2+y,z
1/2-x,1/2+y,-z
1/2-x,1/2-y,-z
1/2+x,1/2-y,z
loop_
_atom_site_type_symbol
_atom_site_label
_atom_site_fract_x
_atom_site_fract_y
_atom_site_fract_z
Si Si1 0.117294 0.776219 0.300162
Si Si2 0.816510 0.211269 0.914322
Si Si3 0.768738 0.777149 0.153699
Si Si4 0.038759 0.776288 0.227874
Si Si5 0.549812 0.291071 0.979605
Si Si6 0.713302 0.718154 0.609543
Si Si7 0.945194 0.775836 0.266150
Si Si8 0.868334 0.776268 0.460881
O O1 0.146919 0.710645 0.182815
O O2 0.070527 0.724119 0.302497
O O3 0.132032 0.716842 0.411416
O O4 0.118926 0.000000 0.299259
O O5 0.775476 0.218272 0.865026
O O6 0.827685 0.000000 0.927939
O O7 0.802650 0.286590 0.042346
O O8 0.776737 0.713736 0.273406
O O9 0.768472 0.000000 0.151798
O O10 0.056284 0.712291 0.097307
O O11 0.991429 0.718794 0.268637
O O12 0.037986 0.000000 0.223556
O O13 0.565454 0.500000 0.973636
O O14 0.500000 0.296950 0.000000
O O15 0.564375 0.212468 0.853474
O O16 0.708595 0.500000 0.624458
O O17 0.750000 0.750000 0.500000
O O18 0.671147 0.786882 0.582575
O O19 0.910247 0.720874 0.373553
O O20 0.945736 0.000000 0.261730
O O21 0.867700 0.000000 0.461806
#
# Coordination Sequence:
#
# PCOD9191281 Si02
#       8
#     8   8   8   8   8   8   8   8
#     4   9  16  24  35  53  77 107 141 171 206 255
#     4   9  17  30  47  66  90 116 141 178 225 263
#     4   9  18  31  47  67  87 112 148 183 217 261
#     4   8  13  20  31  48  70  99 134 168 202 246
#     4   7  10  17  28  42  62  92 129 163 198 241
#     4  10  20  33  48  66  89 116 147 181 217 261
#     4   8  13  21  32  47  71 101 131 166 206 246
#     4   9  17  26  36  53  77 107 140 172 209 252
#
# _framework density 22.335000000000001
#
# number of rings (size 3 to 8) (size 9 to 14) (size 15 to 20)
#    0.000    3.375    0.000    2.250    0.000    3.000 
#    0.000    7.500    0.000    0.000    0.000    0.000 
#    0.000    1.000    0.000    5.250    0.000   25.500 
#
# Total GULP energy -178543.423355 kJ/mol
# GULP energy per Si atom -5579.481980 kJ/mol
# Density = 2.228416 g / cm^3
# Si number density = 22.335000 Si / 1000 Ang^3
#
#
#
# Elastic Constant Matrix: (Units=GPa)
#
#
# Indices 1 2 3 4 5 6 
#
# 1 101.3203 -7.1857 81.7372 0.0000 0.2230 0.0000
# 2 -7.1857 92.1861 -2.5587 0.0000 -0.3102 0.0000
# 3 81.7372 -2.5587 166.1650 0.0000 0.1348 0.0000
# 4 0.0000 0.0000 0.0000 -10.5705 0.0000 -4.3557
# 5 0.2230 -0.3102 0.1348 0.0000 41.1137 0.0000
# 6 0.0000 0.0000 0.0000 -4.3557 0.0000 -10.3456
#
#
#
# Elastic Compliance Matrix: (Units=1/GPa)
#
#
# Indices 1 2 3 4 5 6 
#
# 1 0.016466 0.001059 -0.008083 0.000000 -0.000055 0.000000
# 2 0.001059 0.010921 -0.000353 0.000000 0.000078 0.000000
# 3 -0.008083 -0.000353 0.009989 0.000000 0.000008 0.000000
# 4 0.000000 0.000000 0.000000 -0.114460 0.000000 0.048190
# 5 -0.000055 0.000078 0.000008 0.000000 0.024324 0.000000
# 6 0.000000 0.000000 0.000000 0.048190 0.000000 -0.116948
#
#
# Mechanical properties :
#
#
# Convention : Reuss Voigt Hill
#
# Bulk Modulus (GPa) = 44.20652 55.96188 50.08420
# Shear Modulus (GPa) = -33.91779 23.21810 -5.34985
#
# Velocity S-wave (km/s) = -3.90114 3.22769 -1.54935
# Velocity P-wave (km/s) = 0.67559 6.24505 4.39000
#
# Compressibility (1/GPa) = 0.02262110
#
# Stress axis : x y z
#
# Youngs Moduli (GPa) = 60.73179 91.56974 100.11149
#
# Poissons Ratio (x) = -0.09697 0.80923
# Poissons Ratio (y) = -0.06431 0.03532
# Poissons Ratio (z) = 0.49091 0.03231
#
# Static dielectric constant tensor:
#      x y z
#    x 1.774490 0.000000 0.008240 
#    y 0.000000 1.717430 0.000000 
#    z 0.008240 0.000000 1.806990 
# 
# From -- ./inp_files/188324.got.cif
#   From: 2010.05.17/outbox.cif.g08.bks.cpg/sg12_95_cif.got.tgz:188324.got - 2010.06.03 13:09:07.
