data_PCOD9191294
_publ_section_title
;
Structure prediction by ZEFSAII (Michael W. Deem and Ramdas Pophale) SiO2 
 PCOD9191294
Probable space group: C 2/M
;
_chemical_formula_sum "Si O2"
_cell_formula_units_Z 48
_cell_length_a 24.867431
_cell_length_b 8.037079
_cell_length_c 15.739501
_cell_angle_alpha 90.000000
_cell_angle_beta 57.773302
_cell_angle_gamma 90.000000
_cell_volume 2661.105721
_symmetry_space_group_name_H-M "C 2/M"
_symmetry_group_IT_number 12
_symmetry_cell_setting 'monoclinic'
loop_
_space_group_symop_operation_xyz
x,y,z
-x,y,-z
-x,-y,-z
x,-y,z
1/2+x,1/2+y,z
1/2-x,1/2+y,-z
1/2-x,1/2-y,-z
1/2+x,1/2-y,z
loop_
_atom_site_type_symbol
_atom_site_label
_atom_site_fract_x
_atom_site_fract_y
_atom_site_fract_z
Si Si1 0.986793 0.701360 0.782426
Si Si2 0.822487 0.304480 0.778790
Si Si3 0.462948 0.202674 0.613866
Si Si4 0.845817 0.188986 0.944206
Si Si5 0.809441 0.690098 0.152474
Si Si6 0.442534 0.202994 0.111027
O O1 0.979082 0.500000 0.792050
O O2 0.995304 0.748061 0.676697
O O3 0.039272 0.746451 0.807827
O O4 0.920650 0.780673 0.867996
O O5 0.830086 0.500000 0.787639
O O6 0.816128 0.224189 0.877335
O O7 0.758988 0.274019 0.778933
O O8 0.888960 0.244302 0.682120
O O9 0.500000 0.264381 0.500000
O O10 0.462973 0.000000 0.609881
O O11 0.832110 0.000000 0.981198
O O12 0.823832 0.302867 0.039689
O O13 0.803142 0.500000 0.185827
O O14 0.873028 0.763815 0.141571
O O15 0.440975 0.000000 0.105598
O O16 0.500000 0.257415 0.000000
#
# Coordination Sequence:
#
# PCOD9191294 Si02
#       6
#     8   8   8   8   8   8
#     4   9  16  30  50  71  95 125 161 198 232 273
#     4  10  20  33  48  68  95 123 157 196 239 284
#     4   8  15  29  52  76  92 112 151 202 246 280
#     4  11  20  30  45  68  98 128 160 193 234 280
#     4  11  20  31  47  66  95 130 163 194 229 275
#     4   9  16  28  47  68  93 128 166 193 222 269
#
# _framework density 18.037616
#
# number of rings (size 3 to 8) (size 9 to 14) (size 15 to 20)
#    0.000    2.333    1.667    4.000    0.000    0.000 
#    0.000    2.500    0.000   13.500    0.000    0.000 
#    0.000    0.000    0.000    0.000    0.000    0.833 
#
# Total GULP energy -133815.540520 kJ/mol
# GULP energy per Si atom -5575.647522 kJ/mol
# Density = 1.799656 g / cm^3
# Si number density = 18.037616 Si / 1000 Ang^3
#
#
#
# Elastic Constant Matrix: (Units=GPa)
#
#
# Indices 1 2 3 4 5 6 
#
# 1 164.3632 3.9491 64.1119 0.0000 -12.3903 0.0001
# 2 3.9491 23.0846 -4.1622 0.0001 1.2707 0.0002
# 3 64.1119 -4.1622 93.8712 0.0000 6.4003 0.0000
# 4 0.0000 0.0001 0.0000 7.7391 0.0000 -5.5126
# 5 -12.3903 1.2707 6.4003 0.0000 14.3757 0.0000
# 6 0.0001 0.0002 0.0000 -5.5126 0.0000 17.7911
#
#
#
# Elastic Compliance Matrix: (Units=1/GPa)
#
#
# Indices 1 2 3 4 5 6 
#
# 1 0.010297 -0.003924 -0.008080 0.000000 0.012819 0.000000
# 2 -0.003924 0.045496 0.005365 -0.000001 -0.009792 -0.000001
# 3 -0.008080 0.005365 0.017446 0.000000 -0.015206 0.000000
# 4 0.000000 -0.000001 0.000000 0.165808 0.000000 0.051376
# 5 0.012819 -0.009792 -0.015206 0.000000 0.088246 0.000000
# 6 0.000000 -0.000001 0.000000 0.051376 0.000000 0.072126
#
#
# Mechanical properties :
#
#
# Convention : Reuss Voigt Hill
#
# Bulk Modulus (GPa) = 16.67764 45.45742 31.06753
# Shear Modulus (GPa) = 11.55573 22.47587 17.01580
#
# Velocity S-wave (km/s) = 2.53385 3.53378 3.07473
# Velocity P-wave (km/s) = 4.22216 6.47351 5.46502
#
# Compressibility (1/GPa) = 0.05996051
#
# Stress axis : x y z
#
# Youngs Moduli (GPa) = 97.12017 21.97973 57.31906
#
# Poissons Ratio (x) = 0.08625 0.46315
# Poissons Ratio (y) = 0.38110 -0.30751
# Poissons Ratio (z) = 0.78476 -0.11792
#
# Static dielectric constant tensor:
#      x y z
#    x 1.654910 0.000000 -0.014210 
#    y 0.000000 1.644960 0.000000 
#    z -0.014210 0.000000 1.596300 
# 
# From -- ./inp_files/229828.got.cif
#   From: 2010.05.17/outbox.cif.g08.bks.cpg/sg12_115_cif.got.tgz:229828.got - 2010.06.03 13:09:07.
