data_PCOD9191478
_publ_section_title
;
Structure prediction by ZEFSAII (Michael W. Deem and Ramdas Pophale) SiO2 
 PCOD9191478
Probable space group: C 2/M
;
_chemical_formula_sum "Si O2"
_cell_formula_units_Z 56
_cell_length_a 27.917480
_cell_length_b 20.736643
_cell_length_c 5.425372
_cell_angle_alpha 90.000000
_cell_angle_beta 85.391478
_cell_angle_gamma 90.000000
_cell_volume 3130.673745
_symmetry_space_group_name_H-M "C 2/M"
_symmetry_group_IT_number 12
_symmetry_cell_setting 'monoclinic'
loop_
_space_group_symop_operation_xyz
x,y,z
-x,y,-z
-x,-y,-z
x,-y,z
1/2+x,1/2+y,z
1/2-x,1/2+y,-z
1/2-x,1/2-y,-z
1/2+x,1/2-y,z
loop_
_atom_site_type_symbol
_atom_site_label
_atom_site_fract_x
_atom_site_fract_y
_atom_site_fract_z
Si Si1 0.354787 0.245185 0.288251
Si Si2 0.697553 0.636967 0.893691
Si Si3 0.294634 0.839694 0.617241
Si Si4 0.446567 0.200456 0.508211
Si Si5 0.278461 0.424571 0.609785
Si Si6 0.619753 0.136694 0.091032
Si Si7 0.547762 0.069885 0.813771
O O1 0.340361 0.306749 0.138171
O O2 0.314514 0.228513 0.510871
O O3 0.407155 0.245019 0.391453
O O4 0.355110 0.182062 0.118358
O O5 0.751342 0.666434 0.830673
O O6 0.693856 0.588726 0.659998
O O7 0.695942 0.603604 0.158804
O O8 0.270178 0.883725 0.417946
O O9 0.340868 0.875013 0.715448
O O10 0.500000 0.227770 0.500000
O O11 0.423194 0.180040 0.776470
O O12 0.450787 0.132005 0.361889
O O13 0.269162 0.500000 0.645228
O O14 0.593909 0.077541 0.971802
O O15 0.548521 0.000000 0.686015
O O16 0.500000 0.072980 0.000000
#
# Coordination Sequence:
#
# PCOD9191478 Si02
#       7
#     8   8   8   8   8   8   8
#     4  10  21  35  54  84 104 141 185 222 279 325
#     4  10  22  37  61  80 113 145 185 227 265 329
#     4   9  21  34  55  79 110 146 180 230 267 328
#     4  10  20  35  52  73 105 139 176 232 285 326
#     4  10  22  38  56  81 113 150 183 221 270 318
#     4  10  20  34  52  74 106 139 182 232 281 321
#     4  10  20  33  50  71  97 140 195 238 274 321
#
# _framework density 17.887523999999999
#
# number of rings (size 3 to 8) (size 9 to 14) (size 15 to 20)
#    0.857    1.286    1.429    1.714    4.000    2.571 
#    0.000    8.571    0.000    0.000    0.000    0.000 
#    0.000    3.429    0.000    0.000    0.000    0.000 
#
# Total GULP energy -156009.732083 kJ/mol
# GULP energy per Si atom -5571.776146 kJ/mol
# Density = 1.784681 g / cm^3
# Si number density = 17.887524 Si / 1000 Ang^3
#
#
#
# Elastic Constant Matrix: (Units=GPa)
#
#
# Indices 1 2 3 4 5 6 
#
# 1 70.3406 32.2847 9.8374 0.0000 16.7685 0.0000
# 2 32.2847 45.3475 7.9257 0.0000 21.6532 0.0000
# 3 9.8374 7.9257 60.7023 0.0000 17.5216 0.0000
# 4 0.0000 0.0000 0.0000 9.4928 0.0000 9.9230
# 5 16.7685 21.6532 17.5216 0.0000 29.1591 0.0000
# 6 0.0000 0.0000 0.0000 9.9230 0.0000 -5.0954
#
#
#
# Elastic Compliance Matrix: (Units=1/GPa)
#
#
# Indices 1 2 3 4 5 6 
#
# 1 0.021254 -0.014642 -0.001383 0.000000 -0.000518 0.000000
# 2 -0.014642 0.044867 0.004478 0.000000 -0.027588 0.000000
# 3 -0.001383 0.004478 0.020378 0.000000 -0.014775 0.000000
# 4 0.000000 0.000000 0.000000 0.034701 0.000000 0.067579
# 5 -0.000518 -0.027588 -0.014775 0.000000 0.063958 0.000000
# 6 0.000000 0.000000 0.000000 0.067579 0.000000 -0.064649
#
#
# Mechanical properties :
#
#
# Convention : Reuss Voigt Hill
#
# Bulk Modulus (GPa) = 15.77178 30.72065 23.24621
# Shear Modulus (GPa) = 30.35120 15.13415 22.74267
#
# Velocity S-wave (km/s) = 4.12367 2.91189 3.56958
# Velocity P-wave (km/s) = 5.61330 5.34014 5.47842
#
# Compressibility (1/GPa) = 0.06340438
#
# Stress axis : x y z
#
# Youngs Moduli (GPa) = 47.04989 22.28811 49.07223
#
# Poissons Ratio (x) = 0.32635 0.06787
# Poissons Ratio (y) = 0.68892 -0.21975
# Poissons Ratio (z) = 0.06507 -0.09981
#
# Static dielectric constant tensor:
#      x y z
#    x 1.623230 0.000000 -0.002680 
#    y 0.000000 1.579160 0.000000 
#    z -0.002680 0.000000 1.701430 
# 
# From -- ./inp_files/25416.got.cif
#   From: 2010.05.17/outbox.cif.g08.bks.cpg/sg12_13_cif.got.tgz:25416.got - 2010.06.03 13:09:07.
