data_PCOD9191870
_publ_section_title
;
Structure prediction by ZEFSAII (Michael W. Deem and Ramdas Pophale) SiO2 
 PCOD9191870
Probable space group: C 2/M
;
_chemical_formula_sum "Si O2"
_cell_formula_units_Z 50
_cell_length_a 9.109000
_cell_length_b 18.534963
_cell_length_c 15.967391
_cell_angle_alpha 90.000000
_cell_angle_beta 60.544818
_cell_angle_gamma 90.000000
_cell_volume 2347.389661
_symmetry_space_group_name_H-M "C 2/M"
_symmetry_group_IT_number 12
_symmetry_cell_setting 'monoclinic'
loop_
_space_group_symop_operation_xyz
x,y,z
-x,y,-z
-x,-y,-z
x,-y,z
1/2+x,1/2+y,z
1/2-x,1/2+y,-z
1/2-x,1/2-y,-z
1/2+x,1/2-y,z
loop_
_atom_site_type_symbol
_atom_site_label
_atom_site_fract_x
_atom_site_fract_y
_atom_site_fract_z
Si Si1 0.804542 0.299528 0.061948
Si Si2 0.468555 0.642457 0.399323
Si Si3 0.000000 0.000000 0.500000
Si Si4 0.748945 0.256253 0.639579
Si Si5 0.843835 0.081671 0.099588
Si Si6 0.422141 0.418487 0.810192
Si Si7 0.880846 0.306020 0.769596
O O1 0.714533 0.375555 0.097505
O O2 0.744069 0.254661 0.159092
O O3 0.750000 0.250000 0.000000
O O4 0.000000 0.309402 0.000000
O O5 0.439212 0.565945 0.452517
O O6 0.308557 0.693941 0.422636
O O7 0.614999 0.691167 0.402524
O O8 0.538422 0.621470 0.287226
O O9 0.830154 0.309217 0.686460
O O10 0.573254 0.219650 0.719673
O O11 0.672181 0.126189 0.158351
O O12 0.917754 0.080115 0.172944
O O13 0.815484 0.000000 0.077512
O O14 0.000000 0.112460 0.000000
O O15 0.369483 0.500000 0.807224
#
# Coordination Sequence:
#
# PCOD9191870 Si02
#       7
#     8   8   2   8   8   8   8
#     4  12  23  33  56  88 129 173 229 275 307 367
#     4  11  23  45  72 103 129 171 216 277 338 422
#     4  12  28  48  80 106 128 162 210 282 362 412
#     4  10  21  38  70  94 128 165 217 257 328 404
#     4  10  20  33  51  83 128 178 227 265 312 372
#     4  11  21  38  61  87 130 182 222 278 337 394
#     4  11  18  35  58  89 121 174 218 264 308 367
#
# _framework density 21.300255
#
# number of rings (size 3 to 8) (size 9 to 14) (size 15 to 20)
#    0.000    1.120    5.600    3.360    0.000    0.960 
#    1.440    0.000    0.000    3.840    0.000    0.000 
#    0.000    0.000    0.000    0.000    0.000    0.000 
#
# Total GULP energy -139234.412239 kJ/mol
# GULP energy per Si atom -5569.376490 kJ/mol
# Density = 2.125177 g / cm^3
# Si number density = 21.300255 Si / 1000 Ang^3
#
#
#
# Elastic Constant Matrix: (Units=GPa)
#
#
# Indices 1 2 3 4 5 6 
#
# 1 82.5418 26.2402 22.4918 0.0000 14.5278 0.0000
# 2 26.2402 139.3151 29.5963 0.0000 2.5007 0.0000
# 3 22.4918 29.5963 62.3293 0.0000 11.3698 0.0000
# 4 0.0000 0.0000 0.0000 45.9958 0.0000 6.2918
# 5 14.5278 2.5007 11.3698 0.0000 29.7082 0.0000
# 6 0.0000 0.0000 0.0000 6.2918 0.0000 22.3888
#
#
#
# Elastic Compliance Matrix: (Units=1/GPa)
#
#
# Indices 1 2 3 4 5 6 
#
# 1 0.014647 -0.001952 -0.003313 0.000000 -0.005730 0.000000
# 2 -0.001952 0.008263 -0.003512 0.000000 0.001603 0.000000
# 3 -0.003313 -0.003512 0.019950 0.000000 -0.005719 0.000000
# 4 0.000000 0.000000 0.000000 0.022610 0.000000 -0.006354
# 5 -0.005730 0.001603 -0.005719 0.000000 0.038517 0.000000
# 6 0.000000 0.000000 0.000000 -0.006354 0.000000 0.046451
#
#
# Mechanical properties :
#
#
# Convention : Reuss Voigt Hill
#
# Bulk Modulus (GPa) = 39.51571 48.98253 44.24912
# Shear Modulus (GPa) = 28.34034 33.34244 30.84139
#
# Velocity S-wave (km/s) = 3.65158 3.96075 3.80930
# Velocity P-wave (km/s) = 6.03082 6.63045 6.33773
#
# Compressibility (1/GPa) = 0.02530639
#
# Stress axis : x y z
#
# Youngs Moduli (GPa) = 68.27333 121.02345 50.12501
#
# Poissons Ratio (x) = 0.23624 0.16608
# Poissons Ratio (y) = 0.13327 0.17601
# Poissons Ratio (z) = 0.22620 0.42498
#
# Static dielectric constant tensor:
#      x y z
#    x 1.771900 0.000000 0.050070 
#    y 0.000000 1.816110 0.000000 
#    z 0.050070 0.000000 1.820930 
# 
# From -- ./inp_files/256503.got.cif
#   From: 2010.05.17/outbox.cif.g08.bks.cpg/sg12_129_cif.got.tgz:256503.got - 2010.06.03 13:09:07.
