data_PCOD9191314
_publ_section_title
;
Structure prediction by ZEFSAII (Michael W. Deem and Ramdas Pophale) SiO2 
 PCOD9191314
Probable space group: C 2/M
;
_chemical_formula_sum "Si O2"
_cell_formula_units_Z 40
_cell_length_a 14.561642
_cell_length_b 14.054893
_cell_length_c 17.487977
_cell_angle_alpha 90.000000
_cell_angle_beta 24.631362
_cell_angle_gamma 90.000000
_cell_volume 1491.704120
_symmetry_space_group_name_H-M "C 2/M"
_symmetry_group_IT_number 12
_symmetry_cell_setting 'monoclinic'
loop_
_space_group_symop_operation_xyz
x,y,z
-x,y,-z
-x,-y,-z
x,-y,z
1/2+x,1/2+y,z
1/2-x,1/2+y,-z
1/2-x,1/2-y,-z
1/2+x,1/2-y,z
loop_
_atom_site_type_symbol
_atom_site_label
_atom_site_fract_x
_atom_site_fract_y
_atom_site_fract_z
Si Si1 0.162041 0.822918 0.780735
Si Si2 0.727021 0.636357 0.023757
Si Si3 0.462723 0.845253 0.403179
Si Si4 0.200127 0.603748 0.717333
Si Si5 0.063770 0.870816 0.614239
O O1 0.317108 0.832796 0.589473
O O2 0.294269 0.868588 0.751071
O O3 0.942435 0.876417 0.918411
O O4 0.163775 0.705657 0.789553
O O5 0.620424 0.601145 0.184532
O O6 0.750000 0.750000 0.000000
O O7 0.975095 0.601559 0.837654
O O8 0.294906 0.900367 0.476958
O O9 0.472980 0.742338 0.356739
O O10 0.205893 0.500000 0.753501
O O11 0.400397 0.608423 0.503040
#
# Coordination Sequence:
#
# PCOD9191314 Si02
#       5
#     8   8   8   8   8
#     4   8  15  28  49  74  95 124 163 205 245 282
#     4   9  17  31  50  71  95 128 169 207 241 281
#     4   8  13  27  50  73  94 117 160 207 242 286
#     4  10  20  33  48  71 104 135 162 196 245 304
#     4   9  17  30  49  71  96 127 160 199 246 289
#
# _framework density 26.814971
#
# number of rings (size 3 to 8) (size 9 to 14) (size 15 to 20)
#    0.000    3.200    0.000    3.600    0.000    0.800 
#    0.000   17.000    0.000    3.600    0.000    5.600 
#    0.000    0.000    0.000    0.000    0.000    0.000 
#
# Total GULP energy -111343.615344 kJ/mol
# GULP energy per Si atom -5567.180767 kJ/mol
# Density = 2.675394 g / cm^3
# Si number density = 26.814971 Si / 1000 Ang^3
#
#
#
# Elastic Constant Matrix: (Units=GPa)
#
#
# Indices 1 2 3 4 5 6 
#
# 1 103.5304 -0.9513 40.4153 0.0032 -1.5279 0.0010
# 2 -0.9513 101.8489 -2.3328 -0.0139 8.4179 0.0029
# 3 40.4153 -2.3328 119.6775 -0.0060 25.1036 -0.0094
# 4 0.0032 -0.0139 -0.0060 -32.6952 0.0015 27.2842
# 5 -1.5279 8.4179 25.1036 0.0015 59.5436 0.0014
# 6 0.0010 0.0029 -0.0094 27.2842 0.0014 -58.9184
#
#
#
# Elastic Compliance Matrix: (Units=1/GPa)
#
#
# Indices 1 2 3 4 5 6 
#
# 1 0.011362 -0.000167 -0.004285 0.000005 0.002122 0.000003
# 2 -0.000167 0.009968 0.000600 -0.000007 -0.001667 -0.000003
# 3 -0.004285 0.000600 0.010812 -0.000007 -0.004753 -0.000005
# 4 0.000005 -0.000007 -0.000007 -0.049850 0.000006 -0.023085
# 5 0.002122 -0.001667 -0.004753 0.000006 0.019088 0.000004
# 6 0.000003 -0.000003 -0.000005 -0.023085 0.000004 -0.027663
#
#
# Mechanical properties :
#
#
# Convention : Reuss Voigt Hill
#
# Bulk Modulus (GPa) = 40.92096 44.36880 42.64488
# Shear Modulus (GPa) = -479.26574 12.78105 -233.24234
#
# Velocity S-wave (km/s) = -13.38352 2.18557 -9.33654
# Velocity P-wave (km/s) = 14.95096 4.79074 10.01449
#
# Compressibility (1/GPa) = 0.02443735
#
# Stress axis : x y z
#
# Youngs Moduli (GPa) = 88.01594 100.31694 92.49332
#
# Poissons Ratio (x) = 0.01679 0.39635
# Poissons Ratio (y) = 0.01473 -0.05554
# Poissons Ratio (z) = 0.37716 -0.06024
#
# Static dielectric constant tensor:
#      x y z
#    x 2.207160 -0.000060 -0.054700 
#    y -0.000060 1.620280 -0.000060 
#    z -0.054700 -0.000060 2.120830 
# 
# From -- ./inp_files/317103.got.cif
#   From: 2010.05.17/outbox.cif.g08.bks.cpg/sg12_159_cif.got.tgz:317103.got - 2010.06.03 13:09:07.
