data_PCOD9191841
_publ_section_title
;
Structure prediction by ZEFSAII (Michael W. Deem and Ramdas Pophale) SiO2 
 PCOD9191841
Probable space group: C 2/M
;
_chemical_formula_sum "Si O2"
_cell_formula_units_Z 56
_cell_length_a 8.773359
_cell_length_b 27.937880
_cell_length_c 12.905234
_cell_angle_alpha 90.000000
_cell_angle_beta 71.564361
_cell_angle_gamma 90.000000
_cell_volume 3000.853147
_symmetry_space_group_name_H-M "C 2/M"
_symmetry_group_IT_number 12
_symmetry_cell_setting 'monoclinic'
loop_
_space_group_symop_operation_xyz
x,y,z
-x,y,-z
-x,-y,-z
x,-y,z
1/2+x,1/2+y,z
1/2-x,1/2+y,-z
1/2-x,1/2-y,-z
1/2+x,1/2-y,z
loop_
_atom_site_type_symbol
_atom_site_label
_atom_site_fract_x
_atom_site_fract_y
_atom_site_fract_z
Si Si1 0.350586 0.055112 0.310124
Si Si2 0.029371 0.870589 0.881706
Si Si3 0.181923 0.555732 0.152152
Si Si4 0.255438 0.553744 0.906808
Si Si5 0.297275 0.686833 0.321848
Si Si6 0.453218 0.780679 0.388212
Si Si7 0.807710 0.139479 0.528312
O O1 0.537791 0.068847 0.260550
O O2 0.307755 0.055267 0.196780
O O3 0.248406 0.091098 0.402357
O O4 0.334309 0.000000 0.349309
O O5 0.172503 0.908928 0.860601
O O6 0.079089 0.831979 0.788352
O O7 0.877800 0.902651 0.885832
O O8 0.000000 0.848180 0.000000
O O9 0.220517 0.500000 0.163434
O O10 0.147748 0.558429 0.034795
O O11 0.328528 0.500000 0.903075
O O12 0.380715 0.731363 0.362345
O O13 0.273395 0.644996 0.412779
O O14 0.126275 0.701963 0.308863
O O15 0.500000 0.776029 0.500000
O O16 0.310687 0.819124 0.402343
O O17 0.000000 0.146441 0.500000
#
# Coordination Sequence:
#
# PCOD9191841 Si02
#       7
#     8   8   8   8   8   8   8
#     4  10  20  33  51  79 111 140 171 210 258 306
#     4  10  20  34  54  79 105 135 172 214 261 308
#     4   9  17  32  52  74 104 142 182 216 246 292
#     4   9  17  30  51  77 105 141 181 215 246 292
#     4  11  21  37  57  78 103 132 171 217 261 307
#     4  10  21  37  59  80  99 130 176 215 251 304
#     4  11  21  35  55  78 105 138 173 212 256 303
#
# _framework density 18.661358
#
# number of rings (size 3 to 8) (size 9 to 14) (size 15 to 20)
#    0.000    2.000    0.000    5.571    0.000    3.714 
#    0.000    2.143    0.000    7.286    0.000    0.000 
#    0.000    0.000    0.000    0.000    0.000    0.000 
#
# Total GULP energy -155980.023769 kJ/mol
# GULP energy per Si atom -5570.715135 kJ/mol
# Density = 1.861888 g / cm^3
# Si number density = 18.661358 Si / 1000 Ang^3
#
#
#
# Elastic Constant Matrix: (Units=GPa)
#
#
# Indices 1 2 3 4 5 6 
#
# 1 71.0623 34.7582 23.3434 0.0000 -20.8046 0.0000
# 2 34.7582 81.7075 56.6528 0.0000 -19.5104 0.0000
# 3 23.3434 56.6528 78.8216 0.0000 -19.6873 0.0000
# 4 0.0000 0.0000 0.0000 9.3280 0.0000 -13.9085
# 5 -20.8046 -19.5104 -19.6873 0.0000 18.8214 0.0000
# 6 0.0000 0.0000 0.0000 -13.9085 0.0000 10.6601
#
#
#
# Elastic Compliance Matrix: (Units=1/GPa)
#
#
# Indices 1 2 3 4 5 6 
#
# 1 0.022628 -0.007097 0.003803 0.000000 0.021633 0.000000
# 2 -0.007097 0.027918 -0.017185 0.000000 0.003120 0.000000
# 3 0.003803 -0.017185 0.027767 0.000000 0.015434 0.000000
# 4 0.000000 0.000000 0.000000 -0.113392 0.000000 -0.147947
# 5 0.021633 0.003120 0.015434 0.000000 0.096421 0.000000
# 6 0.000000 0.000000 0.000000 -0.147947 0.000000 -0.099223
#
#
# Mechanical properties :
#
#
# Convention : Reuss Voigt Hill
#
# Bulk Modulus (GPa) = 26.77027 51.23336 39.00181
# Shear Modulus (GPa) = 321.97035 15.55102 168.76068
#
# Velocity S-wave (km/s) = 13.14944 2.88987 9.51996
# Velocity P-wave (km/s) = 15.64992 6.21683 11.90733
#
# Compressibility (1/GPa) = 0.03735487
#
# Stress axis : x y z
#
# Youngs Moduli (GPa) = 44.19383 35.81888 36.01339
#
# Poissons Ratio (x) = 0.25420 -0.13695
# Poissons Ratio (y) = 0.31364 0.61890
# Poissons Ratio (z) = -0.16806 0.61555
#
# Static dielectric constant tensor:
#      x y z
#    x 1.687740 0.000000 -0.005600 
#    y 0.000000 1.624040 0.000000 
#    z -0.005600 0.000000 1.658930 
# 
# From -- ./inp_files/198356.got.cif
#   From: 2010.05.17/outbox.cif.g08.bks.cpg/sg12_100_cif.got.tgz:198356.got - 2010.06.03 13:09:07.
