data_PCOD9191322
_publ_section_title
;
Structure prediction by ZEFSAII (Michael W. Deem and Ramdas Pophale) SiO2 
 PCOD9191322
Probable space group: C 2/M
;
_chemical_formula_sum "Si O2"
_cell_formula_units_Z 56
_cell_length_a 8.750188
_cell_length_b 25.266977
_cell_length_c 22.587601
_cell_angle_alpha 90.000000
_cell_angle_beta 40.317147
_cell_angle_gamma 90.000000
_cell_volume 3231.150124
_symmetry_space_group_name_H-M "C 2/M"
_symmetry_group_IT_number 12
_symmetry_cell_setting 'monoclinic'
loop_
_space_group_symop_operation_xyz
x,y,z
-x,y,-z
-x,-y,-z
x,-y,z
1/2+x,1/2+y,z
1/2-x,1/2+y,-z
1/2-x,1/2-y,-z
1/2+x,1/2-y,z
loop_
_atom_site_type_symbol
_atom_site_label
_atom_site_fract_x
_atom_site_fract_y
_atom_site_fract_z
Si Si1 0.726433 0.713368 0.592616
Si Si2 0.966071 0.369980 0.211052
Si Si3 0.240598 0.558959 0.048615
Si Si4 0.733013 0.648294 0.060664
Si Si5 0.374593 0.282793 0.099608
Si Si6 0.134602 0.174072 0.403690
Si Si7 0.119344 0.174689 0.214072
O O1 0.724653 0.775658 0.610237
O O2 0.555537 0.698281 0.587872
O O3 0.624857 0.684111 0.680274
O O4 0.000000 0.700341 0.500000
O O5 0.809344 0.364661 0.316517
O O6 0.799477 0.347900 0.208581
O O7 0.067722 0.423599 0.153104
O O8 0.188188 0.330766 0.152076
O O9 0.182363 0.500000 0.043954
O O10 0.500000 0.558668 0.000000
O O11 0.248907 0.602427 0.993714
O O12 0.586357 0.697775 0.079078
O O13 0.606826 0.637232 0.160586
O O14 0.000000 0.660786 0.000000
O O15 0.232712 0.231222 0.162096
O O16 0.500000 0.276777 0.000000
O O17 0.000000 0.149996 0.500000
#
# Coordination Sequence:
#
# PCOD9191322 Si02
#       7
#     8   8   8   8   8   8   8
#     4  10  20  33  48  73 109 152 183 214 253 309
#     4  11  20  38  52  79 106 142 186 216 270 323
#     4  11  23  43  60  76 105 142 180 232 282 324
#     4  12  22  36  53  81 109 142 187 220 260 326
#     4  12  21  33  51  75 113 155 174 216 255 315
#     4  10  20  33  53  75 108 143 185 221 261 315
#     4  11  23  32  51  80 115 147 180 217 259 314
#
# _framework density 17.331291
#
# number of rings (size 3 to 8) (size 9 to 14) (size 15 to 20)
#    0.000    1.000    5.714    3.000    2.000    3.143 
#    0.000    0.000    0.000    0.429    0.000    0.000 
#    0.000    3.429    0.000    0.000    0.000    0.000 
#
# Total GULP energy -156197.044589 kJ/mol
# GULP energy per Si atom -5578.465878 kJ/mol
# Density = 1.729184 g / cm^3
# Si number density = 17.331291 Si / 1000 Ang^3
#
#
#
# Elastic Constant Matrix: (Units=GPa)
#
#
# Indices 1 2 3 4 5 6 
#
# 1 63.9792 17.1616 41.6756 0.0000 6.7232 0.0000
# 2 17.1616 50.8146 35.4377 0.0000 1.2377 0.0000
# 3 41.6756 35.4377 151.6556 0.0002 20.2437 -0.0001
# 4 0.0000 0.0000 0.0002 -0.6330 0.0000 5.0057
# 5 6.7232 1.2377 20.2437 0.0000 31.5782 0.0000
# 6 0.0000 0.0000 -0.0001 5.0057 0.0000 9.0674
#
#
#
# Elastic Compliance Matrix: (Units=1/GPa)
#
#
# Indices 1 2 3 4 5 6 
#
# 1 0.019561 -0.003513 -0.004393 0.000000 -0.001211 0.000000
# 2 -0.003513 0.024378 -0.005143 -0.000001 0.003090 0.000000
# 3 -0.004393 -0.005143 0.009679 0.000001 -0.005068 0.000000
# 4 0.000000 -0.000001 0.000001 -0.294424 -0.000001 0.162538
# 5 -0.001211 0.003090 -0.005068 -0.000001 0.035053 0.000000
# 6 0.000000 0.000000 0.000000 0.162538 0.000000 0.020555
#
#
# Mechanical properties :
#
#
# Convention : Reuss Voigt Hill
#
# Bulk Modulus (GPa) = 36.33829 50.55544 43.44687
# Shear Modulus (GPa) = -33.34995 19.48082 -6.93456
#
# Velocity S-wave (km/s) = -4.39140 3.35629 -2.00247
# Velocity P-wave (km/s) = 2.16798 6.65229 4.44706
#
# Compressibility (1/GPa) = 0.02751918
#
# Stress axis : x y z
#
# Youngs Moduli (GPa) = 51.12148 41.02132 103.31147
#
# Poissons Ratio (x) = 0.14412 0.45384
# Poissons Ratio (y) = 0.17961 0.53136
# Poissons Ratio (z) = 0.22457 0.21099
#
# Static dielectric constant tensor:
#      x y z
#    x 1.631770 0.000000 0.013740 
#    y 0.000000 1.590180 0.000000 
#    z 0.013740 0.000000 1.647370 
# 
# From -- ./inp_files/333962.got.cif
#   From: 2010.05.17/outbox.cif.g08.bks.cpg/sg12_167_cif.got.tgz:333962.got - 2010.06.03 13:09:07.
