data_PCOD9191803
_publ_section_title
;
Structure prediction by ZEFSAII (Michael W. Deem and Ramdas Pophale) SiO2 
 PCOD9191803
Probable space group: C 2/M
;
_chemical_formula_sum "Si O2"
_cell_formula_units_Z 64
_cell_length_a 19.878983
_cell_length_b 27.568178
_cell_length_c 11.499817
_cell_angle_alpha 90.000000
_cell_angle_beta 149.336072
_cell_angle_gamma 90.000000
_cell_volume 3214.138509
_symmetry_space_group_name_H-M "C 2/M"
_symmetry_group_IT_number 12
_symmetry_cell_setting 'monoclinic'
loop_
_space_group_symop_operation_xyz
x,y,z
-x,y,-z
-x,-y,-z
x,-y,z
1/2+x,1/2+y,z
1/2-x,1/2+y,-z
1/2-x,1/2-y,-z
1/2+x,1/2-y,z
loop_
_atom_site_type_symbol
_atom_site_label
_atom_site_fract_x
_atom_site_fract_y
_atom_site_fract_z
Si Si1 0.679736 0.443907 0.296036
Si Si2 0.557166 0.772438 0.756415
Si Si3 0.699149 0.737237 0.732043
Si Si4 0.964722 0.056162 0.702474
Si Si5 0.732634 0.943695 0.819701
Si Si6 0.539524 0.943781 0.186672
Si Si7 0.886547 0.386836 0.156799
Si Si8 0.363427 0.628835 0.363849
O O1 0.651413 0.500000 0.220178
O O2 0.560815 0.427638 0.201942
O O3 0.737772 0.421922 0.264071
O O4 0.803491 0.443502 0.567445
O O5 0.625194 0.746325 0.746087
O O6 0.399038 0.764025 0.506027
O O7 0.580632 0.830143 0.780951
O O8 0.646059 0.754410 0.000256
O O9 0.688291 0.681525 0.676663
O O10 0.889208 0.091629 0.505131
O O11 0.921485 0.000000 0.628303
O O12 0.120114 0.056654 0.907720
O O13 0.633883 0.913234 0.751025
O O14 0.687963 0.000000 0.744586
O O15 0.482119 0.913418 0.208305
O O16 0.494389 0.000000 0.130068
O O17 0.500000 0.925668 0.000000
O O18 0.745008 0.390906 0.884591
O O19 0.500000 0.636169 0.500000
#
# Coordination Sequence:
#
# PCOD9191803 Si02
#       8
#     8   8   8   8   8   8   8   8
#     4   9  19  35  51  70 102 151 193 219 261 319
#     4   9  18  32  53  78 110 143 177 231 280 336
#     4   9  18  33  52  76 108 143 181 220 285 341
#     4  10  20  33  53  79 109 148 189 224 269 329
#     4  10  20  33  51  77 114 146 176 227 274 322
#     4  10  21  38  56  74 109 153 186 219 264 330
#     4  11  22  33  53  87 111 138 183 230 280 324
#     4  11  19  33  52  78 113 139 174 231 279 323
#
# _framework density 19.912022
#
# number of rings (size 3 to 8) (size 9 to 14) (size 15 to 20)
#    0.000    2.125    2.500    1.500    0.000    6.250 
#    0.000    1.875    0.000    0.000    0.000   19.250 
#    0.000    0.000    0.000    0.000    0.000    0.000 
#
# Total GULP energy -178234.715442 kJ/mol
# GULP energy per Si atom -5569.834858 kJ/mol
# Density = 1.986670 g / cm^3
# Si number density = 19.912022 Si / 1000 Ang^3
#
#
#
# Elastic Constant Matrix: (Units=GPa)
#
#
# Indices 1 2 3 4 5 6 
#
# 1 82.0153 36.3665 21.9720 0.0000 -5.8690 0.0000
# 2 36.3665 64.9195 32.5543 0.0000 -14.5988 0.0000
# 3 21.9720 32.5543 130.1233 0.0000 -4.4254 0.0000
# 4 0.0000 0.0000 0.0000 21.1155 0.0000 -1.1985
# 5 -5.8690 -14.5988 -4.4254 0.0000 26.8741 0.0000
# 6 0.0000 0.0000 0.0000 -1.1985 0.0000 -2.7953
#
#
#
# Elastic Compliance Matrix: (Units=1/GPa)
#
#
# Indices 1 2 3 4 5 6 
#
# 1 0.016310 -0.009233 -0.000496 0.000000 -0.001535 0.000000
# 2 -0.009233 0.025241 -0.004383 0.000000 0.010974 0.000000
# 3 -0.000496 -0.004383 0.008830 0.000000 -0.001035 0.000000
# 4 0.000000 0.000000 0.000000 0.046233 0.000000 -0.019823
# 5 -0.001535 0.010974 -0.001035 0.000000 0.042666 0.000000
# 6 0.000000 0.000000 0.000000 -0.019823 0.000000 -0.349250
#
#
# Mechanical properties :
#
#
# Convention : Reuss Voigt Hill
#
# Bulk Modulus (GPa) = 45.13144 50.98263 48.05703
# Shear Modulus (GPa) = -28.67639 21.44988 -3.61325
#
# Velocity S-wave (km/s) = -3.79905 3.28568 -1.34854
# Velocity P-wave (km/s) = 1.86303 6.32881 4.66501
#
# Compressibility (1/GPa) = 0.02215750
#
# Stress axis : x y z
#
# Youngs Moduli (GPa) = 61.31252 39.61788 113.24938
#
# Poissons Ratio (x) = 0.36578 0.05621
# Poissons Ratio (y) = 0.56609 0.49633
# Poissons Ratio (z) = 0.03043 0.17363
#
# Static dielectric constant tensor:
#      x y z
#    x 1.725330 0.000000 0.008920 
#    y 0.000000 1.679690 0.000000 
#    z 0.008920 0.000000 1.811190 
# 
# From -- ./inp_files/170623.got.cif
#   From: 2010.05.17/outbox.cif.g08.bks.cpg/sg12_86_cif.got.tgz:170623.got - 2010.06.03 13:09:07.
