data_PCOD9191252
_publ_section_title
;
Structure prediction by ZEFSAII (Michael W. Deem and Ramdas Pophale) SiO2 
 PCOD9191252
Probable space group: C 2/M
;
_chemical_formula_sum "Si O2"
_cell_formula_units_Z 56
_cell_length_a 16.983259
_cell_length_b 13.586534
_cell_length_c 34.446325
_cell_angle_alpha 90.000000
_cell_angle_beta 24.742171
_cell_angle_gamma 90.000000
_cell_volume 3326.634267
_symmetry_space_group_name_H-M "C 2/M"
_symmetry_group_IT_number 12
_symmetry_cell_setting 'monoclinic'
loop_
_space_group_symop_operation_xyz
x,y,z
-x,y,-z
-x,-y,-z
x,-y,z
1/2+x,1/2+y,z
1/2-x,1/2+y,-z
1/2-x,1/2-y,-z
1/2+x,1/2-y,z
loop_
_atom_site_type_symbol
_atom_site_label
_atom_site_fract_x
_atom_site_fract_y
_atom_site_fract_z
Si Si1 0.458986 0.383827 0.473175
Si Si2 0.887009 0.617555 0.423378
Si Si3 0.785025 0.743020 0.694034
Si Si4 0.644335 0.384779 0.606705
Si Si5 0.807090 0.614651 0.204275
Si Si6 0.150465 0.619351 0.901361
Si Si7 0.913927 0.119267 0.282433
O O1 0.500000 0.366371 0.500000
O O2 0.494943 0.500000 0.448873
O O3 0.244928 0.365798 0.554898
O O4 0.591755 0.317593 0.387110
O O5 0.922637 0.500000 0.409865
O O6 0.766489 0.649229 0.515571
O O7 0.076763 0.679306 0.340477
O O8 0.649166 0.809969 0.781110
O O9 0.684330 0.669299 0.709747
O O10 0.691556 0.500000 0.588451
O O11 0.421623 0.380735 0.697594
O O12 0.673961 0.345571 0.636948
O O13 0.853917 0.500000 0.191013
O O14 0.887316 0.645798 0.126525
O O15 0.145921 0.500000 0.903836
O O16 0.365072 0.645670 0.815345
O O17 0.000000 0.655716 0.000000
O O18 0.899291 0.000000 0.287180
#
# Coordination Sequence:
#
# PCOD9191252 Si02
#       7
#     8   8   8   8   8   8   8
#     4  10  22  35  44  60  89 128 175 211 223 254
#     4  10  20  33  47  64  90 128 170 204 238 273
#     4  12  21  28  47  68  98 131 158 190 241 283
#     4   8  15  30  47  61  87 121 156 204 238 261
#     4   9  17  30  48  70  92 119 158 196 231 277
#     4   8  15  32  57  75  90 116 148 191 247 295
#     4   9  19  31  45  73 102 118 148 196 242 288
#
# _framework density 16.833832000000001
#
# number of rings (size 3 to 8) (size 9 to 14) (size 15 to 20)
#    0.000    2.571    1.429    3.000    2.000    1.143 
#    0.000    2.857    0.000    0.000    0.000    0.000 
#    0.000    4.571    0.000    0.000    0.000    0.000 
#
# Total GULP energy -156087.530738 kJ/mol
# GULP energy per Si atom -5574.554669 kJ/mol
# Density = 1.679552 g / cm^3
# Si number density = 16.833832 Si / 1000 Ang^3
#
#
#
# Elastic Constant Matrix: (Units=GPa)
#
#
# Indices 1 2 3 4 5 6 
#
# 1 107.5730 46.1592 24.2530 -0.0008 10.6480 -0.0002
# 2 46.1592 70.1547 21.6546 0.0030 9.2246 0.0006
# 3 24.2530 21.6546 41.7461 0.0135 15.5361 0.0016
# 4 -0.0008 0.0030 0.0135 8.3783 0.0040 3.5599
# 5 10.6480 9.2246 15.5361 0.0040 16.9017 0.0010
# 6 -0.0002 0.0006 0.0016 3.5599 0.0010 25.4500
#
#
#
# Elastic Compliance Matrix: (Units=1/GPa)
#
#
# Indices 1 2 3 4 5 6 
#
# 1 0.013465 -0.007651 -0.003422 0.000011 -0.001162 -0.000001
# 2 -0.007651 0.021354 -0.006214 0.000002 -0.001122 0.000000
# 3 -0.003422 -0.006214 0.041193 -0.000052 -0.032318 0.000006
# 4 0.000011 0.000002 -0.000052 0.126898 0.000010 -0.017750
# 5 -0.001162 -0.001122 -0.032318 0.000010 0.090217 -0.000003
# 6 -0.000001 0.000000 0.000006 -0.017750 -0.000003 0.041776
#
#
# Mechanical properties :
#
#
# Convention : Reuss Voigt Hill
#
# Bulk Modulus (GPa) = 24.13194 44.84525 34.48860
# Shear Modulus (GPa) = 13.04498 18.63980 15.84239
#
# Velocity S-wave (km/s) = 2.78677 3.33119 3.07107
# Velocity P-wave (km/s) = 4.97205 6.44155 5.75391
#
# Compressibility (1/GPa) = 0.04143886
#
# Stress axis : x y z
#
# Youngs Moduli (GPa) = 74.26430 46.83000 24.27599
#
# Poissons Ratio (x) = 0.35828 0.08307
# Poissons Ratio (y) = 0.56818 0.15085
# Poissons Ratio (z) = 0.25412 0.29101
#
# Static dielectric constant tensor:
#      x y z
#    x 1.594630 0.000000 0.018130 
#    y 0.000000 1.601770 0.000000 
#    z 0.018130 0.000000 1.561410 
# 
# From -- ./inp_files/251159.got.cif
#   From: 2010.05.17/outbox.cif.g08.bks.cpg/sg12_126_cif.got.tgz:251159.got - 2010.06.03 13:09:07.
