data_PCOD9191391
_publ_section_title
;
Structure prediction by ZEFSAII (Michael W. Deem and Ramdas Pophale) SiO2 
 PCOD9191391
Probable space group: C 2/M
;
_chemical_formula_sum "Si O2"
_cell_formula_units_Z 56
_cell_length_a 24.154282
_cell_length_b 9.098518
_cell_length_c 18.738064
_cell_angle_alpha 90.000000
_cell_angle_beta 142.690366
_cell_angle_gamma 90.000000
_cell_volume 2496.029199
_symmetry_space_group_name_H-M "C 2/M"
_symmetry_group_IT_number 12
_symmetry_cell_setting 'monoclinic'
loop_
_space_group_symop_operation_xyz
x,y,z
-x,y,-z
-x,-y,-z
x,-y,z
1/2+x,1/2+y,z
1/2-x,1/2+y,-z
1/2-x,1/2-y,-z
1/2+x,1/2-y,z
loop_
_atom_site_type_symbol
_atom_site_label
_atom_site_fract_x
_atom_site_fract_y
_atom_site_fract_z
Si Si1 0.634762 0.823124 0.498089
Si Si2 0.470427 0.335629 0.895162
Si Si3 0.676866 0.335299 0.057921
Si Si4 0.909069 0.668181 0.700813
Si Si5 0.710051 0.672382 0.706634
Si Si6 0.877817 0.329998 0.132934
Si Si7 0.443914 0.673009 0.336602
O O1 0.642797 0.775430 0.423285
O O2 0.704276 0.753382 0.625331
O O3 0.536390 0.765241 0.424866
O O4 0.636860 0.000000 0.501798
O O5 0.434085 0.500000 0.874449
O O6 0.568696 0.350038 0.959051
O O7 0.500000 0.260440 0.000000
O O8 0.407225 0.256470 0.772680
O O9 0.715735 0.500000 0.095868
O O10 0.718885 0.246851 0.166803
O O11 0.681223 0.248348 0.988374
O O12 0.881865 0.500000 0.686039
O O13 0.015811 0.667577 0.784933
O O14 0.728825 0.500000 0.717145
O O15 0.612756 0.686141 0.648555
O O16 0.852006 0.500000 0.115562
O O17 0.881264 0.238135 0.209260
O O18 0.463292 0.500000 0.344702
#
# Coordination Sequence:
#
# PCOD9191391 Si02
#       7
#     8   8   8   8   8   8   8
#     4  10  20  34  52  73  99 132 172 213 247 286
#     4   9  18  33  55  82 105 124 152 194 244 298
#     4  10  20  34  52  73 100 133 164 199 250 305
#     4   8  16  30  49  75 101 126 158 197 242 288
#     4  11  23  35  48  69 100 136 172 211 249 290
#     4   9  17  31  50  71  98 130 166 209 250 292
#     4  10  20  33  49  71  98 131 173 215 252 288
#
# _framework density 22.435635999999999
#
# number of rings (size 3 to 8) (size 9 to 14) (size 15 to 20)
#    0.000    2.429    0.000    3.429    0.000    9.429 
#    0.000    0.000    0.000    0.857    0.000    0.000 
#    0.000    0.000    0.000    0.000    0.000    0.000 
#
# Total GULP energy -156406.793962 kJ/mol
# GULP energy per Si atom -5585.956927 kJ/mol
# Density = 2.238457 g / cm^3
# Si number density = 22.435636 Si / 1000 Ang^3
#
#
#
# Elastic Constant Matrix: (Units=GPa)
#
#
# Indices 1 2 3 4 5 6 
#
# 1 48.8813 22.5868 27.2806 0.0000 -6.8013 0.0000
# 2 22.5868 113.9794 76.7103 0.0000 -30.5478 0.0000
# 3 27.2806 76.7103 188.6820 0.0000 -54.2960 0.0000
# 4 0.0000 0.0000 0.0000 36.6689 0.0000 -10.0766
# 5 -6.8013 -30.5478 -54.2960 0.0000 43.6581 0.0000
# 6 0.0000 0.0000 0.0000 -10.0766 0.0000 -7.7736
#
#
#
# Elastic Compliance Matrix: (Units=1/GPa)
#
#
# Indices 1 2 3 4 5 6 
#
# 1 0.023170 -0.003411 -0.002509 0.000000 -0.001898 0.000000
# 2 -0.003411 0.012966 -0.003614 0.000000 0.004047 0.000000
# 3 -0.002509 -0.003614 0.009799 0.000000 0.009267 0.000000
# 4 0.000000 0.000000 0.000000 0.020108 0.000000 -0.026066
# 5 -0.001898 0.004047 0.009267 0.000000 0.036966 0.000000
# 6 0.000000 0.000000 0.000000 -0.026066 0.000000 -0.094853
#
#
# Mechanical properties :
#
#
# Convention : Reuss Voigt Hill
#
# Bulk Modulus (GPa) = 37.22177 67.18868 52.20523
# Shear Modulus (GPa) = 138.19490 29.50835 83.85162
#
# Velocity S-wave (km/s) = 7.85684 3.63056 6.12008
# Velocity P-wave (km/s) = 9.94651 6.89833 8.55920
#
# Compressibility (1/GPa) = 0.02686600
#
# Stress axis : x y z
#
# Youngs Moduli (GPa) = 43.15846 77.12306 102.05576
#
# Poissons Ratio (x) = 0.26310 0.25610
# Poissons Ratio (y) = 0.14723 0.36881
# Poissons Ratio (z) = 0.10830 0.27871
#
# Static dielectric constant tensor:
#      x y z
#    x 1.899860 0.000000 0.020370 
#    y 0.000000 1.778790 0.000000 
#    z 0.020370 0.000000 1.843620 
# 
# From -- ./inp_files/280903.got.cif
#   From: 2010.05.17/outbox.cif.g08.bks.cpg/sg12_141_cif.got.tgz:280903.got - 2010.06.03 13:09:07.
