data_PCOD9191089
_publ_section_title
;
Structure prediction by ZEFSAII (Michael W. Deem and Ramdas Pophale) SiO2 
 PCOD9191089
Probable space group: C 2/M
;
_chemical_formula_sum "Si O2"
_cell_formula_units_Z 56
_cell_length_a 12.538913
_cell_length_b 19.393427
_cell_length_c 14.944985
_cell_angle_alpha 90.000000
_cell_angle_beta 64.878519
_cell_angle_gamma 90.000000
_cell_volume 3290.448318
_symmetry_space_group_name_H-M "C 2/M"
_symmetry_group_IT_number 12
_symmetry_cell_setting 'monoclinic'
loop_
_space_group_symop_operation_xyz
x,y,z
-x,y,-z
-x,-y,-z
x,-y,z
1/2+x,1/2+y,z
1/2-x,1/2+y,-z
1/2-x,1/2-y,-z
1/2+x,1/2-y,z
loop_
_atom_site_type_symbol
_atom_site_label
_atom_site_fract_x
_atom_site_fract_y
_atom_site_fract_z
Si Si1 0.914754 0.684361 0.613913
Si Si2 0.495675 0.419059 0.604295
Si Si3 0.344173 0.718589 0.900184
Si Si4 0.445614 0.788069 0.257814
Si Si5 0.841802 0.133657 0.306948
Si Si6 0.023391 0.079553 0.098051
Si Si7 0.202869 0.818725 0.281559
O O1 0.798391 0.636826 0.654336
O O2 0.860879 0.761909 0.633197
O O3 0.000000 0.672845 0.500000
O O4 0.989845 0.681555 0.678514
O O5 0.500000 0.395587 0.500000
O O6 0.477537 0.500000 0.611383
O O7 0.612216 0.401713 0.618992
O O8 0.385560 0.382212 0.690170
O O9 0.456945 0.769358 0.851342
O O10 0.386415 0.641684 0.911742
O O11 0.292326 0.714439 0.818501
O O12 0.250000 0.750000 0.000000
O O13 0.390958 0.712121 0.297249
O O14 0.334357 0.832662 0.267248
O O15 0.908838 0.098210 0.199452
O O16 0.058751 0.000000 0.106500
O O17 0.000000 0.082765 0.000000
#
# Coordination Sequence:
#
# PCOD9191089 Si02
#       7
#     8   8   8   8   8   8   8
#     4  10  20  32  52  83 112 146 174 226 287 330
#     4  11  22  36  57  81 108 148 194 235 272 324
#     4  10  21  33  56  84 114 145 182 237 284 338
#     4   9  20  33  51  83 112 143 177 226 286 336
#     4  10  20  35  56  80 114 141 188 233 275 339
#     4  10  21  36  58  82 107 145 186 234 284 330
#     4  10  20  35  53  80 112 147 183 228 284 334
#
# _framework density 17.018958000000001
#
# number of rings (size 3 to 8) (size 9 to 14) (size 15 to 20)
#    0.000    2.000    4.286    0.857   10.000    1.143 
#    0.000    0.000    0.000    4.286    0.000    2.000 
#    0.000    0.000    0.000    0.000    0.000    0.000 
#
# Total GULP energy -156035.435605 kJ/mol
# GULP energy per Si atom -5572.694129 kJ/mol
# Density = 1.698022 g / cm^3
# Si number density = 17.018958 Si / 1000 Ang^3
#
#
#
# Elastic Constant Matrix: (Units=GPa)
#
#
# Indices 1 2 3 4 5 6 
#
# 1 127.1456 28.0251 42.4022 0.0000 -11.5603 0.0000
# 2 28.0251 55.2169 29.6394 0.0000 -8.7438 0.0000
# 3 42.4022 29.6394 102.1962 0.0000 -11.3758 0.0000
# 4 0.0000 0.0000 0.0000 22.1614 0.0000 2.0328
# 5 -11.5603 -8.7438 -11.3758 0.0000 24.8320 0.0000
# 6 0.0000 0.0000 0.0000 2.0328 0.0000 12.6546
#
#
#
# Elastic Compliance Matrix: (Units=1/GPa)
#
#
# Indices 1 2 3 4 5 6 
#
# 1 0.009694 -0.003023 -0.002910 0.000000 0.002115 0.000000
# 2 -0.003023 0.022987 -0.004919 0.000000 0.004433 0.000000
# 3 -0.002910 -0.004919 0.012724 0.000000 0.002742 0.000000
# 4 0.000000 0.000000 0.000000 0.045798 0.000000 -0.007357
# 5 0.002115 0.004433 0.002742 0.000000 0.044073 0.000000
# 6 0.000000 0.000000 0.000000 -0.007357 0.000000 0.080205
#
#
# Mechanical properties :
#
#
# Convention : Reuss Voigt Hill
#
# Bulk Modulus (GPa) = 42.19148 53.85468 48.02308
# Shear Modulus (GPa) = 20.40096 24.22905 22.31500
#
# Velocity S-wave (km/s) = 3.46601 3.77722 3.62496
# Velocity P-wave (km/s) = 6.39236 7.12291 6.76750
#
# Compressibility (1/GPa) = 0.02370147
#
# Stress axis : x y z
#
# Youngs Moduli (GPa) = 103.15503 43.50225 78.58945
#
# Poissons Ratio (x) = 0.13152 0.22869
# Poissons Ratio (y) = 0.31186 0.38658
# Poissons Ratio (z) = 0.30017 0.21399
#
# Static dielectric constant tensor:
#      x y z
#    x 1.596930 0.000000 0.019820 
#    y 0.000000 1.576470 0.000000 
#    z 0.019820 0.000000 1.599710 
# 
# From -- ./inp_files/207247.got.cif
#   From: 2010.05.17/outbox.cif.g08.bks.cpg/sg12_104_cif.got.tgz:207247.got - 2010.06.03 13:09:07.
