data_PCOD9191406
_publ_section_title
;
Structure prediction by ZEFSAII (Michael W. Deem and Ramdas Pophale) SiO2 
 PCOD9191406
Probable space group: C 2/M
;
_chemical_formula_sum "Si O2"
_cell_formula_units_Z 64
_cell_length_a 29.145056
_cell_length_b 8.937408
_cell_length_c 15.834704
_cell_angle_alpha 90.000000
_cell_angle_beta 90.020240
_cell_angle_gamma 90.000000
_cell_volume 4124.643339
_symmetry_space_group_name_H-M "C 2/M"
_symmetry_group_IT_number 12
_symmetry_cell_setting 'monoclinic'
loop_
_space_group_symop_operation_xyz
x,y,z
-x,y,-z
-x,-y,-z
x,-y,z
1/2+x,1/2+y,z
1/2-x,1/2+y,-z
1/2-x,1/2-y,-z
1/2+x,1/2-y,z
loop_
_atom_site_type_symbol
_atom_site_label
_atom_site_fract_x
_atom_site_fract_y
_atom_site_fract_z
Si Si1 0.945428 0.321542 0.323401
Si Si2 0.603371 0.319913 0.837500
Si Si3 0.896557 0.180088 0.837257
Si Si4 0.202208 0.179489 0.098550
Si Si5 0.297815 0.320512 0.098562
Si Si6 0.445264 0.821541 0.676357
Si Si7 0.055676 0.827670 0.500123
Si Si8 0.945199 0.322353 0.999862
O O1 0.939317 0.500000 0.321726
O O2 0.918156 0.244932 0.247602
O O3 0.930726 0.255870 0.414034
O O4 0.000086 0.291413 0.312930
O O5 0.599855 0.500000 0.838852
O O6 0.656865 0.278366 0.849842
O O7 0.576325 0.252904 0.917370
O O8 0.843087 0.221658 0.849844
O O9 0.917944 0.244929 0.752062
O O10 0.923741 0.247102 0.917006
O O11 0.900071 0.000000 0.838594
O O12 0.250019 0.249987 0.127650
O O13 0.206194 0.000000 0.100455
O O14 0.195165 0.223783 0.999993
O O15 0.293820 0.500000 0.100464
O O16 0.430646 0.755856 0.585663
O O17 0.439151 0.000000 0.677996
O O18 0.000000 0.827403 0.500000
O O19 0.070936 0.000000 0.500164
O O20 0.935528 0.500000 0.999837
O O21 0.000000 0.302549 0.000000
#
# Coordination Sequence:
#
# PCOD9191406 Si02
#       8
#     8   8   8   8   8   8   8   8
#     4  10  20  33  49  72 102 133 166 204 244 288
#     4  11  21  34  50  71  98 129 166 204 243 291
#     4  11  21  34  50  71  98 129 166 204 243 291
#     4   9  18  33  50  70  94 122 160 205 249 291
#     4   9  18  33  50  70  94 122 160 205 249 291
#     4  10  20  33  49  72 102 133 166 204 244 288
#     4   9  17  31  51  73  96 127 166 205 247 289
#     4  11  23  35  46  65  96 133 170 203 238 285
#
# _framework density 15.516493000000001
#
# number of rings (size 3 to 8) (size 9 to 14) (size 15 to 20)
#    0.000    2.000    1.250    3.000    0.000    9.000 
#    0.000    0.000    0.000    0.000    0.000    0.875 
#    0.000    0.000    0.000    0.000    0.000    0.000 
#
# Total GULP energy -178580.455437 kJ/mol
# GULP energy per Si atom -5580.639232 kJ/mol
# Density = 1.548118 g / cm^3
# Si number density = 15.516493 Si / 1000 Ang^3
#
#
#
# Elastic Constant Matrix: (Units=GPa)
#
#
# Indices 1 2 3 4 5 6 
#
# 1 106.3469 66.3121 77.9182 0.0000 1.6350 0.0000
# 2 66.3121 77.5791 66.1028 0.0000 -0.3333 0.0000
# 3 77.9182 66.1028 149.3520 0.0000 -6.6477 0.0000
# 4 0.0000 0.0000 0.0000 29.4516 0.0000 -0.2508
# 5 1.6350 -0.3333 -6.6477 0.0000 3.0434 0.0000
# 6 0.0000 0.0000 0.0000 -0.2508 0.0000 26.4993
#
#
#
# Elastic Compliance Matrix: (Units=1/GPa)
#
#
# Indices 1 2 3 4 5 6 
#
# 1 0.024789 -0.014589 -0.007909 0.000000 -0.032189 0.000000
# 2 -0.014589 0.030398 -0.005922 0.000000 -0.001769 0.000000
# 3 -0.007909 -0.005922 0.015068 0.000000 0.036512 0.000000
# 4 0.000000 0.000000 0.000000 0.033957 0.000000 0.000321
# 5 -0.032189 -0.001769 0.036512 0.000000 0.425431 0.000000
# 6 0.000000 0.000000 0.000000 0.000321 0.000000 0.037740
#
#
# Mechanical properties :
#
#
# Convention : Reuss Voigt Hill
#
# Bulk Modulus (GPa) = 74.53264 83.77160 79.15212
# Shear Modulus (GPa) = 7.95300 19.99520 13.97410
#
# Velocity S-wave (km/s) = 2.26642 3.59366 3.00425
# Velocity P-wave (km/s) = 7.41536 8.44542 7.94710
#
# Compressibility (1/GPa) = 0.01341694
#
# Stress axis : x y z
#
# Youngs Moduli (GPa) = 40.34017 32.89663 66.36683
#
# Poissons Ratio (x) = 0.47992 0.52487
# Poissons Ratio (y) = 0.58851 0.39302
# Poissons Ratio (z) = 0.31903 0.19481
#
# Static dielectric constant tensor:
#      x y z
#    x 1.503400 0.000000 0.000950 
#    y 0.000000 1.518680 0.000000 
#    z 0.000950 0.000000 1.492390 
# 
# From -- ./inp_files/244057.got.cif
#   From: 2010.05.17/outbox.cif.g08.bks.cpg/sg12_123_cif.got.tgz:244057.got - 2010.06.03 13:09:07.
