data_PCOD9191862
_publ_section_title
;
Structure prediction by ZEFSAII (Michael W. Deem and Ramdas Pophale) SiO2 
 PCOD9191862
Probable space group: C 2/M
;
_chemical_formula_sum "Si O2"
_cell_formula_units_Z 48
_cell_length_a 25.380675
_cell_length_b 7.466982
_cell_length_c 11.124694
_cell_angle_alpha 90.000000
_cell_angle_beta 70.301970
_cell_angle_gamma 90.000000
_cell_volume 1984.944781
_symmetry_space_group_name_H-M "C 2/M"
_symmetry_group_IT_number 12
_symmetry_cell_setting 'monoclinic'
loop_
_space_group_symop_operation_xyz
x,y,z
-x,y,-z
-x,-y,-z
x,-y,z
1/2+x,1/2+y,z
1/2-x,1/2+y,-z
1/2-x,1/2-y,-z
1/2+x,1/2-y,z
loop_
_atom_site_type_symbol
_atom_site_label
_atom_site_fract_x
_atom_site_fract_y
_atom_site_fract_z
Si Si1 0.736791 0.296731 0.182644
Si Si2 0.334253 0.783937 0.257832
Si Si3 0.825729 0.292540 0.528396
Si Si4 0.628759 0.718943 0.143742
Si Si5 0.062598 0.212529 0.963404
Si Si6 0.436570 0.283547 0.564738
O O1 0.747528 0.500000 0.136566
O O2 0.795201 0.212099 0.179569
O O3 0.703319 0.301072 0.336280
O O4 0.691977 0.217415 0.124060
O O5 0.314539 0.720126 0.403819
O O6 0.398308 0.739155 0.181956
O O7 0.329019 0.000000 0.263073
O O8 0.809146 0.500000 0.547047
O O9 0.892324 0.280877 0.500057
O O10 0.631689 0.500000 0.139475
O O11 0.589960 0.768635 0.286825
O O12 0.598494 0.784872 0.047634
O O13 0.057196 0.000000 0.988902
O O14 0.000000 0.285193 0.000000
O O15 0.500000 0.221532 0.500000
O O16 0.436774 0.500000 0.559678
#
# Coordination Sequence:
#
# PCOD9191862 Si02
#       6
#     8   8   8   8   8   8
#     4   9  18  36  59  79 106 142 180 222 269 323
#     4  10  22  37  54  79 110 146 180 218 271 324
#     4  10  20  33  51  81 116 139 170 222 274 321
#     4   8  16  33  53  77 105 133 175 227 265 306
#     4  10  22  37  55  78 106 141 182 228 268 313
#     4   9  18  32  55  79 103 142 183 217 263 322
#
# _framework density 24.182033000000001
#
# number of rings (size 3 to 8) (size 9 to 14) (size 15 to 20)
#    0.000    2.667    0.000    2.000    2.333    3.333 
#    0.000    3.333    0.000    0.000    0.000    0.000 
#    0.000    0.000    0.000    0.000    0.000    0.000 
#
# Total GULP energy -134140.639893 kJ/mol
# GULP energy per Si atom -5589.193329 kJ/mol
# Density = 2.412699 g / cm^3
# Si number density = 24.182033 Si / 1000 Ang^3
#
#
#
# Elastic Constant Matrix: (Units=GPa)
#
#
# Indices 1 2 3 4 5 6 
#
# 1 159.0645 10.5316 45.8077 0.0000 -7.8013 0.0000
# 2 10.5316 83.6570 8.5876 0.0000 2.8783 0.0000
# 3 45.8077 8.5876 91.3399 0.0000 13.8332 0.0000
# 4 0.0000 0.0000 0.0000 12.5071 0.0000 -3.9334
# 5 -7.8013 2.8783 13.8332 0.0000 41.4976 0.0000
# 6 0.0000 0.0000 0.0000 -3.9334 0.0000 9.7509
#
#
#
# Elastic Compliance Matrix: (Units=1/GPa)
#
#
# Indices 1 2 3 4 5 6 
#
# 1 0.007691 -0.000633 -0.004237 0.000000 0.002902 0.000000
# 2 -0.000633 0.012131 -0.000714 0.000000 -0.000723 0.000000
# 3 -0.004237 -0.000714 0.013958 0.000000 -0.005400 0.000000
# 4 0.000000 0.000000 0.000000 0.091571 0.000000 0.036938
# 5 0.002902 -0.000723 -0.005400 0.000000 0.026494 0.000000
# 6 0.000000 0.000000 0.000000 0.036938 0.000000 0.117455
#
#
# Mechanical properties :
#
#
# Convention : Reuss Voigt Hill
#
# Bulk Modulus (GPa) = 44.22294 51.54612 47.88453
# Shear Modulus (GPa) = 17.36077 30.69342 24.02709
#
# Velocity S-wave (km/s) = 2.68231 3.56654 3.15555
# Velocity P-wave (km/s) = 5.28396 6.19051 5.75512
#
# Compressibility (1/GPa) = 0.02261270
#
# Stress axis : x y z
#
# Youngs Moduli (GPa) = 130.01746 82.43072 71.64326
#
# Poissons Ratio (x) = 0.05219 0.30357
# Poissons Ratio (y) = 0.08232 0.05112
# Poissons Ratio (z) = 0.55092 0.05882
#
# Static dielectric constant tensor:
#      x y z
#    x 1.948840 0.000000 0.011610 
#    y 0.000000 1.900340 0.000000 
#    z 0.011610 0.000000 1.921480 
# 
# From -- ./inp_files/172054.got.cif
#   From: 2010.05.17/outbox.cif.g08.bks.cpg/sg12_87_cif.got.tgz:172054.got - 2010.06.03 13:09:07.
