data_PCOD9191589
_publ_section_title
;
Structure prediction by ZEFSAII (Michael W. Deem and Ramdas Pophale) SiO2 
 PCOD9191589
Probable space group: C 2/M
;
_chemical_formula_sum "Si O2"
_cell_formula_units_Z 48
_cell_length_a 14.427176
_cell_length_b 9.326320
_cell_length_c 20.677153
_cell_angle_alpha 90.000000
_cell_angle_beta 108.640090
_cell_angle_gamma 90.000000
_cell_volume 2636.223510
_symmetry_space_group_name_H-M "C 2/M"
_symmetry_group_IT_number 12
_symmetry_cell_setting 'monoclinic'
loop_
_space_group_symop_operation_xyz
x,y,z
-x,y,-z
-x,-y,-z
x,-y,z
1/2+x,1/2+y,z
1/2-x,1/2+y,-z
1/2-x,1/2-y,-z
1/2+x,1/2-y,z
loop_
_atom_site_type_symbol
_atom_site_label
_atom_site_fract_x
_atom_site_fract_y
_atom_site_fract_z
Si Si1 0.552792 0.671866 0.611649
Si Si2 0.150486 0.172090 0.495978
Si Si3 0.432180 0.828969 0.127169
Si Si4 0.655976 0.171168 0.751967
Si Si5 0.637157 0.327547 0.154170
Si Si6 0.115933 0.836402 0.006645
O O1 0.555436 0.500000 0.620449
O O2 0.615149 0.705894 0.561011
O O3 0.440553 0.712113 0.570734
O O4 0.597742 0.748163 0.683470
O O5 0.250000 0.250000 0.500000
O O6 0.162406 0.000000 0.494681
O O7 0.385703 0.795728 0.186155
O O8 0.539617 0.757802 0.149190
O O9 0.374102 0.764353 0.052858
O O10 0.438206 0.000000 0.121329
O O11 0.771251 0.206898 0.780123
O O12 0.647482 0.000000 0.740808
O O13 0.618906 0.500000 0.152263
O O14 0.664975 0.295428 0.085481
O O15 0.142614 0.000000 0.996081
O O16 0.000000 0.835692 0.000000
#
# Coordination Sequence:
#
# PCOD9191589 Si02
#       6
#     8   8   8   8   8   8
#     4   9  20  38  56  78 110 140 169 208 251 301
#     4   9  19  37  60  84 108 136 170 208 251 299
#     4  10  20  33  50  75 104 132 170 222 268 303
#     4  10  22  37  52  75 108 141 172 210 257 307
#     4   9  19  36  53  70  99 139 177 213 259 314
#     4   8  15  30  51  71  95 132 175 216 260 311
#
# _framework density 18.207865000000002
#
# number of rings (size 3 to 8) (size 9 to 14) (size 15 to 20)
#    0.000    2.833    0.000    2.500    0.000    8.333 
#    0.000    8.333    0.000    0.000    0.000    0.000 
#    0.000    0.000    0.000    0.000    0.000    0.000 
#
# Total GULP energy -133886.374294 kJ/mol
# GULP energy per Si atom -5578.598929 kJ/mol
# Density = 1.816642 g / cm^3
# Si number density = 18.207865 Si / 1000 Ang^3
#
#
#
# Elastic Constant Matrix: (Units=GPa)
#
#
# Indices 1 2 3 4 5 6 
#
# 1 86.1844 32.6435 35.9178 0.0000 13.7245 0.0000
# 2 32.6435 33.4748 40.8504 0.0000 4.9220 0.0000
# 3 35.9178 40.8504 116.7454 0.0000 23.4443 0.0000
# 4 0.0000 0.0000 0.0000 38.5001 0.0000 -3.7338
# 5 13.7245 4.9220 23.4443 0.0000 15.3978 0.0000
# 6 0.0000 0.0000 0.0000 -3.7338 0.0000 23.9582
#
#
#
# Elastic Compliance Matrix: (Units=1/GPa)
#
#
# Indices 1 2 3 4 5 6 
#
# 1 0.022545 -0.027384 0.007092 0.000000 -0.022139 0.000000
# 2 -0.027384 0.088287 -0.031260 0.000000 0.043782 0.000000
# 3 0.007092 -0.031260 0.023889 0.000000 -0.032701 0.000000
# 4 0.000000 0.000000 0.000000 0.026373 0.000000 0.004110
# 5 -0.022139 0.043782 -0.032701 0.000000 0.120472 0.000000
# 6 0.000000 0.000000 0.000000 0.004110 0.000000 0.042380
#
#
# Mechanical properties :
#
#
# Convention : Reuss Voigt Hill
#
# Bulk Modulus (GPa) = 31.62884 50.58086 41.10485
# Shear Modulus (GPa) = 11.42625 24.03743 17.73184
#
# Velocity S-wave (km/s) = 2.50780 3.63735 3.12405
# Velocity P-wave (km/s) = 5.07879 6.74392 5.96970
#
# Compressibility (1/GPa) = 0.03161672
#
# Stress axis : x y z
#
# Youngs Moduli (GPa) = 44.35510 11.32670 41.86079
#
# Poissons Ratio (x) = 0.31017 -0.29686
# Poissons Ratio (y) = 1.21464 1.30855
# Poissons Ratio (z) = -0.31455 0.35407
#
# Static dielectric constant tensor:
#      x y z
#    x 1.641520 0.000000 0.014960 
#    y 0.000000 1.600460 0.000000 
#    z 0.014960 0.000000 1.621230 
# 
# From -- ./inp_files/308317.got.cif
#   From: 2010.05.17/outbox.cif.g08.bks.cpg/sg12_155_cif.got.tgz:308317.got - 2010.06.03 13:09:07.
