data_PCOD9191807
_publ_section_title
;
Structure prediction by ZEFSAII (Michael W. Deem and Ramdas Pophale) SiO2 
 PCOD9191807
Probable space group: C 2/M
;
_chemical_formula_sum "Si O2"
_cell_formula_units_Z 56
_cell_length_a 26.268042
_cell_length_b 10.148598
_cell_length_c 18.701081
_cell_angle_alpha 90.000000
_cell_angle_beta 144.844718
_cell_angle_gamma 90.000000
_cell_volume 2870.568294
_symmetry_space_group_name_H-M "C 2/M"
_symmetry_group_IT_number 12
_symmetry_cell_setting 'monoclinic'
loop_
_space_group_symop_operation_xyz
x,y,z
-x,y,-z
-x,-y,-z
x,-y,z
1/2+x,1/2+y,z
1/2-x,1/2+y,-z
1/2-x,1/2-y,-z
1/2+x,1/2-y,z
loop_
_atom_site_type_symbol
_atom_site_label
_atom_site_fract_x
_atom_site_fract_y
_atom_site_fract_z
Si Si1 0.271626 0.644913 0.623784
Si Si2 0.002976 0.645172 0.776969
Si Si3 0.557907 0.846282 0.996850
Si Si4 0.868150 0.149513 0.585408
Si Si5 0.212160 0.848642 0.194853
Si Si6 0.675488 0.849012 0.887121
Si Si7 0.095454 0.341087 0.640781
O O1 0.226706 0.500000 0.567262
O O2 0.207363 0.767985 0.540572
O O3 0.338929 0.648283 0.635238
O O4 0.310305 0.651249 0.746923
O O5 0.965781 0.500000 0.716559
O O6 0.103152 0.644823 0.866289
O O7 0.954452 0.762087 0.681101
O O8 0.999706 0.661804 0.858317
O O9 0.642423 0.752839 0.082418
O O10 0.584987 0.000000 0.036331
O O11 0.500000 0.810542 0.000000
O O12 0.876978 0.000000 0.570900
O O13 0.315494 0.810552 0.302630
O O14 0.202222 0.000000 0.156876
O O15 0.624503 0.805977 0.755518
O O16 0.708341 0.000000 0.912691
O O17 0.750000 0.750000 0.000000
O O18 0.087510 0.500000 0.631609
O O19 0.000000 0.292035 0.500000
#
# Coordination Sequence:
#
# PCOD9191807 Si02
#       7
#     8   8   8   8   8   8   8
#     4   9  19  34  52  76 107 140 174 214 265 325
#     4  10  21  35  54  78 105 143 183 217 269 327
#     4  10  21  36  54  79 113 150 183 220 272 335
#     4  10  20  33  51  78 107 137 175 220 266 314
#     4  10  20  34  57  82 106 141 183 228 276 322
#     4  10  21  37  59  83 110 146 187 236 286 334
#     4   9  19  35  57  85 112 144 191 238 283 336
#
# _framework density 19.508331999999999
#
# number of rings (size 3 to 8) (size 9 to 14) (size 15 to 20)
#    0.000    2.286    0.000    2.143    2.000    2.571 
#    0.000    0.000    0.000    0.857    0.000    0.000 
#    0.000    0.000    0.000    0.000    0.000    0.000 
#
# Total GULP energy -156000.229286 kJ/mol
# GULP energy per Si atom -5571.436760 kJ/mol
# Density = 1.946393 g / cm^3
# Si number density = 19.508332 Si / 1000 Ang^3
#
#
#
# Elastic Constant Matrix: (Units=GPa)
#
#
# Indices 1 2 3 4 5 6 
#
# 1 25.9714 8.0305 5.9109 0.0000 -9.2691 0.0000
# 2 8.0305 128.5029 57.3598 0.0000 19.1478 0.0000
# 3 5.9109 57.3598 78.1205 0.0000 15.7315 0.0000
# 4 0.0000 0.0000 0.0000 52.7481 0.0000 14.9521
# 5 -9.2691 19.1478 15.7315 0.0000 26.0408 0.0000
# 6 0.0000 0.0000 0.0000 14.9521 0.0000 23.5162
#
#
#
# Elastic Compliance Matrix: (Units=1/GPa)
#
#
# Indices 1 2 3 4 5 6 
#
# 1 0.049679 -0.004244 -0.005501 0.000000 0.024127 0.000000
# 2 -0.004244 0.012287 -0.007488 0.000000 -0.006022 0.000000
# 3 -0.005501 -0.007488 0.020494 0.000000 -0.008833 0.000000
# 4 0.000000 0.000000 0.000000 0.023126 0.000000 -0.014704
# 5 0.024127 -0.006022 -0.008833 0.000000 0.056753 0.000000
# 6 0.000000 0.000000 0.000000 -0.014704 0.000000 0.051873
#
#
# Mechanical properties :
#
#
# Convention : Reuss Voigt Hill
#
# Bulk Modulus (GPa) = 20.83630 41.68856 31.26243
# Shear Modulus (GPa) = 18.89107 31.21393 25.05250
#
# Velocity S-wave (km/s) = 3.11522 4.00438 3.58745
# Velocity P-wave (km/s) = 4.86245 6.54187 5.76366
#
# Compressibility (1/GPa) = 0.04799317
#
# Stress axis : x y z
#
# Youngs Moduli (GPa) = 20.12915 81.38872 48.79585
#
# Poissons Ratio (x) = 0.34542 0.26844
# Poissons Ratio (y) = 0.08543 0.36537
# Poissons Ratio (z) = 0.11074 0.60942
#
# Static dielectric constant tensor:
#      x y z
#    x 1.707140 0.000000 -0.002740 
#    y 0.000000 1.696530 0.000000 
#    z -0.002740 0.000000 1.683510 
# 
# From -- ./inp_files/329649.got.cif
#   From: 2010.05.17/outbox.cif.g08.bks.cpg/sg12_165_cif.got.tgz:329649.got - 2010.06.03 13:09:07.
