data_PCOD9191020
_publ_section_title
;
Structure prediction by ZEFSAII (Michael W. Deem and Ramdas Pophale) SiO2 
 PCOD9191020
Probable space group: C 2/M
;
_chemical_formula_sum "Si O2"
_cell_formula_units_Z 56
_cell_length_a 23.538661
_cell_length_b 8.734390
_cell_length_c 19.155303
_cell_angle_alpha 90.000000
_cell_angle_beta 125.043128
_cell_angle_gamma 90.000000
_cell_volume 3224.324885
_symmetry_space_group_name_H-M "C 2/M"
_symmetry_group_IT_number 12
_symmetry_cell_setting 'monoclinic'
loop_
_space_group_symop_operation_xyz
x,y,z
-x,y,-z
-x,-y,-z
x,-y,z
1/2+x,1/2+y,z
1/2-x,1/2+y,-z
1/2-x,1/2-y,-z
1/2+x,1/2-y,z
loop_
_atom_site_type_symbol
_atom_site_label
_atom_site_fract_x
_atom_site_fract_y
_atom_site_fract_z
Si Si1 0.951805 0.684946 0.304387
Si Si2 0.046759 0.816798 0.101341
Si Si3 0.158056 0.182082 0.664309
Si Si4 0.196901 0.683843 0.172906
Si Si5 0.443110 0.183481 0.135415
Si Si6 0.698889 0.317193 0.022065
Si Si7 0.562581 0.823731 0.487289
O O1 0.950544 0.500000 0.309519
O O2 0.888891 0.747900 0.306665
O O3 0.945936 0.724641 0.219203
O O4 0.024418 0.736656 0.391064
O O5 0.124568 0.758992 0.144071
O O6 0.011225 0.735097 0.141981
O O7 0.045705 0.000000 0.109314
O O8 0.000000 0.780021 0.000000
O O9 0.237997 0.225784 0.732267
O O10 0.124795 0.234959 0.567820
O O11 0.152912 0.000000 0.665996
O O12 0.189469 0.500000 0.166566
O O13 0.214442 0.743220 0.107829
O O14 0.378611 0.268721 0.054237
O O15 0.433661 0.000000 0.123055
O O16 0.705131 0.500000 0.030337
O O17 0.750000 0.250000 0.000000
O O18 0.500000 0.822443 0.500000
O O19 0.583440 0.000000 0.491430
#
# Coordination Sequence:
#
# PCOD9191020 Si02
#       7
#     8   8   8   8   8   8   8
#     4   9  19  34  53  80 110 143 179 212 260 322
#     4  11  23  39  58  80 104 137 183 229 268 317
#     4  10  20  32  51  82 112 139 176 219 265 315
#     4  11  23  38  56  78 106 142 181 223 268 317
#     4  11  22  37  58  80 106 141 179 223 269 316
#     4  12  24  37  53  78 110 142 177 217 265 321
#     4   8  15  30  51  75 107 143 176 211 257 318
#
# _framework density 17.367975999999999
#
# number of rings (size 3 to 8) (size 9 to 14) (size 15 to 20)
#    0.000    1.714    1.429    4.714    0.000    8.857 
#    0.000    0.000    0.000    0.857    0.000    0.000 
#    0.000    0.000    0.000    0.000    0.000    0.000 
#
# Total GULP energy -156332.753945 kJ/mol
# GULP energy per Si atom -5583.312641 kJ/mol
# Density = 1.732845 g / cm^3
# Si number density = 17.367976 Si / 1000 Ang^3
#
#
#
# Elastic Constant Matrix: (Units=GPa)
#
#
# Indices 1 2 3 4 5 6 
#
# 1 59.4536 6.5174 4.5415 0.0000 21.2816 0.0000
# 2 6.5174 34.4548 19.2542 0.0000 8.6021 0.0000
# 3 4.5415 19.2542 82.1936 0.0000 29.8880 0.0000
# 4 0.0000 0.0000 0.0000 27.3625 0.0000 4.6604
# 5 21.2816 8.6021 29.8880 0.0000 24.0648 0.0000
# 6 0.0000 0.0000 0.0000 4.6604 0.0000 25.1105
#
#
#
# Elastic Compliance Matrix: (Units=1/GPa)
#
#
# Indices 1 2 3 4 5 6 
#
# 1 0.033687 -0.003479 0.017022 0.000000 -0.049688 0.000000
# 2 -0.003479 0.033972 -0.008149 0.000000 0.001055 0.000000
# 3 0.017022 -0.008149 0.032002 0.000000 -0.051886 0.000000
# 4 0.000000 0.000000 0.000000 0.037739 0.000000 -0.007004
# 5 -0.049688 0.001055 -0.051886 0.000000 0.149560 0.000000
# 6 0.000000 0.000000 0.000000 -0.007004 0.000000 0.041124
#
#
# Mechanical properties :
#
#
# Convention : Reuss Voigt Hill
#
# Bulk Modulus (GPa) = 9.05407 26.30315 17.67861
# Shear Modulus (GPa) = 14.11971 25.02681 19.57326
#
# Velocity S-wave (km/s) = 2.85436 3.80014 3.36069
# Velocity P-wave (km/s) = 4.01093 5.86790 5.02592
#
# Compressibility (1/GPa) = 0.11044761
#
# Stress axis : x y z
#
# Youngs Moduli (GPa) = 29.68512 29.43563 31.24786
#
# Poissons Ratio (x) = 0.10241 -0.53189
# Poissons Ratio (y) = 0.10328 0.25465
# Poissons Ratio (z) = -0.50529 0.23988
#
# Static dielectric constant tensor:
#      x y z
#    x 1.570680 0.000000 0.010890 
#    y 0.000000 1.582730 0.000000 
#    z 0.010890 0.000000 1.610300 
# 
# From -- ./inp_files/281606.got.cif
#   From: 2010.05.17/outbox.cif.g08.bks.cpg/sg12_141_cif.got.tgz:281606.got - 2010.06.03 13:09:07.
