data_PCOD9191316
_publ_section_title
;
Structure prediction by ZEFSAII (Michael W. Deem and Ramdas Pophale) SiO2 
 PCOD9191316
Probable space group: C 2/M
;
_chemical_formula_sum "Si O2"
_cell_formula_units_Z 56
_cell_length_a 28.541359
_cell_length_b 7.524109
_cell_length_c 19.250106
_cell_angle_alpha 90.000000
_cell_angle_beta 142.697138
_cell_angle_gamma 90.000000
_cell_volume 2505.276349
_symmetry_space_group_name_H-M "C 2/M"
_symmetry_group_IT_number 12
_symmetry_cell_setting 'monoclinic'
loop_
_space_group_symop_operation_xyz
x,y,z
-x,y,-z
-x,-y,-z
x,-y,z
1/2+x,1/2+y,z
1/2-x,1/2+y,-z
1/2-x,1/2-y,-z
1/2+x,1/2-y,z
loop_
_atom_site_type_symbol
_atom_site_label
_atom_site_fract_x
_atom_site_fract_y
_atom_site_fract_z
Si Si1 0.581280 0.712713 0.069239
Si Si2 0.372631 0.210034 0.034777
Si Si3 0.013785 0.717637 0.292608
Si Si4 0.705249 0.789474 0.795762
Si Si5 0.034049 0.717065 0.614188
Si Si6 0.318930 0.787285 0.528273
Si Si7 0.252852 0.718032 0.699095
O O1 0.579245 0.500000 0.075362
O O2 0.657658 0.775139 0.199622
O O3 0.500000 0.785665 0.000000
O O4 0.597097 0.748410 0.006993
O O5 0.436204 0.282192 0.163111
O O6 0.371248 0.000000 0.042056
O O7 0.282985 0.265663 0.932016
O O8 0.011647 0.500000 0.287769
O O9 0.094317 0.776189 0.352664
O O10 0.012063 0.770224 0.371430
O O11 0.623256 0.723533 0.726568
O O12 0.721350 0.720914 0.736660
O O13 0.695493 0.000000 0.776899
O O14 0.031688 0.500000 0.610646
O O15 0.000000 0.775389 0.500000
O O16 0.250000 0.750000 0.500000
O O17 0.294349 0.721765 0.423045
O O18 0.324104 0.000000 0.529893
O O19 0.251338 0.500000 0.698224
#
# Coordination Sequence:
#
# PCOD9191316 Si02
#       7
#     8   8   8   8   8   8   8
#     4   9  18  32  52  75  97 126 171 224 261 293
#     4  10  20  33  48  71 108 146 170 199 256 318
#     4   9  19  33  48  73 108 137 166 213 261 305
#     4   9  17  32  55  80 102 128 172 219 254 296
#     4   9  16  29  55  84 103 130 174 218 258 303
#     4  10  20  34  51  71  99 133 167 207 257 307
#     4   8  15  29  48  71  96 123 157 206 258 292
#
# _framework density 22.352823999999998
#
# number of rings (size 3 to 8) (size 9 to 14) (size 15 to 20)
#    0.000    2.857    0.000    2.143    2.000    4.286 
#    0.000    3.571    0.000    2.143    0.000    0.000 
#    0.000    0.000    0.000    0.000    0.000    0.000 
#
# Total GULP energy -156256.257209 kJ/mol
# GULP energy per Si atom -5580.580615 kJ/mol
# Density = 2.230195 g / cm^3
# Si number density = 22.352824 Si / 1000 Ang^3
#
#
#
# Elastic Constant Matrix: (Units=GPa)
#
#
# Indices 1 2 3 4 5 6 
#
# 1 100.5035 -2.8975 56.8443 0.0000 33.9643 0.0000
# 2 -2.8975 51.0458 -3.3175 0.0000 4.1739 0.0000
# 3 56.8443 -3.3175 140.1703 0.0000 14.2962 0.0000
# 4 0.0000 0.0000 0.0000 20.6161 0.0000 -13.8654
# 5 33.9643 4.1739 14.2962 0.0000 35.5790 0.0000
# 6 0.0000 0.0000 0.0000 -13.8654 0.0000 39.4490
#
#
#
# Elastic Compliance Matrix: (Units=1/GPa)
#
#
# Indices 1 2 3 4 5 6 
#
# 1 0.018640 0.001953 -0.005917 0.000000 -0.015646 0.000000
# 2 0.001953 0.020057 0.000118 0.000000 -0.004265 0.000000
# 3 -0.005917 0.000118 0.009345 0.000000 0.001880 0.000000
# 4 0.000000 0.000000 0.000000 0.063521 0.000000 0.022326
# 5 -0.015646 -0.004265 0.001880 0.000000 0.042787 0.000000
# 6 0.000000 0.000000 0.000000 0.022326 0.000000 0.033196
#
#
# Mechanical properties :
#
#
# Convention : Reuss Voigt Hill
#
# Bulk Modulus (GPa) = 24.78372 43.66426 34.22399
# Shear Modulus (GPa) = 23.95884 35.20150 29.58017
#
# Velocity S-wave (km/s) = 3.27746 3.97270 3.64171
# Velocity P-wave (km/s) = 5.04321 6.37335 5.74689
#
# Compressibility (1/GPa) = 0.04034907
#
# Stress axis : x y z
#
# Youngs Moduli (GPa) = 53.64671 49.85679 107.00964
#
# Poissons Ratio (x) = -0.09736 0.63322
# Poissons Ratio (y) = -0.10476 -0.01260
# Poissons Ratio (z) = 0.31745 -0.00587
#
# Static dielectric constant tensor:
#      x y z
#    x 1.798290 0.000000 0.032680 
#    y 0.000000 1.863190 0.000000 
#    z 0.032680 0.000000 1.835440 
# 
# From -- ./inp_files/292532.got.cif
#   From: 2010.05.17/outbox.cif.g08.bks.cpg/sg12_147_cif.got.tgz:292532.got - 2010.06.03 13:09:07.
