data_PCOD9191822
_publ_section_title
;
Structure prediction by ZEFSAII (Michael W. Deem and Ramdas Pophale) SiO2 
 PCOD9191822
Probable space group: C 2/M
;
_chemical_formula_sum "Si O2"
_cell_formula_units_Z 56
_cell_length_a 31.024599
_cell_length_b 9.107025
_cell_length_c 19.061242
_cell_angle_alpha 90.000000
_cell_angle_beta 141.976276
_cell_angle_gamma 90.000000
_cell_volume 3317.461921
_symmetry_space_group_name_H-M "C 2/M"
_symmetry_group_IT_number 12
_symmetry_cell_setting 'monoclinic'
loop_
_space_group_symop_operation_xyz
x,y,z
-x,y,-z
-x,-y,-z
x,-y,z
1/2+x,1/2+y,z
1/2-x,1/2+y,-z
1/2-x,1/2-y,-z
1/2+x,1/2-y,z
loop_
_atom_site_type_symbol
_atom_site_label
_atom_site_fract_x
_atom_site_fract_y
_atom_site_fract_z
Si Si1 0.796829 0.327011 0.618804
Si Si2 0.551980 0.176319 0.002367
Si Si3 0.845978 0.325665 0.354192
Si Si4 0.563736 0.668248 0.638138
Si Si5 0.550131 0.676220 0.401936
Si Si6 0.948911 0.672110 0.745714
Si Si7 0.697469 0.675227 0.224533
O O1 0.780199 0.500000 0.602730
O O2 0.750000 0.250000 0.500000
O O3 0.877423 0.312988 0.698173
O O4 0.787202 0.248494 0.680643
O O5 0.512244 0.210221 0.879015
O O6 0.562915 0.000000 0.020419
O O7 0.500000 0.215222 0.000000
O O8 0.625343 0.257420 0.104261
O O9 0.857038 0.500000 0.373376
O O10 0.876810 0.266300 0.320577
O O11 0.889954 0.248550 0.472959
O O12 0.764238 0.294602 0.260887
O O13 0.500000 0.668351 0.500000
O O14 0.587905 0.500000 0.676130
O O15 0.524985 0.716479 0.659467
O O16 0.556582 0.500000 0.414496
O O17 0.554593 0.732421 0.328670
O O18 0.954945 0.500000 0.733836
O O19 0.691095 0.500000 0.224622
#
# Coordination Sequence:
#
# PCOD9191822 Si02
#       7
#     8   8   8   8   8   8   8
#     4  11  22  36  52  75 107 140 173 213 259 312
#     4  10  20  39  59  75  98 136 181 222 264 309
#     4  10  20  33  51  78 110 140 173 212 258 312
#     4   8  16  31  50  75 106 137 171 211 256 310
#     4  10  20  33  52  80 110 138 172 213 260 312
#     4  10  21  36  54  75 103 136 174 217 259 308
#     4  11  23  36  52  78 107 137 175 219 262 308
#
# _framework density 16.880374
#
# number of rings (size 3 to 8) (size 9 to 14) (size 15 to 20)
#    0.000    2.000    1.429    3.429    0.000   10.857 
#    0.000    0.000    0.000    0.857    0.000    0.000 
#    0.000    0.000    0.000    0.000    0.000    0.000 
#
# Total GULP energy -156270.337747 kJ/mol
# GULP energy per Si atom -5581.083491 kJ/mol
# Density = 1.684195 g / cm^3
# Si number density = 16.880374 Si / 1000 Ang^3
#
#
#
# Elastic Constant Matrix: (Units=GPa)
#
#
# Indices 1 2 3 4 5 6 
#
# 1 76.4106 42.0094 9.9677 0.0000 23.1842 0.0000
# 2 42.0094 60.5438 31.7644 0.0000 21.1019 0.0000
# 3 9.9677 31.7644 59.0586 0.0000 26.7671 0.0000
# 4 0.0000 0.0000 0.0000 26.0079 0.0000 2.3035
# 5 23.1842 21.1019 26.7671 0.0000 20.8998 0.0000
# 6 0.0000 0.0000 0.0000 2.3035 0.0000 31.2672
#
#
#
# Elastic Compliance Matrix: (Units=1/GPa)
#
#
# Indices 1 2 3 4 5 6 
#
# 1 0.045599 -0.026615 0.041392 0.000000 -0.076722 0.000000
# 2 -0.026615 0.041623 -0.029149 0.000000 0.024831 0.000000
# 3 0.041392 -0.029149 0.078886 0.000000 -0.117518 0.000000
# 4 0.000000 0.000000 0.000000 0.038702 0.000000 -0.002851
# 5 -0.076722 0.024831 -0.117518 0.000000 0.258394 0.000000
# 6 0.000000 0.000000 0.000000 -0.002851 0.000000 0.032192
#
#
# Mechanical properties :
#
#
# Convention : Reuss Voigt Hill
#
# Bulk Modulus (GPa) = 7.27992 40.38844 23.83418
# Shear Modulus (GPa) = 8.77301 23.11975 15.94638
#
# Velocity S-wave (km/s) = 2.28220 3.70486 3.07688
# Velocity P-wave (km/s) = 3.35658 6.50227 5.17427
#
# Compressibility (1/GPa) = 0.13736407
#
# Stress axis : x y z
#
# Youngs Moduli (GPa) = 21.93020 24.02523 12.67646
#
# Poissons Ratio (x) = 0.63944 -0.52470
# Poissons Ratio (y) = 0.58368 0.36950
# Poissons Ratio (z) = -0.90773 0.70030
#
# Static dielectric constant tensor:
#      x y z
#    x 1.578830 0.000000 0.008160 
#    y 0.000000 1.565740 0.000000 
#    z 0.008160 0.000000 1.542340 
# 
# From -- ./inp_files/288436.got.cif
#   From: 2010.05.17/outbox.cif.g08.bks.cpg/sg12_145_cif.got.tgz:288436.got - 2010.06.03 13:09:07.
