data_PCOD9191288
_publ_section_title
;
Structure prediction by ZEFSAII (Michael W. Deem and Ramdas Pophale) SiO2 
 PCOD9191288
Probable space group: C 2/M
;
_chemical_formula_sum "Si O2"
_cell_formula_units_Z 64
_cell_length_a 25.065392
_cell_length_b 7.987887
_cell_length_c 24.551208
_cell_angle_alpha 90.000000
_cell_angle_beta 139.426377
_cell_angle_gamma 90.000000
_cell_volume 3197.247392
_symmetry_space_group_name_H-M "C 2/M"
_symmetry_group_IT_number 12
_symmetry_cell_setting 'monoclinic'
loop_
_space_group_symop_operation_xyz
x,y,z
-x,y,-z
-x,-y,-z
x,-y,z
1/2+x,1/2+y,z
1/2-x,1/2+y,-z
1/2-x,1/2-y,-z
1/2+x,1/2-y,z
loop_
_atom_site_type_symbol
_atom_site_label
_atom_site_fract_x
_atom_site_fract_y
_atom_site_fract_z
Si Si1 0.946184 0.301845 0.908994
Si Si2 0.527578 0.308222 0.463679
Si Si3 0.958720 0.802954 0.802509
Si Si4 0.140990 0.307770 0.459820
Si Si5 0.007528 0.302335 0.727979
Si Si6 0.725997 0.701977 0.360821
Si Si7 0.239947 0.296530 0.250719
Si Si8 0.130784 0.811097 0.735393
O O1 0.937466 0.500000 0.911833
O O2 0.985558 0.276088 0.880198
O O3 0.853155 0.236351 0.831644
O O4 0.000000 0.230886 0.000000
O O5 0.500000 0.239114 0.500000
O O6 0.559899 0.500000 0.495974
O O7 0.589418 0.199943 0.476325
O O8 0.445091 0.320856 0.364979
O O9 0.013847 0.770538 0.792936
O O10 0.867671 0.736152 0.716124
O O11 0.951001 0.000000 0.805899
O O12 0.155429 0.500000 0.455091
O O13 0.075521 0.230442 0.366389
O O14 0.226447 0.232095 0.548470
O O15 0.995285 0.500000 0.722015
O O16 0.088314 0.272033 0.754524
O O17 0.725416 0.500000 0.365249
O O18 0.764022 0.745094 0.330975
O O19 0.243200 0.500000 0.252625
O O20 0.297033 0.235148 0.245522
O O21 0.155404 0.000000 0.770189
#
# Coordination Sequence:
#
# PCOD9191288 Si02
#       8
#     8   8   8   8   8   8   8   8
#     4   9  18  34  57  83 106 125 148 185 236 292
#     4   9  16  25  38  58  85 119 160 203 242 278
#     4  10  20  34  52  73  98 128 161 198 240 287
#     4   9  18  30  42  60  89 125 165 205 242 280
#     4  10  20  33  48  67  94 131 172 207 240 280
#     4   9  18  31  46  67  96 128 163 205 249 287
#     4   9  17  30  50  75 100 127 159 195 239 289
#     4   9  17  29  45  66  94 127 162 199 237 281
#
# _framework density 20.017219000000001
#
# number of rings (size 3 to 8) (size 9 to 14) (size 15 to 20)
#    0.000    2.750    0.000    1.500    0.000    4.000 
#    0.000    2.500    0.000    0.750    0.000    0.000 
#    0.000    0.000    0.000    0.000    0.000    0.000 
#
# Total GULP energy -178292.403227 kJ/mol
# GULP energy per Si atom -5571.637601 kJ/mol
# Density = 1.997166 g / cm^3
# Si number density = 20.017219 Si / 1000 Ang^3
#
#
#
# Elastic Constant Matrix: (Units=GPa)
#
#
# Indices 1 2 3 4 5 6 
#
# 1 67.5524 -5.2682 27.4639 0.0000 -17.8878 0.0000
# 2 -5.2682 20.3860 2.7177 0.0000 4.5609 0.0001
# 3 27.4639 2.7177 87.5767 0.0000 -16.1055 0.0000
# 4 0.0000 0.0000 0.0000 13.1548 0.0000 -5.6086
# 5 -17.8878 4.5609 -16.1055 0.0000 19.2637 0.0000
# 6 0.0000 0.0001 0.0000 -5.6086 0.0000 22.5087
#
#
#
# Elastic Compliance Matrix: (Units=1/GPa)
#
#
# Indices 1 2 3 4 5 6 
#
# 1 0.020581 0.002346 -0.003681 0.000000 0.015479 0.000000
# 2 0.002346 0.053656 -0.005124 0.000000 -0.014809 0.000000
# 3 -0.003681 -0.005124 0.014566 0.000000 0.009974 0.000000
# 4 0.000000 0.000000 0.000000 0.085054 0.000000 0.021193
# 5 0.015479 -0.014809 0.009974 0.000000 0.078129 0.000000
# 6 0.000000 0.000000 0.000000 0.021193 0.000000 0.049708
#
#
# Mechanical properties :
#
#
# Convention : Reuss Voigt Hill
#
# Bulk Modulus (GPa) = 13.17762 25.03800 19.10781
# Shear Modulus (GPa) = 14.70996 21.02555 17.86776
#
# Velocity S-wave (km/s) = 2.71378 3.24446 2.99091
# Velocity P-wave (km/s) = 4.05178 5.15468 4.63614
#
# Compressibility (1/GPa) = 0.07588625
#
# Stress axis : x y z
#
# Youngs Moduli (GPa) = 48.58753 18.63732 68.65326
#
# Poissons Ratio (x) = -0.04373 0.25268
# Poissons Ratio (y) = -0.11401 0.35180
# Poissons Ratio (z) = 0.17883 0.09550
#
# Static dielectric constant tensor:
#      x y z
#    x 1.757670 0.000000 0.009800 
#    y 0.000000 1.743800 0.000000 
#    z 0.009800 0.000000 1.731300 
# 
# From -- ./inp_files/323618.got.cif
#   From: 2010.05.17/outbox.cif.g08.bks.cpg/sg12_162_cif.got.tgz:323618.got - 2010.06.03 13:09:07.
