data_PCOD9191384
_publ_section_title
;
Structure prediction by ZEFSAII (Michael W. Deem and Ramdas Pophale) SiO2 
 PCOD9191384
Probable space group: C 2/M
;
_chemical_formula_sum "Si O2"
_cell_formula_units_Z 56
_cell_length_a 19.414550
_cell_length_b 7.604858
_cell_length_c 26.706473
_cell_angle_alpha 90.000000
_cell_angle_beta 139.459427
_cell_angle_gamma 90.000000
_cell_volume 2562.944568
_symmetry_space_group_name_H-M "C 2/M"
_symmetry_group_IT_number 12
_symmetry_cell_setting 'monoclinic'
loop_
_space_group_symop_operation_xyz
x,y,z
-x,y,-z
-x,-y,-z
x,-y,z
1/2+x,1/2+y,z
1/2-x,1/2+y,-z
1/2-x,1/2-y,-z
1/2+x,1/2-y,z
loop_
_atom_site_type_symbol
_atom_site_label
_atom_site_fract_x
_atom_site_fract_y
_atom_site_fract_z
Si Si1 0.925438 0.213495 0.505184
Si Si2 0.454343 0.716043 0.747128
Si Si3 0.892944 0.207813 0.916918
Si Si4 0.794061 0.198277 0.578557
Si Si5 0.668667 0.712492 0.824003
Si Si6 0.318223 0.287045 0.766764
Si Si7 0.406615 0.292905 0.325599
O O1 0.807728 0.287843 0.441280
O O2 0.000000 0.261802 0.500000
O O3 0.988966 0.275692 0.589692
O O4 0.917022 0.000000 0.501209
O O5 0.451334 0.500000 0.745341
O O6 0.391261 0.781262 0.662816
O O7 0.577511 0.766820 0.812242
O O8 0.390971 0.772809 0.761237
O O9 0.789878 0.229693 0.895009
O O10 0.862042 0.278005 0.844774
O O11 0.909954 0.000000 0.919027
O O12 0.000000 0.281957 0.000000
O O13 0.750000 0.250000 0.500000
O O14 0.828772 0.000000 0.589958
O O15 0.670915 0.500000 0.824081
O O16 0.627279 0.779141 0.746886
O O17 0.317739 0.500000 0.766879
O O18 0.196059 0.229342 0.695880
O O19 0.424535 0.500000 0.328528
#
# Coordination Sequence:
#
# PCOD9191384 Si02
#       7
#     8   8   8   8   8   8   8
#     4  10  20  33  49  71 100 132 167 211 261 302
#     4   9  18  33  51  71  96 127 163 204 244 283
#     4   9  18  33  52  75 102 126 150 188 238 288
#     4  11  22  35  51  71  99 134 172 213 257 301
#     4   9  17  31  51  70  91 123 161 195 230 280
#     4   9  17  31  52  73  94 126 165 198 235 288
#     4   9  17  30  47  67  94 126 159 200 246 287
#
# _framework density 21.849867
#
# number of rings (size 3 to 8) (size 9 to 14) (size 15 to 20)
#    0.000    2.571    0.000    2.143    0.000    3.429 
#    0.000    6.429    0.000    0.000    0.000    0.000 
#    0.000    0.000    0.000    0.000    0.000    0.000 
#
# Total GULP energy -156263.438813 kJ/mol
# GULP energy per Si atom -5580.837100 kJ/mol
# Density = 2.180014 g / cm^3
# Si number density = 21.849867 Si / 1000 Ang^3
#
#
#
# Elastic Constant Matrix: (Units=GPa)
#
#
# Indices 1 2 3 4 5 6 
#
# 1 101.7905 -11.3877 23.5543 0.0000 24.2414 -0.0001
# 2 -11.3877 40.9958 -2.1502 0.0000 -6.3708 0.0000
# 3 23.5543 -2.1502 104.9392 0.0000 31.6567 0.0000
# 4 0.0000 0.0000 0.0000 4.1233 0.0000 3.2962
# 5 24.2414 -6.3708 31.6567 0.0000 30.7732 0.0000
# 6 -0.0001 0.0000 0.0000 3.2962 0.0000 20.3724
#
#
#
# Elastic Compliance Matrix: (Units=1/GPa)
#
#
# Indices 1 2 3 4 5 6 
#
# 1 0.012245 0.001953 0.000115 0.000000 -0.009360 0.000000
# 2 0.001953 0.025686 -0.001526 0.000000 0.005349 0.000000
# 3 0.000115 -0.001526 0.013912 0.000000 -0.014718 0.000000
# 4 0.000000 0.000000 0.000000 0.278551 0.000000 -0.045069
# 5 -0.009360 0.005349 -0.014718 0.000000 0.056117 0.000000
# 6 0.000000 0.000000 0.000000 -0.045069 0.000000 0.056378
#
#
# Mechanical properties :
#
#
# Convention : Reuss Voigt Hill
#
# Bulk Modulus (GPa) = 18.89338 29.75091 24.32215
# Shear Modulus (GPa) = 10.88262 26.90107 18.89184
#
# Velocity S-wave (km/s) = 2.23415 3.51262 2.94363
# Velocity P-wave (km/s) = 3.91420 5.48607 4.76539
#
# Compressibility (1/GPa) = 0.05292859
#
# Stress axis : x y z
#
# Youngs Moduli (GPa) = 81.66575 38.93115 71.87926
#
# Poissons Ratio (x) = -0.07603 -0.00828
# Poissons Ratio (y) = -0.15948 0.10966
# Poissons Ratio (z) = -0.00941 0.05939
#
# Static dielectric constant tensor:
#      x y z
#    x 1.821920 0.000000 -0.016280 
#    y 0.000000 1.821200 0.000000 
#    z -0.016280 0.000000 1.799680 
# 
# From -- ./inp_files/342310.got.cif
#   From: 2010.05.17/outbox.cif.g08.bks.cpg/sg12_172_cif.got.tgz:342310.got - 2010.06.03 13:09:07.
