data_PCOD9191482
_publ_section_title
;
Structure prediction by ZEFSAII (Michael W. Deem and Ramdas Pophale) SiO2 
 PCOD9191482
Probable space group: C 2/M
;
_chemical_formula_sum "Si O2"
_cell_formula_units_Z 64
_cell_length_a 22.587423
_cell_length_b 9.175758
_cell_length_c 14.518746
_cell_angle_alpha 90.000000
_cell_angle_beta 108.492179
_cell_angle_gamma 90.000000
_cell_volume 2853.738395
_symmetry_space_group_name_H-M "C 2/M"
_symmetry_group_IT_number 12
_symmetry_cell_setting 'monoclinic'
loop_
_space_group_symop_operation_xyz
x,y,z
-x,y,-z
-x,-y,-z
x,-y,z
1/2+x,1/2+y,z
1/2-x,1/2+y,-z
1/2-x,1/2-y,-z
1/2+x,1/2-y,z
loop_
_atom_site_type_symbol
_atom_site_label
_atom_site_fract_x
_atom_site_fract_y
_atom_site_fract_z
Si Si1 0.565533 0.164082 0.895970
Si Si2 0.690169 0.327767 0.252146
Si Si3 0.813597 0.839136 0.041911
Si Si4 0.445494 0.337634 0.836382
Si Si5 0.314294 0.827480 0.559648
Si Si6 0.939177 0.168030 0.607782
Si Si7 0.065283 0.332321 0.670358
Si Si8 0.312239 0.336069 0.259558
O O1 0.623797 0.258711 0.957866
O O2 0.498467 0.226176 0.890502
O O3 0.565743 0.164682 0.783318
O O4 0.574021 0.000000 0.931558
O O5 0.694603 0.500000 0.282168
O O6 0.625237 0.314270 0.165631
O O7 0.681949 0.214815 0.331538
O O8 0.753930 0.273101 0.239357
O O9 0.822323 0.853472 0.155872
O O10 0.807110 0.000000 0.996771
O O11 0.750000 0.750000 0.000000
O O12 0.465943 0.500000 0.872474
O O13 0.441207 0.335527 0.721647
O O14 0.250000 0.750000 0.500000
O O15 0.376259 0.752557 0.548978
O O16 0.312964 0.000000 0.542261
O O17 0.001483 0.253200 0.610446
O O18 0.938486 0.000000 0.576668
O O19 0.068194 0.500000 0.640607
O O20 0.125677 0.239758 0.671127
O O21 0.301277 0.500000 0.292539
#
# Coordination Sequence:
#
# PCOD9191482 Si02
#       8
#     8   8   8   8   8   8   8   8
#     4   9  16  26  44  69  95 123 159 200 243 287
#     4  10  20  34  52  75 102 133 167 205 248 296
#     4  10  20  33  50  72 100 131 165 203 247 295
#     4   8  15  27  44  67  95 124 157 198 243 286
#     4  11  21  34  52  75 103 134 168 206 248 295
#     4   9  16  28  46  70  98 127 162 205 248 290
#     4   9  16  27  45  70  97 127 163 204 246 290
#     4  10  20  33  50  74 102 133 166 205 250 297
#
# _framework density 22.426722999999999
#
# number of rings (size 3 to 8) (size 9 to 14) (size 15 to 20)
#    0.000    2.500    0.000    4.125    0.000    8.000 
#    0.000    0.000    0.000    1.500    0.000   10.500 
#    0.000    0.000    0.000    0.000    0.000    0.000 
#
# Total GULP energy -178708.352098 kJ/mol
# GULP energy per Si atom -5584.636003 kJ/mol
# Density = 2.237568 g / cm^3
# Si number density = 22.426723 Si / 1000 Ang^3
#
#
#
# Elastic Constant Matrix: (Units=GPa)
#
#
# Indices 1 2 3 4 5 6 
#
# 1 112.8981 80.2344 37.3409 0.0000 56.2871 0.0000
# 2 80.2344 214.5241 52.0407 0.0000 60.7761 0.0000
# 3 37.3409 52.0407 55.0807 0.0000 18.8328 0.0000
# 4 0.0000 0.0000 0.0000 19.5078 0.0000 14.5557
# 5 56.2871 60.7761 18.8328 0.0000 54.0988 0.0000
# 6 0.0000 0.0000 0.0000 14.5557 0.0000 36.3564
#
#
#
# Elastic Compliance Matrix: (Units=1/GPa)
#
#
# Indices 1 2 3 4 5 6 
#
# 1 0.021014 -0.000947 -0.007082 0.000000 -0.018335 0.000000
# 2 -0.000947 0.007942 -0.004708 0.000000 -0.006298 0.000000
# 3 -0.007082 -0.004708 0.026195 0.000000 0.003540 0.000000
# 4 0.000000 0.000000 0.000000 0.073098 0.000000 -0.029266
# 5 -0.018335 -0.006298 0.003540 0.000000 0.043404 0.000000
# 6 0.000000 0.000000 0.000000 -0.029266 0.000000 0.039222
#
#
# Mechanical properties :
#
#
# Convention : Reuss Voigt Hill
#
# Bulk Modulus (GPa) = 33.69799 80.19277 56.94538
# Shear Modulus (GPa) = 20.30513 36.18505 28.24509
#
# Velocity S-wave (km/s) = 3.01225 4.02117 3.55271
# Velocity P-wave (km/s) = 5.21120 7.57595 6.50199
#
# Compressibility (1/GPa) = 0.02967536
#
# Stress axis : x y z
#
# Youngs Moduli (GPa) = 47.58683 125.91062 38.17539
#
# Poissons Ratio (x) = 0.11925 0.27038
# Poissons Ratio (y) = 0.04507 0.17974
# Poissons Ratio (z) = 0.33703 0.59283
#
# Static dielectric constant tensor:
#      x y z
#    x 1.848230 0.000000 -0.049250 
#    y 0.000000 1.787310 0.000000 
#    z -0.049250 0.000000 1.912760 
# 
# From -- ./inp_files/345574.got.cif
#   From: 2010.05.17/outbox.cif.g08.bks.cpg/sg12_173_cif.got.tgz:345574.got - 2010.06.03 13:09:07.
