data_PCOD9191126
_publ_section_title
;
Structure prediction by ZEFSAII (Michael W. Deem and Ramdas Pophale) SiO2 
 PCOD9191126
Probable space group: C 2/M
;
_chemical_formula_sum "Si O2"
_cell_formula_units_Z 44
_cell_length_a 20.382259
_cell_length_b 8.517792
_cell_length_c 39.482769
_cell_angle_alpha 90.000000
_cell_angle_beta 163.289694
_cell_angle_gamma 90.000000
_cell_volume 1970.944279
_symmetry_space_group_name_H-M "C 2/M"
_symmetry_group_IT_number 12
_symmetry_cell_setting 'monoclinic'
loop_
_space_group_symop_operation_xyz
x,y,z
-x,y,-z
-x,-y,-z
x,-y,z
1/2+x,1/2+y,z
1/2-x,1/2+y,-z
1/2-x,1/2-y,-z
1/2+x,1/2-y,z
loop_
_atom_site_type_symbol
_atom_site_label
_atom_site_fract_x
_atom_site_fract_y
_atom_site_fract_z
Si Si1 0.134297 0.327188 0.734110
Si Si2 0.950820 0.683462 0.575655
Si Si3 0.434518 0.500000 0.272293
Si Si4 0.584308 0.000000 0.002808
Si Si5 0.355487 0.673104 0.393646
Si Si6 0.587711 0.667029 0.004278
Si Si7 0.764102 0.000000 0.644478
O O1 0.022300 0.500000 0.684499
O O2 0.366321 0.333127 0.870423
O O3 0.159938 0.312987 0.706259
O O4 0.006262 0.169583 0.682865
O O5 0.918980 0.500000 0.550068
O O6 0.750000 0.750000 0.500000
O O7 0.992551 0.792759 0.564253
O O8 0.159050 0.500000 0.136639
O O9 0.551126 0.500000 0.293687
O O10 0.704190 0.165425 0.055555
O O11 0.500000 0.000000 0.000000
O O12 0.500000 0.669469 0.500000
O O13 0.247673 0.500000 0.337609
O O14 0.211840 0.833785 0.324907
O O15 0.708553 0.500000 0.058953
O O16 0.500000 0.668752 0.000000
O O17 0.500000 0.000000 0.500000
#
# Coordination Sequence:
#
# PCOD9191126 Si02
#       7
#     8   8   4   4   8   8   4
#     4   9  20  32  47  78 108 132 171 215 261 313
#     4  11  23  35  52  75 104 139 179 226 268 311
#     4  10  20  32  54  76 103 145 167 210 270 312
#     4   8  14  26  44  72 104 127 158 200 253 315
#     4  10  22  38  53  69  93 135 183 225 264 305
#     4   8  13  25  44  66 100 138 153 190 254 314
#     4  10  22  36  52  68 102 136 185 218 250 310
#
# _framework density 22.324325000000002
#
# number of rings (size 3 to 8) (size 9 to 14) (size 15 to 20)
#    0.000    2.545    0.909    0.545    7.636    0.727 
#    0.000    0.000    0.000    0.000    0.000    0.000 
#    0.000   23.273    2.182    0.000    0.000    0.727 
#
# Total GULP energy -122493.353674 kJ/mol
# GULP energy per Si atom -5567.879712 kJ/mol
# Density = 2.227351 g / cm^3
# Si number density = 22.324325 Si / 1000 Ang^3
#
#
#
# Elastic Constant Matrix: (Units=GPa)
#
#
# Indices 1 2 3 4 5 6 
#
# 1 83.3777 42.9339 31.2568 0.0012 -20.7730 -0.0025
# 2 42.9339 299.4280 12.3018 0.0042 0.7769 -0.0048
# 3 31.2568 12.3018 100.7263 0.0137 -14.7757 -0.0084
# 4 0.0012 0.0042 0.0137 33.8697 0.0009 -28.9168
# 5 -20.7730 0.7769 -14.7757 0.0009 29.3728 0.0000
# 6 -0.0025 -0.0048 -0.0084 -28.9168 0.0000 30.4963
#
#
#
# Elastic Compliance Matrix: (Units=1/GPa)
#
#
# Indices 1 2 3 4 5 6 
#
# 1 0.017096 -0.002335 -0.003495 0.000004 0.010394 0.000004
# 2 -0.002335 0.003678 0.000020 0.000000 -0.001738 0.000000
# 3 -0.003495 0.000020 0.011496 -0.000011 0.003310 -0.000008
# 4 0.000004 0.000000 -0.000011 0.155025 -0.000008 0.146996
# 5 0.010394 -0.001738 0.003310 -0.000008 0.043107 -0.000006
# 6 0.000004 0.000000 -0.000008 0.146996 -0.000006 0.172174
#
#
# Mechanical properties :
#
#
# Convention : Reuss Voigt Hill
#
# Bulk Modulus (GPa) = 48.42546 72.94632 60.68589
# Shear Modulus (GPa) = 11.87428 45.21705 28.54567
#
# Velocity S-wave (km/s) = 2.30880 4.50539 3.57974
# Velocity P-wave (km/s) = 5.37087 7.73378 6.65799
#
# Compressibility (1/GPa) = 0.02065030
#
# Stress axis : x y z
#
# Youngs Moduli (GPa) = 58.49437 271.87689 86.98962
#
# Poissons Ratio (x) = 0.63474 0.30405
# Poissons Ratio (y) = 0.13656 -0.00176
# Poissons Ratio (z) = 0.20445 -0.00551
#
# Static dielectric constant tensor:
#      x y z
#    x 1.731230 0.000000 -0.030700 
#    y 0.000000 1.927850 -0.000010 
#    z -0.030700 -0.000010 1.819520 
# 
# From -- ./inp_files/295021.got.cif
#   From: 2010.05.17/outbox.cif.g08.bks.cpg/sg12_148_cif.got.tgz:295021.got - 2010.06.03 13:09:07.
