data_PCOD9191266
_publ_section_title
;
Structure prediction by ZEFSAII (Michael W. Deem and Ramdas Pophale) SiO2 
 PCOD9191266
Probable space group: C 2/M
;
_chemical_formula_sum "Si O2"
_cell_formula_units_Z 58
_cell_length_a 23.924285
_cell_length_b 8.079152
_cell_length_c 14.078671
_cell_angle_alpha 90.000000
_cell_angle_beta 123.446308
_cell_angle_gamma 90.000000
_cell_volume 2270.607643
_symmetry_space_group_name_H-M "C 2/M"
_symmetry_group_IT_number 12
_symmetry_cell_setting 'monoclinic'
loop_
_space_group_symop_operation_xyz
x,y,z
-x,y,-z
-x,-y,-z
x,-y,z
1/2+x,1/2+y,z
1/2-x,1/2+y,-z
1/2-x,1/2-y,-z
1/2+x,1/2-y,z
loop_
_atom_site_type_symbol
_atom_site_label
_atom_site_fract_x
_atom_site_fract_y
_atom_site_fract_z
Si Si1 0.087379 0.686092 0.026503
Si Si2 0.594414 0.691166 0.543484
Si Si3 0.274089 0.690726 0.894920
Si Si4 0.731986 0.811833 0.632638
Si Si5 0.000000 0.000000 0.000000
Si Si6 0.868999 0.804540 0.213556
Si Si7 0.628885 0.189533 0.287202
Si Si8 0.008253 0.305782 0.296652
O O1 0.059113 0.500000 0.980414
O O2 0.157220 0.707549 0.034991
O O3 0.108828 0.687317 0.157971
O O4 0.041250 0.849619 0.980419
O O5 0.575459 0.500000 0.535610
O O6 0.665974 0.703774 0.557118
O O7 0.609852 0.763115 0.662049
O O8 0.537581 0.777503 0.429258
O O9 0.290091 0.500000 0.930413
O O10 0.254055 0.705615 0.763916
O O11 0.204250 0.737113 0.880095
O O12 0.798767 0.771912 0.637203
O O13 0.711481 0.000000 0.597798
O O14 0.934951 0.768819 0.214741
O O15 0.860043 0.000000 0.214922
O O16 0.566691 0.267247 0.284767
O O17 0.636147 0.000000 0.326032
O O18 0.002556 0.500000 0.273838
#
# Coordination Sequence:
#
# PCOD9191266 Si02
#       8
#     8   8   8   8   2   8   8   8
#     4  10  20  37  59  87 123 146 169 213 265 318
#     4  10  20  33  47  67  99 137 180 236 285 320
#     4   9  16  31  53  79 107 138 178 223 263 317
#     4   9  17  29  50  72  94 134 178 221 271 318
#     4  12  22  36  60  98 120 140 174 204 260 340
#     4  10  20  33  49  72 102 139 187 233 282 315
#     4   9  20  36  52  72 105 142 176 217 266 324
#     4  11  22  34  48  70 100 138 189 232 273 322
#
# _framework density 25.543824999999998
#
# number of rings (size 3 to 8) (size 9 to 14) (size 15 to 20)
#    0.000    2.207    0.690    2.690    0.966    8.276 
#    0.000    0.000    0.000    0.000    0.000    0.966 
#    0.000    0.000    0.000    0.000    0.000    0.000 
#
# Total GULP energy -162023.532410 kJ/mol
# GULP energy per Si atom -5587.018359 kJ/mol
# Density = 2.548569 g / cm^3
# Si number density = 25.543825 Si / 1000 Ang^3
#
#
#
# Elastic Constant Matrix: (Units=GPa)
#
#
# Indices 1 2 3 4 5 6 
#
# 1 208.7746 34.4416 38.5727 0.0000 27.6494 0.0000
# 2 34.4416 102.0338 17.9421 0.0000 23.1463 0.0000
# 3 38.5727 17.9421 133.5165 0.0000 12.6001 0.0000
# 4 0.0000 0.0000 0.0000 -3.2174 0.0000 14.9727
# 5 27.6494 23.1463 12.6001 0.0000 33.5037 0.0000
# 6 0.0000 0.0000 0.0000 14.9727 0.0000 34.2315
#
#
#
# Elastic Compliance Matrix: (Units=1/GPa)
#
#
# Indices 1 2 3 4 5 6 
#
# 1 0.005627 -0.000878 -0.001168 0.000000 -0.003598 0.000000
# 2 -0.000878 0.011849 -0.000658 0.000000 -0.007214 0.000000
# 3 -0.001168 -0.000658 0.008068 0.000000 -0.001616 0.000000
# 4 0.000000 0.000000 0.000000 -0.102392 0.000000 0.044786
# 5 -0.003598 -0.007214 -0.001616 0.000000 0.038408 0.000000
# 6 0.000000 0.000000 0.000000 0.044786 0.000000 0.009624
#
#
# Mechanical properties :
#
#
# Convention : Reuss Voigt Hill
#
# Bulk Modulus (GPa) = 49.66067 69.58197 59.62132
# Shear Modulus (GPa) = -299.48377 36.46147 -131.51115
#
# Velocity S-wave (km/s) = -10.83963 3.78220 -7.18306
# Velocity P-wave (km/s) = 11.71238 6.80976 6.73822
#
# Compressibility (1/GPa) = 0.02013666
#
# Stress axis : x y z
#
# Youngs Moduli (GPa) = 177.71490 84.39379 123.94543
#
# Poissons Ratio (x) = 0.07408 0.14478
# Poissons Ratio (y) = 0.15600 0.08154
# Poissons Ratio (z) = 0.20759 0.05552
#
# Static dielectric constant tensor:
#      x y z
#    x 2.073770 0.000000 -0.086390 
#    y 0.000000 1.924850 0.000000 
#    z -0.086390 0.000000 2.045840 
# 
# From -- ./inp_files/281568.got.cif
#   From: 2010.05.17/outbox.cif.g08.bks.cpg/sg12_141_cif.got.tgz:281568.got - 2010.06.03 13:09:07.
