data_PCOD9191480
_publ_section_title
;
Structure prediction by ZEFSAII (Michael W. Deem and Ramdas Pophale) SiO2 
 PCOD9191480
Probable space group: C 2/M
;
_chemical_formula_sum "Si O2"
_cell_formula_units_Z 64
_cell_length_a 31.839227
_cell_length_b 8.703493
_cell_length_c 15.187829
_cell_angle_alpha 90.000000
_cell_angle_beta 118.490736
_cell_angle_gamma 90.000000
_cell_volume 3699.034845
_symmetry_space_group_name_H-M "C 2/M"
_symmetry_group_IT_number 12
_symmetry_cell_setting 'monoclinic'
loop_
_space_group_symop_operation_xyz
x,y,z
-x,y,-z
-x,-y,-z
x,-y,z
1/2+x,1/2+y,z
1/2-x,1/2+y,-z
1/2-x,1/2-y,-z
1/2+x,1/2-y,z
loop_
_atom_site_type_symbol
_atom_site_label
_atom_site_fract_x
_atom_site_fract_y
_atom_site_fract_z
Si Si1 0.363013 0.685224 0.090330
Si Si2 0.219515 0.185209 0.124576
Si Si3 0.830024 0.183666 0.424728
Si Si4 0.830024 0.316334 0.235319
Si Si5 0.719515 0.814791 0.314454
Si Si6 0.947290 0.815447 0.042461
Si Si7 0.863013 0.314777 0.635696
Si Si8 0.552710 0.184552 0.147880
O O1 0.361703 0.500000 0.096042
O O2 0.360534 0.755870 0.184380
O O3 0.409365 0.727321 0.079445
O O4 0.316475 0.735575 0.987696
O O5 0.274513 0.232744 0.164428
O O6 0.204587 0.250000 0.204587
O O7 0.218037 0.000000 0.127139
O O8 0.844525 0.250001 0.344525
O O9 0.774513 0.232743 0.384598
O O10 0.860534 0.244129 0.536688
O O11 0.831228 0.000000 0.422640
O O12 0.831227 0.500000 0.239813
O O13 0.683525 0.764425 0.354747
O O14 0.718037 0.000000 0.308933
O O15 0.000000 0.749999 0.113332
O O16 0.949453 0.000000 0.038751
O O17 0.932151 0.750001 0.932152
O O18 0.861702 0.500000 0.627362
O O19 0.909365 0.272680 0.739286
O O20 0.550548 0.000000 0.139844
#
# Coordination Sequence:
#
# PCOD9191480 Si02
#       8
#     8   8   8   8   8   8   8   8
#     4  10  20  33  50  73 100 130 166 205 244 289
#     4   9  18  31  47  71 102 133 165 201 241 287
#     4  10  20  33  50  71  98 133 168 204 244 286
#     4  10  20  33  50  71  98 133 168 204 244 286
#     4   9  18  31  47  71 102 133 165 201 241 287
#     4  10  20  34  53  76 103 132 161 199 245 293
#     4  10  20  33  50  73 100 130 166 205 244 289
#     4  10  20  34  53  76 103 132 161 199 245 293
#
# _framework density 17.301808999999999
#
# number of rings (size 3 to 8) (size 9 to 14) (size 15 to 20)
#    0.000    2.250    0.000    3.750    0.000    4.000 
#    0.000    0.000    0.000    0.750    0.000    5.250 
#    0.000    0.000    0.000    0.000    0.000    0.000 
#
# Total GULP energy -178640.164648 kJ/mol
# GULP energy per Si atom -5582.505145 kJ/mol
# Density = 1.726243 g / cm^3
# Si number density = 17.301809 Si / 1000 Ang^3
#
#
#
# Elastic Constant Matrix: (Units=GPa)
#
#
# Indices 1 2 3 4 5 6 
#
# 1 105.3264 36.7379 80.0193 0.0000 -26.0945 0.0000
# 2 36.7379 31.2542 43.4070 0.0000 -5.7760 0.0000
# 3 80.0193 43.4070 157.6828 0.0000 -19.2505 0.0000
# 4 0.0000 0.0000 0.0000 30.3226 0.0000 -6.8211
# 5 -26.0945 -5.7760 -19.2505 0.0000 21.7918 0.0000
# 6 0.0000 0.0000 0.0000 -6.8211 0.0000 22.4462
#
#
#
# Elastic Compliance Matrix: (Units=1/GPa)
#
#
# Indices 1 2 3 4 5 6 
#
# 1 0.024755 -0.018360 -0.005025 0.000000 0.020337 0.000000
# 2 -0.018360 0.065449 -0.010386 0.000000 -0.013813 0.000000
# 3 -0.005025 -0.010386 0.011971 0.000000 0.001805 0.000000
# 4 0.000000 0.000000 0.000000 0.035399 0.000000 0.010757
# 5 0.020337 -0.013813 0.001805 0.000000 0.068174 0.000000
# 6 0.000000 0.000000 0.000000 0.010757 0.000000 0.047820
#
#
# Mechanical properties :
#
#
# Convention : Reuss Voigt Hill
#
# Bulk Modulus (GPa) = 28.87484 68.28799 48.58141
# Shear Modulus (GPa) = 15.03059 23.85205 19.44132
#
# Velocity S-wave (km/s) = 2.95062 3.71696 3.35574
# Velocity P-wave (km/s) = 5.32291 7.61416 6.56920
#
# Compressibility (1/GPa) = 0.03463223
#
# Stress axis : x y z
#
# Youngs Moduli (GPa) = 40.39660 15.27902 83.53259
#
# Poissons Ratio (x) = 0.28053 0.41976
# Poissons Ratio (y) = 0.74170 0.86756
# Poissons Ratio (z) = 0.20300 0.15869
#
# Static dielectric constant tensor:
#      x y z
#    x 1.582370 0.000000 0.009370 
#    y 0.000000 1.582370 0.000000 
#    z 0.009370 0.000000 1.571550 
# 
# From -- ./inp_files/249242.got.cif
#   From: 2010.05.17/outbox.cif.g08.bks.cpg/sg12_125_cif.got.tgz:249242.got - 2010.06.03 13:09:07.
