data_PCOD9191716
_publ_section_title
;
Structure prediction by ZEFSAII (Michael W. Deem and Ramdas Pophale) SiO2 
 PCOD9191716
Probable space group: C 2/M
;
_chemical_formula_sum "Si O2"
_cell_formula_units_Z 48
_cell_length_a 15.409179
_cell_length_b 7.548105
_cell_length_c 19.414479
_cell_angle_alpha 90.000000
_cell_angle_beta 97.657270
_cell_angle_gamma 90.000000
_cell_volume 2237.964194
_symmetry_space_group_name_H-M "C 2/M"
_symmetry_group_IT_number 12
_symmetry_cell_setting 'monoclinic'
loop_
_space_group_symop_operation_xyz
x,y,z
-x,y,-z
-x,-y,-z
x,-y,z
1/2+x,1/2+y,z
1/2-x,1/2+y,-z
1/2-x,1/2-y,-z
1/2+x,1/2-y,z
loop_
_atom_site_type_symbol
_atom_site_label
_atom_site_fract_x
_atom_site_fract_y
_atom_site_fract_z
Si Si1 0.288122 0.710909 0.079562
Si Si2 0.893409 0.216547 0.562838
Si Si3 0.350678 0.705266 0.820437
Si Si4 0.408891 0.711821 0.408892
Si Si5 0.229964 0.212147 0.328754
Si Si6 0.515568 0.717169 0.922471
O O1 0.287696 0.500000 0.089390
O O2 0.225631 0.789570 0.130826
O O3 0.388441 0.772844 0.091823
O O4 0.250000 0.750000 0.000000
O O5 0.881723 0.276234 0.482600
O O6 0.821135 0.279477 0.609056
O O7 0.991903 0.271340 0.595105
O O8 0.890691 0.000000 0.562149
O O9 0.372141 0.500000 0.808231
O O10 0.314127 0.783081 0.745534
O O11 0.437531 0.781495 0.865204
O O12 0.414060 0.500000 0.413916
O O13 0.332999 0.754094 0.347352
O O14 0.220232 0.000000 0.327072
O O15 0.514076 0.500000 0.922937
O O16 0.500000 0.771922 0.000000
#
# Coordination Sequence:
#
# PCOD9191716 Si02
#       6
#     8   8   8   8   8   8
#     4  11  21  35  58  82 103 130 169 216 261 309
#     4   8  16  32  53  77 103 139 179 214 256 309
#     4  10  21  37  53  74 105 141 176 213 256 309
#     4   9  17  32  55  78 103 135 178 222 256 301
#     4  10  20  33  51  75 107 140 172 212 265 314
#     4   9  17  33  56  76  98 132 172 206 247 311
#
# _framework density 21.448067000000002
#
# number of rings (size 3 to 8) (size 9 to 14) (size 15 to 20)
#    0.000    2.500    1.667    2.000    0.000    2.000 
#    0.000    8.333    0.000    0.000    0.000    0.000 
#    0.000    0.000    0.000    0.000    0.000    0.000 
#
# Total GULP energy -134004.330975 kJ/mol
# GULP energy per Si atom -5583.513791 kJ/mol
# Density = 2.139925 g / cm^3
# Si number density = 21.448067 Si / 1000 Ang^3
#
#
#
# Elastic Constant Matrix: (Units=GPa)
#
#
# Indices 1 2 3 4 5 6 
#
# 1 108.2795 -8.6210 34.2125 0.0000 37.1478 0.0000
# 2 -8.6210 51.3792 -4.1416 0.0000 3.7623 0.0000
# 3 34.2125 -4.1416 77.0356 0.0000 41.7153 0.0000
# 4 0.0000 0.0000 0.0000 10.4348 0.0000 3.1710
# 5 37.1478 3.7623 41.7153 0.0000 37.4490 0.0000
# 6 0.0000 0.0000 0.0000 3.1710 0.0000 19.0047
#
#
#
# Elastic Compliance Matrix: (Units=1/GPa)
#
#
# Indices 1 2 3 4 5 6 
#
# 1 0.015256 0.004479 0.004798 0.000000 -0.020927 0.000000
# 2 0.004479 0.021836 0.007003 0.000000 -0.014437 0.000000
# 3 0.004798 0.007003 0.035748 0.000000 -0.045283 0.000000
# 4 0.000000 0.000000 0.000000 0.100952 0.000000 -0.016844
# 5 -0.020927 -0.014437 -0.045283 0.000000 0.099354 0.000000
# 6 0.000000 0.000000 0.000000 -0.016844 0.000000 0.055429
#
#
# Mechanical properties :
#
#
# Convention : Reuss Voigt Hill
#
# Bulk Modulus (GPa) = 9.48778 31.06600 20.27689
# Shear Modulus (GPa) = 15.09894 27.72734 21.41314
#
# Velocity S-wave (km/s) = 2.65613 3.59941 3.16313
# Velocity P-wave (km/s) = 3.72021 5.63827 4.77650
#
# Compressibility (1/GPa) = 0.10539875
#
# Stress axis : x y z
#
# Youngs Moduli (GPa) = 65.54952 45.79532 27.97372
#
# Poissons Ratio (x) = -0.20512 -0.13422
# Poissons Ratio (y) = -0.29359 -0.19589
# Poissons Ratio (z) = -0.31450 -0.32069
#
# Static dielectric constant tensor:
#      x y z
#    x 1.721810 0.000000 0.018610 
#    y 0.000000 1.820080 0.000000 
#    z 0.018610 0.000000 1.752310 
# 
# From -- ./inp_files/307997.got.cif
#   From: 2010.05.17/outbox.cif.g08.bks.cpg/sg12_154_cif.got.tgz:307997.got - 2010.06.03 13:09:07.
