data_PCOD9191874
_publ_section_title
;
Structure prediction by ZEFSAII (Michael W. Deem and Ramdas Pophale) SiO2 
 PCOD9191874
Probable space group: C 2/M
;
_chemical_formula_sum "Si O2"
_cell_formula_units_Z 64
_cell_length_a 10.007124
_cell_length_b 14.144618
_cell_length_c 23.757795
_cell_angle_alpha 90.000000
_cell_angle_beta 124.775931
_cell_angle_gamma 90.000000
_cell_volume 2762.202131
_symmetry_space_group_name_H-M "C 2/M"
_symmetry_group_IT_number 12
_symmetry_cell_setting 'monoclinic'
loop_
_space_group_symop_operation_xyz
x,y,z
-x,y,-z
-x,-y,-z
x,-y,z
1/2+x,1/2+y,z
1/2-x,1/2+y,-z
1/2-x,1/2-y,-z
1/2+x,1/2-y,z
loop_
_atom_site_type_symbol
_atom_site_label
_atom_site_fract_x
_atom_site_fract_y
_atom_site_fract_z
Si Si1 0.550657 0.607549 0.816448
Si Si2 0.742650 0.115162 0.591842
Si Si3 0.729491 0.114144 0.797011
Si Si4 0.905657 0.384732 0.562387
Si Si5 0.319254 0.646160 0.947282
Si Si6 0.676533 0.130911 0.026464
Si Si7 0.634102 0.115662 0.322720
Si Si8 0.110489 0.884634 0.709663
O O1 0.506250 0.500000 0.789916
O O2 0.382243 0.652792 0.797512
O O3 0.675090 0.602189 0.897968
O O4 0.637217 0.645865 0.781038
O O5 0.694975 0.144003 0.516944
O O6 0.593914 0.144275 0.596960
O O7 0.924419 0.142982 0.651755
O O8 0.741725 0.000000 0.592563
O O9 0.760442 0.133707 0.870060
O O10 0.550420 0.144703 0.735695
O O11 0.731679 0.000000 0.791636
O O12 0.906073 0.500000 0.562780
O O13 0.833879 0.354816 0.605103
O O14 0.326462 0.756694 0.963786
O O15 0.500000 0.607700 0.000000
O O16 0.206862 0.606349 0.969153
O O17 0.500000 0.096374 0.000000
O O18 0.761872 0.149323 0.306527
O O19 0.637661 0.000000 0.322798
O O20 0.121979 0.000000 0.709419
#
# Coordination Sequence:
#
# PCOD9191874 Si02
#       8
#     8   8   8   8   8   8   8   8
#     4  10  20  34  50  71  98 129 162 196 240 290
#     4   8  13  22  37  56  81 119 160 197 232 276
#     4  10  20  33  52  72  95 128 164 201 236 283
#     4   8  13  22  37  56  81 118 163 196 228 278
#     4  10  20  38  55  73  96 123 162 197 240 291
#     4  10  22  36  54  74  97 126 154 198 247 290
#     4   9  17  27  39  61  91 123 157 196 240 282
#     4   9  17  27  39  60  93 124 154 195 243 285
#
# _framework density 23.169917999999999
#
# number of rings (size 3 to 8) (size 9 to 14) (size 15 to 20)
#    0.000    2.750    1.250    1.500    1.750    4.500 
#    0.000    2.500    0.000    0.000    0.000    0.000 
#    0.000    1.000    0.000    2.250    0.000    2.500 
#
# Total GULP energy -178755.147402 kJ/mol
# GULP energy per Si atom -5586.098356 kJ/mol
# Density = 2.311718 g / cm^3
# Si number density = 23.169918 Si / 1000 Ang^3
#
#
#
# Elastic Constant Matrix: (Units=GPa)
#
#
# Indices 1 2 3 4 5 6 
#
# 1 168.4510 -8.2307 56.6745 0.0000 -32.4394 0.0000
# 2 -8.2307 69.3415 -13.8668 0.0000 -3.5925 0.0000
# 3 56.6745 -13.8668 94.6966 0.0000 -21.6853 0.0000
# 4 0.0000 0.0000 0.0000 64.2539 0.0000 -64.2517
# 5 -32.4394 -3.5925 -21.6853 0.0000 42.4175 0.0000
# 6 0.0000 0.0000 0.0000 -64.2517 0.0000 101.7206
#
#
#
# Elastic Compliance Matrix: (Units=1/GPa)
#
#
# Indices 1 2 3 4 5 6 
#
# 1 0.008049 0.000420 -0.003781 0.000000 0.004258 0.000000
# 2 0.000420 0.015153 0.002645 0.000000 0.002957 0.000000
# 3 -0.003781 0.002645 0.014270 0.000000 0.004628 0.000000
# 4 0.000000 0.000000 0.000000 0.042249 0.000000 0.026686
# 5 0.004258 0.002957 0.004628 0.000000 0.029448 0.000000
# 6 0.000000 0.000000 0.000000 0.026686 0.000000 0.026687
#
#
# Mechanical properties :
#
#
# Convention : Reuss Voigt Hill
#
# Bulk Modulus (GPa) = 27.74681 44.62702 36.18691
# Shear Modulus (GPa) = 33.48937 61.53920 47.51428
#
# Velocity S-wave (km/s) = 3.80594 5.15923 4.53337
# Velocity P-wave (km/s) = 5.59598 7.40221 6.56154
#
# Compressibility (1/GPa) = 0.03604018
#
# Stress axis : x y z
#
# Youngs Moduli (GPa) = 124.23965 65.99230 70.07872
#
# Poissons Ratio (x) = -0.02772 0.26493
# Poissons Ratio (y) = -0.05218 -0.18533
# Poissons Ratio (z) = 0.46969 -0.17453
#
# Static dielectric constant tensor:
#      x y z
#    x 1.869750 0.000000 -0.036120 
#    y 0.000000 1.957740 0.000000 
#    z -0.036120 0.000000 1.821040 
# 
# From -- ./inp_files/302127.got.cif
#   From: 2010.05.17/outbox.cif.g08.bks.cpg/sg12_152_cif.got.tgz:302127.got - 2010.06.03 13:09:07.
