data_PCOD9191123
_publ_section_title
;
Structure prediction by ZEFSAII (Michael W. Deem and Ramdas Pophale) SiO2 
 PCOD9191123
Probable space group: C 2/M
;
_chemical_formula_sum "Si O2"
_cell_formula_units_Z 44
_cell_length_a 13.584320
_cell_length_b 5.694629
_cell_length_c 23.946357
_cell_angle_alpha 90.000000
_cell_angle_beta 59.520605
_cell_angle_gamma 90.000000
_cell_volume 1596.449339
_symmetry_space_group_name_H-M "C 2/M"
_symmetry_group_IT_number 12
_symmetry_cell_setting 'monoclinic'
loop_
_space_group_symop_operation_xyz
x,y,z
-x,y,-z
-x,-y,-z
x,-y,z
1/2+x,1/2+y,z
1/2-x,1/2+y,-z
1/2-x,1/2-y,-z
1/2+x,1/2-y,z
loop_
_atom_site_type_symbol
_atom_site_label
_atom_site_fract_x
_atom_site_fract_y
_atom_site_fract_z
Si Si1 0.156627 0.000000 0.434031
Si Si2 0.169951 0.500000 0.267723
Si Si3 0.864057 0.000000 0.427798
Si Si4 0.060045 0.249427 0.042772
Si Si5 0.150868 0.500000 0.404225
Si Si6 0.461515 0.750361 0.188914
Si Si7 0.584343 0.000000 0.635849
Si Si8 0.271316 0.249763 0.852159
O O1 0.098582 0.758370 0.430854
O O2 0.288504 0.000000 0.374331
O O3 0.165923 0.000000 0.498407
O O4 0.182336 0.500000 0.330047
O O5 0.220419 0.716744 0.217470
O O6 0.033030 0.500000 0.296385
O O7 0.752586 0.000000 0.420278
O O8 0.920330 0.251030 0.395884
O O9 0.120804 0.500000 0.032019
O O10 0.967508 0.248042 0.119812
O O11 0.121615 0.000000 0.032378
O O12 0.000000 0.249177 0.000000
O O13 0.414579 0.500000 0.223144
O O14 0.596291 0.748394 0.166166
O O15 0.413369 0.000000 0.221595
O O16 0.222548 0.500000 0.882945
O O17 0.223899 0.000000 0.886906
#
# Coordination Sequence:
#
# PCOD9191123 Si02
#       8
#     4   4   4   8   4   8   4   8
#     4  10  20  39  53  66  88 121 140 159 203 266
#     4  10  22  30  47  72  93 106 142 186 216 224
#     4  10  20  39  53  66  88 121 140 159 203 266
#     4   8  12  16  24  38  56  77 116 165 190 214
#     4  10  20  32  54  70  91 113 142 171 205 246
#     4   8  12  20  30  42  59  95 126 149 195 242
#     4  10  20  32  54  70  91 113 142 171 205 246
#     4   8  16  26  38  51  81 108 128 164 207 249
#
# _framework density 27.561164999999999
#
# number of rings (size 3 to 8) (size 9 to 14) (size 15 to 20)
#    0.545    2.545    0.000    2.727    2.545    0.000 
#    0.000    5.000    0.000    0.000    0.000    0.000 
#    0.000    0.000    0.000    0.000    0.000    0.000 
#
# Total GULP energy -122853.155116 kJ/mol
# GULP energy per Si atom -5584.234323 kJ/mol
# Density = 2.749843 g / cm^3
# Si number density = 27.561165 Si / 1000 Ang^3
#
#
#
# Elastic Constant Matrix: (Units=GPa)
#
#
# Indices 1 2 3 4 5 6 
#
# 1 97.8330 25.8727 22.2114 -0.0005 -0.9853 -0.0009
# 2 25.8727 371.6032 24.6268 -0.0019 -10.9287 -0.0011
# 3 22.2114 24.6268 147.3632 -0.0004 -3.0190 -0.0014
# 4 -0.0005 -0.0019 -0.0004 22.9874 -0.0002 28.8047
# 5 -0.9853 -10.9287 -3.0190 -0.0002 45.2377 -0.0008
# 6 -0.0009 -0.0011 -0.0014 28.8047 -0.0008 98.0408
#
#
#
# Elastic Compliance Matrix: (Units=1/GPa)
#
#
# Indices 1 2 3 4 5 6 
#
# 1 0.010736 -0.000648 -0.001510 0.000000 -0.000024 0.000000
# 2 -0.000648 0.002778 -0.000354 0.000000 0.000633 0.000000
# 3 -0.001510 -0.000354 0.007080 0.000000 0.000354 0.000000
# 4 0.000000 0.000000 0.000000 0.068849 0.000000 -0.020228
# 5 -0.000024 0.000633 0.000354 0.000000 0.022282 0.000000
# 6 0.000000 0.000000 0.000000 -0.020228 0.000000 0.016143
#
#
# Mechanical properties :
#
#
# Convention : Reuss Voigt Hill
#
# Bulk Modulus (GPa) = 64.22719 84.69124 74.45921
# Shear Modulus (GPa) = 36.21055 69.52575 52.86815
#
# Velocity S-wave (km/s) = 3.62860 5.02800 4.38449
# Velocity P-wave (km/s) = 6.39608 8.03137 7.25991
#
# Compressibility (1/GPa) = 0.01556973
#
# Stress axis : x y z
#
# Youngs Moduli (GPa) = 93.14859 359.94159 141.24396
#
# Poissons Ratio (x) = 0.23326 0.21332
# Poissons Ratio (y) = 0.06037 0.04995
# Poissons Ratio (z) = 0.14068 0.12729
#
# Static dielectric constant tensor:
#      x y z
#    x 2.175640 0.000000 0.052350 
#    y 0.000000 2.201540 0.000000 
#    z 0.052350 0.000000 2.042640 
# 
# From -- ./inp_files/359303.got.cif
#   From: 2010.05.17/outbox.cif.g08.bks.cpg/sg12_180_cif.got.tgz:359303.got - 2010.06.03 13:09:07.
