data_PCOD9191710
_publ_section_title
;
Structure prediction by ZEFSAII (Michael W. Deem and Ramdas Pophale) SiO2 
 PCOD9191710
Probable space group: C 2/M
;
_chemical_formula_sum "Si O2"
_cell_formula_units_Z 36
_cell_length_a 14.979054
_cell_length_b 10.201830
_cell_length_c 28.978090
_cell_angle_alpha 90.000000
_cell_angle_beta 24.011757
_cell_angle_gamma 90.000000
_cell_volume 1801.962004
_symmetry_space_group_name_H-M "C 2/M"
_symmetry_group_IT_number 12
_symmetry_cell_setting 'monoclinic'
loop_
_space_group_symop_operation_xyz
x,y,z
-x,y,-z
-x,-y,-z
x,-y,z
1/2+x,1/2+y,z
1/2-x,1/2+y,-z
1/2-x,1/2-y,-z
1/2+x,1/2-y,z
loop_
_atom_site_type_symbol
_atom_site_label
_atom_site_fract_x
_atom_site_fract_y
_atom_site_fract_z
Si Si1 0.000000 0.248967 0.000000
Si Si2 0.621241 0.158058 0.396526
Si Si3 0.042254 0.151565 0.250007
Si Si4 0.425190 0.153350 0.682297
Si Si5 0.591732 0.642869 0.054139
O O1 0.207303 0.331516 0.884296
O O2 0.920382 0.161669 0.995021
O O3 0.500000 0.204379 0.500000
O O4 0.527915 0.204131 0.391629
O O5 0.877254 0.184317 0.285938
O O6 0.598141 0.000000 0.405204
O O7 0.999689 0.250538 0.312461
O O8 0.000582 0.000000 0.283007
O O9 0.158928 0.153542 0.810658
O O10 0.493501 0.000000 0.656130
O O11 0.676061 0.500000 0.027251
O O12 0.750000 0.750000 0.000000
#
# Coordination Sequence:
#
# PCOD9191710 Si02
#       5
#     4   8   8   8   8
#     4  10  20  34  52  76 108 140 170 206 256 308
#     4   9  18  34  55  76 101 136 174 210 254 308
#     4  10  20  34  54  79 104 134 173 214 253 300
#     4   9  19  35  52  74 104 136 169 209 259 308
#     4  10  20  33  51  75 105 139 174 210 252 304
#
# _framework density 19.978224000000001
#
# number of rings (size 3 to 8) (size 9 to 14) (size 15 to 20)
#    0.000    2.444    0.000    2.000    0.000    8.000 
#    0.000    1.111    0.000    1.333    0.000    0.000 
#    0.000    0.000    0.000    0.000    0.000    0.000 
#
# Total GULP energy -100408.586673 kJ/mol
# GULP energy per Si atom -5578.254815 kJ/mol
# Density = 1.993275 g / cm^3
# Si number density = 19.978224 Si / 1000 Ang^3
#
#
#
# Elastic Constant Matrix: (Units=GPa)
#
#
# Indices 1 2 3 4 5 6 
#
# 1 77.0644 16.5340 16.6320 -0.0003 21.0344 -0.0006
# 2 16.5340 68.5101 3.8421 0.0007 0.9084 -0.0005
# 3 16.6320 3.8421 41.6184 0.0009 14.4401 0.0091
# 4 -0.0003 0.0007 0.0009 10.4366 0.0000 2.6563
# 5 21.0344 0.9084 14.4401 0.0000 36.4366 -0.0024
# 6 -0.0006 -0.0005 0.0091 2.6563 -0.0024 15.2976
#
#
#
# Elastic Compliance Matrix: (Units=1/GPa)
#
#
# Indices 1 2 3 4 5 6 
#
# 1 0.016775 -0.003743 -0.003514 0.000001 -0.008198 0.000001
# 2 -0.003743 0.015509 -0.000639 -0.000001 0.002027 0.000001
# 3 -0.003514 -0.000639 0.028733 0.000002 -0.009342 -0.000019
# 4 0.000001 -0.000001 0.000002 0.100247 -0.000002 -0.017407
# 5 -0.008198 0.002027 -0.009342 -0.000002 0.035830 0.000011
# 6 0.000001 0.000001 -0.000019 -0.017407 0.000011 0.068392
#
#
# Mechanical properties :
#
#
# Convention : Reuss Voigt Hill
#
# Bulk Modulus (GPa) = 22.11197 29.02325 25.56761
# Shear Modulus (GPa) = 16.87182 22.44649 19.65916
#
# Velocity S-wave (km/s) = 2.90920 3.35557 3.14033
# Velocity P-wave (km/s) = 4.73040 5.43803 5.09651
#
# Compressibility (1/GPa) = 0.04522437
#
# Stress axis : x y z
#
# Youngs Moduli (GPa) = 59.61192 64.48033 34.80367
#
# Poissons Ratio (x) = 0.24133 0.12230
# Poissons Ratio (y) = 0.22311 0.02225
# Poissons Ratio (z) = 0.20947 0.04123
#
# Static dielectric constant tensor:
#      x y z
#    x 1.696080 0.000000 0.020610 
#    y 0.000000 1.676420 0.000000 
#    z 0.020610 0.000000 1.760520 
# 
# From -- ./inp_files/139547.got.cif
#   From: 2010.05.17/outbox.cif.g08.bks.cpg/sg12_70_cif.got.tgz:139547.got - 2010.06.03 13:09:07.
