data_PCOD9191055
_publ_section_title
;
Structure prediction by ZEFSAII (Michael W. Deem and Ramdas Pophale) SiO2 
 PCOD9191055
Probable space group: C 2/M
;
_chemical_formula_sum "Si O2"
_cell_formula_units_Z 48
_cell_length_a 10.403585
_cell_length_b 14.439053
_cell_length_c 16.286420
_cell_angle_alpha 90.000000
_cell_angle_beta 118.172800
_cell_angle_gamma 90.000000
_cell_volume 2156.668115
_symmetry_space_group_name_H-M "C 2/M"
_symmetry_group_IT_number 12
_symmetry_cell_setting 'monoclinic'
loop_
_space_group_symop_operation_xyz
x,y,z
-x,y,-z
-x,-y,-z
x,-y,z
1/2+x,1/2+y,z
1/2-x,1/2+y,-z
1/2-x,1/2-y,-z
1/2+x,1/2-y,z
loop_
_atom_site_type_symbol
_atom_site_label
_atom_site_fract_x
_atom_site_fract_y
_atom_site_fract_z
Si Si1 0.115335 0.867069 0.968424
Si Si2 0.107888 0.612743 0.415003
Si Si3 0.204265 0.612510 0.267325
Si Si4 0.793604 0.613171 0.374418
Si Si5 0.526380 0.393878 0.755980
Si Si6 0.938311 0.351689 0.067221
O O1 0.082910 0.896356 0.865862
O O2 0.094385 0.756215 0.958569
O O3 0.280470 0.891722 0.041539
O O4 0.000000 0.901177 0.000000
O O5 0.107787 0.500000 0.414075
O O6 0.188064 0.642801 0.356556
O O7 0.183330 0.639420 0.523334
O O8 0.938459 0.642805 0.369043
O O9 0.209817 0.500000 0.267913
O O10 0.347947 0.648393 0.263549
O O11 0.060145 0.638290 0.172905
O O12 0.795887 0.500000 0.370773
O O13 0.636479 0.646520 0.296086
O O14 0.509787 0.500000 0.721925
O O15 0.000000 0.390532 0.000000
#
# Coordination Sequence:
#
# PCOD9191055 Si02
#       6
#     8   8   8   8   8   8
#     4  10  22  36  53  73  97 136 175 206 246 297
#     4   8  15  29  48  72 101 136 168 196 244 301
#     4  10  20  32  52  79 104 132 165 205 254 299
#     4   8  15  29  48  71 104 135 163 202 244 296
#     4  10  20  33  50  78 108 130 162 210 255 294
#     4  10  20  38  54  70 100 135 173 206 243 304
#
# _framework density 22.256553
#
# number of rings (size 3 to 8) (size 9 to 14) (size 15 to 20)
#    0.000    2.667    1.667    1.000    2.333    2.000 
#    0.000    3.333    0.000    1.000    0.000    0.000 
#    0.000    0.000    0.000    0.000    0.000    0.000 
#
# Total GULP energy -134019.868179 kJ/mol
# GULP energy per Si atom -5584.161174 kJ/mol
# Density = 2.220590 g / cm^3
# Si number density = 22.256553 Si / 1000 Ang^3
#
#
#
# Elastic Constant Matrix: (Units=GPa)
#
#
# Indices 1 2 3 4 5 6 
#
# 1 152.0795 -6.0567 41.8674 0.0000 -7.8681 0.0000
# 2 -6.0567 59.9646 -14.7031 0.0000 -1.1407 0.0000
# 3 41.8674 -14.7031 52.9222 0.0000 -7.1959 0.0000
# 4 0.0000 0.0000 0.0000 32.6680 0.0000 -0.1905
# 5 -7.8681 -1.1407 -7.1959 0.0000 47.3650 0.0000
# 6 0.0000 0.0000 0.0000 -0.1905 0.0000 -15.8477
#
#
#
# Elastic Compliance Matrix: (Units=1/GPa)
#
#
# Indices 1 2 3 4 5 6 
#
# 1 0.008451 -0.000824 -0.006868 0.000000 0.000341 0.000000
# 2 -0.000824 0.018044 0.005826 0.000000 0.001183 0.000000
# 3 -0.006868 0.005826 0.026356 0.000000 0.003003 0.000000
# 4 0.000000 0.000000 0.000000 0.030609 0.000000 -0.000368
# 5 0.000341 0.001183 0.003003 0.000000 0.021654 0.000000
# 6 0.000000 0.000000 0.000000 -0.000368 0.000000 -0.063096
#
#
# Mechanical properties :
#
#
# Convention : Reuss Voigt Hill
#
# Bulk Modulus (GPa) = 20.35891 34.13127 27.24509
# Shear Modulus (GPa) = 80.48372 29.09432 54.78902
#
# Velocity S-wave (km/s) = 6.01999 3.61948 4.96694
# Velocity P-wave (km/s) = 7.58206 5.73029 6.72026
#
# Compressibility (1/GPa) = 0.04911853
#
# Stress axis : x y z
#
# Youngs Moduli (GPa) = 118.32648 55.41933 37.94150
#
# Poissons Ratio (x) = 0.04567 0.26060
# Poissons Ratio (y) = 0.09751 -0.22104
# Poissons Ratio (z) = 0.81272 -0.32287
#
# Static dielectric constant tensor:
#      x y z
#    x 1.827740 0.000000 0.000860 
#    y 0.000000 1.899270 0.000000 
#    z 0.000860 0.000000 1.748340 
# 
# From -- ./inp_files/121946.got.cif
#   From: 2010.05.17/outbox.cif.g08.bks.cpg/sg12_61_cif.got.tgz:121946.got - 2010.06.03 13:09:07.
