data_PCOD9191915
_publ_section_title
;
Structure prediction by ZEFSAII (Michael W. Deem and Ramdas Pophale) SiO2 
 PCOD9191915
Probable space group: C 2/M
;
_chemical_formula_sum "Si O2"
_cell_formula_units_Z 56
_cell_length_a 14.555564
_cell_length_b 9.278814
_cell_length_c 24.433394
_cell_angle_alpha 90.000000
_cell_angle_beta 114.821261
_cell_angle_gamma 90.000000
_cell_volume 2995.092288
_symmetry_space_group_name_H-M "C 2/M"
_symmetry_group_IT_number 12
_symmetry_cell_setting 'monoclinic'
loop_
_space_group_symop_operation_xyz
x,y,z
-x,y,-z
-x,-y,-z
x,-y,z
1/2+x,1/2+y,z
1/2-x,1/2+y,-z
1/2-x,1/2-y,-z
1/2+x,1/2-y,z
loop_
_atom_site_type_symbol
_atom_site_label
_atom_site_fract_x
_atom_site_fract_y
_atom_site_fract_z
Si Si1 0.408903 0.327638 0.722628
Si Si2 0.128706 0.832159 0.822144
Si Si3 0.613195 0.829113 0.509124
Si Si4 0.687294 0.829137 0.404538
Si Si5 0.718055 0.160381 0.939219
Si Si6 0.067536 0.163155 0.067345
Si Si7 0.658196 0.169663 0.186615
O O1 0.394184 0.500000 0.717000
O O2 0.527640 0.298275 0.763438
O O3 0.369847 0.253273 0.657964
O O4 0.352154 0.258292 0.760298
O O5 0.140021 0.739206 0.879793
O O6 0.229262 0.813517 0.810594
O O7 0.124500 0.000000 0.837210
O O8 0.500000 0.791296 0.500000
O O9 0.630193 0.808084 0.448368
O O10 0.700530 0.737051 0.560132
O O11 0.628752 0.000000 0.524297
O O12 0.692387 0.000000 0.394996
O O13 0.820333 0.150415 0.929293
O O14 0.684364 0.000000 0.946087
O O15 0.750000 0.250000 0.000000
O O16 0.080284 0.264045 0.122787
O O17 0.031790 0.000000 0.072663
O O18 0.000000 0.218231 0.000000
O O19 0.639597 0.000000 0.190504
#
# Coordination Sequence:
#
# PCOD9191915 Si02
#       7
#     8   8   8   8   8   8   8
#     4  11  23  39  60  82 113 157 195 232 287 347
#     4   9  21  40  57  76 108 147 186 232 286 346
#     4   9  19  38  63  90 123 160 195 233 280 330
#     4  10  21  37  58  89 123 153 194 241 279 330
#     4  10  20  33  52  77 105 137 176 228 285 344
#     4   9  19  35  53  74 102 139 179 222 281 351
#     4  10  21  38  57  81 110 140 185 241 290 339
#
# _framework density 18.697254000000001
#
# number of rings (size 3 to 8) (size 9 to 14) (size 15 to 20)
#    0.000    2.286    0.000    1.714    2.000    4.571 
#    0.000    2.857    0.000    0.000    0.000    0.000 
#    0.000    0.000    0.000    0.000    0.000    0.000 
#
# Total GULP energy -156316.133128 kJ/mol
# GULP energy per Si atom -5582.719040 kJ/mol
# Density = 1.865470 g / cm^3
# Si number density = 18.697254 Si / 1000 Ang^3
#
#
#
# Elastic Constant Matrix: (Units=GPa)
#
#
# Indices 1 2 3 4 5 6 
#
# 1 90.3307 57.5496 53.6127 0.0000 13.0696 0.0000
# 2 57.5496 125.3428 113.4343 0.0000 9.9189 0.0000
# 3 53.6127 113.4343 175.1295 0.0000 15.7546 0.0000
# 4 0.0000 0.0000 0.0000 39.5131 0.0000 -0.0584
# 5 13.0696 9.9189 15.7546 0.0000 16.5894 0.0000
# 6 0.0000 0.0000 0.0000 -0.0584 0.0000 22.1137
#
#
#
# Elastic Compliance Matrix: (Units=1/GPa)
#
#
# Indices 1 2 3 4 5 6 
#
# 1 0.016876 -0.007477 0.000515 0.000000 -0.009314 0.000000
# 2 -0.007477 0.022594 -0.012749 0.000000 0.004489 0.000000
# 3 0.000515 -0.012749 0.014391 0.000000 -0.006449 0.000000
# 4 0.000000 0.000000 0.000000 0.025308 0.000000 0.000067
# 5 -0.009314 0.004489 -0.006449 0.000000 0.071057 0.000000
# 6 0.000000 0.000000 0.000000 0.000067 0.000000 0.045221
#
#
# Mechanical properties :
#
#
# Convention : Reuss Voigt Hill
#
# Bulk Modulus (GPa) = 69.26666 93.33292 81.29979
# Shear Modulus (GPa) = 20.86085 26.72367 23.79226
#
# Velocity S-wave (km/s) = 3.34386 3.78469 3.57108
# Velocity P-wave (km/s) = 7.21356 8.31413 7.78332
#
# Compressibility (1/GPa) = 0.01443696
#
# Stress axis : x y z
#
# Youngs Moduli (GPa) = 59.25473 44.25953 69.48962
#
# Poissons Ratio (x) = 0.33094 -0.03576
# Poissons Ratio (y) = 0.44306 0.88595
# Poissons Ratio (z) = -0.03049 0.56428
#
# Static dielectric constant tensor:
#      x y z
#    x 1.659340 0.000000 0.004200 
#    y 0.000000 1.652040 0.000000 
#    z 0.004200 0.000000 1.610940 
# 
# From -- ./inp_files/339050.got.cif
#   From: 2010.05.17/outbox.cif.g08.bks.cpg/sg12_170_cif.got.tgz:339050.got - 2010.06.03 13:09:07.
