data_PCOD9191036
_publ_section_title
;
Structure prediction by ZEFSAII (Michael W. Deem and Ramdas Pophale) SiO2 
 PCOD9191036
Probable space group: C 2/M
;
_chemical_formula_sum "Si O2"
_cell_formula_units_Z 50
_cell_length_a 15.395399
_cell_length_b 15.078728
_cell_length_c 17.082294
_cell_angle_alpha 90.000000
_cell_angle_beta 33.158536
_cell_angle_gamma 90.000000
_cell_volume 2168.979524
_symmetry_space_group_name_H-M "C 2/M"
_symmetry_group_IT_number 12
_symmetry_cell_setting 'monoclinic'
loop_
_space_group_symop_operation_xyz
x,y,z
-x,y,-z
-x,-y,-z
x,-y,z
1/2+x,1/2+y,z
1/2-x,1/2+y,-z
1/2-x,1/2-y,-z
1/2+x,1/2-y,z
loop_
_atom_site_type_symbol
_atom_site_label
_atom_site_fract_x
_atom_site_fract_y
_atom_site_fract_z
Si Si1 0.000000 0.500000 0.500000
Si Si2 0.860655 0.103734 0.444612
Si Si3 0.175084 0.159759 0.366081
Si Si4 0.588387 0.399470 0.761529
Si Si5 0.624491 0.719167 0.979403
Si Si6 0.159581 0.354695 0.302710
Si Si7 0.254548 0.400696 0.845263
O O1 0.014685 0.420671 0.421995
O O2 0.821895 0.128329 0.384939
O O3 0.054082 0.112830 0.296833
O O4 0.781573 0.156873 0.575586
O O5 0.825064 0.000000 0.484747
O O6 0.151484 0.258046 0.348980
O O7 0.282038 0.112276 0.220329
O O8 0.000000 0.115299 0.500000
O O9 0.526518 0.500000 0.795507
O O10 0.708789 0.404361 0.743430
O O11 0.456561 0.329483 0.887220
O O12 0.774668 0.664424 0.832969
O O13 0.673143 0.820906 0.952885
O O14 0.500000 0.716778 0.000000
O O15 0.215647 0.500000 0.899234
#
# Coordination Sequence:
#
# PCOD9191036 Si02
#       7
#     2   8   8   8   8   8   8
#     4  12  20  32  54  80  98 132 170 212 256 300
#     4   9  18  31  50  75 100 134 170 201 252 302
#     4   9  16  30  49  75  99 125 166 210 252 298
#     4  10  20  34  50  73 104 138 170 204 247 301
#     4   9  20  34  51  76  99 131 175 206 250 301
#     4  10  20  32  52  76 101 131 168 213 252 300
#     4   9  17  31  52  74  99 128 167 216 253 291
#
# _framework density 23.052315
#
# number of rings (size 3 to 8) (size 9 to 14) (size 15 to 20)
#    0.000    2.560    1.600    0.480    1.120    4.480 
#    0.000    0.000    0.000    0.000    0.000    0.000 
#    0.000    0.000    0.000    0.000    0.000    0.000 
#
# Total GULP energy -139171.516195 kJ/mol
# GULP energy per Si atom -5566.860648 kJ/mol
# Density = 2.299985 g / cm^3
# Si number density = 23.052315 Si / 1000 Ang^3
#
#
#
# Elastic Constant Matrix: (Units=GPa)
#
#
# Indices 1 2 3 4 5 6 
#
# 1 40.0565 17.3344 18.7256 -0.0006 15.7559 0.0003
# 2 17.3344 116.3678 27.6905 -0.0013 7.4817 0.0008
# 3 18.7256 27.6905 66.7534 -0.0013 12.4309 0.0009
# 4 -0.0006 -0.0013 -0.0013 -77.8436 0.0010 9.5037
# 5 15.7559 7.4817 12.4309 0.0010 23.6516 -0.0007
# 6 0.0003 0.0008 0.0009 9.5037 -0.0007 9.6968
#
#
#
# Elastic Compliance Matrix: (Units=1/GPa)
#
#
# Indices 1 2 3 4 5 6 
#
# 1 0.036898 -0.002902 -0.005255 -0.000001 -0.020901 -0.000001
# 2 -0.002902 0.009786 -0.003357 0.000000 0.000602 0.000000
# 3 -0.005255 -0.003357 0.018842 0.000000 -0.005340 -0.000001
# 4 -0.000001 0.000000 0.000000 -0.011473 0.000001 0.011245
# 5 -0.020901 0.000602 -0.005340 0.000001 0.058820 0.000004
# 6 -0.000001 0.000000 -0.000001 0.011245 0.000004 0.092105
#
#
# Mechanical properties :
#
#
# Convention : Reuss Voigt Hill
#
# Bulk Modulus (GPa) = 23.53092 38.96430 31.24761
# Shear Modulus (GPa) = 20.64645 1.72945 11.18795
#
# Velocity S-wave (km/s) = 2.99596 0.86710 2.20541
# Velocity P-wave (km/s) = 4.71142 4.23577 4.47991
#
# Compressibility (1/GPa) = 0.04249727
#
# Stress axis : x y z
#
# Youngs Moduli (GPa) = 27.10155 102.18719 53.07366
#
# Poissons Ratio (x) = 0.29658 0.27888
# Poissons Ratio (y) = 0.07866 0.17819
# Poissons Ratio (z) = 0.14241 0.34309
#
# Static dielectric constant tensor:
#      x y z
#    x 2.054340 0.000000 -0.066820 
#    y 0.000000 1.893210 0.000000 
#    z -0.066820 0.000000 1.976800 
# 
# From -- ./inp_files/176403.got.cif
#   From: 2010.05.17/outbox.cif.g08.bks.cpg/sg12_89_cif.got.tgz:176403.got - 2010.06.03 13:09:07.
