data_PCOD9191206
_publ_section_title
;
Structure prediction by ZEFSAII (Michael W. Deem and Ramdas Pophale) SiO2 
 PCOD9191206
Probable space group: C 2/M
;
_chemical_formula_sum "Si O2"
_cell_formula_units_Z 38
_cell_length_a 18.278351
_cell_length_b 10.095655
_cell_length_c 10.829774
_cell_angle_alpha 90.000000
_cell_angle_beta 78.704066
_cell_angle_gamma 90.000000
_cell_volume 1959.726411
_symmetry_space_group_name_H-M "C 2/M"
_symmetry_group_IT_number 12
_symmetry_cell_setting 'monoclinic'
loop_
_space_group_symop_operation_xyz
x,y,z
-x,y,-z
-x,-y,-z
x,-y,z
1/2+x,1/2+y,z
1/2-x,1/2+y,-z
1/2-x,1/2-y,-z
1/2+x,1/2-y,z
loop_
_atom_site_type_symbol
_atom_site_label
_atom_site_fract_x
_atom_site_fract_y
_atom_site_fract_z
Si Si1 0.387751 0.500000 0.973747
Si Si2 0.739556 0.000000 0.765816
Si Si3 0.418295 0.000000 0.294631
Si Si4 0.833234 0.500000 0.938310
Si Si5 0.550697 0.500000 0.790408
Si Si6 0.506334 0.736986 0.640582
Si Si7 0.658355 0.725770 0.187708
Si Si8 0.000000 0.500000 0.000000
O O1 0.471095 0.500000 0.888206
O O2 0.353132 0.633259 0.929586
O O3 0.390032 0.500000 0.119655
O O4 0.789776 0.866739 0.743513
O O5 0.670789 0.000000 0.694539
O O6 0.707244 0.000000 0.916308
O O7 0.450088 0.126984 0.354530
O O8 0.451687 0.000000 0.144761
O O9 0.814369 0.368329 0.866643
O O10 0.921330 0.500000 0.943084
O O11 0.550182 0.627954 0.705425
O O12 0.500000 0.699956 0.500000
O O13 0.422721 0.744446 0.723516
#
# Coordination Sequence:
#
# PCOD9191206 Si02
#       8
#     4   4   4   4   4   8   8   2
#     4   8  18  30  54  83 122 149 187 234 312 354
#     4  10  24  38  57  89 132 158 191 244 325 363
#     4  11  23  39  63  93 120 157 203 260 299 358
#     4  11  20  33  61  89 124 158 196 241 305 372
#     4   9  19  31  54  86 117 151 190 248 295 347
#     4  11  22  39  63  89 119 162 214 250 290 352
#     4  10  20  39  58  90 124 163 192 248 305 366
#     4  10  20  32  58  96 120 142 196 258 306 340
#
# _framework density 19.390460999999998
#
# number of rings (size 3 to 8) (size 9 to 14) (size 15 to 20)
#    0.000    1.895    2.105    1.895    5.895    0.000 
#    0.000    1.053    0.000    0.000    0.000    0.000 
#    0.000    0.000    0.000    0.000    0.000    0.000 
#
# Total GULP energy -105781.159216 kJ/mol
# GULP energy per Si atom -5567.429432 kJ/mol
# Density = 1.934633 g / cm^3
# Si number density = 19.390461 Si / 1000 Ang^3
#
#
#
# Elastic Constant Matrix: (Units=GPa)
#
#
# Indices 1 2 3 4 5 6 
#
# 1 110.8846 37.0159 7.0498 0.0000 10.6876 0.0000
# 2 37.0159 147.4799 24.7543 0.0000 9.3085 0.0000
# 3 7.0498 24.7543 80.4215 0.0000 23.1392 0.0000
# 4 0.0000 0.0000 0.0000 -6.7709 0.0000 2.7667
# 5 10.6876 9.3085 23.1392 0.0000 21.2187 0.0000
# 6 0.0000 0.0000 0.0000 2.7667 0.0000 11.2398
#
#
#
# Elastic Compliance Matrix: (Units=1/GPa)
#
#
# Indices 1 2 3 4 5 6 
#
# 1 0.010304 -0.002477 0.001515 0.000000 -0.005756 0.000000
# 2 -0.002477 0.007762 -0.002261 0.000000 0.000308 0.000000
# 3 0.001515 -0.002261 0.018845 0.000000 -0.020322 0.000000
# 4 0.000000 0.000000 0.000000 -0.134193 0.000000 0.033032
# 5 -0.005756 0.000308 -0.020322 0.000000 0.072053 0.000000
# 6 0.000000 0.000000 0.000000 0.033032 0.000000 0.080838
#
#
# Mechanical properties :
#
#
# Convention : Reuss Voigt Hill
#
# Bulk Modulus (GPa) = 32.82406 52.93621 42.88013
# Shear Modulus (GPa) = 69.24247 23.13525 46.18886
#
# Velocity S-wave (km/s) = 5.98223 3.45791 4.88591
# Velocity P-wave (km/s) = 8.04244 6.58045 7.34789
#
# Compressibility (1/GPa) = 0.03046546
#
# Stress axis : x y z
#
# Youngs Moduli (GPa) = 97.05205 128.82668 53.06572
#
# Poissons Ratio (x) = 0.31913 -0.08041
# Poissons Ratio (y) = 0.24042 0.11997
# Poissons Ratio (z) = -0.14706 0.29124
#
# Static dielectric constant tensor:
#      x y z
#    x 1.718360 0.000000 -0.007600 
#    y 0.000000 1.631510 0.000000 
#    z -0.007600 0.000000 1.631550 
# 
# From -- ./inp_files/151828.got.cif
#   From: 2010.05.17/outbox.cif.g08.bks.cpg/sg12_76_cif.got.tgz:151828.got - 2010.06.03 13:09:07.
