data_PCOD9191133
_publ_section_title
;
Structure prediction by ZEFSAII (Michael W. Deem and Ramdas Pophale) SiO2 
 PCOD9191133
Probable space group: C 2/M
;
_chemical_formula_sum "Si O2"
_cell_formula_units_Z 56
_cell_length_a 27.274163
_cell_length_b 14.939441
_cell_length_c 9.032822
_cell_angle_alpha 90.000000
_cell_angle_beta 57.551110
_cell_angle_gamma 90.000000
_cell_volume 3105.882243
_symmetry_space_group_name_H-M "C 2/M"
_symmetry_group_IT_number 12
_symmetry_cell_setting 'monoclinic'
loop_
_space_group_symop_operation_xyz
x,y,z
-x,y,-z
-x,-y,-z
x,-y,z
1/2+x,1/2+y,z
1/2-x,1/2+y,-z
1/2-x,1/2-y,-z
1/2+x,1/2-y,z
loop_
_atom_site_type_symbol
_atom_site_label
_atom_site_fract_x
_atom_site_fract_y
_atom_site_fract_z
Si Si1 0.067347 0.802343 0.344642
Si Si2 0.718493 0.598133 0.308052
Si Si3 0.659373 0.216731 0.388771
Si Si4 0.806244 0.689932 0.361359
Si Si5 0.125424 0.828268 0.947341
Si Si6 0.435729 0.500000 0.666278
Si Si7 0.562106 0.500000 0.979541
Si Si8 0.258532 0.602333 0.078672
O O1 0.102586 0.729955 0.382079
O O2 0.090044 0.904715 0.339153
O O3 0.000000 0.799351 0.500000
O O4 0.081334 0.793985 0.146832
O O5 0.693924 0.500000 0.379343
O O6 0.676783 0.681733 0.404035
O O7 0.776216 0.613359 0.312782
O O8 0.734824 0.604432 0.108568
O O9 0.660667 0.164198 0.541679
O O10 0.709929 0.171893 0.209509
O O11 0.750000 0.750000 0.500000
O O12 0.848886 0.749265 0.192781
O O13 0.180885 0.870333 0.943225
O O14 0.096565 0.907458 0.896862
O O15 0.500000 0.500000 0.500000
O O16 0.441394 0.500000 0.834947
O O17 0.500000 0.500000 0.000000
O O18 0.244491 0.500000 0.144819
#
# Coordination Sequence:
#
# PCOD9191133 Si02
#       8
#     8   8   8   8   8   4   4   8
#     4  10  21  35  56  80 108 149 197 234 273 332
#     4  10  20  32  54  81 112 145 184 227 286 348
#     4  11  21  36  55  80 118 147 188 236 287 340
#     4  10  21  35  48  80 114 149 186 223 288 346
#     4  11  19  35  56  74 113 153 182 238 272 330
#     4   8  18  34  52  74 110 140 196 237 263 317
#     4  10  22  34  52  80 114 156 197 222 272 337
#     4  11  20  34  60  86 107 149 193 233 295 331
#
# _framework density 18.030303
#
# number of rings (size 3 to 8) (size 9 to 14) (size 15 to 20)
#    0.000    1.714    5.000    1.286    1.000    4.000 
#    5.143    0.000    0.000    0.429    0.000    0.000 
#    0.000    5.143    0.000    0.000    0.000    0.000 
#
# Total GULP energy -156061.910884 kJ/mol
# GULP energy per Si atom -5573.639674 kJ/mol
# Density = 1.798927 g / cm^3
# Si number density = 18.030303 Si / 1000 Ang^3
#
#
#
# Elastic Constant Matrix: (Units=GPa)
#
#
# Indices 1 2 3 4 5 6 
#
# 1 95.8367 15.2994 13.8660 0.0000 0.4719 0.0000
# 2 15.2994 27.2975 1.1132 0.0000 -5.7120 0.0000
# 3 13.8660 1.1132 51.8057 0.0000 -12.2007 0.0000
# 4 0.0000 0.0000 0.0000 10.5014 0.0000 -3.1884
# 5 0.4719 -5.7120 -12.2007 0.0000 28.9913 0.0000
# 6 0.0000 0.0000 0.0000 -3.1884 0.0000 29.9735
#
#
#
# Elastic Compliance Matrix: (Units=1/GPa)
#
#
# Indices 1 2 3 4 5 6 
#
# 1 0.012186 -0.007358 -0.003876 0.000000 -0.003279 0.000000
# 2 -0.007358 0.042704 0.003398 0.000000 0.009964 0.000000
# 3 -0.003876 0.003398 0.022688 0.000000 0.010281 0.000000
# 4 0.000000 0.000000 0.000000 0.098403 0.000000 0.010467
# 5 -0.003279 0.009964 0.010281 0.000000 0.040836 0.000000
# 6 0.000000 0.000000 0.000000 0.010467 0.000000 0.034476
#
#
# Mechanical properties :
#
#
# Convention : Reuss Voigt Hill
#
# Bulk Modulus (GPa) = 16.15323 26.16633 21.15978
# Shear Modulus (GPa) = 17.38525 23.53734 20.46130
#
# Velocity S-wave (km/s) = 3.10856 3.61700 3.37238
# Velocity P-wave (km/s) = 4.67575 5.65575 5.18893
#
# Compressibility (1/GPa) = 0.06190712
#
# Stress axis : x y z
#
# Youngs Moduli (GPa) = 82.06172 23.41722 44.07520
#
# Poissons Ratio (x) = 0.17230 0.17083
# Poissons Ratio (y) = 0.60381 -0.14978
# Poissons Ratio (z) = 0.31805 -0.07958
#
# Static dielectric constant tensor:
#      x y z
#    x 1.723940 0.000000 -0.008720 
#    y 0.000000 1.647200 0.000000 
#    z -0.008720 0.000000 1.651910 
# 
# From -- ./inp_files/104474.got.cif
#   From: 2010.05.17/outbox.cif.g08.bks.cpg/sg12_53_cif.got.tgz:104474.got - 2010.06.03 13:09:07.
