data_PCOD9191044
_publ_section_title
;
Structure prediction by ZEFSAII (Michael W. Deem and Ramdas Pophale) SiO2 
 PCOD9191044
Probable space group: C 2/M
;
_chemical_formula_sum "Si O2"
_cell_formula_units_Z 64
_cell_length_a 30.507393
_cell_length_b 14.261453
_cell_length_c 18.144200
_cell_angle_alpha 90.000000
_cell_angle_beta 27.935496
_cell_angle_gamma 90.000000
_cell_volume 3698.240834
_symmetry_space_group_name_H-M "C 2/M"
_symmetry_group_IT_number 12
_symmetry_cell_setting 'monoclinic'
loop_
_space_group_symop_operation_xyz
x,y,z
-x,y,-z
-x,-y,-z
x,-y,z
1/2+x,1/2+y,z
1/2-x,1/2+y,-z
1/2-x,1/2-y,-z
1/2+x,1/2-y,z
loop_
_atom_site_type_symbol
_atom_site_label
_atom_site_fract_x
_atom_site_fract_y
_atom_site_fract_z
Si Si1 0.200878 0.108217 0.456775
Si Si2 0.419011 0.609320 0.220898
Si Si3 0.716727 0.391812 0.697971
Si Si4 0.094728 0.612189 0.904536
Si Si5 0.901131 0.716266 0.436913
Si Si6 0.706666 0.393609 0.890366
Si Si7 0.940382 0.250656 0.911476
Si Si8 0.418247 0.110277 0.563835
O O1 0.164814 0.116444 0.594388
O O2 0.309843 0.131711 0.282595
O O3 0.134085 0.176458 0.509346
O O4 0.188007 0.000000 0.454401
O O5 0.449385 0.500000 0.171857
O O6 0.375298 0.640231 0.208355
O O7 0.500153 0.674815 0.130052
O O8 0.729236 0.500000 0.657642
O O9 0.809976 0.336289 0.540020
O O10 0.706757 0.388450 0.800661
O O11 0.092562 0.500000 0.922861
O O12 0.097460 0.672646 0.975185
O O13 0.000000 0.634318 0.000000
O O14 0.922503 0.673164 0.484632
O O15 0.987955 0.706209 0.253524
O O16 0.677617 0.500000 0.953996
O O17 0.814482 0.378790 0.752182
O O18 0.638389 0.309936 0.013470
O O19 0.500000 0.130570 0.500000
O O20 0.424737 0.000000 0.532416
#
# Coordination Sequence:
#
# PCOD9191044 Si02
#       8
#     8   8   8   8   8   8   8   8
#     4   9  19  35  49  63  94 137 179 209 235 282
#     4   9  19  32  48  70  95 131 174 215 252 286
#     4   9  18  31  48  69  96 131 171 217 255 285
#     4  10  22  33  42  61  92 137 180 209 239 275
#     4  10  20  32  52  77  98 126 165 204 253 293
#     4   9  18  33  51  75 103 128 158 202 254 303
#     4  11  22  30  48  72 103 134 165 203 249 288
#     4   9  18  36  62  84  99 120 152 196 254 314
#
# _framework density 17.305524999999999
#
# number of rings (size 3 to 8) (size 9 to 14) (size 15 to 20)
#    0.000    2.500    0.000    3.000    5.250    2.500 
#    0.000    2.500    0.000    0.375    0.000    0.000 
#    0.000    0.000    0.000    0.000    0.000    0.000 
#
# Total GULP energy -178533.183971 kJ/mol
# GULP energy per Si atom -5579.161999 kJ/mol
# Density = 1.726614 g / cm^3
# Si number density = 17.305525 Si / 1000 Ang^3
#
#
#
# Elastic Constant Matrix: (Units=GPa)
#
#
# Indices 1 2 3 4 5 6 
#
# 1 54.2953 8.6180 -0.4917 0.0000 -16.5921 0.0000
# 2 8.6180 41.6679 11.1246 0.0000 -0.1138 0.0000
# 3 -0.4917 11.1246 57.9256 0.0000 -3.9980 0.0000
# 4 0.0000 0.0000 0.0000 20.6711 0.0000 -8.4319
# 5 -16.5921 -0.1138 -3.9980 0.0000 17.0349 0.0000
# 6 0.0000 0.0000 0.0000 -8.4319 0.0000 17.9893
#
#
#
# Elastic Compliance Matrix: (Units=1/GPa)
#
#
# Indices 1 2 3 4 5 6 
#
# 1 0.028107 -0.006660 0.003460 0.000000 0.028144 0.000000
# 2 -0.006660 0.026891 -0.005749 0.000000 -0.007657 0.000000
# 3 0.003460 -0.005749 0.018934 0.000000 0.007776 0.000000
# 4 0.000000 0.000000 0.000000 0.059812 0.000000 0.028035
# 5 0.028144 -0.007657 0.007776 0.000000 0.087889 0.000000
# 6 0.000000 0.000000 0.000000 0.028035 0.000000 0.068729
#
#
# Mechanical properties :
#
#
# Convention : Reuss Voigt Hill
#
# Bulk Modulus (GPa) = 17.84677 21.37674 19.61175
# Shear Modulus (GPa) = 15.29341 20.11493 17.70417
#
# Velocity S-wave (km/s) = 2.97598 3.41301 3.20196
# Velocity P-wave (km/s) = 4.70572 5.28308 5.00273
#
# Compressibility (1/GPa) = 0.05603255
#
# Stress axis : x y z
#
# Youngs Moduli (GPa) = 35.57864 37.18732 52.81571
#
# Poissons Ratio (x) = 0.24767 -0.18275
# Poissons Ratio (y) = 0.23696 0.30366
# Poissons Ratio (z) = -0.12311 0.21381
#
# Static dielectric constant tensor:
#      x y z
#    x 1.560360 0.000000 -0.010950 
#    y 0.000000 1.630350 0.000000 
#    z -0.010950 0.000000 1.614950 
# 
# From -- ./inp_files/296677.got.cif
#   From: 2010.05.17/outbox.cif.g08.bks.cpg/sg12_149_cif.got.tgz:296677.got - 2010.06.03 13:09:07.
