data_PCOD9191847
_publ_section_title
;
Structure prediction by ZEFSAII (Michael W. Deem and Ramdas Pophale) SiO2 
 PCOD9191847
Probable space group: C 2/M
;
_chemical_formula_sum "Si O2"
_cell_formula_units_Z 56
_cell_length_a 15.490816
_cell_length_b 17.336232
_cell_length_c 14.242212
_cell_angle_alpha 90.000000
_cell_angle_beta 57.054893
_cell_angle_gamma 90.000000
_cell_volume 3209.724649
_symmetry_space_group_name_H-M "C 2/M"
_symmetry_group_IT_number 12
_symmetry_cell_setting 'monoclinic'
loop_
_space_group_symop_operation_xyz
x,y,z
-x,y,-z
-x,-y,-z
x,-y,z
1/2+x,1/2+y,z
1/2-x,1/2+y,-z
1/2-x,1/2-y,-z
1/2+x,1/2-y,z
loop_
_atom_site_type_symbol
_atom_site_label
_atom_site_fract_x
_atom_site_fract_y
_atom_site_fract_z
Si Si1 0.766037 0.799217 0.301463
Si Si2 0.652985 0.731164 0.194030
Si Si3 0.482738 0.914458 0.900794
Si Si4 0.116468 0.914458 0.900794
Si Si5 0.256876 0.870794 0.986248
Si Si6 0.567499 0.200783 0.698537
Si Si7 0.395888 0.909440 0.500000
O O1 0.701626 0.744877 0.267894
O O2 0.844697 0.848266 0.191083
O O3 0.831555 0.750000 0.336891
O O4 0.690591 0.861549 0.393123
O O5 0.700015 0.798505 0.099970
O O6 0.530480 0.744877 0.267894
O O7 0.692266 0.655862 0.115467
O O8 0.360776 0.912983 0.954147
O O9 0.535780 0.848266 0.808917
O O10 0.522447 0.000000 0.852799
O O11 0.500000 0.900335 0.000000
O O12 0.185077 0.912983 0.954147
O O13 0.124754 0.000000 0.852799
O O14 0.000000 0.900335 0.000000
O O15 0.583713 0.138451 0.606877
O O16 0.500000 0.908035 0.500000
O O17 0.369787 0.000000 0.500000
#
# Coordination Sequence:
#
# PCOD9191847 Si02
#       7
#     8   8   8   8   8   8   8
#     4  11  21  36  57  82 113 147 188 241 291 339
#     4   9  18  31  49  78 107 139 187 221 279 329
#     4  10  20  33  51  79 112 149 190 229 280 341
#     4  10  20  33  51  79 112 149 190 229 280 341
#     4   9  17  30  48  72 107 147 180 226 270 325
#     4  11  21  36  57  82 113 147 188 241 291 339
#     4  11  23  40  60  83 113 147 191 243 295 344
#
# _framework density 17.446978999999999
#
# number of rings (size 3 to 8) (size 9 to 14) (size 15 to 20)
#    0.000    1.857    1.429    3.429    0.000    2.857 
#    0.000    0.000    0.000    0.000    0.000    1.000 
#    0.000    0.000    0.000    0.000    0.000    0.000 
#
# Total GULP energy -156171.537773 kJ/mol
# GULP energy per Si atom -5577.554920 kJ/mol
# Density = 1.740727 g / cm^3
# Si number density = 17.446979 Si / 1000 Ang^3
#
#
#
# Elastic Constant Matrix: (Units=GPa)
#
#
# Indices 1 2 3 4 5 6 
#
# 1 102.6188 25.9545 29.3511 0.0000 2.8620 0.0000
# 2 25.9545 69.7891 30.8668 0.0000 -0.3370 0.0000
# 3 29.3511 30.8668 43.1836 0.0000 1.2161 0.0000
# 4 0.0000 0.0000 0.0000 23.0224 0.0000 0.5910
# 5 2.8620 -0.3370 1.2161 0.0000 15.8897 0.0000
# 6 0.0000 0.0000 0.0000 0.5910 0.0000 31.6376
#
#
#
# Elastic Compliance Matrix: (Units=1/GPa)
#
#
# Indices 1 2 3 4 5 6 
#
# 1 0.012217 -0.001316 -0.007316 0.000000 -0.001668 0.000000
# 2 -0.001316 0.021135 -0.014263 0.000000 0.001777 0.000000
# 3 -0.007316 -0.014263 0.038378 0.000000 -0.001922 0.000000
# 4 0.000000 0.000000 0.000000 0.043457 0.000000 -0.000812
# 5 -0.001668 0.001777 -0.001922 0.000000 0.063419 0.000000
# 6 0.000000 0.000000 0.000000 -0.000812 0.000000 0.031623
#
#
# Mechanical properties :
#
#
# Convention : Reuss Voigt Hill
#
# Bulk Modulus (GPa) = 38.54872 43.10404 40.82638
# Shear Modulus (GPa) = 18.89181 22.73788 20.81484
#
# Velocity S-wave (km/s) = 3.29418 3.61398 3.45778
# Velocity P-wave (km/s) = 6.05075 6.49414 6.27636
#
# Compressibility (1/GPa) = 0.02594120
#
# Stress axis : x y z
#
# Youngs Moduli (GPa) = 81.85562 47.31498 26.05629
#
# Poissons Ratio (x) = 0.06225 0.19063
# Poissons Ratio (y) = 0.10769 0.37163
# Poissons Ratio (z) = 0.59886 0.67484
#
# Static dielectric constant tensor:
#      x y z
#    x 1.585330 0.000000 0.000260 
#    y 0.000000 1.593770 0.000000 
#    z 0.000260 0.000000 1.581550 
# 
# From -- ./inp_files/146034.got.cif
#   From: 2010.05.17/outbox.cif.g08.bks.cpg/sg12_74_cif.got.tgz:146034.got - 2010.06.03 13:09:07.
