data_PCOD9191046
_publ_section_title
;
Structure prediction by ZEFSAII (Michael W. Deem and Ramdas Pophale) SiO2 
 PCOD9191046
Probable space group: C 2/M
;
_chemical_formula_sum "Si O2"
_cell_formula_units_Z 48
_cell_length_a 11.943890
_cell_length_b 14.095910
_cell_length_c 28.753412
_cell_angle_alpha 90.000000
_cell_angle_beta 148.058843
_cell_angle_gamma 90.000000
_cell_volume 2561.081547
_symmetry_space_group_name_H-M "C 2/M"
_symmetry_group_IT_number 12
_symmetry_cell_setting 'monoclinic'
loop_
_space_group_symop_operation_xyz
x,y,z
-x,y,-z
-x,-y,-z
x,-y,z
1/2+x,1/2+y,z
1/2-x,1/2+y,-z
1/2-x,1/2-y,-z
1/2+x,1/2-y,z
loop_
_atom_site_type_symbol
_atom_site_label
_atom_site_fract_x
_atom_site_fract_y
_atom_site_fract_z
Si Si1 0.490951 0.111105 0.574087
Si Si2 0.873628 0.734171 0.117406
Si Si3 0.651727 0.218074 0.717934
Si Si4 0.776224 0.391037 0.997956
Si Si5 0.854269 0.110789 0.625562
Si Si6 0.283345 0.391818 0.854173
O O1 0.516545 0.172791 0.628874
O O2 0.690228 0.127313 0.609942
O O3 0.282376 0.127391 0.469585
O O4 0.494364 0.000000 0.587996
O O5 0.738549 0.824795 0.052661
O O6 0.764348 0.675234 0.119331
O O7 0.107384 0.767217 0.213976
O O8 0.900193 0.666132 0.081502
O O9 0.547090 0.317244 0.695319
O O10 0.667105 0.149207 0.767811
O O11 0.843147 0.500000 0.014568
O O12 0.533124 0.392181 0.930808
O O13 0.916391 0.000000 0.648513
O O14 0.219378 0.500000 0.841760
#
# Coordination Sequence:
#
# PCOD9191046 Si02
#       6
#     8   8   8   8   8   8
#     4   9  18  35  55  72  96 133 173 205 239 294
#     4  10  20  32  52  78 102 128 165 209 252 292
#     4  11  20  32  51  78 105 128 162 209 254 292
#     4   9  19  36  55  72  96 134 174 205 239 292
#     4   9  19  34  52  74 100 133 168 203 248 297
#     4  10  20  34  53  75 100 134 171 203 241 295
#
# _framework density 18.742082
#
# number of rings (size 3 to 8) (size 9 to 14) (size 15 to 20)
#    0.000    2.333    0.000    4.000    0.000    3.333 
#    0.000    0.833    0.000   14.000    0.000   10.500 
#    0.000    0.000    0.000    0.000    0.000    0.000 
#
# Total GULP energy -133980.406368 kJ/mol
# GULP energy per Si atom -5582.516932 kJ/mol
# Density = 1.869942 g / cm^3
# Si number density = 18.742082 Si / 1000 Ang^3
#
#
#
# Elastic Constant Matrix: (Units=GPa)
#
#
# Indices 1 2 3 4 5 6 
#
# 1 39.3552 24.7220 1.1315 0.0000 -10.8560 0.0000
# 2 24.7220 97.2495 14.6650 0.0000 -15.0216 0.0000
# 3 1.1315 14.6650 20.6237 0.0002 -5.1942 0.0001
# 4 0.0000 0.0000 0.0002 23.9505 0.0000 1.5177
# 5 -10.8560 -15.0216 -5.1942 0.0000 16.5988 0.0000
# 6 0.0000 0.0000 0.0001 1.5177 0.0000 29.7334
#
#
#
# Elastic Compliance Matrix: (Units=1/GPa)
#
#
# Indices 1 2 3 4 5 6 
#
# 1 0.034860 -0.007150 0.007907 0.000000 0.018803 0.000000
# 2 -0.007150 0.014217 -0.008309 0.000000 0.005590 0.000000
# 3 0.007907 -0.008309 0.057937 0.000000 0.015782 0.000000
# 4 0.000000 0.000000 0.000000 0.041888 0.000000 -0.002138
# 5 0.018803 0.005590 0.015782 0.000000 0.082540 0.000000
# 6 0.000000 0.000000 0.000000 -0.002138 0.000000 0.033741
#
#
# Mechanical properties :
#
#
# Convention : Reuss Voigt Hill
#
# Bulk Modulus (GPa) = 10.88008 26.47392 18.67700
# Shear Modulus (GPa) = 16.08103 21.83719 18.95911
#
# Velocity S-wave (km/s) = 2.93237 3.41712 3.18398
# Velocity P-wave (km/s) = 4.15726 5.45206 4.84808
#
# Compressibility (1/GPa) = 0.09191110
#
# Stress axis : x y z
#
# Youngs Moduli (GPa) = 28.68578 70.33925 17.25999
#
# Poissons Ratio (x) = 0.50292 -0.13648
# Poissons Ratio (y) = 0.20510 0.14342
# Poissons Ratio (z) = -0.22683 0.58446
#
# Static dielectric constant tensor:
#      x y z
#    x 1.633450 0.000000 -0.005390 
#    y 0.000000 1.644830 0.000000 
#    z -0.005390 0.000000 1.635930 
# 
# From -- ./inp_files/204379.got.cif
#   From: 2010.05.17/outbox.cif.g08.bks.cpg/sg12_103_cif.got.tgz:204379.got - 2010.06.03 13:09:07.
