data_PCOD9191320
_publ_section_title
;
Structure prediction by ZEFSAII (Michael W. Deem and Ramdas Pophale) SiO2 
 PCOD9191320
Probable space group: C 2/M
;
_chemical_formula_sum "Si O2"
_cell_formula_units_Z 64
_cell_length_a 23.342192
_cell_length_b 15.203396
_cell_length_c 9.556399
_cell_angle_alpha 90.000000
_cell_angle_beta 99.895564
_cell_angle_gamma 90.000000
_cell_volume 3340.925693
_symmetry_space_group_name_H-M "C 2/M"
_symmetry_group_IT_number 12
_symmetry_cell_setting 'monoclinic'
loop_
_space_group_symop_operation_xyz
x,y,z
-x,y,-z
-x,-y,-z
x,-y,z
1/2+x,1/2+y,z
1/2-x,1/2+y,-z
1/2-x,1/2-y,-z
1/2+x,1/2-y,z
loop_
_atom_site_type_symbol
_atom_site_label
_atom_site_fract_x
_atom_site_fract_y
_atom_site_fract_z
Si Si1 0.834586 0.399072 0.074061
Si Si2 0.537830 0.399891 0.734002
Si Si3 0.348910 0.718421 0.735011
Si Si4 0.766853 0.660511 0.590687
Si Si5 0.890934 0.216914 0.047958
Si Si6 0.409754 0.599230 0.544976
Si Si7 0.256153 0.094641 0.292734
Si Si8 0.786936 0.104130 0.145933
O O1 0.853839 0.500000 0.055713
O O2 0.878865 0.320129 0.066476
O O3 0.813401 0.392046 0.225741
O O4 0.775077 0.384608 0.959689
O O5 0.547320 0.500000 0.790491
O O6 0.554365 0.326925 0.853162
O O7 0.578471 0.387072 0.613875
O O8 0.472525 0.396027 0.647362
O O9 0.328659 0.816277 0.687697
O O10 0.369856 0.668694 0.605616
O O11 0.290157 0.669531 0.760688
O O12 0.392196 0.706805 0.881263
O O13 0.750000 0.750000 0.500000
O O14 0.768713 0.594837 0.462514
O O15 0.724205 0.633063 0.697797
O O16 0.836016 0.163050 0.091928
O O17 0.386705 0.500000 0.554618
O O18 0.231057 0.000000 0.238967
O O19 0.801597 0.000000 0.147294
#
# Coordination Sequence:
#
# PCOD9191320 Si02
#       8
#     8   8   8   8   8   8   8   8
#     4  10  21  36  53  75 109 147 176 215 266 310
#     4   9  21  38  57  80 106 138 174 215 266 323
#     4  11  21  32  51  76 105 141 178 218 263 306
#     4  10  21  33  46  73 105 142 181 219 254 301
#     4  12  21  34  54  80 106 141 184 221 257 317
#     4   9  20  39  55  76 109 138 172 217 265 320
#     4  10  20  33  48  73 106 140 176 215 258 304
#     4  11  21  34  52  76 112 150 179 213 261 316
#
# _framework density 19.156366999999999
#
# number of rings (size 3 to 8) (size 9 to 14) (size 15 to 20)
#    0.000    1.750    2.500    3.750    5.250    2.000 
#    0.000    1.250    0.000    0.000    0.000    5.250 
#    0.000    0.000    0.000    0.000    0.000    0.000 
#
# Total GULP energy -178556.078960 kJ/mol
# GULP energy per Si atom -5579.877468 kJ/mol
# Density = 1.911277 g / cm^3
# Si number density = 19.156367 Si / 1000 Ang^3
#
#
#
# Elastic Constant Matrix: (Units=GPa)
#
#
# Indices 1 2 3 4 5 6 
#
# 1 20.3522 10.3768 0.0133 0.0000 1.8149 0.0000
# 2 10.3768 81.9348 4.5716 0.0000 4.3364 0.0000
# 3 0.0133 4.5716 76.8768 0.0000 3.5485 0.0000
# 4 0.0000 0.0000 0.0000 21.5952 0.0000 1.7402
# 5 1.8149 4.3364 3.5485 0.0000 28.4276 0.0000
# 6 0.0000 0.0000 0.0000 1.7402 0.0000 18.2228
#
#
#
# Elastic Compliance Matrix: (Units=1/GPa)
#
#
# Indices 1 2 3 4 5 6 
#
# 1 0.052702 -0.006574 0.000494 0.000000 -0.002423 0.000000
# 2 -0.006574 0.013156 -0.000712 0.000000 -0.001498 0.000000
# 3 0.000494 -0.000712 0.013122 0.000000 -0.001561 0.000000
# 4 0.000000 0.000000 0.000000 0.046666 0.000000 -0.004457
# 5 -0.002423 -0.001498 -0.001561 0.000000 0.035755 0.000000
# 6 0.000000 0.000000 0.000000 -0.004457 0.000000 0.055302
#
#
# Mechanical properties :
#
#
# Convention : Reuss Voigt Hill
#
# Bulk Modulus (GPa) = 15.29138 23.23193 19.26165
# Shear Modulus (GPa) = 19.83439 24.59591 22.21515
#
# Velocity S-wave (km/s) = 3.22125 3.58712 3.40909
# Velocity P-wave (km/s) = 4.67279 5.41391 5.05694
#
# Compressibility (1/GPa) = 0.06539634
#
# Stress axis : x y z
#
# Youngs Moduli (GPa) = 18.97446 76.00848 76.20715
#
# Poissons Ratio (x) = 0.49967 -0.03762
# Poissons Ratio (y) = 0.12474 0.05427
# Poissons Ratio (z) = -0.00937 0.05412
#
# Static dielectric constant tensor:
#      x y z
#    x 1.676160 0.000000 0.028900 
#    y 0.000000 1.746500 0.000000 
#    z 0.028900 0.000000 1.731880 
# 
# From -- ./inp_files/104629.got.cif
#   From: 2010.05.17/outbox.cif.g08.bks.cpg/sg12_53_cif.got.tgz:104629.got - 2010.06.03 13:09:07.
