data_PCOD9191110
_publ_section_title
;
Structure prediction by ZEFSAII (Michael W. Deem and Ramdas Pophale) SiO2 
 PCOD9191110
Probable space group: C 2/M
;
_chemical_formula_sum "Si O2"
_cell_formula_units_Z 48
_cell_length_a 17.417473
_cell_length_b 14.373189
_cell_length_c 10.163182
_cell_angle_alpha 90.000000
_cell_angle_beta 112.356751
_cell_angle_gamma 90.000000
_cell_volume 2353.051859
_symmetry_space_group_name_H-M "C 2/M"
_symmetry_group_IT_number 12
_symmetry_cell_setting 'monoclinic'
loop_
_space_group_symop_operation_xyz
x,y,z
-x,y,-z
-x,-y,-z
x,-y,z
1/2+x,1/2+y,z
1/2-x,1/2+y,-z
1/2-x,1/2-y,-z
1/2+x,1/2-y,z
loop_
_atom_site_type_symbol
_atom_site_label
_atom_site_fract_x
_atom_site_fract_y
_atom_site_fract_z
Si Si1 0.725045 0.333814 0.675850
Si Si2 0.933003 0.897394 0.571909
Si Si3 0.122519 0.394025 0.060600
Si Si4 0.340578 0.754253 0.126652
Si Si5 0.404194 0.605509 0.982756
Si Si6 0.884091 0.242143 0.748138
O O1 0.658747 0.391491 0.551515
O O2 0.782035 0.389350 0.819915
O O3 0.673534 0.258336 0.728182
O O4 0.798951 0.286773 0.640897
O O5 0.936067 0.810529 0.672742
O O6 0.000000 0.890175 0.500000
O O7 0.944164 0.000000 0.643707
O O8 0.095465 0.500000 0.042625
O O9 0.078049 0.324859 0.137267
O O10 0.120558 0.345103 0.916714
O O11 0.250000 0.750000 0.000000
O O12 0.389434 0.664301 0.104177
O O13 0.376058 0.500000 0.977686
O O14 0.359285 0.662949 0.838079
O O15 0.500000 0.606632 0.000000
#
# Coordination Sequence:
#
# PCOD9191110 Si02
#       6
#     8   8   8   8   8   8
#     4   9  19  35  52  76 109 149 181 220 267 322
#     4  11  23  36  55  84 113 141 178 229 285 335
#     4   8  16  31  57  79 101 138 181 225 258 310
#     4   9  17  33  49  80 111 139 181 218 263 324
#     4  10  20  32  53  82 115 146 168 217 289 340
#     4   9  20  37  51  77 112 144 188 222 261 327
#
# _framework density 20.399038999999998
#
# number of rings (size 3 to 8) (size 9 to 14) (size 15 to 20)
#    1.000    1.667    1.667    1.500    2.333    3.333 
#    0.000    0.000    0.000    9.500    0.000    0.000 
#    0.000    0.000    0.000    0.000    0.000    0.000 
#
# Total GULP energy -133610.227980 kJ/mol
# GULP energy per Si atom -5567.092833 kJ/mol
# Density = 2.035261 g / cm^3
# Si number density = 20.399039 Si / 1000 Ang^3
#
#
#
# Elastic Constant Matrix: (Units=GPa)
#
#
# Indices 1 2 3 4 5 6 
#
# 1 79.5245 35.0421 1.2769 0.0000 -3.3881 0.0000
# 2 35.0421 167.6316 13.5973 0.0000 -19.3582 0.0000
# 3 1.2769 13.5973 16.6850 0.0000 -1.0992 0.0000
# 4 0.0000 0.0000 0.0000 3.0604 0.0000 1.3575
# 5 -3.3881 -19.3582 -1.0992 0.0000 32.3545 0.0000
# 6 0.0000 0.0000 0.0000 1.3575 0.0000 11.6255
#
#
#
# Elastic Compliance Matrix: (Units=1/GPa)
#
#
# Indices 1 2 3 4 5 6 
#
# 1 0.013884 -0.003054 0.001405 0.000000 -0.000326 0.000000
# 2 -0.003054 0.007521 -0.005633 0.000000 0.003989 0.000000
# 3 0.001405 -0.005633 0.064349 0.000000 -0.001037 0.000000
# 4 0.000000 0.000000 0.000000 0.344598 0.000000 -0.040238
# 5 -0.000326 0.003989 -0.001037 0.000000 0.033225 0.000000
# 6 0.000000 0.000000 0.000000 -0.040238 0.000000 0.090716
#
#
# Mechanical properties :
#
#
# Convention : Reuss Voigt Hill
#
# Bulk Modulus (GPa) = 14.04691 40.40818 27.22754
# Shear Modulus (GPa) = 8.43756 23.66975 16.05365
#
# Velocity S-wave (km/s) = 2.03598 3.41007 2.80836
# Velocity P-wave (km/s) = 3.52534 5.94614 4.88797
#
# Compressibility (1/GPa) = 0.07119005
#
# Stress axis : x y z
#
# Youngs Moduli (GPa) = 72.02539 132.95352 15.54028
#
# Poissons Ratio (x) = 0.40602 -0.02183
# Poissons Ratio (y) = 0.21996 0.08754
# Poissons Ratio (z) = -0.10118 0.74893
#
# Static dielectric constant tensor:
#      x y z
#    x 1.773820 0.000000 0.005070 
#    y 0.000000 1.734130 0.000000 
#    z 0.005070 0.000000 1.774750 
# 
# From -- ./inp_files/155468.got.cif
#   From: 2010.05.17/outbox.cif.g08.bks.cpg/sg12_78_cif.got.tgz:155468.got - 2010.06.03 13:09:07.
