data_PCOD9191948
_publ_section_title
;
Structure prediction by ZEFSAII (Michael W. Deem and Ramdas Pophale) SiO2 
 PCOD9191948
Probable space group: C 2/M
;
_chemical_formula_sum "Si O2"
_cell_formula_units_Z 64
_cell_length_a 18.960943
_cell_length_b 9.038306
_cell_length_c 25.312175
_cell_angle_alpha 90.000000
_cell_angle_beta 123.124048
_cell_angle_gamma 90.000000
_cell_volume 3632.919500
_symmetry_space_group_name_H-M "C 2/M"
_symmetry_group_IT_number 12
_symmetry_cell_setting 'monoclinic'
loop_
_space_group_symop_operation_xyz
x,y,z
-x,y,-z
-x,-y,-z
x,-y,z
1/2+x,1/2+y,z
1/2-x,1/2+y,-z
1/2-x,1/2-y,-z
1/2+x,1/2-y,z
loop_
_atom_site_type_symbol
_atom_site_label
_atom_site_fract_x
_atom_site_fract_y
_atom_site_fract_z
Si Si1 0.594656 0.177361 0.557390
Si Si2 0.724774 0.675927 0.070208
Si Si3 0.351143 0.329183 0.686263
Si Si4 0.287151 0.827700 0.823306
Si Si5 0.950943 0.673992 0.815753
Si Si6 0.119522 0.823646 0.925546
Si Si7 0.187209 0.669295 0.696308
Si Si8 0.753541 0.823004 0.444047
O O1 0.500000 0.204811 0.500000
O O2 0.611867 0.213511 0.626124
O O3 0.661346 0.267072 0.549864
O O4 0.611986 0.000000 0.559021
O O5 0.739339 0.500000 0.076109
O O6 0.706614 0.733670 0.121086
O O7 0.806639 0.758272 0.080863
O O8 0.649445 0.706685 0.997902
O O9 0.369752 0.500000 0.681224
O O10 0.424045 0.253748 0.750429
O O11 0.268882 0.328625 0.691009
O O12 0.322699 0.238233 0.623413
O O13 0.371987 0.810629 0.823426
O O14 0.210883 0.771141 0.755090
O O15 0.276499 0.000000 0.831755
O O16 0.964551 0.500000 0.812208
O O17 0.032467 0.747887 0.874558
O O18 0.113849 0.000000 0.916431
O O19 0.175017 0.500000 0.709156
O O20 0.750000 0.750000 0.500000
O O21 0.751191 0.000000 0.445902
#
# Coordination Sequence:
#
# PCOD9191948 Si02
#       8
#     8   8   8   8   8   8   8   8
#     4   9  18  34  55  78 105 137 173 214 262 314
#     4  10  21  37  56  76 102 137 175 214 260 313
#     4   9  17  32  53  76 103 136 174 214 259 309
#     4  10  20  33  52  78 106 135 171 214 256 304
#     4  10  20  34  54  81 109 137 171 212 257 305
#     4  10  21  37  56  77 103 137 174 213 259 312
#     4   8  15  29  50  74 101 134 169 208 256 308
#     4  11  21  34  53  77 106 139 178 219 262 312
#
# _framework density 17.616685
#
# number of rings (size 3 to 8) (size 9 to 14) (size 15 to 20)
#    0.000    2.375    0.000    3.750    0.000    6.750 
#    0.000    3.750    0.000    1.500    0.000    0.000 
#    0.000    0.000    0.000    0.000    0.000    0.000 
#
# Total GULP energy -178518.887004 kJ/mol
# GULP energy per Si atom -5578.715219 kJ/mol
# Density = 1.757659 g / cm^3
# Si number density = 17.616685 Si / 1000 Ang^3
#
#
#
# Elastic Constant Matrix: (Units=GPa)
#
#
# Indices 1 2 3 4 5 6 
#
# 1 24.5047 41.5508 49.1933 0.0000 5.1088 0.0000
# 2 41.5508 124.8309 91.4787 0.0000 1.7414 0.0000
# 3 49.1933 91.4787 161.8294 0.0000 13.0585 0.0000
# 4 0.0000 0.0000 0.0000 33.3492 0.0000 -0.9419
# 5 5.1088 1.7414 13.0585 0.0000 29.6518 0.0000
# 6 0.0000 0.0000 0.0000 -0.9419 0.0000 26.8044
#
#
#
# Elastic Compliance Matrix: (Units=1/GPa)
#
#
# Indices 1 2 3 4 5 6 
#
# 1 0.147145 -0.028542 -0.027668 0.000000 -0.011491 0.000000
# 2 -0.028542 0.019424 -0.002704 0.000000 0.004968 0.000000
# 3 -0.027668 -0.002704 0.016300 0.000000 -0.002253 0.000000
# 4 0.000000 0.000000 0.000000 0.030016 0.000000 0.001055
# 5 -0.011491 0.004968 -0.002253 0.000000 0.036405 0.000000
# 6 0.000000 0.000000 0.000000 0.001055 0.000000 0.037344
#
#
# Mechanical properties :
#
#
# Convention : Reuss Voigt Hill
#
# Bulk Modulus (GPa) = 15.37516 75.06784 45.22150
# Shear Modulus (GPa) = 11.73316 26.55722 19.14519
#
# Velocity S-wave (km/s) = 2.58355 3.88687 3.30019
# Velocity P-wave (km/s) = 4.20073 7.92767 6.34406
#
# Compressibility (1/GPa) = 0.06503999
#
# Stress axis : x y z
#
# Youngs Moduli (GPa) = 6.79603 51.48317 61.34797
#
# Poissons Ratio (x) = 1.46944 1.69737
# Poissons Ratio (y) = 0.19397 0.16591
# Poissons Ratio (z) = 0.18803 0.13923
#
# Static dielectric constant tensor:
#      x y z
#    x 1.576900 0.000000 0.003320 
#    y 0.000000 1.587190 0.000000 
#    z 0.003320 0.000000 1.603960 
# 
# From -- ./inp_files/346117.got.cif
#   From: 2010.05.17/outbox.cif.g08.bks.cpg/sg12_174_cif.got.tgz:346117.got - 2010.06.03 13:09:07.
