data_PCOD9191114
_publ_section_title
;
Structure prediction by ZEFSAII (Michael W. Deem and Ramdas Pophale) SiO2 
 PCOD9191114
Probable space group: C 2/M
;
_chemical_formula_sum "Si O2"
_cell_formula_units_Z 52
_cell_length_a 5.258455
_cell_length_b 22.412978
_cell_length_c 21.338641
_cell_angle_alpha 90.000000
_cell_angle_beta 72.566569
_cell_angle_gamma 90.000000
_cell_volume 2399.400570
_symmetry_space_group_name_H-M "C 2/M"
_symmetry_group_IT_number 12
_symmetry_cell_setting 'monoclinic'
loop_
_space_group_symop_operation_xyz
x,y,z
-x,y,-z
-x,-y,-z
x,-y,z
1/2+x,1/2+y,z
1/2-x,1/2+y,-z
1/2-x,1/2-y,-z
1/2+x,1/2-y,z
loop_
_atom_site_type_symbol
_atom_site_label
_atom_site_fract_x
_atom_site_fract_y
_atom_site_fract_z
Si Si1 0.778806 0.282854 0.235353
Si Si2 0.143814 0.384850 0.218501
Si Si3 0.359272 0.427199 0.574723
Si Si4 0.142671 0.172254 0.119600
Si Si5 0.954600 0.567891 0.904837
Si Si6 0.764870 0.571905 0.651062
Si Si7 0.000000 0.150789 0.000000
O O1 0.980459 0.241607 0.259947
O O2 0.868120 0.349007 0.248553
O O3 0.814632 0.289037 0.156023
O O4 0.358112 0.338688 0.173694
O O5 0.102535 0.431209 0.165545
O O6 0.250762 0.408674 0.275769
O O7 0.500000 0.408224 0.500000
O O8 0.358533 0.500000 0.574608
O O9 0.533728 0.407748 0.621393
O O10 0.053136 0.408500 0.603594
O O11 0.278510 0.106573 0.106391
O O12 0.106352 0.189257 0.050427
O O13 0.969639 0.500000 0.925882
O O14 0.729608 0.607251 0.955912
O O15 0.760253 0.500000 0.650921
#
# Coordination Sequence:
#
# PCOD9191114 Si02
#       7
#     8   8   8   8   8   8   4
#     4  11  22  41  64  82 108 144 181 235 302 348
#     4  10  22  37  57  84 115 144 186 243 282 344
#     4   9  18  32  50  76 116 165 202 224 253 308
#     4  10  22  38  58  81 111 144 186 239 283 345
#     4  10  21  35  55  79 115 154 190 229 279 334
#     4  10  20  32  53  83 120 158 191 226 270 319
#     4  10  21  38  54  78 114 148 192 232 277 334
#
# _framework density 21.672079
#
# number of rings (size 3 to 8) (size 9 to 14) (size 15 to 20)
#    0.000    2.000    1.538    1.615    4.308    6.154 
#    0.000    0.769    0.000    0.000    0.000    0.000 
#    0.000   12.308    0.000    0.000    0.000    0.000 
#
# Total GULP energy -145120.515243 kJ/mol
# GULP energy per Si atom -5581.558279 kJ/mol
# Density = 2.162275 g / cm^3
# Si number density = 21.672079 Si / 1000 Ang^3
#
#
#
# Elastic Constant Matrix: (Units=GPa)
#
#
# Indices 1 2 3 4 5 6 
#
# 1 113.7710 18.8923 23.0063 0.0000 9.6922 0.0000
# 2 18.8923 31.7261 5.8053 0.0000 -1.3333 0.0000
# 3 23.0063 5.8053 100.3937 0.0000 9.7537 0.0000
# 4 0.0000 0.0000 0.0000 11.7089 0.0000 2.4202
# 5 9.6922 -1.3333 9.7537 0.0000 32.8232 0.0000
# 6 0.0000 0.0000 0.0000 2.4202 0.0000 20.5863
#
#
#
# Elastic Compliance Matrix: (Units=1/GPa)
#
#
# Indices 1 2 3 4 5 6 
#
# 1 0.010375 -0.005972 -0.001762 0.000000 -0.002783 0.000000
# 2 -0.005972 0.035410 -0.001019 0.000000 0.003505 0.000000
# 3 -0.001762 -0.001019 0.010685 0.000000 -0.002696 0.000000
# 4 0.000000 0.000000 0.000000 0.087532 0.000000 -0.010291
# 5 -0.002783 0.003505 -0.002696 0.000000 0.032232 0.000000
# 6 0.000000 0.000000 0.000000 -0.010291 0.000000 0.049786
#
#
# Mechanical properties :
#
#
# Convention : Reuss Voigt Hill
#
# Bulk Modulus (GPa) = 25.66549 37.92206 31.79378
# Shear Modulus (GPa) = 19.49208 26.23615 22.86411
#
# Velocity S-wave (km/s) = 3.00227 3.48314 3.25161
# Velocity P-wave (km/s) = 4.88738 5.80624 5.36651
#
# Compressibility (1/GPa) = 0.03896282
#
# Stress axis : x y z
#
# Youngs Moduli (GPa) = 96.38884 28.24051 93.58533
#
# Poissons Ratio (x) = 0.16867 0.16488
# Poissons Ratio (y) = 0.57568 0.09541
# Poissons Ratio (z) = 0.16981 0.02879
#
# Static dielectric constant tensor:
#      x y z
#    x 1.861110 0.000000 -0.017040 
#    y 0.000000 1.820080 0.000000 
#    z -0.017040 0.000000 1.789700 
# 
# From -- ./inp_files/253461.got.cif
#   From: 2010.05.17/outbox.cif.g08.bks.cpg/sg12_127_cif.got.tgz:253461.got - 2010.06.03 13:09:07.
