data_PCOD9191981
_publ_section_title
;
Structure prediction by ZEFSAII (Michael W. Deem and Ramdas Pophale) SiO2 
 PCOD9191981
Probable space group: C 2/M
;
_chemical_formula_sum "Si O2"
_cell_formula_units_Z 64
_cell_length_a 16.485700
_cell_length_b 7.696037
_cell_length_c 28.987483
_cell_angle_alpha 90.000000
_cell_angle_beta 137.379280
_cell_angle_gamma 90.000000
_cell_volume 2490.375737
_symmetry_space_group_name_H-M "C 2/M"
_symmetry_group_IT_number 12
_symmetry_cell_setting 'monoclinic'
loop_
_space_group_symop_operation_xyz
x,y,z
-x,y,-z
-x,-y,-z
x,-y,z
1/2+x,1/2+y,z
1/2-x,1/2+y,-z
1/2-x,1/2-y,-z
1/2+x,1/2-y,z
loop_
_atom_site_type_symbol
_atom_site_label
_atom_site_fract_x
_atom_site_fract_y
_atom_site_fract_z
Si Si1 0.628079 0.198313 0.166700
Si Si2 0.785214 0.708673 0.462860
Si Si3 0.942501 0.208077 0.206636
Si Si4 0.886491 0.209900 0.289835
Si Si5 0.117782 0.293691 0.961765
Si Si6 0.303378 0.712719 0.669678
Si Si7 0.317863 0.304010 0.911670
Si Si8 0.042036 0.701649 0.585317
O O1 0.749527 0.279034 0.237739
O O2 0.495826 0.280103 0.114166
O O3 0.655402 0.193342 0.122622
O O4 0.623779 0.000000 0.181280
O O5 0.790599 0.500000 0.462067
O O6 0.750000 0.750000 0.500000
O O7 0.698312 0.763031 0.385194
O O8 0.921436 0.775658 0.512849
O O9 0.925888 0.245949 0.254320
O O10 0.823483 0.286722 0.134732
O O11 0.077585 0.270511 0.253585
O O12 0.935465 0.000000 0.197092
O O13 0.968974 0.286069 0.364032
O O14 0.887241 0.000000 0.294735
O O15 0.105590 0.500000 0.954960
O O16 0.250000 0.250000 0.000000
O O17 0.111295 0.238858 0.012441
O O18 0.306643 0.500000 0.673666
O O19 0.173523 0.777324 0.631439
O O20 0.342334 0.500000 0.907770
O O21 0.049222 0.500000 0.574200
#
# Coordination Sequence:
#
# PCOD9191981 Si02
#       8
#     8   8   8   8   8   8   8   8
#     4   9  20  39  60  80 106 144 184 222 269 323
#     4  10  20  35  55  77 104 137 175 219 264 313
#     4   9  18  35  57  77 101 139 183 220 261 317
#     4   9  18  34  55  78 105 137 173 213 261 315
#     4  11  23  39  58  81 112 146 182 225 274 327
#     4   9  18  34  55  77 103 139 179 217 262 317
#     4  11  22  36  57  84 112 142 181 227 272 320
#     4  10  20  33  52  79 107 136 173 217 264 313
#
# _framework density 25.698934000000001
#
# number of rings (size 3 to 8) (size 9 to 14) (size 15 to 20)
#    0.000    2.250    0.000    3.750    0.000    8.500 
#    0.000    4.375    0.000    1.500    0.000    0.000 
#    0.000    0.000    0.000    0.000    0.000    0.000 
#
# Total GULP energy -178941.730615 kJ/mol
# GULP energy per Si atom -5591.929082 kJ/mol
# Density = 2.564044 g / cm^3
# Si number density = 25.698934 Si / 1000 Ang^3
#
#
#
# Elastic Constant Matrix: (Units=GPa)
#
#
# Indices 1 2 3 4 5 6 
#
# 1 79.6446 3.3903 8.8595 0.0000 18.1719 0.0000
# 2 3.3903 62.6582 6.8361 0.0000 3.0929 0.0000
# 3 8.8595 6.8361 148.8838 0.0000 24.6633 0.0000
# 4 0.0000 0.0000 0.0000 15.6996 0.0000 -3.8912
# 5 18.1719 3.0929 24.6633 0.0000 54.4552 0.0000
# 6 0.0000 0.0000 0.0000 -3.8912 0.0000 16.2842
#
#
#
# Elastic Compliance Matrix: (Units=1/GPa)
#
#
# Indices 1 2 3 4 5 6 
#
# 1 0.013607 -0.000510 -0.000042 0.000000 -0.004493 0.000000
# 2 -0.000510 0.016079 -0.000632 0.000000 -0.000457 0.000000
# 3 -0.000042 -0.000632 0.007287 0.000000 -0.003250 0.000000
# 4 0.000000 0.000000 0.000000 0.067706 0.000000 0.016179
# 5 -0.004493 -0.000457 -0.003250 0.000000 0.021361 0.000000
# 6 0.000000 0.000000 0.000000 0.016179 0.000000 0.065275
#
#
# Mechanical properties :
#
#
# Convention : Reuss Voigt Hill
#
# Bulk Modulus (GPa) = 28.89828 36.59538 32.74683
# Shear Modulus (GPa) = 24.36439 35.42784 29.89612
#
# Velocity S-wave (km/s) = 3.08242 3.71694 3.41445
# Velocity P-wave (km/s) = 4.89262 5.71768 5.32116
#
# Compressibility (1/GPa) = 0.03460414
#
# Stress axis : x y z
#
# Youngs Moduli (GPa) = 73.49021 62.19398 137.23828
#
# Poissons Ratio (x) = 0.03171 0.00577
# Poissons Ratio (y) = 0.03747 0.08677
# Poissons Ratio (z) = 0.00309 0.03932
#
# Static dielectric constant tensor:
#      x y z
#    x 2.035930 0.000000 -0.021130 
#    y 0.000000 1.940750 0.000000 
#    z -0.021130 0.000000 1.956500 
# 
# From -- ./inp_files/378335.got.cif
#   From: 2010.05.17/outbox.cif.g08.bks.cpg/sg12_190_cif.got.tgz:378335.got - 2010.06.03 13:09:07.
