data_PCOD9191693
_publ_section_title
;
Structure prediction by ZEFSAII (Michael W. Deem and Ramdas Pophale) SiO2 
 PCOD9191693
Probable space group: C 2/M
;
_chemical_formula_sum "Si O2"
_cell_formula_units_Z 58
_cell_length_a 27.431515
_cell_length_b 9.139074
_cell_length_c 33.907972
_cell_angle_alpha 90.000000
_cell_angle_beta 155.314472
_cell_angle_gamma 90.000000
_cell_volume 3550.204581
_symmetry_space_group_name_H-M "C 2/M"
_symmetry_group_IT_number 12
_symmetry_cell_setting 'monoclinic'
loop_
_space_group_symop_operation_xyz
x,y,z
-x,y,-z
-x,-y,-z
x,-y,z
1/2+x,1/2+y,z
1/2-x,1/2+y,-z
1/2-x,1/2-y,-z
1/2+x,1/2-y,z
loop_
_atom_site_type_symbol
_atom_site_label
_atom_site_fract_x
_atom_site_fract_y
_atom_site_fract_z
Si Si1 0.810893 0.664705 0.931460
Si Si2 0.663828 0.323388 0.598117
Si Si3 0.166674 0.825696 0.970216
Si Si4 0.397953 0.673038 0.777664
Si Si5 0.072655 0.261267 0.110193
Si Si6 0.500000 0.500000 0.000000
Si Si7 0.200373 0.835151 0.767501
Si Si8 0.557518 0.176209 0.598396
O O1 0.774598 0.500000 0.915609
O O2 0.738200 0.711415 0.839421
O O3 0.804083 0.768253 0.964328
O O4 0.947398 0.660792 0.019859
O O5 0.653330 0.500000 0.591911
O O6 0.794394 0.271037 0.684157
O O7 0.629626 0.251808 0.615446
O O8 0.569876 0.249187 0.499933
O O9 0.029949 0.792262 0.861181
O O10 0.179516 0.000000 0.978646
O O11 0.250000 0.750000 0.000000
O O12 0.375611 0.500000 0.755267
O O13 0.399220 0.708013 0.825185
O O14 0.181279 0.343507 0.171233
O O15 0.052871 0.124645 0.067829
O O16 0.117233 0.724689 0.683044
O O17 0.150479 0.000000 0.732572
O O18 0.555125 0.000000 0.591923
#
# Coordination Sequence:
#
# PCOD9191693 Si02
#       8
#     8   8   8   8   8   2   8   8
#     4  10  21  34  50  72 102 135 171 212 256 307
#     4  11  21  34  50  71  99 136 177 219 257 303
#     4  10  22  38  58  79 105 133 168 214 261 312
#     4  10  20  33  51  75 101 136 172 211 256 305
#     4  11  20  28  47  67 104 137 177 210 247 300
#     4  12  20  28  42  72 102 144 174 220 244 300
#     4  11  21  32  47  71 102 139 176 213 253 297
#     4  11  22  33  49  68 101 140 178 219 255 300
#
# _framework density 16.337087
#
# number of rings (size 3 to 8) (size 9 to 14) (size 15 to 20)
#    0.000    1.379    3.448    4.138    1.931    4.414 
#    0.000    0.000    0.000    0.000    0.000    0.966 
#    0.000    0.000    0.000    0.000    0.000    0.000 
#
# Total GULP energy -161484.847639 kJ/mol
# GULP energy per Si atom -5568.443022 kJ/mol
# Density = 1.629990 g / cm^3
# Si number density = 16.337087 Si / 1000 Ang^3
#
#
#
# Elastic Constant Matrix: (Units=GPa)
#
#
# Indices 1 2 3 4 5 6 
#
# 1 57.4124 42.8992 50.7078 0.0000 8.0291 0.0000
# 2 42.8992 134.1634 66.7651 0.0002 2.9429 -0.0007
# 3 50.7078 66.7651 124.0220 -0.0007 -4.4130 -0.0004
# 4 0.0000 0.0002 -0.0007 28.5578 -0.0004 0.8553
# 5 8.0291 2.9429 -4.4130 -0.0004 16.6007 -0.0002
# 6 0.0000 -0.0007 -0.0004 0.8553 -0.0002 26.6159
#
#
#
# Elastic Compliance Matrix: (Units=1/GPa)
#
#
# Indices 1 2 3 4 5 6 
#
# 1 0.034246 -0.004408 -0.012307 -0.000001 -0.019053 0.000000
# 2 -0.004408 0.010930 -0.004114 0.000000 -0.000899 0.000000
# 3 -0.012307 -0.004114 0.015696 0.000001 0.010854 0.000000
# 4 -0.000001 0.000000 0.000001 0.035050 0.000001 -0.001126
# 5 -0.019053 -0.000899 0.010854 0.000001 0.072498 0.000001
# 6 0.000000 0.000000 0.000000 -0.001126 0.000001 0.037608
#
#
# Mechanical properties :
#
#
# Convention : Reuss Voigt Hill
#
# Bulk Modulus (GPa) = 52.04429 70.70467 61.37448
# Shear Modulus (GPa) = 19.67812 24.70326 22.19069
#
# Velocity S-wave (km/s) = 3.47436 3.89279 3.68951
# Velocity P-wave (km/s) = 6.92969 7.97356 7.46988
#
# Compressibility (1/GPa) = 0.01921441
#
# Stress axis : x y z
#
# Youngs Moduli (GPa) = 29.20080 91.49214 63.71212
#
# Poissons Ratio (x) = 0.40329 0.78409
# Poissons Ratio (y) = 0.12871 0.26209
# Poissons Ratio (z) = 0.35937 0.37637
#
# Static dielectric constant tensor:
#      x y z
#    x 1.531090 0.000000 0.006150 
#    y 0.000000 1.577730 0.000000 
#    z 0.006150 0.000000 1.584070 
# 
# From -- ./inp_files/382063.got.cif
#   From: 2010.05.17/outbox.cif.g08.bks.cpg/sg12_192_cif.got.tgz:382063.got - 2010.06.03 13:09:07.
