data_PCOD9191679
_publ_section_title
;
Structure prediction by ZEFSAII (Michael W. Deem and Ramdas Pophale) SiO2 
 PCOD9191679
Probable space group: C 2/M
;
_chemical_formula_sum "Si O2"
_cell_formula_units_Z 56
_cell_length_a 16.323596
_cell_length_b 7.395052
_cell_length_c 20.777230
_cell_angle_alpha 90.000000
_cell_angle_beta 124.398880
_cell_angle_gamma 90.000000
_cell_volume 2069.494240
_symmetry_space_group_name_H-M "C 2/M"
_symmetry_group_IT_number 12
_symmetry_cell_setting 'monoclinic'
loop_
_space_group_symop_operation_xyz
x,y,z
-x,y,-z
-x,-y,-z
x,-y,z
1/2+x,1/2+y,z
1/2-x,1/2+y,-z
1/2-x,1/2-y,-z
1/2+x,1/2-y,z
loop_
_atom_site_type_symbol
_atom_site_label
_atom_site_fract_x
_atom_site_fract_y
_atom_site_fract_z
Si Si1 0.190687 0.218393 0.886002
Si Si2 0.510044 0.788960 0.261231
Si Si3 0.414061 0.787302 0.839789
Si Si4 0.992781 0.721777 0.600790
Si Si5 0.898770 0.708861 0.012068
Si Si6 0.279882 0.782661 0.306305
Si Si7 0.200913 0.715352 0.546926
O O1 0.109744 0.276030 0.797887
O O2 0.144954 0.285516 0.933910
O O3 0.192432 0.000000 0.888916
O O4 0.304220 0.286515 0.931545
O O5 0.552268 0.706621 0.214312
O O6 0.542753 0.715654 0.344309
O O7 0.535514 0.000000 0.272213
O O8 0.489384 0.715840 0.927847
O O9 0.295899 0.777193 0.782506
O O10 0.438059 0.000000 0.850235
O O11 0.993499 0.500000 0.600044
O O12 0.106475 0.778072 0.646819
O O13 0.912763 0.779460 0.512734
O O14 0.905113 0.500000 0.993354
O O15 0.249340 0.718439 0.365042
O O16 0.278465 0.000000 0.302523
O O17 0.196544 0.500000 0.552622
O O18 0.250000 0.750000 0.500000
#
# Coordination Sequence:
#
# PCOD9191679 Si02
#       7
#     8   8   8   8   8   8   8
#     4   9  15  24  42  68  95 120 154 202 243 274
#     4   9  17  30  48  68  93 127 162 193 233 288
#     4   9  17  30  48  70  97 127 157 191 238 290
#     4   9  18  34  53  70  94 130 163 190 230 284
#     4   8  15  27  42  63  93 128 160 190 234 290
#     4  10  20  33  51  74  96 122 161 201 232 271
#     4  10  20  35  55  76  98 124 156 195 236 279
#
# _framework density 27.059753000000001
#
# number of rings (size 3 to 8) (size 9 to 14) (size 15 to 20)
#    0.000    2.857    0.000    2.571    0.000    6.286 
#    0.000    2.143    0.000    2.571    0.000    6.000 
#    0.000    0.000    0.000    0.000    0.000    0.000 
#
# Total GULP energy -156483.648858 kJ/mol
# GULP energy per Si atom -5588.701745 kJ/mol
# Density = 2.699816 g / cm^3
# Si number density = 27.059753 Si / 1000 Ang^3
#
#
#
# Elastic Constant Matrix: (Units=GPa)
#
#
# Indices 1 2 3 4 5 6 
#
# 1 94.1796 -3.0007 41.0560 0.0000 21.3209 0.0000
# 2 -3.0007 110.9041 -3.7534 0.0000 0.1254 0.0000
# 3 41.0560 -3.7534 207.3418 0.0000 17.0257 0.0000
# 4 0.0000 0.0000 0.0000 15.2226 0.0000 9.8888
# 5 21.3209 0.1254 17.0257 0.0000 57.6237 0.0000
# 6 0.0000 0.0000 0.0000 9.8888 0.0000 9.8488
#
#
#
# Elastic Compliance Matrix: (Units=1/GPa)
#
#
# Indices 1 2 3 4 5 6 
#
# 1 0.012458 0.000269 -0.002135 0.000000 -0.003979 0.000000
# 2 0.000269 0.009028 0.000123 0.000000 -0.000156 0.000000
# 3 -0.002135 0.000123 0.005312 0.000000 -0.000780 0.000000
# 4 0.000000 0.000000 0.000000 0.188910 0.000000 -0.189678
# 5 -0.003979 -0.000156 -0.000780 0.000000 0.019057 0.000000
# 6 0.000000 0.000000 0.000000 -0.189678 0.000000 0.291985
#
#
# Mechanical properties :
#
#
# Convention : Reuss Voigt Hill
#
# Bulk Modulus (GPa) = 42.89524 53.44770 48.17147
# Shear Modulus (GPa) = 9.29355 41.74725 25.52040
#
# Velocity S-wave (km/s) = 1.85524 3.93209 3.07435
# Velocity P-wave (km/s) = 4.52501 6.35686 5.51749
#
# Compressibility (1/GPa) = 0.02331261
#
# Stress axis : x y z
#
# Youngs Moduli (GPa) = 80.26800 110.76133 188.25277
#
# Poissons Ratio (x) = -0.02983 0.40197
# Poissons Ratio (y) = -0.02162 -0.02313
# Poissons Ratio (z) = 0.17139 -0.01361
#
# Static dielectric constant tensor:
#      x y z
#    x 2.237180 0.000000 0.004290 
#    y 0.000000 0.968290 0.000000 
#    z 0.004290 0.000000 2.156320 
# 
# From -- ./inp_files/342569.got.cif
#   From: 2010.05.17/outbox.cif.g08.bks.cpg/sg12_172_cif.got.tgz:342569.got - 2010.06.03 13:09:07.
