data_PCOD9191069
_publ_section_title
;
Structure prediction by ZEFSAII (Michael W. Deem and Ramdas Pophale) SiO2 
 PCOD9191069
Probable space group: C 2/M
;
_chemical_formula_sum "Si O2"
_cell_formula_units_Z 28
_cell_length_a 26.753274
_cell_length_b 7.366061
_cell_length_c 12.521863
_cell_angle_alpha 90.000000
_cell_angle_beta 136.798857
_cell_angle_gamma 90.000000
_cell_volume 1689.249352
_symmetry_space_group_name_H-M "C 2/M"
_symmetry_group_IT_number 12
_symmetry_cell_setting 'monoclinic'
loop_
_space_group_symop_operation_xyz
x,y,z
-x,y,-z
-x,-y,-z
x,-y,z
1/2+x,1/2+y,z
1/2-x,1/2+y,-z
1/2-x,1/2-y,-z
1/2+x,1/2-y,z
loop_
_atom_site_type_symbol
_atom_site_label
_atom_site_fract_x
_atom_site_fract_y
_atom_site_fract_z
Si Si1 0.164277 0.710005 0.859997
Si Si2 0.425253 0.784025 0.063126
Si Si3 0.911321 0.000000 0.868489
Si Si4 0.415695 0.500000 0.405911
Si Si5 0.946702 0.000000 0.698618
O O1 0.153199 0.500000 0.818169
O O2 0.127187 0.745756 0.917166
O O3 0.124766 0.829850 0.709997
O O4 0.250000 0.750000 0.000000
O O5 0.500269 0.676672 0.207449
O O6 0.435069 0.000000 0.061608
O O7 0.393457 0.678022 0.910399
O O8 0.891432 0.000000 0.713084
O O9 0.000000 0.000000 0.000000
O O10 0.500000 0.500000 0.500000
O O11 0.412715 0.500000 0.528804
#
# Coordination Sequence:
#
# PCOD9191069 Si02
#       5
#     8   8   4   4   4
#     4  11  22  35  57  85 109 148 188 220 279 338
#     4   9  17  31  52  80 108 140 183 226 264 326
#     4   8  17  30  49  78 108 146 176 221 274 320
#     4  12  21  38  57  80 123 142 174 243 280 315
#     4  10  20  32  52  80 112 144 175 224 283 318
#
# _framework density 16.575410000000002
#
# number of rings (size 3 to 8) (size 9 to 14) (size 15 to 20)
#    0.000    2.286    4.286    0.857    0.000    6.857 
#    0.000    0.000    0.000    1.714    0.000    0.000 
#    0.000    0.000    0.000    0.000    0.000    0.000 
#
# Total GULP energy -77999.304971 kJ/mol
# GULP energy per Si atom -5571.378926 kJ/mol
# Density = 1.653768 g / cm^3
# Si number density = 16.575410 Si / 1000 Ang^3
#
#
#
# Elastic Constant Matrix: (Units=GPa)
#
#
# Indices 1 2 3 4 5 6 
#
# 1 91.2787 73.1168 69.6157 0.0000 -36.5861 0.0000
# 2 73.1168 138.2304 59.6549 0.0000 -26.5320 0.0000
# 3 69.6157 59.6549 110.8740 0.0000 -27.1941 0.0000
# 4 0.0000 0.0000 0.0000 19.7194 0.0000 -2.1576
# 5 -36.5861 -26.5320 -27.1941 0.0000 35.5227 0.0000
# 6 0.0000 0.0000 0.0000 -2.1576 0.0000 26.5356
#
#
#
# Elastic Compliance Matrix: (Units=1/GPa)
#
#
# Indices 1 2 3 4 5 6 
#
# 1 0.037256 -0.010163 -0.012773 0.000000 0.021002 0.000000
# 2 -0.010163 0.012651 -0.000832 0.000000 -0.001655 0.000000
# 3 -0.012773 -0.000832 0.017369 0.000000 -0.000480 0.000000
# 4 0.000000 0.000000 0.000000 0.051167 0.000000 0.004160
# 5 0.021002 -0.001655 -0.000480 0.000000 0.048179 0.000000
# 6 0.000000 0.000000 0.000000 0.004160 0.000000 0.038023
#
#
# Mechanical properties :
#
#
# Convention : Reuss Voigt Hill
#
# Bulk Modulus (GPa) = 50.65596 82.79534 66.72565
# Shear Modulus (GPa) = 19.32288 25.55526 22.43907
#
# Velocity S-wave (km/s) = 3.41802 3.93078 3.68333
# Velocity P-wave (km/s) = 6.79738 8.40598 7.64411
#
# Compressibility (1/GPa) = 0.01974101
#
# Stress axis : x y z
#
# Youngs Moduli (GPa) = 26.84133 79.04314 57.57415
#
# Poissons Ratio (x) = 0.80332 0.73539
# Poissons Ratio (y) = 0.27279 0.04788
# Poissons Ratio (z) = 0.34284 0.06573
#
# Static dielectric constant tensor:
#      x y z
#    x 1.586220 0.000000 -0.034150 
#    y 0.000000 1.554970 0.000000 
#    z -0.034150 0.000000 1.548670 
# 
# From -- ./inp_files/178976.got.cif
#   From: 2010.05.17/outbox.cif.g08.bks.cpg/sg12_90_cif.got.tgz:178976.got - 2010.06.03 13:09:07.
