data_PCOD9191015
_publ_section_title
;
Structure prediction by ZEFSAII (Michael W. Deem and Ramdas Pophale) SiO2 
 PCOD9191015
Probable space group: C 2/M
;
_chemical_formula_sum "Si O2"
_cell_formula_units_Z 52
_cell_length_a 23.021555
_cell_length_b 13.770876
_cell_length_c 12.129543
_cell_angle_alpha 90.000000
_cell_angle_beta 46.790367
_cell_angle_gamma 90.000000
_cell_volume 2802.727792
_symmetry_space_group_name_H-M "C 2/M"
_symmetry_group_IT_number 12
_symmetry_cell_setting 'monoclinic'
loop_
_space_group_symop_operation_xyz
x,y,z
-x,y,-z
-x,-y,-z
x,-y,z
1/2+x,1/2+y,z
1/2-x,1/2+y,-z
1/2-x,1/2-y,-z
1/2+x,1/2-y,z
loop_
_atom_site_type_symbol
_atom_site_label
_atom_site_fract_x
_atom_site_fract_y
_atom_site_fract_z
Si Si1 0.452626 0.387191 0.869166
Si Si2 0.295285 0.303991 0.778340
Si Si3 0.500000 0.241203 0.000000
Si Si4 0.295615 0.609219 0.418642
Si Si5 0.919238 0.888468 0.462915
Si Si6 0.269466 0.390534 0.049193
Si Si7 0.326018 0.806967 0.260444
O O1 0.473834 0.500000 0.867487
O O2 0.485187 0.312390 0.915936
O O3 0.494066 0.364786 0.697726
O O4 0.357874 0.380167 0.985125
O O5 0.378209 0.324440 0.609165
O O6 0.281543 0.368638 0.904068
O O7 0.225958 0.328033 0.780042
O O8 0.285372 0.192855 0.828723
O O9 0.580319 0.180344 0.877589
O O10 0.297234 0.500000 0.371718
O O11 0.362124 0.616721 0.428706
O O12 0.312256 0.693459 0.309802
O O13 0.212799 0.633232 0.588424
O O14 0.918798 0.000000 0.502322
O O15 0.241179 0.500000 0.103801
#
# Coordination Sequence:
#
# PCOD9191015 Si02
#       7
#     8   8   4   8   8   8   8
#     4  10  20  32  51  81 112 138 165 208 271 324
#     4  10  20  35  52  76 107 139 177 217 255 306
#     4  12  19  32  51  80 114 136 164 220 262 320
#     4   9  18  33  51  76 108 138 173 214 255 315
#     4   9  17  31  53  80 108 139 170 206 261 319
#     4  10  21  36  54  79 106 137 177 216 262 314
#     4  10  20  32  53  80 104 140 177 208 268 312
#
# _framework density 18.553353999999999
#
# number of rings (size 3 to 8) (size 9 to 14) (size 15 to 20)
#    0.000    2.154    3.077    0.692    0.000    2.462 
#    0.000    2.692    0.000    0.000    0.000    9.692 
#    0.000    0.000    0.000    0.000    0.000    0.000 
#
# Total GULP energy -145149.388151 kJ/mol
# GULP energy per Si atom -5582.668775 kJ/mol
# Density = 1.851113 g / cm^3
# Si number density = 18.553354 Si / 1000 Ang^3
#
#
#
# Elastic Constant Matrix: (Units=GPa)
#
#
# Indices 1 2 3 4 5 6 
#
# 1 32.3231 -1.5383 -1.9901 0.0000 9.7264 0.0000
# 2 -1.5383 47.6325 15.2595 0.0000 -4.8652 0.0000
# 3 -1.9901 15.2595 76.7104 0.0000 -7.4846 0.0000
# 4 0.0000 0.0000 0.0000 16.7244 0.0000 -4.6164
# 5 9.7264 -4.8652 -7.4846 0.0000 19.3496 0.0000
# 6 0.0000 0.0000 0.0000 -4.6164 0.0000 13.1853
#
#
#
# Elastic Compliance Matrix: (Units=1/GPa)
#
#
# Indices 1 2 3 4 5 6 
#
# 1 0.036518 -0.000487 -0.000789 0.000000 -0.018784 0.000000
# 2 -0.000487 0.022742 -0.004110 0.000000 0.004373 0.000000
# 3 -0.000789 -0.004110 0.014311 0.000000 0.004899 0.000000
# 4 0.000000 0.000000 0.000000 0.066190 0.000000 0.023174
# 5 -0.018784 0.004373 0.004899 0.000000 0.064117 0.000000
# 6 0.000000 0.000000 0.000000 0.023174 0.000000 0.083956
#
#
# Mechanical properties :
#
#
# Convention : Reuss Voigt Hill
#
# Bulk Modulus (GPa) = 15.92332 20.01425 17.96878
# Shear Modulus (GPa) = 15.64765 19.51418 17.58091
#
# Velocity S-wave (km/s) = 2.90726 3.24664 3.08163
# Velocity P-wave (km/s) = 4.45765 4.98649 4.72947
#
# Compressibility (1/GPa) = 0.06280099
#
# Stress axis : x y z
#
# Youngs Moduli (GPa) = 27.38360 43.97229 69.87589
#
# Poissons Ratio (x) = 0.02140 0.05510
# Poissons Ratio (y) = 0.01332 0.28718
# Poissons Ratio (z) = 0.02159 0.18072
#
# Static dielectric constant tensor:
#      x y z
#    x 1.652630 0.000000 -0.001240 
#    y 0.000000 1.625810 0.000000 
#    z -0.001240 0.000000 1.662810 
# 
# From -- ./inp_files/176025.got.cif
#   From: 2010.05.17/outbox.cif.g08.bks.cpg/sg12_89_cif.got.tgz:176025.got - 2010.06.03 13:09:07.
