data_PCOD9191598
_publ_section_title
;
Structure prediction by ZEFSAII (Michael W. Deem and Ramdas Pophale) SiO2 
 PCOD9191598
Probable space group: C 2/M
;
_chemical_formula_sum "Si O2"
_cell_formula_units_Z 56
_cell_length_a 18.741068
_cell_length_b 8.973753
_cell_length_c 29.882800
_cell_angle_alpha 90.000000
_cell_angle_beta 38.746375
_cell_angle_gamma 90.000000
_cell_volume 3145.406184
_symmetry_space_group_name_H-M "C 2/M"
_symmetry_group_IT_number 12
_symmetry_cell_setting 'monoclinic'
loop_
_space_group_symop_operation_xyz
x,y,z
-x,y,-z
-x,-y,-z
x,-y,z
1/2+x,1/2+y,z
1/2-x,1/2+y,-z
1/2-x,1/2-y,-z
1/2+x,1/2-y,z
loop_
_atom_site_type_symbol
_atom_site_label
_atom_site_fract_x
_atom_site_fract_y
_atom_site_fract_z
Si Si1 0.433212 0.328141 0.221681
Si Si2 0.534811 0.823479 0.932100
Si Si3 0.411069 0.179175 0.632097
Si Si4 0.273031 0.671281 0.211099
Si Si5 0.873841 0.820932 0.936638
Si Si6 0.820604 0.321617 0.505697
Si Si7 0.755122 0.822726 0.631873
O O1 0.437431 0.500000 0.235072
O O2 0.353686 0.326318 0.215973
O O3 0.556402 0.280765 0.142817
O O4 0.368434 0.227284 0.288983
O O5 0.661835 0.769204 0.857138
O O6 0.448821 0.738624 0.941185
O O7 0.526052 0.000000 0.928402
O O8 0.500000 0.792630 0.000000
O O9 0.348262 0.220390 0.709401
O O10 0.544743 0.209662 0.566321
O O11 0.346967 0.261177 0.622936
O O12 0.393824 0.000000 0.634912
O O13 0.266135 0.500000 0.199121
O O14 0.868721 0.000000 0.940652
O O15 0.750000 0.750000 0.000000
O O16 0.806006 0.500000 0.513449
O O17 0.750000 0.250000 0.500000
O O18 0.780436 0.252507 0.572153
O O19 0.762500 0.000000 0.625282
#
# Coordination Sequence:
#
# PCOD9191598 Si02
#       7
#     8   8   8   8   8   8   8
#     4   8  16  32  52  75 103 135 171 213 261 306
#     4  10  20  33  50  75 107 140 174 213 257 307
#     4   9  19  36  57  79 103 134 171 213 261 309
#     4   8  15  30  52  76 100 129 170 216 259 304
#     4  10  20  34  54  78 105 138 175 216 261 310
#     4  11  23  39  56  75 106 143 174 210 261 315
#     4  11  21  33  55  84 107 132 173 218 256 303
#
# _framework density 17.803742
#
# number of rings (size 3 to 8) (size 9 to 14) (size 15 to 20)
#    0.000    2.429    0.000    4.714    0.000    9.714 
#    0.000    1.429    0.000    3.429    0.000    0.000 
#    0.000    0.000    0.000    0.000    0.000    0.000 
#
# Total GULP energy -156169.352077 kJ/mol
# GULP energy per Si atom -5577.476860 kJ/mol
# Density = 1.776322 g / cm^3
# Si number density = 17.803742 Si / 1000 Ang^3
#
#
#
# Elastic Constant Matrix: (Units=GPa)
#
#
# Indices 1 2 3 4 5 6 
#
# 1 59.1654 49.9875 71.2190 0.0000 -4.0448 0.0002
# 2 49.9875 88.3030 92.3317 0.0001 0.3994 0.0002
# 3 71.2190 92.3317 197.2961 0.0000 -7.2013 0.0000
# 4 0.0000 0.0001 0.0000 28.1939 0.0000 4.9028
# 5 -4.0448 0.3994 -7.2013 0.0000 22.0421 0.0000
# 6 0.0002 0.0002 0.0000 4.9028 0.0000 22.1674
#
#
#
# Elastic Compliance Matrix: (Units=1/GPa)
#
#
# Indices 1 2 3 4 5 6 
#
# 1 0.037136 -0.014129 -0.006614 0.000000 0.004910 0.000000
# 2 -0.014129 0.027877 -0.008156 0.000000 -0.005763 0.000000
# 3 -0.006614 -0.008156 0.011370 0.000000 0.002649 0.000000
# 4 0.000000 0.000000 0.000000 0.036887 0.000000 -0.008158
# 5 0.004910 -0.005763 0.002649 0.000000 0.047238 0.000000
# 6 0.000000 0.000000 0.000000 -0.008158 0.000000 0.046916
#
#
# Mechanical properties :
#
#
# Convention : Reuss Voigt Hill
#
# Bulk Modulus (GPa) = 53.80743 85.76009 69.78376
# Shear Modulus (GPa) = 18.42179 23.22910 20.82545
#
# Velocity S-wave (km/s) = 3.22019 3.61602 3.42383
# Velocity P-wave (km/s) = 6.64186 8.10608 7.41022
#
# Compressibility (1/GPa) = 0.01858479
#
# Stress axis : x y z
#
# Youngs Moduli (GPa) = 26.92817 35.87124 87.95323
#
# Poissons Ratio (x) = 0.50682 0.58170
# Poissons Ratio (y) = 0.38047 0.71738
# Poissons Ratio (z) = 0.17810 0.29258
#
# Static dielectric constant tensor:
#      x y z
#    x 1.583610 0.000000 -0.019680 
#    y 0.000000 1.590850 0.000000 
#    z -0.019680 0.000000 1.641030 
# 
# From -- ./inp_files/362928.got.cif
#   From: 2010.05.17/outbox.cif.g08.bks.cpg/sg12_182_cif.got.tgz:362928.got - 2010.06.03 13:09:07.
