data_PCOD9191302
_publ_section_title
;
Structure prediction by ZEFSAII (Michael W. Deem and Ramdas Pophale) SiO2 
 PCOD9191302
Probable space group: C 2/M
;
_chemical_formula_sum "Si O2"
_cell_formula_units_Z 64
_cell_length_a 12.620907
_cell_length_b 13.956662
_cell_length_c 23.424749
_cell_angle_alpha 90.000000
_cell_angle_beta 68.410425
_cell_angle_gamma 90.000000
_cell_volume 3836.691767
_symmetry_space_group_name_H-M "C 2/M"
_symmetry_group_IT_number 12
_symmetry_cell_setting 'monoclinic'
loop_
_space_group_symop_operation_xyz
x,y,z
-x,y,-z
-x,-y,-z
x,-y,z
1/2+x,1/2+y,z
1/2-x,1/2+y,-z
1/2-x,1/2-y,-z
1/2+x,1/2-y,z
loop_
_atom_site_type_symbol
_atom_site_label
_atom_site_fract_x
_atom_site_fract_y
_atom_site_fract_z
Si Si1 0.015513 0.610130 0.429870
Si Si2 0.795027 0.760045 0.747402
Si Si3 0.972042 0.888614 0.910717
Si Si4 0.187407 0.111839 0.947908
Si Si5 0.772852 0.888588 0.331965
Si Si6 0.386993 0.780858 0.853887
Si Si7 0.087993 0.387365 0.757412
Si Si8 0.544130 0.245314 0.656769
O O1 0.978253 0.500000 0.424920
O O2 0.149070 0.615198 0.386547
O O3 0.000000 0.627300 0.500000
O O4 0.952290 0.688558 0.403518
O O5 0.743108 0.667389 0.724918
O O6 0.822017 0.739148 0.807602
O O7 0.705546 0.844884 0.757746
O O8 0.915524 0.782039 0.692927
O O9 0.945182 0.815001 0.866148
O O10 0.092159 0.868966 0.918160
O O11 0.971243 0.000000 0.892946
O O12 0.876609 0.876661 0.979137
O O13 0.296335 0.177234 0.916332
O O14 0.219627 0.000000 0.936288
O O15 0.864905 0.828938 0.350204
O O16 0.803900 0.000000 0.318239
O O17 0.485978 0.856134 0.819481
O O18 0.090934 0.500000 0.749067
O O19 0.064430 0.333582 0.702312
#
# Coordination Sequence:
#
# PCOD9191302 Si02
#       8
#     8   8   8   8   8   8   8   8
#     4   9  17  30  50  75 101 130 164 202 241 279
#     4   9  20  33  46  69  97 124 155 193 239 283
#     4   9  19  34  50  69  95 124 155 192 236 284
#     4   9  18  33  51  70  92 122 158 195 234 281
#     4   9  18  33  51  71  97 128 163 198 234 281
#     4  11  19  31  50  73  94 121 157 196 238 284
#     4  10  20  33  48  69  96 124 155 194 238 285
#     4   9  18  33  51  71  96 129 164 197 236 280
#
# _framework density 16.681037
#
# number of rings (size 3 to 8) (size 9 to 14) (size 15 to 20)
#    0.000    2.625    0.000    2.625    0.000    5.000 
#    0.000    7.500    0.000    0.375    0.000    7.875 
#    0.000    0.000    0.000    0.000    0.000    0.000 
#
# Total GULP energy -178432.637648 kJ/mol
# GULP energy per Si atom -5576.019927 kJ/mol
# Density = 1.664307 g / cm^3
# Si number density = 16.681037 Si / 1000 Ang^3
#
#
#
# Elastic Constant Matrix: (Units=GPa)
#
#
# Indices 1 2 3 4 5 6 
#
# 1 66.2552 45.1910 7.4363 0.0000 9.2245 0.0000
# 2 45.1910 106.7655 24.7761 0.0000 3.9054 0.0000
# 3 7.4363 24.7761 25.1441 0.0000 4.0942 0.0000
# 4 0.0000 0.0000 0.0000 21.3096 0.0000 -2.4997
# 5 9.2245 3.9054 4.0942 0.0000 13.8321 0.0000
# 6 0.0000 0.0000 0.0000 -2.4997 0.0000 20.5846
#
#
#
# Elastic Compliance Matrix: (Units=1/GPa)
#
#
# Indices 1 2 3 4 5 6 
#
# 1 0.023983 -0.011050 0.006190 0.000000 -0.014706 0.000000
# 2 -0.011050 0.017234 -0.014837 0.000000 0.006895 0.000000
# 3 0.006190 -0.014837 0.055211 0.000000 -0.016281 0.000000
# 4 0.000000 0.000000 0.000000 0.047605 0.000000 0.005781
# 5 -0.014706 0.006895 -0.016281 0.000000 0.084976 0.000000
# 6 0.000000 0.000000 0.000000 0.005781 0.000000 0.049282
#
#
# Mechanical properties :
#
#
# Convention : Reuss Voigt Hill
#
# Bulk Modulus (GPa) = 17.53328 39.21906 28.37617
# Shear Modulus (GPa) = 14.85022 19.19599 17.02311
#
# Velocity S-wave (km/s) = 2.98694 3.39598 3.19800
# Velocity P-wave (km/s) = 4.73597 6.24012 5.53934
#
# Compressibility (1/GPa) = 0.05703440
#
# Stress axis : x y z
#
# Youngs Moduli (GPa) = 41.69690 58.02428 18.11239
#
# Poissons Ratio (x) = 0.64115 -0.11211
# Poissons Ratio (y) = 0.46074 0.26873
# Poissons Ratio (z) = -0.25809 0.86089
#
# Static dielectric constant tensor:
#      x y z
#    x 1.556260 0.000000 -0.006240 
#    y 0.000000 1.541170 0.000000 
#    z -0.006240 0.000000 1.559330 
# 
# From -- ./inp_files/305409.got.cif
#   From: 2010.05.17/outbox.cif.g08.bks.cpg/sg12_153_cif.got.tgz:305409.got - 2010.06.03 13:09:07.
