data_PCOD9191155
_publ_section_title
;
Structure prediction by ZEFSAII (Michael W. Deem and Ramdas Pophale) SiO2 
 PCOD9191155
Probable space group: C 2/M
;
_chemical_formula_sum "Si O2"
_cell_formula_units_Z 58
_cell_length_a 16.379551
_cell_length_b 21.436209
_cell_length_c 19.664729
_cell_angle_alpha 90.000000
_cell_angle_beta 27.474190
_cell_angle_gamma 90.000000
_cell_volume 3185.425996
_symmetry_space_group_name_H-M "C 2/M"
_symmetry_group_IT_number 12
_symmetry_cell_setting 'monoclinic'
loop_
_space_group_symop_operation_xyz
x,y,z
-x,y,-z
-x,-y,-z
x,-y,z
1/2+x,1/2+y,z
1/2-x,1/2+y,-z
1/2-x,1/2-y,-z
1/2+x,1/2-y,z
loop_
_atom_site_type_symbol
_atom_site_label
_atom_site_fract_x
_atom_site_fract_y
_atom_site_fract_z
Si Si1 0.478799 0.073530 0.297271
Si Si2 0.952393 0.273922 0.608660
Si Si3 0.670794 0.842547 0.069029
Si Si4 0.719695 0.358589 0.586556
Si Si5 0.868140 0.781717 0.810971
Si Si6 0.500000 0.000000 0.500000
Si Si7 0.286829 0.902430 0.748710
Si Si8 0.505391 0.572192 0.856193
O O1 0.517199 0.108435 0.198444
O O2 0.309499 0.102692 0.459613
O O3 0.646755 0.089207 0.223177
O O4 0.465672 0.000000 0.300212
O O5 0.131494 0.308848 0.501065
O O6 0.000000 0.245986 0.500000
O O7 0.874924 0.231287 0.725763
O O8 0.815436 0.331329 0.704212
O O9 0.633824 0.783788 0.146047
O O10 0.706159 0.818443 0.966540
O O11 0.850466 0.878933 0.956859
O O12 0.546768 0.319850 0.694253
O O13 0.660442 0.407458 0.688688
O O14 0.422021 0.946304 0.608600
O O15 0.095043 0.922013 0.863675
O O16 0.453828 0.500000 0.882932
#
# Coordination Sequence:
#
# PCOD9191155 Si02
#       8
#     8   8   8   8   8   2   8   8
#     4  11  20  32  50  79 109 139 182 225 260 321
#     4  11  19  32  53  80 101 131 190 232 262 307
#     4  10  22  35  51  67 104 151 190 216 265 311
#     4  10  20  32  55  77 101 144 187 226 272 306
#     4  10  21  39  52  70 102 150 186 231 268 310
#     4  12  16  28  44  66 112 152 176 214 256 286
#     4  11  19  27  45  74 111 149 176 212 257 296
#     4  11  20  32  48  76 112 152 185 214 257 317
#
# _framework density 18.207924999999999
#
# number of rings (size 3 to 8) (size 9 to 14) (size 15 to 20)
#    0.000    1.379    6.207    2.069    0.000    0.552 
#    0.000    1.379    0.000    0.000    0.000    0.000 
#    0.000   20.966    0.000    0.000    0.000    0.000 
#
# Total GULP energy -161462.542283 kJ/mol
# GULP energy per Si atom -5567.673872 kJ/mol
# Density = 1.816648 g / cm^3
# Si number density = 18.207925 Si / 1000 Ang^3
#
#
#
# Elastic Constant Matrix: (Units=GPa)
#
#
# Indices 1 2 3 4 5 6 
#
# 1 38.2481 35.2471 30.5251 -0.0050 29.1902 0.0004
# 2 35.2471 94.5987 50.6020 -0.0084 16.1798 -0.0013
# 3 30.5251 50.6020 107.9131 -0.0369 41.3319 -0.0025
# 4 -0.0050 -0.0084 -0.0369 40.1397 0.0030 13.1149
# 5 29.1902 16.1798 41.3319 0.0030 36.9631 0.0047
# 6 0.0004 -0.0013 -0.0025 13.1149 0.0047 18.9293
#
#
#
# Elastic Compliance Matrix: (Units=1/GPa)
#
#
# Indices 1 2 3 4 5 6 
#
# 1 0.138480 -0.046401 0.029198 0.000044 -0.121698 -0.000003
# 2 -0.046401 0.029755 -0.017270 -0.000020 0.042930 0.000004
# 3 0.029198 -0.017270 0.026310 0.000030 -0.044918 -0.000008
# 4 0.000044 -0.000020 0.000030 0.032203 -0.000060 -0.022311
# 5 -0.121698 0.042930 -0.044918 -0.000060 0.154595 0.000003
# 6 -0.000003 0.000004 -0.000008 -0.022311 0.000003 0.068286
#
#
# Mechanical properties :
#
#
# Convention : Reuss Voigt Hill
#
# Bulk Modulus (GPa) = 7.96180 52.61201 30.28691
# Shear Modulus (GPa) = 8.92153 27.49880 18.21017
#
# Velocity S-wave (km/s) = 2.21595 3.89043 3.16590
# Velocity P-wave (km/s) = 3.30597 7.00988 5.48032
#
# Compressibility (1/GPa) = 0.12559971
#
# Stress axis : x y z
#
# Youngs Moduli (GPa) = 7.22124 33.60765 38.00875
#
# Poissons Ratio (x) = 1.55943 -1.10979
# Poissons Ratio (y) = 0.33507 0.65641
# Poissons Ratio (z) = -0.21085 0.58040
#
# Static dielectric constant tensor:
#      x y z
#    x 1.657350 0.000000 0.029550 
#    y 0.000000 1.630400 0.000020 
#    z 0.029550 0.000020 1.700660 
# 
# From -- ./inp_files/272701.got.cif
#   From: 2010.05.17/outbox.cif.g08.bks.cpg/sg12_137_cif.got.tgz:272701.got - 2010.06.03 13:09:07.
