data_PCOD9191816
_publ_section_title
;
Structure prediction by ZEFSAII (Michael W. Deem and Ramdas Pophale) SiO2 
 PCOD9191816
Probable space group: C 2/M
;
_chemical_formula_sum "Si O2"
_cell_formula_units_Z 64
_cell_length_a 16.062857
_cell_length_b 7.676068
_cell_length_c 34.040478
_cell_angle_alpha 90.000000
_cell_angle_beta 46.080604
_cell_angle_gamma 90.000000
_cell_volume 3023.294968
_symmetry_space_group_name_H-M "C 2/M"
_symmetry_group_IT_number 12
_symmetry_cell_setting 'monoclinic'
loop_
_space_group_symop_operation_xyz
x,y,z
-x,y,-z
-x,-y,-z
x,-y,z
1/2+x,1/2+y,z
1/2-x,1/2+y,-z
1/2-x,1/2-y,-z
1/2+x,1/2-y,z
loop_
_atom_site_type_symbol
_atom_site_label
_atom_site_fract_x
_atom_site_fract_y
_atom_site_fract_z
Si Si1 0.807987 0.291117 0.939688
Si Si2 0.617976 0.710978 0.940549
Si Si3 0.545008 0.789898 0.828229
Si Si4 0.014377 0.790303 0.241699
Si Si5 0.558455 0.213225 0.439457
Si Si6 0.820525 0.206948 0.364529
Si Si7 0.369316 0.207327 0.438649
Si Si8 0.769147 0.705914 0.176814
O O1 0.812160 0.500000 0.935374
O O2 0.724261 0.227928 0.932570
O O3 0.936681 0.224632 0.889669
O O4 0.750000 0.250000 0.000000
O O5 0.616116 0.500000 0.940596
O O6 0.644032 0.771736 0.888235
O O7 0.500000 0.769517 0.000000
O O8 0.522051 0.747596 0.790770
O O9 0.664666 0.722239 0.806943
O O10 0.546890 0.000000 0.830958
O O11 0.143347 0.720229 0.207879
O O12 0.919417 0.722275 0.303396
O O13 0.018412 0.000000 0.244279
O O14 0.500000 0.263402 0.500000
O O15 0.691482 0.274297 0.397206
O O16 0.477783 0.272236 0.429479
O O17 0.558873 0.000000 0.438481
O O18 0.856428 0.230227 0.398158
O O19 0.813831 0.000000 0.359849
O O20 0.250000 0.250000 0.500000
O O21 0.380356 0.000000 0.433404
O O22 0.752466 0.500000 0.188199
#
# Coordination Sequence:
#
# PCOD9191816 Si02
#       8
#     8   8   8   8   8   8   8   8
#     4  10  20  33  51  78 108 141 178 224 278 331
#     4  10  20  34  53  80 111 142 183 233 280 331
#     4  10  21  38  58  79 110 148 185 228 280 335
#     4  10  22  39  59  83 112 149 191 233 277 329
#     4   9  17  33  57  81 111 153 187 220 276 336
#     4  10  21  39  59  82 115 151 190 234 276 327
#     4  11  21  35  58  87 116 150 190 230 280 334
#     4  10  21  37  57  82 111 146 185 228 285 339
#
# _framework density 21.168956999999999
#
# number of rings (size 3 to 8) (size 9 to 14) (size 15 to 20)
#    0.000    2.000    2.500    1.125    0.000    3.250 
#    0.000    1.875    0.000    0.000    0.000    0.000 
#    0.000    0.000    0.000    0.000    0.000    0.000 
#
# Total GULP energy -178709.267097 kJ/mol
# GULP energy per Si atom -5584.664597 kJ/mol
# Density = 2.112078 g / cm^3
# Si number density = 21.168957 Si / 1000 Ang^3
#
#
#
# Elastic Constant Matrix: (Units=GPa)
#
#
# Indices 1 2 3 4 5 6 
#
# 1 218.1613 3.4314 99.0926 -0.0001 -10.1252 0.0020
# 2 3.4314 34.1432 -6.7077 0.0035 -8.4753 0.0175
# 3 99.0926 -6.7077 154.2603 -0.0025 -5.6067 0.0010
# 4 -0.0001 0.0035 -0.0025 4.8216 -0.0056 15.4873
# 5 -10.1252 -8.4753 -5.6067 -0.0056 25.5442 -0.0003
# 6 0.0020 0.0175 0.0010 15.4873 -0.0003 14.4496
#
#
#
# Elastic Compliance Matrix: (Units=1/GPa)
#
#
# Indices 1 2 3 4 5 6 
#
# 1 0.006586 -0.001173 -0.004234 0.000001 0.001292 0.000000
# 2 -0.001173 0.032622 0.002569 -0.000048 0.010923 0.000012
# 3 -0.004234 0.002569 0.009359 -0.000006 0.001228 0.000003
# 4 0.000001 -0.000048 -0.000006 -0.084903 -0.000034 0.091001
# 5 0.001292 0.010923 0.001228 -0.000034 0.043553 0.000024
# 6 0.000000 0.000012 0.000003 0.091001 0.000024 -0.028331
#
#
# Mechanical properties :
#
#
# Convention : Reuss Voigt Hill
#
# Bulk Modulus (GPa) = 23.31544 66.46637 44.89091
# Shear Modulus (GPa) = -4384.62443 29.67964 -2177.47240
#
# Velocity S-wave (km/s) = -45.56038 3.74844 -32.10683
# Velocity P-wave (km/s) = 52.50359 7.08524 36.78604
#
# Compressibility (1/GPa) = 0.04289003
#
# Stress axis : x y z
#
# Youngs Moduli (GPa) = 151.84852 30.65379 106.84936
#
# Poissons Ratio (x) = 0.03596 0.45244
# Poissons Ratio (y) = 0.17813 -0.27451
# Poissons Ratio (z) = 0.64299 -0.07875
#
# Static dielectric constant tensor:
#      x y z
#    x 1.779120 0.000000 -0.027230 
#    y 0.000000 1.773430 0.000000 
#    z -0.027230 0.000000 1.731920 
# 
# From -- ./inp_files/375426.got.cif
#   From: 2010.05.17/outbox.cif.g08.bks.cpg/sg12_188_cif.got.tgz:375426.got - 2010.06.03 13:09:07.
