data_PCOD9191763
_publ_section_title
;
Structure prediction by ZEFSAII (Michael W. Deem and Ramdas Pophale) SiO2 
 PCOD9191763
Probable space group: C 2/M
;
_chemical_formula_sum "Si O2"
_cell_formula_units_Z 64
_cell_length_a 31.437477
_cell_length_b 8.501733
_cell_length_c 16.711092
_cell_angle_alpha 90.000000
_cell_angle_beta 133.721485
_cell_angle_gamma 90.000000
_cell_volume 3227.920677
_symmetry_space_group_name_H-M "C 2/M"
_symmetry_group_IT_number 12
_symmetry_cell_setting 'monoclinic'
loop_
_space_group_symop_operation_xyz
x,y,z
-x,y,-z
-x,-y,-z
x,-y,z
1/2+x,1/2+y,z
1/2-x,1/2+y,-z
1/2-x,1/2-y,-z
1/2+x,1/2-y,z
loop_
_atom_site_type_symbol
_atom_site_label
_atom_site_fract_x
_atom_site_fract_y
_atom_site_fract_z
Si Si1 0.629799 0.189468 0.068466
Si Si2 0.067557 0.813583 0.836710
Si Si3 0.565194 0.178005 0.557762
Si Si4 0.155720 0.676926 0.822546
Si Si5 0.062157 0.189968 0.309860
Si Si6 0.648230 0.680485 0.548592
Si Si7 0.441503 0.188943 0.874228
Si Si8 0.737804 0.310266 0.798677
O O1 0.612595 0.227532 0.137023
O O2 0.695204 0.237934 0.128053
O O3 0.625268 0.000000 0.054099
O O4 0.584000 0.266262 0.948159
O O5 0.120622 0.751517 0.850534
O O6 0.000693 0.753242 0.734880
O O7 0.066175 0.000000 0.825834
O O8 0.500000 0.214437 0.500000
O O9 0.606505 0.174579 0.688944
O O10 0.591571 0.305331 0.532612
O O11 0.566616 0.000000 0.524548
O O12 0.172811 0.500000 0.867244
O O13 0.210332 0.756708 0.847573
O O14 0.120756 0.250504 0.431756
O O15 0.062366 0.233718 0.217170
O O16 0.062807 0.000000 0.318435
O O17 0.665213 0.500000 0.555159
O O18 0.698994 0.750327 0.672083
O O19 0.443756 0.000000 0.866036
O O20 0.500000 0.233764 0.000000
O O21 0.734326 0.500000 0.792790
#
# Coordination Sequence:
#
# PCOD9191763 Si02
#       8
#     8   8   8   8   8   8   8   8
#     4  10  21  38  58  79 103 137 179 222 267 314
#     4  11  22  34  52  80 110 141 178 218 265 317
#     4   9  17  29  46  71 102 137 176 216 260 306
#     4  10  20  33  51  76 108 143 179 220 262 308
#     4  10  21  35  54  82 113 140 171 215 267 320
#     4   9  18  33  52  75 103 138 175 212 256 308
#     4  10  20  36  58  82 107 136 173 217 268 320
#     4   9  19  37  58  76 103 143 183 219 257 307
#
# _framework density 19.827006000000001
#
# number of rings (size 3 to 8) (size 9 to 14) (size 15 to 20)
#    0.000    2.250    1.250    1.500    0.000    3.500 
#    0.000    0.625    0.000    0.000    0.000    0.000 
#    0.000    0.000    0.000    0.000    0.000    0.000 
#
# Total GULP energy -178370.656658 kJ/mol
# GULP energy per Si atom -5574.083021 kJ/mol
# Density = 1.978188 g / cm^3
# Si number density = 19.827006 Si / 1000 Ang^3
#
#
#
# Elastic Constant Matrix: (Units=GPa)
#
#
# Indices 1 2 3 4 5 6 
#
# 1 77.9336 11.7094 1.9877 0.0000 -6.0472 0.0000
# 2 11.7094 11.6875 6.4907 0.0000 -1.2386 0.0000
# 3 1.9877 6.4907 56.0928 0.0000 -12.3346 0.0000
# 4 0.0000 0.0000 0.0000 20.8287 0.0000 -5.0623
# 5 -6.0472 -1.2386 -12.3346 0.0000 28.7252 0.0000
# 6 0.0000 0.0000 0.0000 -5.0623 0.0000 22.6924
#
#
#
# Elastic Compliance Matrix: (Units=1/GPa)
#
#
# Indices 1 2 3 4 5 6 
#
# 1 0.015500 -0.016329 0.002101 0.000000 0.003461 0.000000
# 2 -0.016329 0.108651 -0.012941 0.000000 -0.004310 0.000000
# 3 0.002101 -0.012941 0.021230 0.000000 0.009000 0.000000
# 4 0.000000 0.000000 0.000000 0.050763 0.000000 0.011324
# 5 0.003461 -0.004310 0.009000 0.000000 0.039220 0.000000
# 6 0.000000 0.000000 0.000000 0.011324 0.000000 0.046594
#
#
# Mechanical properties :
#
#
# Convention : Reuss Voigt Hill
#
# Bulk Modulus (GPa) = 10.98387 20.67661 15.83024
# Shear Modulus (GPa) = 13.63721 22.81767 18.22744
#
# Velocity S-wave (km/s) = 2.62546 3.39608 3.03532
# Velocity P-wave (km/s) = 3.83961 5.08222 4.50397
#
# Compressibility (1/GPa) = 0.09104262
#
# Stress axis : x y z
#
# Youngs Moduli (GPa) = 64.51676 9.20375 47.10362
#
# Poissons Ratio (x) = 0.15029 -0.09898
# Poissons Ratio (y) = 1.05350 0.60959
# Poissons Ratio (z) = -0.13557 0.11911
#
# Static dielectric constant tensor:
#      x y z
#    x 1.700220 0.000000 0.018860 
#    y 0.000000 1.716820 0.000000 
#    z 0.018860 0.000000 1.738840 
# 
# From -- ./inp_files/249157.got.cif
#   From: 2010.05.17/outbox.cif.g08.bks.cpg/sg12_125_cif.got.tgz:249157.got - 2010.06.03 13:09:07.
