data_PCOD9191896
_publ_section_title
;
Structure prediction by ZEFSAII (Michael W. Deem and Ramdas Pophale) SiO2 
 PCOD9191896
Probable space group: C 2/M
;
_chemical_formula_sum "Si O2"
_cell_formula_units_Z 56
_cell_length_a 28.202223
_cell_length_b 9.064870
_cell_length_c 14.277290
_cell_angle_alpha 90.000000
_cell_angle_beta 60.039020
_cell_angle_gamma 90.000000
_cell_volume 3162.219131
_symmetry_space_group_name_H-M "C 2/M"
_symmetry_group_IT_number 12
_symmetry_cell_setting 'monoclinic'
loop_
_space_group_symop_operation_xyz
x,y,z
-x,y,-z
-x,-y,-z
x,-y,z
1/2+x,1/2+y,z
1/2-x,1/2+y,-z
1/2-x,1/2-y,-z
1/2+x,1/2-y,z
loop_
_atom_site_type_symbol
_atom_site_label
_atom_site_fract_x
_atom_site_fract_y
_atom_site_fract_z
Si Si1 0.113629 0.176335 0.626281
Si Si2 0.184286 0.175395 0.964708
Si Si3 0.183120 0.176605 0.376852
Si Si4 0.722270 0.323425 0.618107
Si Si5 0.197302 0.824286 0.159615
Si Si6 0.415940 0.177276 0.031693
Si Si7 0.026280 0.676772 0.828551
O O1 0.141224 0.223957 0.500278
O O2 0.158556 0.209488 0.663550
O O3 0.057341 0.250811 0.711281
O O4 0.107238 0.000000 0.628790
O O5 0.168887 0.209402 0.088709
O O6 0.140617 0.247008 0.938666
O O7 0.185222 0.000000 0.950231
O O8 0.245080 0.239774 0.894163
O O9 0.242168 0.252608 0.334778
O O10 0.165774 0.207363 0.287398
O O11 0.190201 0.000000 0.381423
O O12 0.728688 0.500000 0.611851
O O13 0.750000 0.250000 0.500000
O O14 0.208958 0.000000 0.147234
O O15 0.463594 0.219701 0.910569
O O16 0.409697 0.000000 0.035218
O O17 0.440407 0.215475 0.109288
O O18 0.027960 0.500000 0.818281
#
# Coordination Sequence:
#
# PCOD9191896 Si02
#       7
#     8   8   8   8   8   8   8
#     4   9  18  30  45  69  99 125 156 201 244 280
#     4  10  20  33  52  77 100 125 162 207 249 288
#     4   9  18  32  48  67  95 132 165 196 237 288
#     4   9  17  28  41  63  95 128 161 195 232 280
#     4   9  19  35  52  72 100 133 166 197 240 296
#     4   9  19  36  53  71  96 128 164 201 243 293
#     4   9  19  34  52  72  95 128 167 198 237 297
#
# _framework density 17.709081999999999
#
# number of rings (size 3 to 8) (size 9 to 14) (size 15 to 20)
#    0.000    2.857    0.000    2.571    2.000    5.143 
#    0.000    1.429    0.000    0.857    0.000    6.000 
#    0.000    0.000    0.000    0.000    0.000    0.000 
#
# Total GULP energy -155959.316483 kJ/mol
# GULP energy per Si atom -5569.975589 kJ/mol
# Density = 1.766878 g / cm^3
# Si number density = 17.709082 Si / 1000 Ang^3
#
#
#
# Elastic Constant Matrix: (Units=GPa)
#
#
# Indices 1 2 3 4 5 6 
#
# 1 32.4598 7.2259 -2.8363 0.0000 -0.4793 0.0000
# 2 7.2259 6.6665 11.7427 0.0000 -2.6804 0.0000
# 3 -2.8363 11.7427 76.5288 0.0000 -0.5762 0.0000
# 4 0.0000 0.0000 0.0000 22.5465 0.0000 -3.7725
# 5 -0.4793 -2.6804 -0.5762 0.0000 25.2069 0.0000
# 6 0.0000 0.0000 0.0000 -3.7725 0.0000 16.2289
#
#
#
# Elastic Compliance Matrix: (Units=1/GPa)
#
#
# Indices 1 2 3 4 5 6 
#
# 1 0.050630 -0.083790 0.014676 0.000000 -0.007612 0.000000
# 2 -0.083790 0.356148 -0.057490 0.000000 0.034963 0.000000
# 3 0.014676 -0.057490 0.022392 0.000000 -0.005322 0.000000
# 4 0.000000 0.000000 0.000000 0.046148 0.000000 0.010727
# 5 -0.007612 0.034963 -0.005322 0.000000 0.043123 0.000000
# 6 0.000000 0.000000 0.000000 0.010727 0.000000 0.064112
#
#
# Mechanical properties :
#
#
# Convention : Reuss Voigt Hill
#
# Bulk Modulus (GPa) = 5.68305 16.43552 11.05928
# Shear Modulus (GPa) = 5.59024 19.43130 12.51077
#
# Velocity S-wave (km/s) = 1.77864 3.31607 2.66082
# Velocity P-wave (km/s) = 2.72657 4.89518 3.96213
#
# Compressibility (1/GPa) = 0.17596192
#
# Stress axis : x y z
#
# Youngs Moduli (GPa) = 19.75113 2.80782 44.65836
#
# Poissons Ratio (x) = 0.23527 -0.65541
# Poissons Ratio (y) = 1.65495 2.56742
# Poissons Ratio (z) = -0.28987 0.16142
#
# Static dielectric constant tensor:
#      x y z
#    x 1.559800 0.000000 -0.039050 
#    y 0.000000 1.588050 0.000000 
#    z -0.039050 0.000000 1.528540 
# 
# From -- ./inp_files/242981.got.cif
#   From: 2010.05.17/outbox.cif.g08.bks.cpg/sg12_122_cif.got.tgz:242981.got - 2010.06.03 13:09:07.
