data_PCOD9191510
_publ_section_title
;
Structure prediction by ZEFSAII (Michael W. Deem and Ramdas Pophale) SiO2 
 PCOD9191510
Probable space group: C 2/M
;
_chemical_formula_sum "Si O2"
_cell_formula_units_Z 64
_cell_length_a 24.783526
_cell_length_b 7.888588
_cell_length_c 19.625658
_cell_angle_alpha 90.000000
_cell_angle_beta 66.582025
_cell_angle_gamma 90.000000
_cell_volume 3520.904069
_symmetry_space_group_name_H-M "C 2/M"
_symmetry_group_IT_number 12
_symmetry_cell_setting 'monoclinic'
loop_
_space_group_symop_operation_xyz
x,y,z
-x,y,-z
-x,-y,-z
x,-y,z
1/2+x,1/2+y,z
1/2-x,1/2+y,-z
1/2-x,1/2-y,-z
1/2+x,1/2-y,z
loop_
_atom_site_type_symbol
_atom_site_label
_atom_site_fract_x
_atom_site_fract_y
_atom_site_fract_z
Si Si1 0.040495 0.196229 0.810239
Si Si2 0.257339 0.295334 0.664370
Si Si3 0.632471 0.705253 0.658929
Si Si4 0.747230 0.705510 0.179081
Si Si5 0.808571 0.304096 0.930351
Si Si6 0.117473 0.697096 0.895319
Si Si7 0.425999 0.696384 0.939073
Si Si8 0.312375 0.703991 0.502833
O O1 0.076283 0.271347 0.728589
O O2 0.084749 0.204666 0.852001
O O3 0.979366 0.271381 0.867903
O O4 0.028082 0.000000 0.799133
O O5 0.259523 0.500000 0.664351
O O6 0.192145 0.248783 0.670296
O O7 0.266337 0.237719 0.737143
O O8 0.304589 0.234069 0.584269
O O9 0.629365 0.500000 0.659447
O O10 0.640721 0.765649 0.576717
O O11 0.744003 0.500000 0.177252
O O12 0.705440 0.777266 0.141880
O O13 0.815029 0.754024 0.129761
O O14 0.819714 0.500000 0.940267
O O15 0.865378 0.205700 0.928039
O O16 0.750000 0.250000 0.000000
O O17 0.118980 0.500000 0.873990
O O18 0.084206 0.715847 0.983380
O O19 0.440120 0.500000 0.947183
O O20 0.317684 0.500000 0.503020
O O21 0.250000 0.750000 0.500000
#
# Coordination Sequence:
#
# PCOD9191510 Si02
#       8
#     8   8   8   8   8   8   8   8
#     4  10  21  34  49  71 101 134 166 199 241 287
#     4   9  16  28  45  68  98 128 159 192 233 282
#     4   9  16  27  44  68  98 129 160 192 231 280
#     4  10  20  33  50  73 100 130 162 198 241 287
#     4  12  24  38  56  74  93 122 160 206 250 292
#     4  11  21  33  51  73  99 131 165 202 241 285
#     4  11  23  38  53  69  94 130 167 206 245 287
#     4   8  14  24  41  65  94 127 157 189 228 276
#
# _framework density 18.177150000000001
#
# number of rings (size 3 to 8) (size 9 to 14) (size 15 to 20)
#    0.000    2.000    2.500    2.250    0.000    3.500 
#    0.000    0.000    0.000    0.000    0.000    0.875 
#    0.000    7.000    0.000    0.000    0.000    0.000 
#
# Total GULP energy -178467.754771 kJ/mol
# GULP energy per Si atom -5577.117337 kJ/mol
# Density = 1.813578 g / cm^3
# Si number density = 18.177150 Si / 1000 Ang^3
#
#
#
# Elastic Constant Matrix: (Units=GPa)
#
#
# Indices 1 2 3 4 5 6 
#
# 1 24.5944 -7.4519 21.9801 0.0000 -7.3731 0.0000
# 2 -7.4519 26.8910 -1.3410 -0.0001 0.7694 -0.0001
# 3 21.9801 -1.3410 172.1640 0.0000 -5.9516 0.0000
# 4 0.0000 -0.0001 0.0000 10.4544 0.0000 0.0879
# 5 -7.3731 0.7694 -5.9516 0.0000 21.5961 0.0000
# 6 0.0000 -0.0001 0.0000 0.0879 0.0000 15.4230
#
#
#
# Elastic Compliance Matrix: (Units=1/GPa)
#
#
# Indices 1 2 3 4 5 6 
#
# 1 0.055900 0.014689 -0.006442 0.000000 0.016786 0.000000
# 2 0.014689 0.041095 -0.001446 0.000000 0.003152 0.000000
# 3 -0.006442 -0.001446 0.006608 0.000000 -0.000327 0.000000
# 4 0.000000 0.000000 0.000000 0.095658 0.000000 -0.000545
# 5 0.016786 0.003152 -0.000327 0.000000 0.051833 0.000000
# 6 0.000000 0.000000 0.000000 -0.000545 0.000000 0.064841
#
#
# Mechanical properties :
#
#
# Convention : Reuss Voigt Hill
#
# Bulk Modulus (GPa) = 8.53207 27.78045 18.15626
# Shear Modulus (GPa) = 14.64547 23.52552 19.08549
#
# Velocity S-wave (km/s) = 2.84158 3.60145 3.24384
# Velocity P-wave (km/s) = 3.93321 5.71054 4.90308
#
# Compressibility (1/GPa) = 0.11720485
#
# Stress axis : x y z
#
# Youngs Moduli (GPa) = 17.88919 24.33365 151.32475
#
# Poissons Ratio (x) = -0.35744 0.97483
# Poissons Ratio (y) = -0.26277 0.21886
# Poissons Ratio (z) = 0.11524 0.03519
#
# Static dielectric constant tensor:
#      x y z
#    x 1.591500 0.000000 -0.013060 
#    y 0.000000 1.647840 0.000000 
#    z -0.013060 0.000000 1.693260 
# 
# From -- ./inp_files/323662.got.cif
#   From: 2010.05.17/outbox.cif.g08.bks.cpg/sg12_162_cif.got.tgz:323662.got - 2010.06.03 13:09:07.
