data_PCOD9191410
_publ_section_title
;
Structure prediction by ZEFSAII (Michael W. Deem and Ramdas Pophale) SiO2 
 PCOD9191410
Probable space group: C 2/M
;
_chemical_formula_sum "Si O2"
_cell_formula_units_Z 64
_cell_length_a 27.816588
_cell_length_b 8.975223
_cell_length_c 15.396127
_cell_angle_alpha 90.000000
_cell_angle_beta 68.798995
_cell_angle_gamma 90.000000
_cell_volume 3583.640264
_symmetry_space_group_name_H-M "C 2/M"
_symmetry_group_IT_number 12
_symmetry_cell_setting 'monoclinic'
loop_
_space_group_symop_operation_xyz
x,y,z
-x,y,-z
-x,-y,-z
x,-y,z
1/2+x,1/2+y,z
1/2-x,1/2+y,-z
1/2-x,1/2-y,-z
1/2+x,1/2-y,z
loop_
_atom_site_type_symbol
_atom_site_label
_atom_site_fract_x
_atom_site_fract_y
_atom_site_fract_z
Si Si1 0.294665 0.675742 0.771122
Si Si2 0.789825 0.678614 0.042617
Si Si3 0.538291 0.822729 0.277773
Si Si4 0.872857 0.177609 0.880364
Si Si5 0.325267 0.823931 0.391948
Si Si6 0.573254 0.678950 0.623514
Si Si7 0.061041 0.168580 0.437865
Si Si8 0.273605 0.175377 0.613486
O O1 0.296842 0.500000 0.751065
O O2 0.237803 0.709935 0.847621
O O3 0.335335 0.705914 0.821532
O O4 0.303509 0.765479 0.677845
O O5 0.791417 0.500000 0.030459
O O6 0.750000 0.750000 0.000000
O O7 0.844237 0.750549 0.981848
O O8 0.573257 0.752341 0.179576
O O9 0.480979 0.753401 0.316000
O O10 0.564199 0.773118 0.352619
O O11 0.536174 0.000000 0.273536
O O12 0.877297 0.000000 0.887212
O O13 0.379389 0.739128 0.351449
O O14 0.303620 0.798415 0.503869
O O15 0.280684 0.761096 0.359273
O O16 0.332072 0.000000 0.374799
O O17 0.568590 0.500000 0.630367
O O18 0.584347 0.717440 0.514492
O O19 0.000000 0.159673 0.500000
O O20 0.078538 0.000000 0.404022
O O21 0.264363 0.000000 0.626969
#
# Coordination Sequence:
#
# PCOD9191410 Si02
#       8
#     8   8   8   8   8   8   8   8
#     4   9  19  33  51  73 100 133 165 201 248 298
#     4   9  17  31  49  72 100 132 165 201 247 297
#     4  11  21  31  46  70  99 130 167 207 243 292
#     4  10  20  33  49  72 103 137 169 204 247 294
#     4  10  21  36  52  72  99 129 166 211 254 292
#     4  10  20  34  51  68  93 130 167 205 250 296
#     4   8  16  30  44  61  88 124 161 198 238 283
#     4  10  21  35  52  75  99 127 166 208 250 297
#
# _framework density 17.858934999999999
#
# number of rings (size 3 to 8) (size 9 to 14) (size 15 to 20)
#    0.000    2.375    0.000    4.500    1.750    7.250 
#    0.000    0.000    0.000    0.000    0.000    0.875 
#    0.000    7.000    0.000    0.000    0.000    0.000 
#
# Total GULP energy -178516.868390 kJ/mol
# GULP energy per Si atom -5578.652137 kJ/mol
# Density = 1.781829 g / cm^3
# Si number density = 17.858935 Si / 1000 Ang^3
#
#
#
# Elastic Constant Matrix: (Units=GPa)
#
#
# Indices 1 2 3 4 5 6 
#
# 1 61.3999 30.8331 3.8232 0.0000 -17.1146 0.0000
# 2 30.8331 58.4741 32.6594 0.0000 -19.1195 0.0000
# 3 3.8232 32.6594 46.0444 0.0000 -18.8621 0.0000
# 4 0.0000 0.0000 0.0000 25.7327 0.0000 -2.7749
# 5 -17.1146 -19.1195 -18.8621 0.0000 27.3578 0.0000
# 6 0.0000 0.0000 0.0000 -2.7749 0.0000 21.7588
#
#
#
# Elastic Compliance Matrix: (Units=1/GPa)
#
#
# Indices 1 2 3 4 5 6 
#
# 1 0.031016 -0.021742 0.020305 0.000000 0.018208 0.000000
# 2 -0.021742 0.044976 -0.031763 0.000000 -0.004068 0.000000
# 3 0.020305 -0.031763 0.053893 0.000000 0.027662 0.000000
# 4 0.000000 0.000000 0.000000 0.039403 0.000000 0.005025
# 5 0.018208 -0.004068 0.027662 0.000000 0.064171 0.000000
# 6 0.000000 0.000000 0.000000 0.005025 0.000000 0.046599
#
#
# Mechanical properties :
#
#
# Convention : Reuss Voigt Hill
#
# Bulk Modulus (GPa) = 15.75165 33.39443 24.57304
# Shear Modulus (GPa) = 13.60101 21.54337 17.57219
#
# Velocity S-wave (km/s) = 2.76267 3.47696 3.14019
# Velocity P-wave (km/s) = 4.36069 5.90412 5.19010
#
# Compressibility (1/GPa) = 0.06348541
#
# Stress axis : x y z
#
# Youngs Moduli (GPa) = 32.24194 22.23403 18.55522
#
# Poissons Ratio (x) = 0.48341 -0.37676
# Poissons Ratio (y) = 0.70100 0.58937
# Poissons Ratio (z) = -0.65467 0.70622
#
# Static dielectric constant tensor:
#      x y z
#    x 1.638140 0.000000 -0.028940 
#    y 0.000000 1.591960 0.000000 
#    z -0.028940 0.000000 1.630620 
# 
# From -- ./inp_files/243768.got.cif
#   From: 2010.05.17/outbox.cif.g08.bks.cpg/sg12_122_cif.got.tgz:243768.got - 2010.06.03 13:09:07.
