data_PCOD9191028
_publ_section_title
;
Structure prediction by ZEFSAII (Michael W. Deem and Ramdas Pophale) SiO2 
 PCOD9191028
Probable space group: C 2/M
;
_chemical_formula_sum "Si O2"
_cell_formula_units_Z 64
_cell_length_a 20.253488
_cell_length_b 7.644123
_cell_length_c 32.637287
_cell_angle_alpha 90.000000
_cell_angle_beta 143.948093
_cell_angle_gamma 90.000000
_cell_volume 2973.728047
_symmetry_space_group_name_H-M "C 2/M"
_symmetry_group_IT_number 12
_symmetry_cell_setting 'monoclinic'
loop_
_space_group_symop_operation_xyz
x,y,z
-x,y,-z
-x,-y,-z
x,-y,z
1/2+x,1/2+y,z
1/2-x,1/2+y,-z
1/2-x,1/2-y,-z
1/2+x,1/2-y,z
loop_
_atom_site_type_symbol
_atom_site_label
_atom_site_fract_x
_atom_site_fract_y
_atom_site_fract_z
Si Si1 0.026599 0.713237 0.623794
Si Si2 0.083535 0.797280 0.117062
Si Si3 0.283157 0.713664 0.737613
Si Si4 0.546606 0.205910 0.725226
Si Si5 0.335014 0.711902 0.673745
Si Si6 0.901662 0.713747 0.482080
Si Si7 0.728691 0.287479 0.116822
Si Si8 0.667774 0.199043 0.995820
O O1 0.020196 0.500000 0.620590
O O2 0.152207 0.759887 0.672689
O O3 0.016176 0.777403 0.665096
O O4 0.936912 0.772655 0.545176
O O5 0.152648 0.720596 0.189940
O O6 0.123950 0.730238 0.092977
O O7 0.118135 0.000000 0.132921
O O8 0.951912 0.793330 0.060174
O O9 0.287715 0.500000 0.740233
O O10 0.336173 0.771208 0.721433
O O11 0.443001 0.228913 0.703313
O O12 0.660475 0.272497 0.803156
O O13 0.568482 0.000000 0.729928
O O14 0.333918 0.500000 0.673173
O O15 0.219658 0.771456 0.594423
O O16 0.900230 0.500000 0.481094
O O17 0.000000 0.765915 0.500000
O O18 0.728900 0.500000 0.112769
O O19 0.725300 0.218699 0.068999
O O20 0.636490 0.000000 0.973047
O O21 0.750000 0.250000 0.000000
#
# Coordination Sequence:
#
# PCOD9191028 Si02
#       8
#     8   8   8   8   8   8   8   8
#     4   9  15  29  53  80 108 145 191 235 277 329
#     4  10  20  38  64  90 116 151 194 239 286 340
#     4   9  16  30  55  84 110 140 189 240 280 324
#     4  10  21  36  55  81 115 151 187 228 279 341
#     4  10  20  32  51  83 115 145 188 242 290 329
#     4   9  15  26  49  80 110 140 186 245 287 322
#     4  10  21  40  64  87 115 153 195 237 284 344
#     4  12  27  44  62  88 121 153 188 233 285 343
#
# _framework density 21.521806000000002
#
# number of rings (size 3 to 8) (size 9 to 14) (size 15 to 20)
#    0.000    2.125    2.500    1.500    1.750    3.000 
#    0.000    0.000    0.000    1.125    0.000    0.000 
#    0.000    0.000    0.000    0.000    0.000    0.000 
#
# Total GULP energy -178685.416788 kJ/mol
# GULP energy per Si atom -5583.919275 kJ/mol
# Density = 2.147282 g / cm^3
# Si number density = 21.521806 Si / 1000 Ang^3
#
#
#
# Elastic Constant Matrix: (Units=GPa)
#
#
# Indices 1 2 3 4 5 6 
#
# 1 162.3166 -7.7347 53.5345 -0.0002 -17.4126 -0.0004
# 2 -7.7347 34.1697 -2.5228 -0.0003 -3.5292 -0.0010
# 3 53.5345 -2.5228 104.8542 0.0000 -18.1612 -0.0002
# 4 -0.0002 -0.0003 0.0000 -8.4215 0.0000 -1.4131
# 5 -17.4126 -3.5292 -18.1612 0.0000 40.2473 0.0000
# 6 -0.0004 -0.0010 -0.0002 -1.4131 0.0000 17.5954
#
#
#
# Elastic Compliance Matrix: (Units=1/GPa)
#
#
# Indices 1 2 3 4 5 6 
#
# 1 0.007598 0.001650 -0.003520 0.000000 0.001844 0.000000
# 2 0.001650 0.030045 0.000499 -0.000002 0.003574 0.000002
# 3 -0.003520 0.000499 0.012030 0.000000 0.003949 0.000000
# 4 0.000000 -0.000002 0.000000 -0.117165 0.000000 -0.009409
# 5 0.001844 0.003574 0.003949 0.000000 0.027739 0.000000
# 6 0.000000 0.000002 0.000000 -0.009409 0.000000 0.056077
#
#
# Mechanical properties :
#
#
# Convention : Reuss Voigt Hill
#
# Bulk Modulus (GPa) = 21.30709 43.09938 32.20323
# Shear Modulus (GPa) = 144.04498 27.08848 85.56673
#
# Velocity S-wave (km/s) = 8.18994 3.55160 6.31225
# Velocity P-wave (km/s) = 9.96771 6.07354 8.25358
#
# Compressibility (1/GPa) = 0.04693273
#
# Stress axis : x y z
#
# Youngs Moduli (GPa) = 131.60868 33.28308 83.12223
#
# Poissons Ratio (x) = -0.05493 0.29262
# Poissons Ratio (y) = -0.21721 -0.04150
# Poissons Ratio (z) = 0.46331 -0.01662
#
# Static dielectric constant tensor:
#      x y z
#    x -0.706240 0.000000 -1.229330 
#    y 0.000000 1.853810 0.000000 
#    z -1.229330 0.000000 1.174850 
# 
# From -- ./inp_files/378520.got.cif
#   From: 2010.05.17/outbox.cif.g08.bks.cpg/sg12_190_cif.got.tgz:378520.got - 2010.06.03 13:09:07.
