data_PCOD9191789
_publ_section_title
;
Structure prediction by ZEFSAII (Michael W. Deem and Ramdas Pophale) SiO2 
 PCOD9191789
Probable space group: C 2/M
;
_chemical_formula_sum "Si O2"
_cell_formula_units_Z 48
_cell_length_a 20.330273
_cell_length_b 8.609253
_cell_length_c 21.853713
_cell_angle_alpha 90.000000
_cell_angle_beta 45.579987
_cell_angle_gamma 90.000000
_cell_volume 2731.938632
_symmetry_space_group_name_H-M "C 2/M"
_symmetry_group_IT_number 12
_symmetry_cell_setting 'monoclinic'
loop_
_space_group_symop_operation_xyz
x,y,z
-x,y,-z
-x,-y,-z
x,-y,z
1/2+x,1/2+y,z
1/2-x,1/2+y,-z
1/2-x,1/2-y,-z
1/2+x,1/2-y,z
loop_
_atom_site_type_symbol
_atom_site_label
_atom_site_fract_x
_atom_site_fract_y
_atom_site_fract_z
Si Si1 0.898342 0.685869 0.902380
Si Si2 0.752217 0.685056 0.430228
Si Si3 0.240079 0.187943 0.910107
Si Si4 0.893806 0.311836 0.569664
Si Si5 0.750608 0.188518 0.235652
Si Si6 0.896947 0.813672 0.241670
O O1 0.904790 0.500000 0.899356
O O2 0.830814 0.730704 0.890113
O O3 0.998959 0.756912 0.829733
O O4 0.846798 0.744761 0.996802
O O5 0.752465 0.500000 0.431143
O O6 0.750000 0.750000 0.500000
O O7 0.664755 0.745459 0.448434
O O8 0.841652 0.745097 0.335205
O O9 0.246026 0.242782 0.836277
O O10 0.233379 0.000000 0.915032
O O11 0.890495 0.500000 0.568128
O O12 0.839427 0.264873 0.666848
O O13 0.000000 0.263542 0.500000
O O14 0.838575 0.234259 0.219347
O O15 0.749910 0.000000 0.233950
O O16 0.893808 0.000000 0.247409
#
# Coordination Sequence:
#
# PCOD9191789 Si02
#       6
#     8   8   8   8   8   8
#     4  10  20  33  51  77 106 135 171 217 265 311
#     4  11  22  37  56  79 109 142 179 221 265 314
#     4   9  18  34  53  72 100 139 179 215 255 310
#     4   9  18  34  56  81 109 141 178 220 268 322
#     4   8  16  32  53  75  98 132 177 216 252 303
#     4  10  20  36  56  77 103 135 173 216 264 318
#
# _framework density 17.569939999999999
#
# number of rings (size 3 to 8) (size 9 to 14) (size 15 to 20)
#    0.000    2.500    0.000    3.500    0.000    3.000 
#    0.000   10.833    0.000    0.000    0.000    0.000 
#    0.000    0.000    0.000    0.000    0.000    0.000 
#
# Total GULP energy -133901.220645 kJ/mol
# GULP energy per Si atom -5579.217527 kJ/mol
# Density = 1.752995 g / cm^3
# Si number density = 17.569940 Si / 1000 Ang^3
#
#
#
# Elastic Constant Matrix: (Units=GPa)
#
#
# Indices 1 2 3 4 5 6 
#
# 1 122.6639 40.5420 137.9522 0.0000 1.4260 0.0000
# 2 40.5420 46.1729 50.0604 -0.0001 -2.9472 0.0001
# 3 137.9522 50.0604 183.3407 0.0000 1.6370 0.0000
# 4 0.0000 -0.0001 0.0000 29.3626 0.0000 -2.3543
# 5 1.4260 -2.9472 1.6370 0.0000 45.2532 0.0000
# 6 0.0000 0.0001 0.0000 -2.3543 0.0000 26.6668
#
#
#
# Elastic Compliance Matrix: (Units=1/GPa)
#
#
# Indices 1 2 3 4 5 6 
#
# 1 0.053752 -0.004816 -0.039125 0.000000 -0.000592 0.000000
# 2 -0.004816 0.031440 -0.004982 0.000000 0.002380 0.000000
# 3 -0.039125 -0.004982 0.036257 0.000000 -0.000403 0.000000
# 4 0.000000 0.000000 0.000000 0.034300 0.000000 0.003028
# 5 -0.000592 0.002380 -0.000403 0.000000 0.022286 0.000000
# 6 0.000000 0.000000 0.000000 0.003028 0.000000 0.037767
#
#
# Mechanical properties :
#
#
# Convention : Reuss Voigt Hill
#
# Bulk Modulus (GPa) = 42.36653 89.92075 66.14364
# Shear Modulus (GPa) = 15.55137 28.49805 22.02471
#
# Velocity S-wave (km/s) = 2.97831 4.03175 3.54438
# Velocity P-wave (km/s) = 5.99938 8.54185 7.38091
#
# Compressibility (1/GPa) = 0.02360354
#
# Stress axis : x y z
#
# Youngs Moduli (GPa) = 18.60397 31.80685 27.58076
#
# Poissons Ratio (x) = 0.15317 1.07909
# Poissons Ratio (y) = 0.08959 0.13741
# Poissons Ratio (z) = 0.72788 0.15847
#
# Static dielectric constant tensor:
#      x y z
#    x 1.583320 0.000000 0.006320 
#    y 0.000000 1.596030 0.000000 
#    z 0.006320 0.000000 1.575250 
# 
# From -- ./inp_files/249344.got.cif
#   From: 2010.05.17/outbox.cif.g08.bks.cpg/sg12_125_cif.got.tgz:249344.got - 2010.06.03 13:09:07.
