data_PCOD9191906
_publ_section_title
;
Structure prediction by ZEFSAII (Michael W. Deem and Ramdas Pophale) SiO2 
 PCOD9191906
Probable space group: C 2/M
;
_chemical_formula_sum "Si O2"
_cell_formula_units_Z 56
_cell_length_a 25.518955
_cell_length_b 7.628265
_cell_length_c 17.091207
_cell_angle_alpha 90.000000
_cell_angle_beta 56.504304
_cell_angle_gamma 90.000000
_cell_volume 2774.530947
_symmetry_space_group_name_H-M "C 2/M"
_symmetry_group_IT_number 12
_symmetry_cell_setting 'monoclinic'
loop_
_space_group_symop_operation_xyz
x,y,z
-x,y,-z
-x,-y,-z
x,-y,z
1/2+x,1/2+y,z
1/2-x,1/2+y,-z
1/2-x,1/2-y,-z
1/2+x,1/2-y,z
loop_
_atom_site_type_symbol
_atom_site_label
_atom_site_fract_x
_atom_site_fract_y
_atom_site_fract_z
Si Si1 0.487187 0.711484 0.757538
Si Si2 0.247829 0.290308 0.875164
Si Si3 0.123179 0.211928 0.695540
Si Si4 0.350431 0.711514 0.914251
Si Si5 0.768387 0.708949 0.286317
Si Si6 0.328577 0.702909 0.508117
Si Si7 0.965146 0.708169 0.451057
O O1 0.487093 0.500000 0.762681
O O2 0.551256 0.773251 0.746668
O O3 0.421471 0.776114 0.846254
O O4 0.494468 0.757872 0.660170
O O5 0.255496 0.500000 0.864044
O O6 0.305527 0.222987 0.880717
O O7 0.244103 0.220498 0.790148
O O8 0.184750 0.256716 0.976548
O O9 0.161279 0.263049 0.740713
O O10 0.160504 0.279260 0.587501
O O11 0.122035 0.000000 0.691939
O O12 0.351884 0.500000 0.908087
O O13 0.756909 0.500000 0.292257
O O14 0.722015 0.783311 0.391353
O O15 0.310782 0.500000 0.510751
O O16 0.396926 0.709656 0.492388
O O17 0.955494 0.500000 0.467004
O O18 0.000000 0.773043 0.500000
#
# Coordination Sequence:
#
# PCOD9191906 Si02
#       7
#     8   8   8   8   8   8   8
#     4   9  19  35  56  76  97 134 177 209 249 306
#     4   9  19  34  52  78 105 128 165 213 257 308
#     4   9  18  33  50  75 104 132 171 214 253 300
#     4   9  18  35  57  77  99 130 168 211 259 305
#     4  10  20  33  52  77 103 135 175 212 252 303
#     4   9  19  34  52  73 100 138 179 210 246 299
#     4  10  21  33  46  74 110 136 166 208 253 303
#
# _framework density 20.183591
#
# number of rings (size 3 to 8) (size 9 to 14) (size 15 to 20)
#    0.000    2.714    0.000    1.714    2.000    5.143 
#    0.000    0.714    0.000    4.286    0.000    0.000 
#    0.000    0.000    0.000    0.000    0.000    0.000 
#
# Total GULP energy -156225.355976 kJ/mol
# GULP energy per Si atom -5579.476999 kJ/mol
# Density = 2.013765 g / cm^3
# Si number density = 20.183591 Si / 1000 Ang^3
#
#
#
# Elastic Constant Matrix: (Units=GPa)
#
#
# Indices 1 2 3 4 5 6 
#
# 1 72.1884 1.1581 61.9652 0.0001 0.5914 0.0001
# 2 1.1581 42.4853 5.1756 0.0001 -1.9171 -0.0002
# 3 61.9652 5.1756 86.5633 -0.0001 -9.9003 -0.0001
# 4 0.0001 0.0001 -0.0001 14.9670 0.0001 0.6685
# 5 0.5914 -1.9171 -9.9003 0.0001 30.7239 0.0001
# 6 0.0001 -0.0002 -0.0001 0.6685 0.0001 17.8354
#
#
#
# Elastic Compliance Matrix: (Units=1/GPa)
#
#
# Indices 1 2 3 4 5 6 
#
# 1 0.038874 0.002033 -0.029093 0.000000 -0.009996 0.000000
# 2 0.002033 0.023850 -0.002820 0.000000 0.000540 0.000000
# 3 -0.029093 -0.002820 0.033837 0.000000 0.011288 0.000000
# 4 0.000000 0.000000 0.000000 0.066925 0.000000 -0.002508
# 5 -0.009996 0.000540 0.011288 0.000000 0.036411 0.000000
# 6 0.000000 0.000000 0.000000 -0.002508 0.000000 0.056162
#
#
# Mechanical properties :
#
#
# Convention : Reuss Voigt Hill
#
# Bulk Modulus (GPa) = 27.17107 37.53722 32.35414
# Shear Modulus (GPa) = 15.23987 21.56780 18.40384
#
# Velocity S-wave (km/s) = 2.75082 3.27246 3.02291
# Velocity P-wave (km/s) = 4.85598 5.73733 5.31495
#
# Compressibility (1/GPa) = 0.03680385
#
# Stress axis : x y z
#
# Youngs Moduli (GPa) = 25.72384 41.92872 29.55315
#
# Poissons Ratio (x) = -0.08526 0.85978
# Poissons Ratio (y) = -0.05231 0.08333
# Poissons Ratio (z) = 0.74837 0.11823
#
# Static dielectric constant tensor:
#      x y z
#    x 1.715690 0.000000 -0.005230 
#    y 0.000000 1.773070 0.000000 
#    z -0.005230 0.000000 1.700120 
# 
# From -- ./inp_files/243596.got.cif
#   From: 2010.05.17/outbox.cif.g08.bks.cpg/sg12_122_cif.got.tgz:243596.got - 2010.06.03 13:09:07.
