data_PCOD9191378
_publ_section_title
;
Structure prediction by ZEFSAII (Michael W. Deem and Ramdas Pophale) SiO2 
 PCOD9191378
Probable space group: C 2/M
;
_chemical_formula_sum "Si O2"
_cell_formula_units_Z 48
_cell_length_a 20.333051
_cell_length_b 11.198782
_cell_length_c 22.818617
_cell_angle_alpha 90.000000
_cell_angle_beta 28.602604
_cell_angle_gamma 90.000000
_cell_volume 2487.453095
_symmetry_space_group_name_H-M "C 2/M"
_symmetry_group_IT_number 12
_symmetry_cell_setting 'monoclinic'
loop_
_space_group_symop_operation_xyz
x,y,z
-x,y,-z
-x,-y,-z
x,-y,z
1/2+x,1/2+y,z
1/2-x,1/2+y,-z
1/2-x,1/2-y,-z
1/2+x,1/2-y,z
loop_
_atom_site_type_symbol
_atom_site_label
_atom_site_fract_x
_atom_site_fract_y
_atom_site_fract_z
Si Si1 0.042184 0.209626 0.628717
Si Si2 0.208953 0.637961 0.135324
Si Si3 0.614810 0.629330 0.360307
Si Si4 0.489391 0.358968 0.873714
Si Si5 0.791621 0.136089 0.391426
Si Si6 0.284165 0.365957 0.212847
O O1 0.131478 0.138981 0.606196
O O2 0.151082 0.291962 0.508664
O O3 0.930424 0.287828 0.751650
O O4 0.958565 0.137384 0.645590
O O5 0.180706 0.500000 0.141114
O O6 0.268363 0.636026 0.155334
O O7 0.334814 0.689448 0.998379
O O8 0.500000 0.630189 0.500000
O O9 0.688787 0.500000 0.306310
O O10 0.701083 0.750503 0.299492
O O11 0.472976 0.500000 0.872687
O O12 0.599666 0.311921 0.740551
O O13 0.565363 0.353054 0.876999
O O14 0.760040 0.000000 0.399392
O O15 0.235332 0.500000 0.269695
#
# Coordination Sequence:
#
# PCOD9191378 Si02
#       6
#     8   8   8   8   8   8
#     4  10  20  33  50  70  95 131 168 203 247 298
#     4   9  17  30  50  75 100 126 161 206 251 295
#     4  10  20  33  50  73 103 136 167 204 252 302
#     4   9  17  30  50  75 100 126 160 206 254 294
#     4  10  20  33  49  70  97 128 166 211 252 294
#     4   9  17  30  51  77 101 128 165 207 249 294
#
# _framework density 19.296847
#
# number of rings (size 3 to 8) (size 9 to 14) (size 15 to 20)
#    0.000    2.500    0.000    2.500    0.000    3.667 
#    0.000    0.000    0.000   10.000    0.000    0.000 
#    0.000    0.000    0.000    0.000    0.000    0.000 
#
# Total GULP energy -133663.750817 kJ/mol
# GULP energy per Si atom -5569.322951 kJ/mol
# Density = 1.925293 g / cm^3
# Si number density = 19.296847 Si / 1000 Ang^3
#
#
#
# Elastic Constant Matrix: (Units=GPa)
#
#
# Indices 1 2 3 4 5 6 
#
# 1 29.1288 0.9778 -8.2094 0.0000 -3.9374 0.0000
# 2 0.9778 105.0498 52.4552 0.0003 -7.5172 0.0001
# 3 -8.2094 52.4552 122.8450 0.0003 -6.3543 0.0001
# 4 0.0000 0.0003 0.0003 2.6316 -0.0001 -6.0296
# 5 -3.9374 -7.5172 -6.3543 -0.0001 14.8117 -0.0001
# 6 0.0000 0.0001 0.0001 -6.0296 -0.0001 3.1483
#
#
#
# Elastic Compliance Matrix: (Units=1/GPa)
#
#
# Indices 1 2 3 4 5 6 
#
# 1 0.036829 -0.001380 0.003600 0.000000 0.010635 0.000000
# 2 -0.001380 0.012389 -0.005191 0.000000 0.003694 0.000000
# 3 0.003600 -0.005191 0.010749 0.000000 0.002934 0.000000
# 4 0.000000 0.000000 0.000000 -0.112155 -0.000001 -0.214799
# 5 0.010635 0.003694 0.002934 -0.000001 0.073475 -0.000001
# 6 0.000000 0.000000 0.000000 -0.214799 -0.000001 -0.093749
#
#
# Mechanical properties :
#
#
# Convention : Reuss Voigt Hill
#
# Bulk Modulus (GPa) = 18.50961 38.60787 28.55874
# Shear Modulus (GPa) = -103.06571 18.23831 -42.41370
#
# Velocity S-wave (km/s) = -7.31619 3.07766 -4.69333
# Velocity P-wave (km/s) = 7.85849 5.71665 3.81286
#
# Compressibility (1/GPa) = 0.05402599
#
# Stress axis : x y z
#
# Youngs Moduli (GPa) = 27.15269 80.71964 93.02915
#
# Poissons Ratio (x) = 0.11136 -0.33494
# Poissons Ratio (y) = 0.03746 0.48292
# Poissons Ratio (z) = -0.09776 0.41902
#
# Static dielectric constant tensor:
#      x y z
#    x 1.677950 0.000000 0.024520 
#    y 0.000000 1.674640 0.000000 
#    z 0.024520 0.000000 1.692700 
# 
# From -- ./inp_files/94494.got.cif
#   From: 2010.05.17/outbox.cif.g08.bks.cpg/sg12_48_cif.got.tgz:94494.got - 2010.06.03 13:09:07.
