data_PCOD9191181
_publ_section_title
;
Structure prediction by ZEFSAII (Michael W. Deem and Ramdas Pophale) SiO2 
 PCOD9191181
Probable space group: C 2/M
;
_chemical_formula_sum "Si O2"
_cell_formula_units_Z 36
_cell_length_a 19.348151
_cell_length_b 7.925633
_cell_length_c 12.106432
_cell_angle_alpha 90.000000
_cell_angle_beta 91.052111
_cell_angle_gamma 90.000000
_cell_volume 1856.164101
_symmetry_space_group_name_H-M "C 2/M"
_symmetry_group_IT_number 12
_symmetry_cell_setting 'monoclinic'
loop_
_space_group_symop_operation_xyz
x,y,z
-x,y,-z
-x,-y,-z
x,-y,z
1/2+x,1/2+y,z
1/2-x,1/2+y,-z
1/2-x,1/2-y,-z
1/2+x,1/2-y,z
loop_
_atom_site_type_symbol
_atom_site_label
_atom_site_fract_x
_atom_site_fract_y
_atom_site_fract_z
Si Si1 0.249141 0.200382 0.128507
Si Si2 0.006442 0.797385 0.375183
Si Si3 0.000000 0.249402 0.000000
Si Si4 0.598443 0.806681 0.184263
Si Si5 0.098452 0.199605 0.817791
O O1 0.179313 0.274013 0.177917
O O2 0.320622 0.265777 0.181204
O O3 0.246786 0.000000 0.138160
O O4 0.250000 0.250000 0.000000
O O5 0.938640 0.763224 0.299025
O O6 0.000000 0.735383 0.500000
O O7 0.068899 0.723098 0.305133
O O8 0.015573 0.000000 0.378886
O O9 0.054710 0.191318 0.097228
O O10 0.940779 0.304177 0.087268
O O11 0.583256 0.000000 0.149379
O O12 0.087242 0.000000 0.844347
#
# Coordination Sequence:
#
# PCOD9191181 Si02
#       5
#     8   8   4   8   8
#     4  12  24  37  55  82 119 155 189 230 283 342
#     4   9  20  40  63  86 114 149 191 238 285 334
#     4  10  20  32  56  82 118 146 186 230 286 338
#     4  11  22  36  57  85 117 150 190 235 283 337
#     4  10  20  35  58  85 115 150 189 231 283 339
#
# _framework density 19.394838
#
# number of rings (size 3 to 8) (size 9 to 14) (size 15 to 20)
#    0.000    1.556    2.222    3.333    0.000    5.778 
#    0.000    1.111    0.000    0.000    0.000    0.000 
#    0.000    0.000    0.000    0.000    0.000    0.000 
#
# Total GULP energy -100249.203478 kJ/mol
# GULP energy per Si atom -5569.400193 kJ/mol
# Density = 1.935069 g / cm^3
# Si number density = 19.394838 Si / 1000 Ang^3
#
#
#
# Elastic Constant Matrix: (Units=GPa)
#
#
# Indices 1 2 3 4 5 6 
#
# 1 194.3017 29.3274 78.1827 0.0000 -22.5663 0.0000
# 2 29.3274 82.8344 29.9677 0.0000 -1.0232 0.0000
# 3 78.1827 29.9677 171.1691 0.0000 -8.5329 0.0000
# 4 0.0000 0.0000 0.0000 13.8807 0.0000 -4.5630
# 5 -22.5663 -1.0232 -8.5329 0.0000 17.6455 0.0000
# 6 0.0000 0.0000 0.0000 -4.5630 0.0000 14.4426
#
#
#
# Elastic Compliance Matrix: (Units=1/GPa)
#
#
# Indices 1 2 3 4 5 6 
#
# 1 0.007408 -0.001542 -0.002711 0.000000 0.008073 0.000000
# 2 -0.001542 0.013212 -0.001710 0.000000 -0.002033 0.000000
# 3 -0.002711 -0.001710 0.007380 0.000000 0.000002 0.000000
# 4 0.000000 0.000000 0.000000 0.080392 0.000000 0.025399
# 5 0.008073 -0.002033 0.000002 0.000000 0.066879 0.000000
# 6 0.000000 0.000000 0.000000 0.025399 0.000000 0.077264
#
#
# Mechanical properties :
#
#
# Convention : Reuss Voigt Hill
#
# Bulk Modulus (GPa) = 62.21611 80.36233 71.28922
# Shear Modulus (GPa) = 18.53087 29.91559 24.22323
#
# Velocity S-wave (km/s) = 3.09439 3.93167 3.53789
# Velocity P-wave (km/s) = 6.70189 7.88261 7.31611
#
# Compressibility (1/GPa) = 0.01607301
#
# Stress axis : x y z
#
# Youngs Moduli (GPa) = 134.98974 75.68971 135.50083
#
# Poissons Ratio (x) = 0.11673 0.36737
# Poissons Ratio (y) = 0.20818 0.23171
# Poissons Ratio (z) = 0.36598 0.12943
#
# Static dielectric constant tensor:
#      x y z
#    x 1.658660 0.000000 -0.000780 
#    y 0.000000 1.809000 0.000000 
#    z -0.000780 0.000000 1.642820 
# 
# From -- ./inp_files/151280.got.cif
#   From: 2010.05.17/outbox.cif.g08.bks.cpg/sg12_76_cif.got.tgz:151280.got - 2010.06.03 13:09:07.
