data_PCOD9191963
_publ_section_title
;
Structure prediction by ZEFSAII (Michael W. Deem and Ramdas Pophale) SiO2 
 PCOD9191963
Probable space group: C 2/M
;
_chemical_formula_sum "Si O2"
_cell_formula_units_Z 64
_cell_length_a 26.612827
_cell_length_b 8.415186
_cell_length_c 17.185546
_cell_angle_alpha 90.000000
_cell_angle_beta 132.115122
_cell_angle_gamma 90.000000
_cell_volume 2854.987641
_symmetry_space_group_name_H-M "C 2/M"
_symmetry_group_IT_number 12
_symmetry_cell_setting 'monoclinic'
loop_
_space_group_symop_operation_xyz
x,y,z
-x,y,-z
-x,-y,-z
x,-y,z
1/2+x,1/2+y,z
1/2-x,1/2+y,-z
1/2-x,1/2-y,-z
1/2+x,1/2-y,z
loop_
_atom_site_type_symbol
_atom_site_label
_atom_site_fract_x
_atom_site_fract_y
_atom_site_fract_z
Si Si1 0.822694 0.688380 0.897838
Si Si2 0.787151 0.334095 0.434671
Si Si3 0.072028 0.187925 0.114517
Si Si4 0.140336 0.751667 0.334199
Si Si5 0.671197 0.693272 0.764720
Si Si6 0.479933 0.321113 0.678467
Si Si7 0.377801 0.306843 0.116370
Si Si8 0.897184 0.186239 0.453745
O O1 0.826856 0.500000 0.884671
O O2 0.871135 0.784257 0.891086
O O3 0.745005 0.742172 0.812164
O O4 0.846280 0.721372 0.010060
O O5 0.804987 0.500000 0.413409
O O6 0.819413 0.338495 0.554922
O O7 0.706579 0.323704 0.360512
O O8 0.825379 0.200279 0.425520
O O9 0.094093 0.293457 0.211922
O O10 0.070028 0.000000 0.136380
O O11 0.000000 0.226061 0.000000
O O12 0.083613 0.832605 0.329489
O O13 0.670024 0.500000 0.761371
O O14 0.658930 0.735745 0.841095
O O15 0.614912 0.750704 0.644936
O O16 0.502187 0.500000 0.680530
O O17 0.544418 0.253506 0.789493
O O18 0.452024 0.242449 0.570435
O O19 0.374634 0.500000 0.100993
O O20 0.913424 0.000000 0.463056
#
# Coordination Sequence:
#
# PCOD9191963 Si02
#       8
#     8   8   8   8   8   8   8   8
#     4  11  23  38  55  80 113 144 178 222 274 325
#     4  10  20  33  53  80 110 143 177 213 258 320
#     4  11  23  39  60  83 108 142 185 227 265 314
#     4  10  20  33  52  78 109 139 175 220 265 311
#     4   9  19  35  57  83 109 139 179 228 274 320
#     4   9  17  31  54  80 105 135 173 219 265 311
#     4  10  20  37  59  80 104 140 186 228 270 320
#     4   9  18  34  54  79 110 139 172 220 274 318
#
# _framework density 22.416910999999999
#
# number of rings (size 3 to 8) (size 9 to 14) (size 15 to 20)
#    0.000    2.125    0.000    3.375    0.000    6.750 
#    0.000    9.375    0.000    0.000    0.000    4.375 
#    0.000    0.000    0.000    0.000    0.000    0.000 
#
# Total GULP energy -178233.049118 kJ/mol
# GULP energy per Si atom -5569.782785 kJ/mol
# Density = 2.236589 g / cm^3
# Si number density = 22.416911 Si / 1000 Ang^3
#
#
#
# Elastic Constant Matrix: (Units=GPa)
#
#
# Indices 1 2 3 4 5 6 
#
# 1 58.0532 -3.6510 19.5862 0.0000 4.3718 0.0000
# 2 -3.6510 13.6529 0.0671 0.0000 6.8967 0.0000
# 3 19.5862 0.0671 156.8110 0.0000 -3.5618 0.0000
# 4 0.0000 0.0000 0.0000 -5.1207 0.0000 0.2516
# 5 4.3718 6.8967 -3.5618 0.0000 48.1895 0.0000
# 6 0.0000 0.0000 0.0000 0.2516 0.0000 3.2200
#
#
#
# Elastic Compliance Matrix: (Units=1/GPa)
#
#
# Indices 1 2 3 4 5 6 
#
# 1 0.018646 0.006405 -0.002395 0.000000 -0.002785 0.000000
# 2 0.006405 0.081166 -0.001114 0.000000 -0.012280 0.000000
# 3 -0.002395 -0.001114 0.006697 0.000000 0.000872 0.000000
# 4 0.000000 0.000000 0.000000 -0.194538 0.000000 0.015200
# 5 -0.002785 -0.012280 0.000872 0.000000 0.022826 0.000000
# 6 0.000000 0.000000 0.000000 0.015200 0.000000 0.309368
#
#
# Mechanical properties :
#
#
# Convention : Reuss Voigt Hill
#
# Bulk Modulus (GPa) = 8.90460 28.94684 18.92572
# Shear Modulus (GPa) = 18.12874 23.42542 20.77708
#
# Velocity S-wave (km/s) = 2.84686 3.23614 3.04772
# Velocity P-wave (km/s) = 3.84540 5.18695 4.56571
#
# Compressibility (1/GPa) = 0.11230156
#
# Stress axis : x y z
#
# Youngs Moduli (GPa) = 53.63028 12.32044 149.33139
#
# Poissons Ratio (x) = -0.07891 0.35764
# Poissons Ratio (y) = -0.34351 0.16630
# Poissons Ratio (z) = 0.12844 0.01372
#
# Static dielectric constant tensor:
#      x y z
#    x 1.800720 0.000000 -0.003310 
#    y 0.000000 1.840120 0.000000 
#    z -0.003310 0.000000 1.851840 
# 
# From -- ./inp_files/295753.got.cif
#   From: 2010.05.17/outbox.cif.g08.bks.cpg/sg12_148_cif.got.tgz:295753.got - 2010.06.03 13:09:07.
