data_PCOD9191337
_publ_section_title
;
Structure prediction by ZEFSAII (Michael W. Deem and Ramdas Pophale) SiO2 
 PCOD9191337
Probable space group: C 2/M
;
_chemical_formula_sum "Si O2"
_cell_formula_units_Z 48
_cell_length_a 33.261712
_cell_length_b 7.329485
_cell_length_c 9.448878
_cell_angle_alpha 90.000000
_cell_angle_beta 106.503662
_cell_angle_gamma 90.000000
_cell_volume 2208.650724
_symmetry_space_group_name_H-M "C 2/M"
_symmetry_group_IT_number 12
_symmetry_cell_setting 'monoclinic'
loop_
_space_group_symop_operation_xyz
x,y,z
-x,y,-z
-x,-y,-z
x,-y,z
1/2+x,1/2+y,z
1/2-x,1/2+y,-z
1/2-x,1/2-y,-z
1/2+x,1/2-y,z
loop_
_atom_site_type_symbol
_atom_site_label
_atom_site_fract_x
_atom_site_fract_y
_atom_site_fract_z
Si Si1 0.547128 0.721983 0.383948
Si Si2 0.372236 0.723026 0.034873
Si Si3 0.372236 0.276974 0.709600
Si Si4 0.791879 0.782247 0.452412
Si Si5 0.547128 0.278017 0.710309
Si Si6 0.708121 0.282246 0.868654
O O1 0.547202 0.500000 0.382581
O O2 0.584375 0.781527 0.319501
O O3 0.500000 0.779432 0.296702
O O4 0.554799 0.775953 0.554799
O O5 0.372061 0.500000 0.035119
O O6 0.368824 0.780306 0.868824
O O7 0.415625 0.781527 0.150751
O O8 0.332602 0.784844 0.087653
O O9 0.372061 0.500000 0.709004
O O10 0.332602 0.215156 0.577551
O O11 0.750000 0.750000 0.500000
O O12 0.788774 0.711728 0.288774
O O13 0.796815 0.000000 0.447354
O O14 0.547201 0.500000 0.711822
O O15 0.703186 0.500000 0.853725
O O16 0.750000 0.250000 0.000000
#
# Coordination Sequence:
#
# PCOD9191337 Si02
#       6
#     8   8   8   8   8   8
#     4   8  13  21  33  50  75 108 143 177 215 261
#     4   9  16  25  38  57  82 112 145 181 221 265
#     4   9  16  25  38  57  82 112 145 181 221 265
#     4  10  20  33  49  68  91 120 153 189 229 272
#     4   8  13  21  33  50  75 108 143 177 215 261
#     4  10  20  33  49  68  91 120 153 189 229 272
#
# _framework density 21.732727000000001
#
# number of rings (size 3 to 8) (size 9 to 14) (size 15 to 20)
#    0.000    3.000    0.000    3.000    0.000    6.667 
#    0.000    3.333    0.000    0.000    0.000    0.000 
#    0.000    1.333    0.000   14.000    0.000   19.333 
#
# Total GULP energy -134074.448659 kJ/mol
# GULP energy per Si atom -5586.435361 kJ/mol
# Density = 2.168326 g / cm^3
# Si number density = 21.732727 Si / 1000 Ang^3
#
#
#
# Elastic Constant Matrix: (Units=GPa)
#
#
# Indices 1 2 3 4 5 6 
#
# 1 233.6762 3.9809 161.1884 0.0000 -7.6471 0.0000
# 2 3.9809 85.5310 7.9967 0.0000 -1.5426 0.0000
# 3 161.1884 7.9967 237.4471 0.0000 6.1984 0.0000
# 4 0.0000 0.0000 0.0000 -2.8181 0.0000 2.9217
# 5 -7.6471 -1.5426 6.1984 0.0000 40.8790 0.0000
# 6 0.0000 0.0000 0.0000 2.9217 0.0000 4.7876
#
#
#
# Elastic Compliance Matrix: (Units=1/GPa)
#
#
# Indices 1 2 3 4 5 6 
#
# 1 0.008281 0.000190 -0.005691 0.000000 0.002419 0.000000
# 2 0.000190 0.011743 -0.000539 0.000000 0.000561 0.000000
# 3 -0.005691 -0.000539 0.008153 0.000000 -0.002321 0.000000
# 4 0.000000 0.000000 0.000000 -0.217340 0.000000 0.132634
# 5 0.002419 0.000561 -0.002321 0.000000 0.025288 0.000000
# 6 0.000000 0.000000 0.000000 0.132634 0.000000 0.127933
#
#
# Mechanical properties :
#
#
# Convention : Reuss Voigt Hill
#
# Bulk Modulus (GPa) = 62.12037 100.33183 81.22610
# Shear Modulus (GPa) = -270.34507 34.13559 -118.10474
#
# Velocity S-wave (km/s) = -11.16537 3.96750 -7.37985
# Velocity P-wave (km/s) = 11.72923 8.20089 5.92959
#
# Compressibility (1/GPa) = 0.01609778
#
# Stress axis : x y z
#
# Youngs Moduli (GPa) = 120.75875 85.15463 122.64672
#
# Poissons Ratio (x) = -0.01620 0.69798
# Poissons Ratio (y) = -0.02298 0.06614
# Poissons Ratio (z) = 0.68724 0.04592
#
# Static dielectric constant tensor:
#      x y z
#    x 1.738330 0.000000 0.002230 
#    y 0.000000 1.973240 0.000000 
#    z 0.002230 0.000000 1.732530 
# 
# From -- ./inp_files/102033.got.cif
#   From: 2010.05.17/outbox.cif.g08.bks.cpg/sg12_52_cif.got.tgz:102033.got - 2010.06.03 13:09:07.
