data_PCOD9191648
_publ_section_title
;
Structure prediction by ZEFSAII (Michael W. Deem and Ramdas Pophale) SiO2 
 PCOD9191648
Probable space group: C 2/M
;
_chemical_formula_sum "Si O2"
_cell_formula_units_Z 64
_cell_length_a 20.798439
_cell_length_b 33.919582
_cell_length_c 17.150789
_cell_angle_alpha 90.000000
_cell_angle_beta 160.332564
_cell_angle_gamma 90.000000
_cell_volume 4072.189601
_symmetry_space_group_name_H-M "C 2/M"
_symmetry_group_IT_number 12
_symmetry_cell_setting 'monoclinic'
loop_
_space_group_symop_operation_xyz
x,y,z
-x,y,-z
-x,-y,-z
x,-y,z
1/2+x,1/2+y,z
1/2-x,1/2+y,-z
1/2-x,1/2-y,-z
1/2+x,1/2-y,z
loop_
_atom_site_type_symbol
_atom_site_label
_atom_site_fract_x
_atom_site_fract_y
_atom_site_fract_z
Si Si1 0.340774 0.250647 0.761830
Si Si2 0.925619 0.544384 0.326084
Si Si3 0.143017 0.111739 0.042641
Si Si4 0.370506 0.234585 0.044632
Si Si5 0.010838 0.193332 0.426673
Si Si6 0.781318 0.392662 0.374063
Si Si7 0.370387 0.181826 0.568232
Si Si8 0.521042 0.322476 0.783173
O O1 0.468569 0.234192 0.838067
O O2 0.204857 0.284557 0.575733
O O3 0.211055 0.216409 0.648772
O O4 0.500000 0.268596 0.000000
O O5 0.888324 0.500000 0.255419
O O6 0.744373 0.573609 0.120957
O O7 0.000000 0.541454 0.500000
O O8 0.097920 0.567489 0.481372
O O9 0.254552 0.119191 0.252075
O O10 0.130859 0.147451 0.966469
O O11 0.927206 0.103651 0.825373
O O12 0.438155 0.198883 0.176638
O O13 0.398853 0.277720 0.114998
O O14 0.161306 0.225435 0.773835
O O15 0.986836 0.169033 0.318539
O O16 0.000000 0.173867 0.500000
O O17 0.889610 0.358281 0.543384
O O18 0.196938 0.177802 0.432516
#
# Coordination Sequence:
#
# PCOD9191648 Si02
#       8
#     8   8   8   8   8   8   8   8
#     4  11  21  35  47  65  93 126 172 215 248 288
#     4   9  18  33  50  71 100 130 159 192 238 295
#     4   9  19  32  49  71  99 131 161 204 239 286
#     4  11  21  34  50  65  94 131 169 211 253 289
#     4  12  23  33  48  67  88 128 171 206 251 293
#     4   9  19  31  48  75  98 126 169 197 241 284
#     4  10  20  33  51  69  96 133 163 211 253 280
#     4  10  20  35  48  67  98 126 167 208 248 286
#
# _framework density 15.716360999999999
#
# number of rings (size 3 to 8) (size 9 to 14) (size 15 to 20)
#    0.000    1.875    3.750    1.125    7.000    0.500 
#    0.000    3.750    0.000    0.000    0.000    0.000 
#    0.000    0.500    0.000    3.250    0.000    0.125 
#
# Total GULP energy -178332.691083 kJ/mol
# GULP energy per Si atom -5572.896596 kJ/mol
# Density = 1.568059 g / cm^3
# Si number density = 15.716361 Si / 1000 Ang^3
#
#
#
# Elastic Constant Matrix: (Units=GPa)
#
#
# Indices 1 2 3 4 5 6 
#
# 1 77.2548 41.4066 21.9258 0.0001 -9.5952 0.0001
# 2 41.4066 72.8903 16.7626 -0.0003 2.3601 0.0000
# 3 21.9258 16.7626 51.3997 0.0014 2.1347 0.0014
# 4 0.0001 -0.0003 0.0014 16.5957 0.0005 0.0942
# 5 -9.5952 2.3601 2.1347 0.0005 20.2356 0.0005
# 6 0.0001 0.0000 0.0014 0.0942 0.0005 12.4172
#
#
#
# Elastic Compliance Matrix: (Units=1/GPa)
#
#
# Indices 1 2 3 4 5 6 
#
# 1 0.022682 -0.011840 -0.006346 0.000000 0.012805 0.000000
# 2 -0.011840 0.021042 -0.001483 0.000001 -0.007912 0.000001
# 3 -0.006346 -0.001483 0.022864 -0.000002 -0.005248 -0.000002
# 4 0.000000 0.000001 -0.000002 0.060259 -0.000001 -0.000457
# 5 0.012805 -0.007912 -0.005248 -0.000001 0.056966 -0.000002
# 6 0.000000 0.000001 -0.000002 -0.000457 -0.000002 0.080537
#
#
# Mechanical properties :
#
#
# Convention : Reuss Voigt Hill
#
# Bulk Modulus (GPa) = 36.69740 40.19277 38.44508
# Shear Modulus (GPa) = 15.98610 17.94635 16.96622
#
# Velocity S-wave (km/s) = 3.19276 3.38285 3.28918
# Velocity P-wave (km/s) = 6.08211 6.39434 6.24018
#
# Compressibility (1/GPa) = 0.02724989
#
# Stress axis : x y z
#
# Youngs Moduli (GPa) = 44.08866 47.52313 43.73683
#
# Poissons Ratio (x) = 0.56267 0.27755
# Poissons Ratio (y) = 0.52201 0.06487
# Poissons Ratio (z) = 0.27978 0.07049
#
# Static dielectric constant tensor:
#      x y z
#    x 1.608650 0.000000 -0.001760 
#    y 0.000000 1.502530 0.000000 
#    z -0.001760 0.000000 1.550340 
# 
# From -- ./inp_files/286795.got.cif
#   From: 2010.05.17/outbox.cif.g08.bks.cpg/sg12_144_cif.got.tgz:286795.got - 2010.06.03 13:09:07.
