data_PCOD9191535
_publ_section_title
;
Structure prediction by ZEFSAII (Michael W. Deem and Ramdas Pophale) SiO2 
 PCOD9191535
Probable space group: C 2/M
;
_chemical_formula_sum "Si O2"
_cell_formula_units_Z 64
_cell_length_a 12.987121
_cell_length_b 21.023231
_cell_length_c 22.458553
_cell_angle_alpha 90.000000
_cell_angle_beta 37.400773
_cell_angle_gamma 90.000000
_cell_volume 3724.425542
_symmetry_space_group_name_H-M "C 2/M"
_symmetry_group_IT_number 12
_symmetry_cell_setting 'monoclinic'
loop_
_space_group_symop_operation_xyz
x,y,z
-x,y,-z
-x,-y,-z
x,-y,z
1/2+x,1/2+y,z
1/2-x,1/2+y,-z
1/2-x,1/2-y,-z
1/2+x,1/2-y,z
loop_
_atom_site_type_symbol
_atom_site_label
_atom_site_fract_x
_atom_site_fract_y
_atom_site_fract_z
Si Si1 0.655334 0.928164 0.174383
Si Si2 0.091614 0.168031 0.897703
Si Si3 0.694679 0.312454 0.063369
Si Si4 0.431441 0.926244 0.923021
Si Si5 0.893985 0.234322 0.763708
Si Si6 0.659866 0.161547 0.652582
Si Si7 0.900562 0.931274 0.483139
Si Si8 0.298109 0.374233 0.717576
O O1 0.824369 0.898438 0.123052
O O2 0.654287 0.924744 0.103193
O O3 0.497611 0.886371 0.267565
O O4 0.630230 0.000000 0.204121
O O5 0.244832 0.216250 0.815293
O O6 0.964732 0.162600 0.901362
O O7 0.000000 0.192159 0.000000
O O8 0.640692 0.288805 0.153078
O O9 0.750000 0.250000 0.000000
O O10 0.836556 0.368471 0.000846
O O11 0.628127 0.907359 0.821171
O O12 0.418869 0.000000 0.950868
O O13 0.870487 0.176475 0.730107
O O14 0.073550 0.271002 0.678623
O O15 0.779629 0.129553 0.547865
O O16 0.749036 0.158888 0.676693
O O17 0.000000 0.934595 0.500000
O O18 0.048584 0.921676 0.367470
O O19 0.813222 0.000000 0.514939
#
# Coordination Sequence:
#
# PCOD9191535 Si02
#       8
#     8   8   8   8   8   8   8   8
#     4   9  17  30  49  74 100 124 157 216 273 307
#     4  11  19  31  48  72  95 130 176 214 255 304
#     4  12  21  34  51  72 102 141 185 217 254 307
#     4  10  20  33  50  73 103 136 177 219 255 302
#     4  11  22  33  50  72 105 141 174 215 257 308
#     4   9  18  34  52  79 102 126 166 215 265 317
#     4   9  17  32  57  80 101 128 163 211 268 324
#     4  10  20  34  51  76 104 136 168 212 267 312
#
# _framework density 17.183857
#
# number of rings (size 3 to 8) (size 9 to 14) (size 15 to 20)
#    0.000    1.875    2.500    3.750    0.000    4.250 
#    0.000    1.875    0.000    0.000    0.000    0.000 
#    0.000   10.000    0.000    0.000    0.000    0.000 
#
# Total GULP energy -178335.258975 kJ/mol
# GULP energy per Si atom -5572.976843 kJ/mol
# Density = 1.714475 g / cm^3
# Si number density = 17.183857 Si / 1000 Ang^3
#
#
#
# Elastic Constant Matrix: (Units=GPa)
#
#
# Indices 1 2 3 4 5 6 
#
# 1 55.1000 36.5937 30.0527 -0.0004 -4.4509 0.0006
# 2 36.5937 109.7372 37.9839 0.0036 1.8061 -0.0004
# 3 30.0527 37.9839 66.9208 0.0116 -6.3290 -0.0012
# 4 -0.0004 0.0036 0.0116 20.8128 -0.0018 -5.3154
# 5 -4.4509 1.8061 -6.3290 -0.0018 11.9016 -0.0019
# 6 0.0006 -0.0004 -0.0012 -5.3154 -0.0019 3.4062
#
#
#
# Elastic Compliance Matrix: (Units=1/GPa)
#
#
# Indices 1 2 3 4 5 6 
#
# 1 0.027353 -0.006488 -0.007940 0.000009 0.006992 0.000010
# 2 -0.006488 0.013221 -0.005275 -0.000002 -0.007238 -0.000006
# 3 -0.007940 -0.005275 0.022426 -0.000012 0.009757 -0.000005
# 4 0.000009 -0.000002 -0.000012 0.079883 0.000029 0.124657
# 5 0.006992 -0.007238 0.009757 0.000029 0.092924 0.000098
# 6 0.000010 -0.000006 -0.000005 0.124657 0.000098 0.488105
#
#
# Mechanical properties :
#
#
# Convention : Reuss Voigt Hill
#
# Bulk Modulus (GPa) = 42.38427 49.00206 45.69317
# Shear Modulus (GPa) = 6.48354 15.69931 11.09143
#
# Velocity S-wave (km/s) = 1.94454 3.02587 2.54334
# Velocity P-wave (km/s) = 5.45531 6.38640 5.93913
#
# Compressibility (1/GPa) = 0.02359366
#
# Stress axis : x y z
#
# Youngs Moduli (GPa) = 36.55882 75.63524 44.59204
#
# Poissons Ratio (x) = 0.49074 0.35405
# Poissons Ratio (y) = 0.23720 0.23523
# Poissons Ratio (z) = 0.29027 0.39899
#
# Static dielectric constant tensor:
#      x y z
#    x 1.567560 0.000000 -0.020460 
#    y 0.000000 1.641300 0.000000 
#    z -0.020460 0.000000 1.602880 
# 
# From -- ./inp_files/135917.got.cif
#   From: 2010.05.17/outbox.cif.g08.bks.cpg/sg12_68_cif.got.tgz:135917.got - 2010.06.03 13:09:07.
