data_PCOD9191826
_publ_section_title
;
Structure prediction by ZEFSAII (Michael W. Deem and Ramdas Pophale) SiO2 
 PCOD9191826
Probable space group: C 2/M
;
_chemical_formula_sum "Si O2"
_cell_formula_units_Z 56
_cell_length_a 8.589520
_cell_length_b 21.917782
_cell_length_c 14.116377
_cell_angle_alpha 90.000000
_cell_angle_beta 116.497935
_cell_angle_gamma 90.000000
_cell_volume 2378.415540
_symmetry_space_group_name_H-M "C 2/M"
_symmetry_group_IT_number 12
_symmetry_cell_setting 'monoclinic'
loop_
_space_group_symop_operation_xyz
x,y,z
-x,y,-z
-x,-y,-z
x,-y,z
1/2+x,1/2+y,z
1/2-x,1/2+y,-z
1/2-x,1/2-y,-z
1/2+x,1/2-y,z
loop_
_atom_site_type_symbol
_atom_site_label
_atom_site_fract_x
_atom_site_fract_y
_atom_site_fract_z
Si Si1 0.807171 0.315110 0.924146
Si Si2 0.185337 0.883230 0.065667
Si Si3 0.923004 0.432279 0.840464
Si Si4 0.780340 0.775040 0.300500
Si Si5 0.893736 0.624855 0.642326
Si Si6 0.073479 0.127707 0.429299
Si Si7 0.730910 0.363633 0.293670
O O1 0.720656 0.278952 0.814033
O O2 0.840034 0.381809 0.885611
O O3 0.707199 0.328780 0.994427
O O4 0.000000 0.291167 0.000000
O O5 0.368591 0.919351 0.108380
O O6 0.172157 0.861601 0.170008
O O7 0.000000 0.915772 0.000000
O O8 0.890064 0.500000 0.865292
O O9 0.847019 0.422149 0.713755
O O10 0.614584 0.812422 0.297963
O O11 0.764469 0.706622 0.331519
O O12 0.945127 0.813906 0.383638
O O13 0.768002 0.637209 0.520708
O O14 0.080636 0.606287 0.655799
O O15 0.097566 0.105153 0.329382
O O16 0.000000 0.091139 0.500000
#
# Coordination Sequence:
#
# PCOD9191826 Si02
#       7
#     8   8   8   8   8   8   8
#     4   9  19  35  54  78 108 144 182 217 264 322
#     4  10  21  34  52  81 113 143 178 224 272 315
#     4   9  19  38  61  81 104 138 182 226 272 331
#     4  10  20  33  51  78 110 146 186 220 258 316
#     4   9  20  35  53  79 106 137 181 228 271 320
#     4  10  21  34  52  73 103 141 179 225 271 312
#     4  11  21  33  51  77 111 149 185 220 263 318
#
# _framework density 23.545086999999999
#
# number of rings (size 3 to 8) (size 9 to 14) (size 15 to 20)
#    0.000    2.286    0.000    3.000    0.000   10.286 
#    0.000    0.000    0.000   17.571    0.000    0.000 
#    0.000    0.000    0.000    0.000    0.000    0.000 
#
# Total GULP energy -156174.094108 kJ/mol
# GULP energy per Si atom -5577.646218 kJ/mol
# Density = 2.349150 g / cm^3
# Si number density = 23.545087 Si / 1000 Ang^3
#
#
#
# Elastic Constant Matrix: (Units=GPa)
#
#
# Indices 1 2 3 4 5 6 
#
# 1 104.8883 -2.6844 50.4826 0.0000 -29.0678 0.0000
# 2 -2.6844 37.4602 6.2555 0.0000 -0.3426 0.0000
# 3 50.4826 6.2555 137.0423 0.0000 -5.0538 0.0000
# 4 0.0000 0.0000 0.0000 3.8173 0.0000 -0.9121
# 5 -29.0678 -0.3426 -5.0538 0.0000 59.0103 0.0000
# 6 0.0000 0.0000 0.0000 -0.9121 0.0000 6.3759
#
#
#
# Elastic Compliance Matrix: (Units=1/GPa)
#
#
# Indices 1 2 3 4 5 6 
#
# 1 0.013694 0.001857 -0.004895 0.000000 0.006337 0.000000
# 2 0.001857 0.027152 -0.001890 0.000000 0.000910 0.000000
# 3 -0.004895 -0.001890 0.009126 0.000000 -0.001641 0.000000
# 4 0.000000 0.000000 0.000000 0.271236 0.000000 0.038802
# 5 0.006337 0.000910 -0.001641 0.000000 0.019932 0.000000
# 6 0.000000 0.000000 0.000000 0.038802 0.000000 0.162392
#
#
# Mechanical properties :
#
#
# Convention : Reuss Voigt Hill
#
# Bulk Modulus (GPa) = 24.92841 43.05534 33.99188
# Shear Modulus (GPa) = 9.49197 28.86317 19.17757
#
# Velocity S-wave (km/s) = 2.01001 3.50504 2.85705
# Velocity P-wave (km/s) = 3.99967 5.89122 5.03507
#
# Compressibility (1/GPa) = 0.04011487
#
# Stress axis : x y z
#
# Youngs Moduli (GPa) = 73.02554 36.82979 109.57546
#
# Poissons Ratio (x) = -0.06838 0.53643
# Poissons Ratio (y) = -0.13559 0.20707
# Poissons Ratio (z) = 0.35750 0.06960
#
# Static dielectric constant tensor:
#      x y z
#    x 2.000480 0.000000 -0.004700 
#    y 0.000000 1.882000 0.000000 
#    z -0.004700 0.000000 1.933160 
# 
# From -- ./inp_files/198982.got.cif
#   From: 2010.05.17/outbox.cif.g08.bks.cpg/sg12_100_cif.got.tgz:198982.got - 2010.06.03 13:09:07.
