data_PCOD9191358
_publ_section_title
;
Structure prediction by ZEFSAII (Michael W. Deem and Ramdas Pophale) SiO2 
 PCOD9191358
Probable space group: C 2/M
;
_chemical_formula_sum "Si O2"
_cell_formula_units_Z 56
_cell_length_a 30.706023
_cell_length_b 7.957537
_cell_length_c 19.790329
_cell_angle_alpha 90.000000
_cell_angle_beta 142.725738
_cell_angle_gamma 90.000000
_cell_volume 2928.622200
_symmetry_space_group_name_H-M "C 2/M"
_symmetry_group_IT_number 12
_symmetry_cell_setting 'monoclinic'
loop_
_space_group_symop_operation_xyz
x,y,z
-x,y,-z
-x,-y,-z
x,-y,z
1/2+x,1/2+y,z
1/2-x,1/2+y,-z
1/2-x,1/2-y,-z
1/2+x,1/2-y,z
loop_
_atom_site_type_symbol
_atom_site_label
_atom_site_fract_x
_atom_site_fract_y
_atom_site_fract_z
Si Si1 0.669688 0.304452 0.456169
Si Si2 0.011160 0.300244 0.300821
Si Si3 0.465215 0.702507 0.526392
Si Si4 0.966952 0.697749 0.105003
Si Si5 0.125039 0.801624 0.259992
Si Si6 0.155336 0.199445 0.148372
Si Si7 0.194723 0.796528 0.631994
O O1 0.689637 0.500000 0.475636
O O2 0.585550 0.293067 0.374238
O O3 0.668651 0.229387 0.379021
O O4 0.706101 0.230505 0.568622
O O5 0.025435 0.500000 0.317036
O O6 0.991751 0.251835 0.352862
O O7 0.958103 0.259394 0.173482
O O8 0.500000 0.765136 0.500000
O O9 0.463188 0.500000 0.520934
O O10 0.382858 0.760562 0.436602
O O11 0.981929 0.500000 0.119488
O O12 0.040011 0.784670 0.169799
O O13 0.899146 0.735673 0.974959
O O14 0.138166 0.728219 0.202028
O O15 0.141775 0.000000 0.279056
O O16 0.238751 0.240966 0.240675
O O17 0.145386 0.000000 0.138786
O O18 0.193426 0.000000 0.626883
#
# Coordination Sequence:
#
# PCOD9191358 Si02
#       7
#     8   8   8   8   8   8   8
#     4   8  15  30  49  66  91 128 163 197 240 287
#     4   9  17  29  48  75 100 122 153 196 241 279
#     4   9  18  34  57  81 101 123 151 185 233 294
#     4  10  20  33  49  69  95 129 169 207 240 278
#     4   9  18  32  48  68  94 126 168 211 245 279
#     4  11  22  32  45  67  97 133 168 204 243 281
#     4   9  18  32  49  70  97 127 157 191 236 290
#
# _framework density 19.121618999999999
#
# number of rings (size 3 to 8) (size 9 to 14) (size 15 to 20)
#    0.000    2.714    0.000    2.571    0.000    7.714 
#    0.000    0.000    0.000    0.857    0.000    0.000 
#    0.000    0.000    0.000    0.000    0.000    0.000 
#
# Total GULP energy -156087.363707 kJ/mol
# GULP energy per Si atom -5574.548704 kJ/mol
# Density = 1.907810 g / cm^3
# Si number density = 19.121619 Si / 1000 Ang^3
#
#
#
# Elastic Constant Matrix: (Units=GPa)
#
#
# Indices 1 2 3 4 5 6 
#
# 1 101.6928 11.2244 49.7168 0.0000 -25.5576 0.0000
# 2 11.2244 26.5345 1.4055 0.0000 -5.4280 0.0000
# 3 49.7168 1.4055 136.1937 0.0000 -18.1867 0.0000
# 4 0.0000 0.0000 0.0000 20.7689 0.0000 -10.6195
# 5 -25.5576 -5.4280 -18.1867 0.0000 21.6584 0.0000
# 6 0.0000 0.0000 0.0000 -10.6195 0.0000 -21.6506
#
#
#
# Elastic Compliance Matrix: (Units=1/GPa)
#
#
# Indices 1 2 3 4 5 6 
#
# 1 0.015698 -0.003476 -0.003759 0.000000 0.014497 0.000000
# 2 -0.003476 0.040623 0.001871 0.000000 0.007650 0.000000
# 3 -0.003759 0.001871 0.009197 0.000000 0.003756 0.000000
# 4 0.000000 0.000000 0.000000 0.038495 0.000000 -0.018881
# 5 0.014497 0.007650 0.003756 0.000000 0.068350 0.000000
# 6 0.000000 0.000000 0.000000 -0.018881 0.000000 -0.036927
#
#
# Mechanical properties :
#
#
# Convention : Reuss Voigt Hill
#
# Bulk Modulus (GPa) = 18.25108 43.23492 30.74300
# Shear Modulus (GPa) = 30.40876 17.62696 24.01786
#
# Velocity S-wave (km/s) = 3.99216 3.03947 3.54794
# Velocity P-wave (km/s) = 5.55115 5.91417 5.73553
#
# Compressibility (1/GPa) = 0.05479127
#
# Stress axis : x y z
#
# Youngs Moduli (GPa) = 63.70125 24.61654 108.73235
#
# Poissons Ratio (x) = 0.08557 0.40871
# Poissons Ratio (y) = 0.22142 -0.20347
# Poissons Ratio (z) = 0.23944 -0.04606
#
# Static dielectric constant tensor:
#      x y z
#    x 1.687290 0.000000 -0.031430 
#    y 0.000000 1.684460 0.000000 
#    z -0.031430 0.000000 1.695490 
# 
# From -- ./inp_files/281010.got.cif
#   From: 2010.05.17/outbox.cif.g08.bks.cpg/sg12_141_cif.got.tgz:281010.got - 2010.06.03 13:09:07.
