data_PCOD9191966
_publ_section_title
;
Structure prediction by ZEFSAII (Michael W. Deem and Ramdas Pophale) SiO2 
 PCOD9191966
Probable space group: C 2/M
;
_chemical_formula_sum "Si O2"
_cell_formula_units_Z 56
_cell_length_a 33.146447
_cell_length_b 8.863346
_cell_length_c 12.941440
_cell_angle_alpha 90.000000
_cell_angle_beta 55.655146
_cell_angle_gamma 90.000000
_cell_volume 3139.184895
_symmetry_space_group_name_H-M "C 2/M"
_symmetry_group_IT_number 12
_symmetry_cell_setting 'monoclinic'
loop_
_space_group_symop_operation_xyz
x,y,z
-x,y,-z
-x,-y,-z
x,-y,z
1/2+x,1/2+y,z
1/2-x,1/2+y,-z
1/2-x,1/2-y,-z
1/2+x,1/2-y,z
loop_
_atom_site_type_symbol
_atom_site_label
_atom_site_fract_x
_atom_site_fract_y
_atom_site_fract_z
Si Si1 0.392429 0.181919 0.555217
Si Si2 0.522834 0.680056 0.077514
Si Si3 0.687826 0.181882 0.495154
Si Si4 0.000716 0.680082 0.675546
Si Si5 0.865218 0.180123 0.033926
Si Si6 0.707321 0.819681 0.698690
Si Si7 0.397848 0.319326 0.761980
O O1 0.191313 0.500000 0.486091
O O2 0.356995 0.228195 0.512811
O O3 0.448339 0.225645 0.450061
O O4 0.377261 0.252522 0.686054
O O5 0.516764 0.500000 0.105439
O O6 0.498545 0.771488 0.205706
O O7 0.500000 0.716245 0.000000
O O8 0.580774 0.711315 0.998151
O O9 0.683290 0.224573 0.622571
O O10 0.738453 0.250955 0.381587
O O11 0.608958 0.000000 0.435190
O O12 0.995330 0.500000 0.673375
O O13 0.953069 0.758510 0.696644
O O14 0.824648 0.260481 0.160562
O O15 0.857463 0.000000 0.049606
O O16 0.868787 0.225251 0.908162
O O17 0.710401 0.000000 0.697529
O O18 0.399078 0.500000 0.756510
#
# Coordination Sequence:
#
# PCOD9191966 Si02
#       7
#     8   8   8   8   8   8   8
#     4  10  21  36  55  79 109 142 179 223 270 317
#     4   9  19  34  50  75 110 144 181 221 261 313
#     4   9  20  38  56  78 110 140 170 218 272 319
#     4  10  20  33  52  78 109 145 181 218 266 318
#     4   9  19  35  54  75 105 143 175 213 269 317
#     4  10  20  35  58  83 106 135 177 220 264 323
#     4  10  21  37  55  78 109 144 184 223 261 315
#
# _framework density 17.839026
#
# number of rings (size 3 to 8) (size 9 to 14) (size 15 to 20)
#    0.000    2.429    0.000    2.571    2.000    7.143 
#    0.000    0.714    0.000    0.000    0.000    0.000 
#    0.000    0.000    0.000    0.000    0.000    0.000 
#
# Total GULP energy -156251.140426 kJ/mol
# GULP energy per Si atom -5580.397872 kJ/mol
# Density = 1.779842 g / cm^3
# Si number density = 17.839026 Si / 1000 Ang^3
#
#
#
# Elastic Constant Matrix: (Units=GPa)
#
#
# Indices 1 2 3 4 5 6 
#
# 1 57.4775 16.6639 47.7352 0.0000 11.4473 0.0000
# 2 16.6639 15.7733 30.1911 0.0000 -1.0083 0.0000
# 3 47.7352 30.1911 123.4417 0.0000 -4.3078 0.0000
# 4 0.0000 0.0000 0.0000 31.5958 0.0000 2.5120
# 5 11.4473 -1.0083 -4.3078 0.0000 16.2496 0.0000
# 6 0.0000 0.0000 0.0000 2.5120 0.0000 25.9767
#
#
#
# Elastic Compliance Matrix: (Units=1/GPa)
#
#
# Indices 1 2 3 4 5 6 
#
# 1 0.039348 -0.023227 -0.010651 0.000000 -0.031984 0.000000
# 2 -0.023227 0.132912 -0.022878 0.000000 0.018545 0.000000
# 3 -0.010651 -0.022878 0.018196 0.000000 0.010908 0.000000
# 4 0.000000 0.000000 0.000000 0.031895 0.000000 -0.003084
# 5 -0.031984 0.018545 0.010908 0.000000 0.088114 0.000000
# 6 0.000000 0.000000 0.000000 -0.003084 0.000000 0.038794
#
#
# Mechanical properties :
#
#
# Convention : Reuss Voigt Hill
#
# Bulk Modulus (GPa) = 12.99660 42.87477 27.93569
# Shear Modulus (GPa) = 10.23708 21.57124 15.90416
#
# Velocity S-wave (km/s) = 2.39813 3.48115 2.98910
# Velocity P-wave (km/s) = 3.86903 6.34384 5.25422
#
# Compressibility (1/GPa) = 0.07694322
#
# Stress axis : x y z
#
# Youngs Moduli (GPa) = 25.41417 7.52377 54.95690
#
# Poissons Ratio (x) = 0.17475 0.58537
# Poissons Ratio (y) = 0.59029 1.25732
# Poissons Ratio (z) = 0.27070 0.17213
#
# Static dielectric constant tensor:
#      x y z
#    x 1.600480 0.000000 0.019670 
#    y 0.000000 1.596020 0.000000 
#    z 0.019670 0.000000 1.598760 
# 
# From -- ./inp_files/187250.got.cif
#   From: 2010.05.17/outbox.cif.g08.bks.cpg/sg12_94_cif.got.tgz:187250.got - 2010.06.03 13:09:07.
