data_PCOD9191825
_publ_section_title
;
Structure prediction by ZEFSAII (Michael W. Deem and Ramdas Pophale) SiO2 
 PCOD9191825
Probable space group: C 2/M
;
_chemical_formula_sum "Si O2"
_cell_formula_units_Z 48
_cell_length_a 28.184334
_cell_length_b 7.475028
_cell_length_c 15.036932
_cell_angle_alpha 90.000000
_cell_angle_beta 140.053524
_cell_angle_gamma 90.000000
_cell_volume 2034.058194
_symmetry_space_group_name_H-M "C 2/M"
_symmetry_group_IT_number 12
_symmetry_cell_setting 'monoclinic'
loop_
_space_group_symop_operation_xyz
x,y,z
-x,y,-z
-x,-y,-z
x,-y,z
1/2+x,1/2+y,z
1/2-x,1/2+y,-z
1/2-x,1/2-y,-z
1/2+x,1/2-y,z
loop_
_atom_site_type_symbol
_atom_site_label
_atom_site_fract_x
_atom_site_fract_y
_atom_site_fract_z
Si Si1 0.368777 0.713625 0.166577
Si Si2 0.929696 0.719142 0.841379
Si Si3 0.024707 0.296388 0.441901
Si Si4 0.228341 0.715476 0.310986
Si Si5 0.757800 0.212847 0.155778
Si Si6 0.886199 0.287870 0.589041
O O1 0.376800 0.500000 0.183559
O O2 0.449286 0.796450 0.276867
O O3 0.326023 0.779944 0.193993
O O4 0.315323 0.755369 0.007818
O O5 0.930223 0.500000 0.841683
O O6 0.851571 0.776862 0.771153
O O7 0.928328 0.779258 0.736744
O O8 0.000000 0.776681 0.000000
O O9 0.047819 0.500000 0.496115
O O10 0.085630 0.211840 0.464909
O O11 0.000000 0.210902 0.500000
O O12 0.224554 0.500000 0.302012
O O13 0.247141 0.784794 0.239090
O O14 0.298623 0.762648 0.472155
O O15 0.768192 0.000000 0.177618
O O16 0.900506 0.500000 0.604774
#
# Coordination Sequence:
#
# PCOD9191825 Si02
#       6
#     8   8   8   8   8   8
#     4  10  20  33  51  78 110 143 182 229 274 317
#     4   9  19  35  57  84 108 139 186 229 271 326
#     4  10  21  35  53  78 109 147 187 222 266 324
#     4  10  20  35  59  83 108 143 182 227 275 326
#     4   9  19  34  53  78 107 144 183 220 271 329
#     4  10  21  36  57  82 111 147 183 226 274 323
#
# _framework density 23.598144000000001
#
# number of rings (size 3 to 8) (size 9 to 14) (size 15 to 20)
#    0.000    2.333    0.000    2.000    2.333    2.333 
#    0.000    0.000    0.000    1.000    0.000    0.000 
#    0.000    0.000    0.000    0.000    0.000    0.000 
#
# Total GULP energy -134152.443306 kJ/mol
# GULP energy per Si atom -5589.685138 kJ/mol
# Density = 2.354443 g / cm^3
# Si number density = 23.598144 Si / 1000 Ang^3
#
#
#
# Elastic Constant Matrix: (Units=GPa)
#
#
# Indices 1 2 3 4 5 6 
#
# 1 129.4552 5.3436 71.2506 0.0000 -5.5981 0.0000
# 2 5.3436 64.3276 -3.8708 0.0000 -5.5323 0.0000
# 3 71.2506 -3.8708 133.3935 0.0000 4.2351 0.0000
# 4 0.0000 0.0000 0.0000 15.6979 0.0000 10.1606
# 5 -5.5981 -5.5323 4.2351 0.0000 41.8510 0.0000
# 6 0.0000 0.0000 0.0000 10.1606 0.0000 -8.2349
#
#
#
# Elastic Compliance Matrix: (Units=1/GPa)
#
#
# Indices 1 2 3 4 5 6 
#
# 1 0.011202 -0.001127 -0.006078 0.000000 0.001964 0.000000
# 2 -0.001127 0.015858 0.001004 0.000000 0.001844 0.000000
# 3 -0.006078 0.001004 0.010829 0.000000 -0.001776 0.000000
# 4 0.000000 0.000000 0.000000 0.035418 0.000000 0.043700
# 5 0.001964 0.001844 -0.001776 0.000000 0.024581 0.000000
# 6 0.000000 0.000000 0.000000 0.043700 0.000000 -0.067515
#
#
# Mechanical properties :
#
#
# Convention : Reuss Voigt Hill
#
# Bulk Modulus (GPa) = 39.23909 52.51366 45.87638
# Shear Modulus (GPa) = 97.52321 26.82632 62.17477
#
# Velocity S-wave (km/s) = 6.43555 3.37530 5.13853
# Velocity P-wave (km/s) = 8.47856 6.12306 7.39519
#
# Compressibility (1/GPa) = 0.02548479
#
# Stress axis : x y z
#
# Youngs Moduli (GPa) = 89.27329 63.05942 92.34664
#
# Poissons Ratio (x) = 0.07109 0.56131
# Poissons Ratio (y) = 0.10064 -0.09269
# Poissons Ratio (z) = 0.54263 -0.06330
#
# Static dielectric constant tensor:
#      x y z
#    x 1.916960 0.000000 -0.022610 
#    y 0.000000 1.873940 0.000000 
#    z -0.022610 0.000000 1.860080 
# 
# From -- ./inp_files/244602.got.cif
#   From: 2010.05.17/outbox.cif.g08.bks.cpg/sg12_123_cif.got.tgz:244602.got - 2010.06.03 13:09:07.
