data_PCOD9191032
_publ_section_title
;
Structure prediction by ZEFSAII (Michael W. Deem and Ramdas Pophale) SiO2 
 PCOD9191032
Probable space group: C 2/M
;
_chemical_formula_sum "Si O2"
_cell_formula_units_Z 64
_cell_length_a 21.075851
_cell_length_b 24.145724
_cell_length_c 17.612764
_cell_angle_alpha 90.000000
_cell_angle_beta 160.597789
_cell_angle_gamma 90.000000
_cell_volume 2977.482834
_symmetry_space_group_name_H-M "C 2/M"
_symmetry_group_IT_number 12
_symmetry_cell_setting 'monoclinic'
loop_
_space_group_symop_operation_xyz
x,y,z
-x,y,-z
-x,-y,-z
x,-y,z
1/2+x,1/2+y,z
1/2-x,1/2+y,-z
1/2-x,1/2-y,-z
1/2+x,1/2-y,z
loop_
_atom_site_type_symbol
_atom_site_label
_atom_site_fract_x
_atom_site_fract_y
_atom_site_fract_z
Si Si1 0.428573 0.902651 0.639055
Si Si2 0.415123 0.935451 0.792189
Si Si3 0.699986 0.567934 0.693234
Si Si4 0.071087 0.297301 0.871211
Si Si5 0.531568 0.642479 0.123117
Si Si6 0.958764 0.255404 0.325869
Si Si7 0.612758 0.881844 0.704103
Si Si8 0.870860 0.727463 0.787640
O O1 0.384948 0.933119 0.668230
O O2 0.574725 0.855721 0.834361
O O3 0.226081 0.880165 0.379236
O O4 0.539782 0.921941 0.689148
O O5 0.253756 0.913443 0.668108
O O6 0.423714 0.000000 0.821170
O O7 0.622619 0.914195 0.053424
O O8 0.500000 0.588859 0.500000
O O9 0.687941 0.500000 0.681170
O O10 0.029108 0.256592 0.753020
O O11 0.906164 0.301565 0.747395
O O12 0.266939 0.276982 0.129100
O O13 0.559452 0.709147 0.151364
O O14 0.500000 0.624914 0.000000
O O15 0.340251 0.623033 0.949962
O O16 0.949446 0.318274 0.345754
O O17 0.155914 0.229453 0.573722
O O18 0.500000 0.896141 0.500000
O O19 0.000000 0.704483 0.000000
#
# Coordination Sequence:
#
# PCOD9191032 Si02
#       8
#     8   8   8   8   8   8   8   8
#     4  11  23  35  54  85 112 141 183 234 282 332
#     4   9  19  37  60  87 117 146 181 228 278 332
#     4   8  15  33  64  90 109 142 184 221 262 326
#     4  10  21  33  48  73 105 139 177 221 275 325
#     4  11  20  34  55  79 103 145 192 235 270 317
#     4  10  20  32  52  71 102 141 179 230 271 317
#     4  11  19  34  55  78 106 142 196 237 268 320
#     4  11  20  33  52  73 101 144 186 221 272 325
#
# _framework density 21.494665999999999
#
# number of rings (size 3 to 8) (size 9 to 14) (size 15 to 20)
#    0.000    1.875    5.000    1.875    0.000    1.000 
#    2.250    0.000    0.000    0.750    0.000    0.000 
#    0.000    0.000    0.000    0.000    0.000    0.000 
#
# Total GULP energy -178461.081883 kJ/mol
# GULP energy per Si atom -5576.908809 kJ/mol
# Density = 2.144574 g / cm^3
# Si number density = 21.494666 Si / 1000 Ang^3
#
#
#
# Elastic Constant Matrix: (Units=GPa)
#
#
# Indices 1 2 3 4 5 6 
#
# 1 150.4233 8.9221 50.9051 0.0000 5.7712 0.0000
# 2 8.9221 12.8564 8.0779 0.0000 0.8166 0.0000
# 3 50.9051 8.0779 100.6989 -0.0001 16.3173 0.0000
# 4 0.0000 0.0000 -0.0001 6.1406 0.0000 -3.4707
# 5 5.7712 0.8166 16.3173 0.0000 36.6322 0.0000
# 6 0.0000 0.0000 0.0000 -3.4707 0.0000 28.8597
#
#
#
# Elastic Compliance Matrix: (Units=1/GPa)
#
#
# Indices 1 2 3 4 5 6 
#
# 1 0.008155 -0.003210 -0.003954 0.000000 0.000548 0.000000
# 2 -0.003210 0.083222 -0.005211 0.000000 0.000972 0.000000
# 3 -0.003954 -0.005211 0.013179 0.000000 -0.005131 0.000000
# 4 0.000000 0.000000 0.000000 0.174728 0.000000 0.021013
# 5 0.000548 0.000972 -0.005131 0.000000 0.029476 0.000000
# 6 0.000000 0.000000 0.000000 0.021013 0.000000 0.037178
#
#
# Mechanical properties :
#
#
# Convention : Reuss Voigt Hill
#
# Bulk Modulus (GPa) = 12.53021 44.42099 28.47560
# Shear Modulus (GPa) = 12.58527 27.39806 19.99167
#
# Velocity S-wave (km/s) = 2.42235 3.57409 3.05302
# Velocity P-wave (km/s) = 3.69673 6.14354 5.06995
#
# Compressibility (1/GPa) = 0.07980710
#
# Stress axis : x y z
#
# Youngs Moduli (GPa) = 122.61876 12.01600 75.87915
#
# Poissons Ratio (x) = 0.03857 0.30002
# Poissons Ratio (y) = 0.39363 0.39538
# Poissons Ratio (z) = 0.48483 0.06261
#
# Static dielectric constant tensor:
#      x y z
#    x 1.845210 0.000000 0.004010 
#    y 0.000000 1.824140 0.000000 
#    z 0.004010 0.000000 1.752250 
# 
# From -- ./inp_files/286796.got.cif
#   From: 2010.05.17/outbox.cif.g08.bks.cpg/sg12_144_cif.got.tgz:286796.got - 2010.06.03 13:09:07.
