data_PCOD9191931
_publ_section_title
;
Structure prediction by ZEFSAII (Michael W. Deem and Ramdas Pophale) SiO2 
 PCOD9191931
Probable space group: C 2/M
;
_chemical_formula_sum "Si O2"
_cell_formula_units_Z 56
_cell_length_a 16.124778
_cell_length_b 7.500789
_cell_length_c 18.215310
_cell_angle_alpha 90.000000
_cell_angle_beta 110.992182
_cell_angle_gamma 90.000000
_cell_volume 2056.893190
_symmetry_space_group_name_H-M "C 2/M"
_symmetry_group_IT_number 12
_symmetry_cell_setting 'monoclinic'
loop_
_space_group_symop_operation_xyz
x,y,z
-x,y,-z
-x,-y,-z
x,-y,z
1/2+x,1/2+y,z
1/2-x,1/2+y,-z
1/2-x,1/2-y,-z
1/2+x,1/2-y,z
loop_
_atom_site_type_symbol
_atom_site_label
_atom_site_fract_x
_atom_site_fract_y
_atom_site_fract_z
Si Si1 0.400324 0.214377 0.449504
Si Si2 0.250022 0.709313 0.303502
Si Si3 0.913695 0.205022 0.833703
Si Si4 0.972380 0.703332 0.268922
Si Si5 0.367475 0.284268 0.973022
Si Si6 0.169309 0.288315 0.879196
Si Si7 0.137397 0.718483 0.406901
O O1 0.500000 0.273091 0.500000
O O2 0.352614 0.266091 0.358659
O O3 0.346580 0.278044 0.505019
O O4 0.401594 0.000000 0.449977
O O5 0.234729 0.500000 0.291162
O O6 0.192305 0.794023 0.220177
O O7 0.201474 0.779557 0.362391
O O8 0.963934 0.302009 0.783766
O O9 0.922207 0.275382 0.919224
O O10 0.943810 0.000000 0.841020
O O11 0.952531 0.500000 0.284694
O O12 0.038555 0.778296 0.350574
O O13 0.883346 0.787632 0.207181
O O14 0.368768 0.500000 0.970133
O O15 0.266947 0.216320 0.926162
O O16 0.385521 0.236843 0.062733
O O17 0.176909 0.500000 0.870276
O O18 0.137754 0.500000 0.406059
#
# Coordination Sequence:
#
# PCOD9191931 Si02
#       7
#     8   8   8   8   8   8   8
#     4  10  20  33  52  78 104 131 165 205 248 295
#     4  10  20  35  54  73  99 134 168 205 247 295
#     4  10  20  34  53  76 101 129 165 209 252 295
#     4   9  18  33  52  74 100 130 166 206 247 294
#     4   9  19  34  51  73 101 133 168 207 250 294
#     4   9  18  33  53  74  99 134 170 203 244 297
#     4   8  16  32  52  73  98 130 166 203 245 293
#
# _framework density 27.225525999999999
#
# number of rings (size 3 to 8) (size 9 to 14) (size 15 to 20)
#    0.000    2.714    0.000    2.143    0.000    3.714 
#    0.000   10.000    0.000    3.429    0.000    0.000 
#    0.000    0.000    0.000    0.000    0.000    0.000 
#
# Total GULP energy -156585.567474 kJ/mol
# GULP energy per Si atom -5592.341695 kJ/mol
# Density = 2.716356 g / cm^3
# Si number density = 27.225526 Si / 1000 Ang^3
#
#
#
# Elastic Constant Matrix: (Units=GPa)
#
#
# Indices 1 2 3 4 5 6 
#
# 1 66.1161 -5.7453 7.7347 0.0000 1.2089 0.0000
# 2 -5.7453 94.0979 -6.1877 0.0000 -3.2552 0.0000
# 3 7.7347 -6.1877 189.8610 0.0000 -1.9559 0.0000
# 4 0.0000 0.0000 0.0000 19.5110 0.0000 0.4934
# 5 1.2089 -3.2552 -1.9559 0.0000 57.9905 0.0000
# 6 0.0000 0.0000 0.0000 0.4934 0.0000 7.9673
#
#
#
# Elastic Compliance Matrix: (Units=1/GPa)
#
#
# Indices 1 2 3 4 5 6 
#
# 1 0.015277 0.000884 -0.000597 0.000000 -0.000289 0.000000
# 2 0.000884 0.010723 0.000320 0.000000 0.000594 0.000000
# 3 -0.000597 0.000320 0.005304 0.000000 0.000209 0.000000
# 4 0.000000 0.000000 0.000000 0.051334 0.000000 -0.003179
# 5 -0.000289 0.000594 0.000209 0.000000 0.017291 0.000000
# 6 0.000000 0.000000 0.000000 -0.003179 0.000000 0.125710
#
#
# Mechanical properties :
#
#
# Convention : Reuss Voigt Hill
#
# Bulk Modulus (GPa) = 30.75357 37.96426 34.35892
# Shear Modulus (GPa) = 21.25278 40.71198 30.98238
#
# Velocity S-wave (km/s) = 2.79699 3.87118 3.37707
# Velocity P-wave (km/s) = 4.66382 5.82718 5.27766
#
# Compressibility (1/GPa) = 0.03251655
#
# Stress axis : x y z
#
# Youngs Moduli (GPa) = 65.45887 93.25967 188.54106
#
# Poissons Ratio (x) = -0.08240 0.11247
# Poissons Ratio (y) = -0.05783 -0.06026
# Poissons Ratio (z) = 0.03905 -0.02981
#
# Static dielectric constant tensor:
#      x y z
#    x 2.289570 0.000000 0.043520 
#    y 0.000000 2.010890 0.000000 
#    z 0.043520 0.000000 2.088580 
# 
# From -- ./inp_files/319333.got.cif
#   From: 2010.05.17/outbox.cif.g08.bks.cpg/sg12_160_cif.got.tgz:319333.got - 2010.06.03 13:09:07.
