data_PCOD9191985
_publ_section_title
;
Structure prediction by ZEFSAII (Michael W. Deem and Ramdas Pophale) SiO2 
 PCOD9191985
Probable space group: C 2/M
;
_chemical_formula_sum "Si O2"
_cell_formula_units_Z 64
_cell_length_a 32.891583
_cell_length_b 8.665730
_cell_length_c 16.019886
_cell_angle_alpha 90.000000
_cell_angle_beta 127.124254
_cell_angle_gamma 90.000000
_cell_volume 3640.714680
_symmetry_space_group_name_H-M "C 2/M"
_symmetry_group_IT_number 12
_symmetry_cell_setting 'monoclinic'
loop_
_space_group_symop_operation_xyz
x,y,z
-x,y,-z
-x,-y,-z
x,-y,z
1/2+x,1/2+y,z
1/2-x,1/2+y,-z
1/2-x,1/2-y,-z
1/2+x,1/2-y,z
loop_
_atom_site_type_symbol
_atom_site_label
_atom_site_fract_x
_atom_site_fract_y
_atom_site_fract_z
Si Si1 0.760485 0.814731 0.270158
Si Si2 0.117126 0.314808 0.974045
Si Si3 0.531548 0.685887 0.457748
Si Si4 0.223551 0.184181 0.049634
Si Si5 0.406479 0.186744 0.706710
Si Si6 0.864047 0.684320 0.472973
Si Si7 0.511338 0.684501 0.776801
Si Si8 0.651731 0.187058 0.200241
O O1 0.752209 0.745113 0.167942
O O2 0.812505 0.759443 0.375966
O O3 0.710717 0.766286 0.262332
O O4 0.759907 0.000000 0.262633
O O5 0.120701 0.500000 0.974088
O O6 0.063764 0.258555 0.871802
O O7 0.165448 0.243419 0.986067
O O8 0.123580 0.268574 0.079458
O O9 0.500000 0.733455 0.500000
O O10 0.537646 0.500000 0.467400
O O11 0.587109 0.760986 0.519566
O O12 0.501471 0.725220 0.335365
O O13 0.224353 0.000000 0.049253
O O14 0.250000 0.250000 0.000000
O O15 0.376824 0.228635 0.584697
O O16 0.463016 0.255356 0.769503
O O17 0.376341 0.241201 0.751245
O O18 0.410421 0.000000 0.713602
O O19 0.859658 0.500000 0.463548
O O20 0.514623 0.500000 0.786970
O O21 0.651311 0.000000 0.203031
#
# Coordination Sequence:
#
# PCOD9191985 Si02
#       8
#     8   8   8   8   8   8   8   8
#     4  10  20  36  56  78 107 142 178 216 261 313
#     4  10  20  36  56  78 106 141 178 216 263 315
#     4   9  19  36  55  73  98 135 176 216 260 313
#     4  11  22  38  58  81 109 139 175 218 263 311
#     4   9  18  35  55  75 103 139 179 220 265 318
#     4  10  20  33  52  79 108 137 172 218 267 314
#     4  10  20  34  52  77 106 135 173 221 270 318
#     4   8  17  34  55  76 100 137 181 219 259 314
#
# _framework density 17.578966999999999
#
# number of rings (size 3 to 8) (size 9 to 14) (size 15 to 20)
#    0.000    2.375    0.000    3.375    0.000    3.250 
#    0.000   10.000    0.000    0.000    0.000    0.000 
#    0.000    0.000    0.000    0.000    0.000    0.000 
#
# Total GULP energy -178585.815317 kJ/mol
# GULP energy per Si atom -5580.806729 kJ/mol
# Density = 1.753896 g / cm^3
# Si number density = 17.578967 Si / 1000 Ang^3
#
#
#
# Elastic Constant Matrix: (Units=GPa)
#
#
# Indices 1 2 3 4 5 6 
#
# 1 188.6271 57.0646 109.0966 0.0000 -8.1952 0.0000
# 2 57.0646 64.3266 51.8085 0.0000 7.3112 0.0000
# 3 109.0966 51.8085 125.4957 0.0000 27.2908 0.0000
# 4 0.0000 0.0000 0.0000 29.8112 0.0000 5.9467
# 5 -8.1952 7.3112 27.2908 0.0000 29.2065 0.0000
# 6 0.0000 0.0000 0.0000 5.9467 0.0000 28.0239
#
#
#
# Elastic Compliance Matrix: (Units=1/GPa)
#
#
# Indices 1 2 3 4 5 6 
#
# 1 0.020419 -0.003189 -0.022407 0.000000 0.027465 0.000000
# 2 -0.003189 0.024158 -0.007142 0.000000 -0.000268 0.000000
# 3 -0.022407 -0.007142 0.039375 0.000000 -0.041292 0.000000
# 4 0.000000 0.000000 0.000000 0.035027 0.000000 -0.007433
# 5 0.027465 -0.000268 -0.041292 0.000000 0.080596 0.000000
# 6 0.000000 0.000000 0.000000 -0.007433 0.000000 0.037261
#
#
# Mechanical properties :
#
#
# Convention : Reuss Voigt Hill
#
# Bulk Modulus (GPa) = 54.12585 90.48765 72.30675
# Shear Modulus (GPa) = 16.20896 28.10695 22.15796
#
# Velocity S-wave (km/s) = 3.03985 4.00296 3.55418
# Velocity P-wave (km/s) = 6.57099 8.54117 7.62002
#
# Compressibility (1/GPa) = 0.01847546
#
# Stress axis : x y z
#
# Youngs Moduli (GPa) = 48.97409 41.39484 25.39659
#
# Poissons Ratio (x) = 0.13201 0.56906
# Poissons Ratio (y) = 0.15618 0.18139
# Poissons Ratio (z) = 1.09735 0.29566
#
# Static dielectric constant tensor:
#      x y z
#    x 1.579810 0.000000 -0.012850 
#    y 0.000000 1.593840 0.000000 
#    z -0.012850 0.000000 1.575610 
# 
# From -- ./inp_files/250127.got.cif
#   From: 2010.05.17/outbox.cif.g08.bks.cpg/sg12_126_cif.got.tgz:250127.got - 2010.06.03 13:09:07.
