data_PCOD9191832
_publ_section_title
;
Structure prediction by ZEFSAII (Michael W. Deem and Ramdas Pophale) SiO2 
 PCOD9191832
Probable space group: C 2/M
;
_chemical_formula_sum "Si O2"
_cell_formula_units_Z 56
_cell_length_a 20.645544
_cell_length_b 25.209934
_cell_length_c 5.944154
_cell_angle_alpha 90.000000
_cell_angle_beta 56.064268
_cell_angle_gamma 90.000000
_cell_volume 2566.790896
_symmetry_space_group_name_H-M "C 2/M"
_symmetry_group_IT_number 12
_symmetry_cell_setting 'monoclinic'
loop_
_space_group_symop_operation_xyz
x,y,z
-x,y,-z
-x,-y,-z
x,-y,z
1/2+x,1/2+y,z
1/2-x,1/2+y,-z
1/2-x,1/2-y,-z
1/2+x,1/2-y,z
loop_
_atom_site_type_symbol
_atom_site_label
_atom_site_fract_x
_atom_site_fract_y
_atom_site_fract_z
Si Si1 0.500000 0.141365 0.500000
Si Si2 0.147482 0.386357 0.954371
Si Si3 0.743134 0.442333 0.579823
Si Si4 0.243331 0.336025 0.141443
Si Si5 0.416884 0.595032 0.283272
Si Si6 0.101983 0.198529 0.955766
Si Si7 0.097468 0.695811 0.684015
Si Si8 0.500000 0.359782 0.500000
O O1 0.530733 0.179679 0.638328
O O2 0.424781 0.107637 0.730820
O O3 0.194510 0.433198 0.742401
O O4 0.110004 0.353556 0.824293
O O5 0.213051 0.350775 0.953253
O O6 0.756104 0.500000 0.661107
O O7 0.750941 0.392887 0.737578
O O8 0.655960 0.440394 0.644422
O O9 0.323347 0.305155 0.026192
O O10 0.176464 0.300975 0.386704
O O11 0.390079 0.652592 0.245011
O O12 0.435325 0.602646 0.510693
O O13 0.500000 0.581190 0.000000
O O14 0.089453 0.252895 0.853057
O O15 0.031706 0.178054 0.245210
#
# Coordination Sequence:
#
# PCOD9191832 Si02
#       8
#     4   8   8   8   8   8   8   4
#     4  10  22  39  57  82 118 152 187 234 284 331
#     4  10  21  37  58  84 114 149 190 237 284 335
#     4  10  21  39  61  83 109 145 191 239 291 348
#     4   9  20  38  57  82 116 149 185 238 290 331
#     4   9  20  36  54  81 117 153 189 232 280 332
#     4  10  20  34  54  83 118 155 193 227 270 332
#     4  10  21  35  58  86 114 152 193 230 276 335
#     4  10  20  33  51  78 118 156 187 228 274 321
#
# _framework density 21.817125999999998
#
# number of rings (size 3 to 8) (size 9 to 14) (size 15 to 20)
#    0.000    2.286    0.000    1.714    0.000    8.286 
#    0.000    0.714    0.000   11.143    0.000    3.000 
#    0.000    0.000    0.000    0.000    0.000    0.000 
#
# Total GULP energy -156318.100445 kJ/mol
# GULP energy per Si atom -5582.789302 kJ/mol
# Density = 2.176747 g / cm^3
# Si number density = 21.817126 Si / 1000 Ang^3
#
#
#
# Elastic Constant Matrix: (Units=GPa)
#
#
# Indices 1 2 3 4 5 6 
#
# 1 143.1441 23.9242 21.1449 0.0000 8.3133 0.0000
# 2 23.9242 75.6683 26.6167 0.0000 -3.1408 0.0000
# 3 21.1449 26.6167 35.5447 0.0000 2.3881 0.0000
# 4 0.0000 0.0000 0.0000 7.9939 0.0000 9.4335
# 5 8.3133 -3.1408 2.3881 0.0000 44.7336 0.0000
# 6 0.0000 0.0000 0.0000 9.4335 0.0000 -6.3129
#
#
#
# Elastic Compliance Matrix: (Units=1/GPa)
#
#
# Indices 1 2 3 4 5 6 
#
# 1 0.007808 -0.001252 -0.003616 0.000000 -0.001346 0.000000
# 2 -0.001252 0.018319 -0.013122 0.000000 0.002219 0.000000
# 3 -0.003616 -0.013122 0.040272 0.000000 -0.002399 0.000000
# 4 0.000000 0.000000 0.000000 0.045268 0.000000 0.067645
# 5 -0.001346 0.002219 -0.002399 0.000000 0.022889 0.000000
# 6 0.000000 0.000000 0.000000 0.067645 0.000000 -0.057323
#
#
# Mechanical properties :
#
#
# Convention : Reuss Voigt Hill
#
# Bulk Modulus (GPa) = 32.87577 44.19210 38.53393
# Shear Modulus (GPa) = 40.53349 21.46101 30.99725
#
# Velocity S-wave (km/s) = 4.31498 3.13977 3.77341
# Velocity P-wave (km/s) = 6.31878 5.78306 6.05685
#
# Compressibility (1/GPa) = 0.03041754
#
# Stress axis : x y z
#
# Youngs Moduli (GPa) = 128.07960 54.58685 24.83096
#
# Poissons Ratio (x) = 0.06836 0.08980
# Poissons Ratio (y) = 0.16040 0.32584
# Poissons Ratio (z) = 0.46319 0.71630
#
# Static dielectric constant tensor:
#      x y z
#    x 1.847920 0.000000 -0.029970 
#    y 0.000000 1.757300 0.000000 
#    z -0.029970 0.000000 1.843360 
# 
# From -- ./inp_files/22298.got.cif
#   From: 2010.05.17/outbox.cif.g08.bks.cpg/sg12_12_cif.got.tgz:22298.got - 2010.06.03 13:09:07.
