data_PCOD9191875
_publ_section_title
;
Structure prediction by ZEFSAII (Michael W. Deem and Ramdas Pophale) SiO2 
 PCOD9191875
Probable space group: C 2/M
;
_chemical_formula_sum "Si O2"
_cell_formula_units_Z 64
_cell_length_a 21.403287
_cell_length_b 23.532894
_cell_length_c 8.903285
_cell_angle_alpha 90.000000
_cell_angle_beta 65.419052
_cell_angle_gamma 90.000000
_cell_volume 4078.015310
_symmetry_space_group_name_H-M "C 2/M"
_symmetry_group_IT_number 12
_symmetry_cell_setting 'monoclinic'
loop_
_space_group_symop_operation_xyz
x,y,z
-x,y,-z
-x,-y,-z
x,-y,z
1/2+x,1/2+y,z
1/2-x,1/2+y,-z
1/2-x,1/2-y,-z
1/2+x,1/2-y,z
loop_
_atom_site_type_symbol
_atom_site_label
_atom_site_fract_x
_atom_site_fract_y
_atom_site_fract_z
Si Si1 0.856819 0.230850 0.464231
Si Si2 0.143181 0.230850 0.177869
Si Si3 0.278064 0.162320 0.400818
Si Si4 0.000000 0.620025 0.820301
Si Si5 0.278064 0.162320 0.043054
Si Si6 0.862750 0.433370 0.457665
Si Si7 0.500000 0.255349 0.179120
Si Si8 0.637250 0.933370 0.183165
O O1 0.862298 0.239049 0.637702
O O2 0.800012 0.182176 0.492761
O O3 0.825951 0.288006 0.421216
O O4 0.930827 0.219764 0.319532
O O5 0.199988 0.182176 0.092784
O O6 0.069173 0.219764 0.181186
O O7 0.174049 0.288006 0.073118
O O8 0.289262 0.160034 0.210738
O O9 0.300891 0.103855 0.452937
O O10 0.000000 0.687459 0.787913
O O11 0.932507 0.591432 0.818315
O O12 0.067493 0.591432 0.683329
O O13 0.000000 0.612960 0.000000
O O14 0.300891 0.103855 0.945281
O O15 0.856543 0.500000 0.428982
O O16 0.865678 0.426630 0.634322
O O17 0.500000 0.262246 0.000000
O O18 0.643457 0.000000 0.142068
#
# Coordination Sequence:
#
# PCOD9191875 Si02
#       8
#     8   8   8   8   8   8   8   8
#     4  10  20  33  52  74 100 131 164 205 252 299
#     4  10  20  33  52  74 100 131 164 205 252 299
#     4  10  20  34  51  74  99 129 168 207 250 297
#     4  11  22  34  49  72 101 135 175 211 244 289
#     4  10  20  34  51  74  99 129 168 207 250 297
#     4  11  23  36  51  72  99 135 175 210 248 294
#     4  11  21  32  50  77 104 133 169 204 247 300
#     4  11  23  36  51  72  99 135 175 210 248 294
#
# _framework density 15.693908
#
# number of rings (size 3 to 8) (size 9 to 14) (size 15 to 20)
#    0.000    1.500    2.500    3.375    0.000    7.500 
#    0.000    0.000    0.000    0.000    0.000    0.875 
#    0.000    7.000    0.000    0.000    0.000    0.000 
#
# Total GULP energy -178751.376560 kJ/mol
# GULP energy per Si atom -5585.980517 kJ/mol
# Density = 1.565819 g / cm^3
# Si number density = 15.693908 Si / 1000 Ang^3
#
#
#
# Elastic Constant Matrix: (Units=GPa)
#
#
# Indices 1 2 3 4 5 6 
#
# 1 124.6032 48.0263 53.1523 0.0000 -7.9061 0.0000
# 2 48.0263 75.3139 48.2564 0.0000 0.1672 0.0000
# 3 53.1523 48.2564 90.3978 0.0000 -16.9431 0.0000
# 4 0.0000 0.0000 0.0000 23.7301 0.0000 2.6087
# 5 -7.9061 0.1672 -16.9431 0.0000 23.7187 0.0000
# 6 0.0000 0.0000 0.0000 2.6087 0.0000 20.1394
#
#
#
# Elastic Compliance Matrix: (Units=1/GPa)
#
#
# Indices 1 2 3 4 5 6 
#
# 1 0.011707 -0.004827 -0.004120 0.000000 0.000993 0.000000
# 2 -0.004827 0.024006 -0.011904 0.000000 -0.010281 0.000000
# 3 -0.004120 -0.011904 0.022627 0.000000 0.014874 0.000000
# 4 0.000000 0.000000 0.000000 0.042749 0.000000 -0.005537
# 5 0.000993 -0.010281 0.014874 0.000000 0.053189 0.000000
# 6 0.000000 0.000000 0.000000 -0.005537 0.000000 0.050371
#
#
# Mechanical properties :
#
#
# Convention : Reuss Voigt Hill
#
# Bulk Modulus (GPa) = 60.10587 65.46497 62.78542
# Shear Modulus (GPa) = 19.84934 22.90964 21.37949
#
# Velocity S-wave (km/s) = 3.56023 3.82485 3.69491
# Velocity P-wave (km/s) = 7.43521 7.83008 7.63520
#
# Compressibility (1/GPa) = 0.01663731
#
# Stress axis : x y z
#
# Youngs Moduli (GPa) = 85.42121 41.65633 44.19483
#
# Poissons Ratio (x) = 0.20109 0.18210
# Poissons Ratio (y) = 0.41236 0.52608
# Poissons Ratio (z) = 0.35196 0.49586
#
# Static dielectric constant tensor:
#      x y z
#    x 1.523390 0.000000 -0.001320 
#    y 0.000000 1.502280 0.000000 
#    z -0.001320 0.000000 1.521580 
# 
# From -- ./inp_files/90384.got.cif
#   From: 2010.05.17/outbox.cif.g08.bks.cpg/sg12_46_cif.got.tgz:90384.got - 2010.06.03 13:09:07.
