data_PCOD9191394
_publ_section_title
;
Structure prediction by ZEFSAII (Michael W. Deem and Ramdas Pophale) SiO2 
 PCOD9191394
Probable space group: C 2/M
;
_chemical_formula_sum "Si O2"
_cell_formula_units_Z 64
_cell_length_a 32.125785
_cell_length_b 8.740494
_cell_length_c 14.622114
_cell_angle_alpha 90.000000
_cell_angle_beta 90.089381
_cell_angle_gamma 90.000000
_cell_volume 4105.814883
_symmetry_space_group_name_H-M "C 2/M"
_symmetry_group_IT_number 12
_symmetry_cell_setting 'monoclinic'
loop_
_space_group_symop_operation_xyz
x,y,z
-x,y,-z
-x,-y,-z
x,-y,z
1/2+x,1/2+y,z
1/2-x,1/2+y,-z
1/2-x,1/2-y,-z
1/2+x,1/2-y,z
loop_
_atom_site_type_symbol
_atom_site_label
_atom_site_fract_x
_atom_site_fract_y
_atom_site_fract_z
Si Si1 0.840977 0.183909 0.605210
Si Si2 0.000589 0.686293 0.605129
Si Si3 0.751276 0.316577 0.397501
Si Si4 0.451321 0.684070 0.896169
Si Si5 0.581654 0.816948 0.285496
Si Si6 0.548601 0.315523 0.895351
Si Si7 0.337777 0.683294 0.390386
Si Si8 0.916501 0.683472 0.285660
O O1 0.794480 0.223186 0.640808
O O2 0.877397 0.257755 0.663764
O O3 0.843641 0.229227 0.497637
O O4 0.844988 0.000000 0.608299
O O5 0.000312 0.500000 0.604864
O O6 0.042605 0.733873 0.656794
O O7 0.000000 0.737602 0.500000
O O8 0.959322 0.736723 0.658552
O O9 0.754392 0.500000 0.400785
O O10 0.750000 0.250000 0.500000
O O11 0.793333 0.247851 0.356382
O O12 0.449129 0.500000 0.890184
O O13 0.423668 0.757038 0.817381
O O14 0.499911 0.727188 0.881313
O O15 0.440311 0.727118 0.000330
O O16 0.581647 0.000000 0.285509
O O17 0.551213 0.500000 0.888050
O O18 0.575976 0.238723 0.817546
O O19 0.336630 0.500000 0.387736
O O20 0.375716 0.746505 0.331553
O O21 0.914190 0.500000 0.289044
#
# Coordination Sequence:
#
# PCOD9191394 Si02
#       8
#     8   8   8   8   8   8   8   8
#     4   9  19  33  48  69  98 130 163 199 239 286
#     4   9  18  30  41  60  94 131 163 193 229 276
#     4   9  17  31  50  71  96 126 162 203 246 287
#     4   9  18  33  51  68  92 125 160 202 249 291
#     4  11  20  30  47  71  97 128 164 202 241 284
#     4   9  18  33  51  69  91 124 162 202 247 292
#     4  10  20  33  49  71  99 130 167 204 240 288
#     4  11  20  31  48  70  98 130 162 202 246 285
#
# _framework density 15.587648
#
# number of rings (size 3 to 8) (size 9 to 14) (size 15 to 20)
#    0.000    2.375    1.250    3.750    0.000    4.500 
#    0.000    1.250    0.000    3.000    0.000    0.875 
#    0.000    0.000    0.000    0.000    0.000    0.000 
#
# Total GULP energy -178418.638386 kJ/mol
# GULP energy per Si atom -5575.582450 kJ/mol
# Density = 1.555217 g / cm^3
# Si number density = 15.587648 Si / 1000 Ang^3
#
#
#
# Elastic Constant Matrix: (Units=GPa)
#
#
# Indices 1 2 3 4 5 6 
#
# 1 151.3210 45.2288 73.6532 0.0000 -0.6395 0.0000
# 2 45.2288 35.6704 33.9404 0.0000 -0.4174 0.0000
# 3 73.6532 33.9404 105.3817 0.0000 -4.6272 0.0000
# 4 0.0000 0.0000 0.0000 22.4436 0.0000 -0.2183
# 5 -0.6395 -0.4174 -4.6272 0.0000 8.6890 0.0000
# 6 0.0000 0.0000 0.0000 -0.2183 0.0000 24.7705
#
#
#
# Elastic Compliance Matrix: (Units=1/GPa)
#
#
# Indices 1 2 3 4 5 6 
#
# 1 0.012373 -0.010651 -0.005325 0.000000 -0.002437 0.000000
# 2 -0.010651 0.049813 -0.008733 0.000000 -0.003041 0.000000
# 3 -0.005325 -0.008733 0.016370 0.000000 0.007907 0.000000
# 4 0.000000 0.000000 0.000000 0.044560 0.000000 0.000393
# 5 -0.002437 -0.003041 0.007907 0.000000 0.118973 0.000000
# 6 0.000000 0.000000 0.000000 0.000393 0.000000 0.040374
#
#
# Mechanical properties :
#
#
# Convention : Reuss Voigt Hill
#
# Bulk Modulus (GPa) = 34.31665 66.44643 50.38154
# Shear Modulus (GPa) = 14.63725 20.48401 17.56063
#
# Velocity S-wave (km/s) = 3.06768 3.62901 3.36009
# Velocity P-wave (km/s) = 5.88308 7.76400 6.88805
#
# Compressibility (1/GPa) = 0.02914038
#
# Stress axis : x y z
#
# Youngs Moduli (GPa) = 80.81862 20.07493 61.08584
#
# Poissons Ratio (x) = 0.21382 0.32525
# Poissons Ratio (y) = 0.86082 0.53344
# Poissons Ratio (z) = 0.43032 0.17531
#
# Static dielectric constant tensor:
#      x y z
#    x 1.514120 0.000000 0.006200 
#    y 0.000000 1.521770 0.000000 
#    z 0.006200 0.000000 1.496870 
# 
# From -- ./inp_files/248522.got.cif
#   From: 2010.05.17/outbox.cif.g08.bks.cpg/sg12_125_cif.got.tgz:248522.got - 2010.06.03 13:09:07.
