data_PCOD9191497
_publ_section_title
;
Structure prediction by ZEFSAII (Michael W. Deem and Ramdas Pophale) SiO2 
 PCOD9191497
Probable space group: C 2/M
;
_chemical_formula_sum "Si O2"
_cell_formula_units_Z 40
_cell_length_a 19.580806
_cell_length_b 7.552118
_cell_length_c 27.603913
_cell_angle_alpha 90.000000
_cell_angle_beta 151.288737
_cell_angle_gamma 90.000000
_cell_volume 1960.962492
_symmetry_space_group_name_H-M "C 2/M"
_symmetry_group_IT_number 12
_symmetry_cell_setting 'monoclinic'
loop_
_space_group_symop_operation_xyz
x,y,z
-x,y,-z
-x,-y,-z
x,-y,z
1/2+x,1/2+y,z
1/2-x,1/2+y,-z
1/2-x,1/2-y,-z
1/2+x,1/2-y,z
loop_
_atom_site_type_symbol
_atom_site_label
_atom_site_fract_x
_atom_site_fract_y
_atom_site_fract_z
Si Si1 0.401145 0.209771 0.187704
Si Si2 0.194264 0.288760 0.412088
Si Si3 0.343706 0.205005 0.407748
Si Si4 0.052177 0.214224 0.182202
Si Si5 0.418234 0.282921 0.997570
O O1 0.534279 0.278672 0.301904
O O2 0.445794 0.235942 0.159545
O O3 0.393973 0.000000 0.192282
O O4 0.244998 0.279776 0.102157
O O5 0.193655 0.500000 0.404481
O O6 0.250000 0.250000 0.500000
O O7 0.294798 0.211175 0.433032
O O8 0.500000 0.286099 0.500000
O O9 0.209684 0.280883 0.294616
O O10 0.355777 0.000000 0.399408
O O11 0.997235 0.273454 0.095904
O O12 0.057453 0.000000 0.185276
O O13 0.417383 0.500000 0.997489
O O14 0.500000 0.227975 0.000000
#
# Coordination Sequence:
#
# PCOD9191497 Si02
#       5
#     8   8   8   8   8
#     4   9  18  32  50  70  93 124 158 194 235 280
#     4  10  20  33  50  72  98 128 162 200 242 287
#     4   9  18  32  50  73 100 129 162 199 239 284
#     4   9  17  30  50  72  94 125 160 193 230 277
#     4   9  17  29  47  72  97 121 155 196 235 276
#
# _framework density 20.398147000000002
#
# number of rings (size 3 to 8) (size 9 to 14) (size 15 to 20)
#    0.000    2.800    0.000    1.200    0.000    2.800 
#    0.000    6.000    0.000    2.400    0.000    0.000 
#    0.000    0.000    0.000    0.000    0.000    0.000 
#
# Total GULP energy -111586.266567 kJ/mol
# GULP energy per Si atom -5579.313328 kJ/mol
# Density = 2.035172 g / cm^3
# Si number density = 20.398147 Si / 1000 Ang^3
#
#
#
# Elastic Constant Matrix: (Units=GPa)
#
#
# Indices 1 2 3 4 5 6 
#
# 1 142.0884 -13.6163 144.4210 0.0001 8.3787 0.0000
# 2 -13.6163 48.5785 -2.3335 0.0003 6.7186 0.0002
# 3 144.4210 -2.3335 190.9630 0.0004 15.6444 0.0002
# 4 0.0001 0.0003 0.0004 -3.6547 0.0001 -0.3269
# 5 8.3787 6.7186 15.6444 0.0001 44.9651 0.0000
# 6 0.0000 0.0002 0.0002 -0.3269 0.0000 20.0884
#
#
#
# Elastic Compliance Matrix: (Units=1/GPa)
#
#
# Indices 1 2 3 4 5 6 
#
# 1 0.033445 0.007967 -0.025310 -0.000001 0.001383 0.000000
# 2 0.007967 0.022970 -0.005499 0.000001 -0.003004 0.000000
# 3 -0.025310 -0.005499 0.024557 0.000002 -0.003006 0.000000
# 4 -0.000001 0.000001 0.000002 -0.273224 0.000000 -0.004446
# 5 0.001383 -0.003004 -0.003006 0.000000 0.023476 0.000000
# 6 0.000000 0.000000 0.000000 -0.004446 0.000000 0.049708
#
#
# Mechanical properties :
#
#
# Convention : Reuss Voigt Hill
#
# Bulk Modulus (GPa) = 28.33715 70.95249 49.64482
# Shear Modulus (GPa) = -81.13841 29.15699 -25.99071
#
# Velocity S-wave (km/s) = -6.31377 3.78483 -3.57342
# Velocity P-wave (km/s) = 6.26334 7.34570 2.71384
#
# Compressibility (1/GPa) = 0.03528936
#
# Stress axis : x y z
#
# Youngs Moduli (GPa) = 29.89989 43.53556 40.72192
#
# Poissons Ratio (x) = -0.34686 1.03066
# Poissons Ratio (y) = -0.23822 0.22392
# Poissons Ratio (z) = 0.75676 0.23939
#
# Static dielectric constant tensor:
#      x y z
#    x 1.660160 0.000000 0.015170 
#    y 0.000000 1.771060 0.000000 
#    z 0.015170 0.000000 1.747660 
# 
# From -- ./inp_files/162355.got.cif
#   From: 2010.05.17/outbox.cif.g08.bks.cpg/sg12_82_cif.got.tgz:162355.got - 2010.06.03 13:09:07.
