data_PCOD9191003
_publ_section_title
;
Structure prediction by ZEFSAII (Michael W. Deem and Ramdas Pophale) SiO2 
 PCOD9191003
Probable space group: C 2/M
;
_chemical_formula_sum "Si O2"
_cell_formula_units_Z 56
_cell_length_a 29.033196
_cell_length_b 8.873403
_cell_length_c 16.725924
_cell_angle_alpha 90.000000
_cell_angle_beta 139.327803
_cell_angle_gamma 90.000000
_cell_volume 2808.297909
_symmetry_space_group_name_H-M "C 2/M"
_symmetry_group_IT_number 12
_symmetry_cell_setting 'monoclinic'
loop_
_space_group_symop_operation_xyz
x,y,z
-x,y,-z
-x,-y,-z
x,-y,z
1/2+x,1/2+y,z
1/2-x,1/2+y,-z
1/2-x,1/2-y,-z
1/2+x,1/2-y,z
loop_
_atom_site_type_symbol
_atom_site_label
_atom_site_fract_x
_atom_site_fract_y
_atom_site_fract_z
Si Si1 0.158683 0.320638 0.544849
Si Si2 0.044299 0.179050 0.980382
Si Si3 0.784474 0.680222 0.624939
Si Si4 0.925706 0.319553 0.727713
Si Si5 0.832838 0.679519 0.942433
Si Si6 0.171193 0.181132 0.898770
Si Si7 0.665462 0.680011 0.715385
O O1 0.165711 0.500000 0.554031
O O2 0.235927 0.248922 0.629822
O O3 0.108547 0.280489 0.403444
O O4 0.132645 0.262074 0.596061
O O5 0.119314 0.258049 0.065836
O O6 0.994869 0.228545 0.841442
O O7 0.054017 0.000000 0.996004
O O8 0.000000 0.227110 0.000000
O O9 0.777148 0.500000 0.616766
O O10 0.750000 0.750000 0.500000
O O11 0.866731 0.713890 0.718532
O O12 0.938840 0.500000 0.745877
O O13 0.838600 0.500000 0.953467
O O14 0.860278 0.750889 0.061887
O O15 0.749686 0.716851 0.826154
O O16 0.138352 0.219278 0.768813
O O17 0.175159 0.000000 0.909469
O O18 0.250000 0.250000 0.000000
O O19 0.659088 0.500000 0.696954
#
# Coordination Sequence:
#
# PCOD9191003 Si02
#       7
#     8   8   8   8   8   8   8
#     4  10  20  32  51  79 108 140 176 219 270 318
#     4  11  25  40  55  79 106 140 185 229 268 314
#     4   9  17  30  48  71  99 133 174 215 261 315
#     4   9  20  37  53  72 101 141 182 219 265 320
#     4  10  21  37  57  80 109 147 183 220 272 325
#     4   9  17  32  54  81 112 143 178 221 270 323
#     4   9  19  33  53  84 114 142 175 215 269 325
#
# _framework density 19.940902999999999
#
# number of rings (size 3 to 8) (size 9 to 14) (size 15 to 20)
#    0.000    2.429    0.000    3.857    2.000    8.000 
#    0.000    0.000    0.000    0.857    0.000    6.000 
#    0.000    0.000    0.000    0.000    0.000    0.000 
#
# Total GULP energy -156169.515202 kJ/mol
# GULP energy per Si atom -5577.482686 kJ/mol
# Density = 1.989552 g / cm^3
# Si number density = 19.940903 Si / 1000 Ang^3
#
#
#
# Elastic Constant Matrix: (Units=GPa)
#
#
# Indices 1 2 3 4 5 6 
#
# 1 76.9005 17.1680 16.2974 0.0000 -24.6101 0.0000
# 2 17.1680 21.2409 15.2205 0.0000 -3.5092 0.0000
# 3 16.2974 15.2205 54.9488 0.0000 -18.0604 0.0000
# 4 0.0000 0.0000 0.0000 17.4593 0.0000 -3.2894
# 5 -24.6101 -3.5092 -18.0604 0.0000 34.7610 0.0000
# 6 0.0000 0.0000 0.0000 -3.2894 0.0000 32.5980
#
#
#
# Elastic Compliance Matrix: (Units=1/GPa)
#
#
# Indices 1 2 3 4 5 6 
#
# 1 0.020742 -0.016708 0.003314 0.000000 0.014720 0.000000
# 2 -0.016708 0.072464 -0.020019 0.000000 -0.014914 0.000000
# 3 0.003314 -0.020019 0.027577 0.000000 0.014653 0.000000
# 4 0.000000 0.000000 0.000000 0.058386 0.000000 0.005892
# 5 0.014720 -0.014914 0.014653 0.000000 0.045297 0.000000
# 6 0.000000 0.000000 0.000000 0.005892 0.000000 0.031271
#
#
# Mechanical properties :
#
#
# Convention : Reuss Voigt Hill
#
# Bulk Modulus (GPa) = 18.53271 27.82909 23.18090
# Shear Modulus (GPa) = 14.68220 23.92396 19.30308
#
# Velocity S-wave (km/s) = 2.71640 3.46749 3.11467
# Velocity P-wave (km/s) = 4.37635 5.47881 4.95832
#
# Compressibility (1/GPa) = 0.05395866
#
# Stress axis : x y z
#
# Youngs Moduli (GPa) = 48.21047 13.80000 36.26212
#
# Poissons Ratio (x) = 0.23057 -0.12018
# Poissons Ratio (y) = 0.80550 0.72591
# Poissons Ratio (z) = -0.15978 0.27626
#
# Static dielectric constant tensor:
#      x y z
#    x 1.772930 0.000000 -0.010600 
#    y 0.000000 1.655970 0.000000 
#    z -0.010600 0.000000 1.728340 
# 
# From -- ./inp_files/295186.got.cif
#   From: 2010.05.17/outbox.cif.g08.bks.cpg/sg12_148_cif.got.tgz:295186.got - 2010.06.03 13:09:07.
