data_PCOD9191720
_publ_section_title
;
Structure prediction by ZEFSAII (Michael W. Deem and Ramdas Pophale) SiO2 
 PCOD9191720
Probable space group: C 2/M
;
_chemical_formula_sum "Si O2"
_cell_formula_units_Z 58
_cell_length_a 26.684284
_cell_length_b 7.334537
_cell_length_c 11.959329
_cell_angle_alpha 90.000000
_cell_angle_beta 106.763942
_cell_angle_gamma 90.000000
_cell_volume 2241.167936
_symmetry_space_group_name_H-M "C 2/M"
_symmetry_group_IT_number 12
_symmetry_cell_setting 'monoclinic'
loop_
_space_group_symop_operation_xyz
x,y,z
-x,y,-z
-x,-y,-z
x,-y,z
1/2+x,1/2+y,z
1/2-x,1/2+y,-z
1/2-x,1/2-y,-z
1/2+x,1/2-y,z
loop_
_atom_site_type_symbol
_atom_site_label
_atom_site_fract_x
_atom_site_fract_y
_atom_site_fract_z
Si Si1 0.553301 0.779344 0.600198
Si Si2 0.500000 0.500000 0.000000
Si Si3 0.150619 0.209552 0.121130
Si Si4 0.763900 0.722375 0.276540
Si Si5 0.847257 0.721350 0.487235
Si Si6 0.809030 0.713994 0.082608
Si Si7 0.087498 0.298155 0.274815
Si Si8 0.471799 0.776997 0.167652
O O1 0.500000 0.719655 0.500000
O O2 0.604490 0.726627 0.562527
O O3 0.558272 0.732787 0.735594
O O4 0.551188 0.000000 0.598242
O O5 0.532362 0.659618 0.947732
O O6 0.206294 0.283182 0.204091
O O7 0.106381 0.308542 0.160836
O O8 0.145217 0.000000 0.150058
O O9 0.153037 0.217193 0.989141
O O10 0.761098 0.500000 0.270257
O O11 0.790972 0.784607 0.407391
O O12 0.804678 0.780749 0.205680
O O13 0.842971 0.500000 0.482012
O O14 0.866180 0.782313 0.621058
O O15 0.818808 0.500000 0.093755
O O16 0.750000 0.750000 0.000000
O O17 0.078581 0.500000 0.316201
O O18 0.030925 0.214668 0.241032
O O19 0.469171 0.000000 0.147909
#
# Coordination Sequence:
#
# PCOD9191720 Si02
#       8
#     8   2   8   8   8   8   8   8
#     4   9  15  31  61  91 115 151 199 253 310 371
#     4  12  26  44  66  90 128 176 198 254 312 366
#     4  10  20  33  51  75 112 156 198 240 290 348
#     4   8  16  30  48  78 112 144 186 243 296 346
#     4   9  16  30  56  85 113 144 190 245 307 365
#     4   9  16  30  51  74 103 142 191 238 287 346
#     4  10  20  35  58  85 111 150 196 240 293 365
#     4  10  22  42  66  94 127 161 206 253 307 376
#
# _framework density 25.879362
#
# number of rings (size 3 to 8) (size 9 to 14) (size 15 to 20)
#    0.000    2.621    1.379    1.862    0.966    0.552 
#    2.483    0.345    1.517    4.138    0.000    0.000 
#    0.000    0.000    0.000    0.000    0.000    0.000 
#
# Total GULP energy -161665.526657 kJ/mol
# GULP energy per Si atom -5574.673333 kJ/mol
# Density = 2.582046 g / cm^3
# Si number density = 25.879362 Si / 1000 Ang^3
#
#
#
# Elastic Constant Matrix: (Units=GPa)
#
#
# Indices 1 2 3 4 5 6 
#
# 1 10.0335 -5.0018 17.9717 0.0000 -12.1534 0.0000
# 2 -5.0018 124.0879 14.5385 0.0000 -6.6422 0.0000
# 3 17.9717 14.5385 112.2468 0.0000 -3.1796 0.0000
# 4 0.0000 0.0000 0.0000 -4.5635 0.0000 -10.3353
# 5 -12.1534 -6.6422 -3.1796 0.0000 54.3533 0.0000
# 6 0.0000 0.0000 0.0000 -10.3353 0.0000 -16.7228
#
#
#
# Elastic Compliance Matrix: (Units=1/GPa)
#
#
# Indices 1 2 3 4 5 6 
#
# 1 0.247580 0.017661 -0.040365 0.000000 0.055156 0.000000
# 2 0.017661 0.009491 -0.003919 0.000000 0.004880 0.000000
# 3 -0.040365 -0.003919 0.015636 0.000000 -0.008590 0.000000
# 4 0.000000 0.000000 0.000000 0.548207 0.000000 -0.338812
# 5 0.055156 0.004880 -0.008590 0.000000 0.030825 0.000000
# 6 0.000000 0.000000 0.000000 -0.338812 0.000000 0.149600
#
#
# Mechanical properties :
#
#
# Convention : Reuss Voigt Hill
#
# Bulk Modulus (GPa) = 4.55658 33.48721 19.02190
# Shear Modulus (GPa) = 4.43365 21.20405 12.81885
#
# Velocity S-wave (km/s) = 1.31031 2.86552 2.22802
# Velocity P-wave (km/s) = 2.01339 4.89041 3.73964
#
# Compressibility (1/GPa) = 0.21946262
#
# Stress axis : x y z
#
# Youngs Moduli (GPa) = 4.03909 105.36234 63.95502
#
# Poissons Ratio (x) = -1.86084 2.58154
# Poissons Ratio (y) = -0.07134 0.25063
# Poissons Ratio (z) = 0.16304 0.41290
#
# Static dielectric constant tensor:
#      x y z
#    x 2.027720 0.000000 0.063690 
#    y 0.000000 2.075530 0.000000 
#    z 0.063690 0.000000 2.100940 
# 
# From -- ./inp_files/186718.got.cif
#   From: 2010.05.17/outbox.cif.g08.bks.cpg/sg12_94_cif.got.tgz:186718.got - 2010.06.03 13:09:07.
