data_PCOD9191341
_publ_section_title
;
Structure prediction by ZEFSAII (Michael W. Deem and Ramdas Pophale) SiO2 
 PCOD9191341
Probable space group: C 2/M
;
_chemical_formula_sum "Si O2"
_cell_formula_units_Z 58
_cell_length_a 23.893153
_cell_length_b 8.979153
_cell_length_c 13.812238
_cell_angle_alpha 90.000000
_cell_angle_beta 56.528905
_cell_angle_gamma 90.000000
_cell_volume 2471.863109
_symmetry_space_group_name_H-M "C 2/M"
_symmetry_group_IT_number 12
_symmetry_cell_setting 'monoclinic'
loop_
_space_group_symop_operation_xyz
x,y,z
-x,y,-z
-x,-y,-z
x,-y,z
1/2+x,1/2+y,z
1/2-x,1/2+y,-z
1/2-x,1/2-y,-z
1/2+x,1/2-y,z
loop_
_atom_site_type_symbol
_atom_site_label
_atom_site_fract_x
_atom_site_fract_y
_atom_site_fract_z
Si Si1 0.988714 0.324319 0.301832
Si Si2 0.239601 0.828631 0.879775
Si Si3 0.228714 0.327986 0.382692
Si Si4 0.876142 0.827321 0.788596
Si Si5 0.095251 0.829262 0.468589
Si Si6 0.500000 0.000000 0.000000
Si Si7 0.875758 0.822422 0.276746
Si Si8 0.884469 0.330610 0.063594
O O1 0.990466 0.500000 0.290900
O O2 0.961329 0.276438 0.434023
O O3 0.931691 0.255445 0.287572
O O4 0.062628 0.256820 0.219013
O O5 0.253969 0.829203 0.749519
O O6 0.302437 0.744093 0.866138
O O7 0.168423 0.744998 0.956283
O O8 0.236888 0.000000 0.913383
O O9 0.211813 0.500000 0.424790
O O10 0.165460 0.220162 0.450345
O O11 0.297566 0.280690 0.369055
O O12 0.893530 0.819499 0.656759
O O13 0.875480 0.000000 0.817042
O O14 0.078381 0.000000 0.509230
O O15 0.538501 0.871931 0.029310
O O16 0.887113 0.769858 0.156194
O O17 0.880490 0.000000 0.280547
O O18 0.858869 0.500000 0.114594
#
# Coordination Sequence:
#
# PCOD9191341 Si02
#       8
#     8   8   8   8   8   2   8   8
#     4  12  24  34  47  69  99 139 184 223 269 315
#     4   9  16  29  51  77 105 136 172 216 252 298
#     4   8  16  30  48  69  93 130 173 215 267 307
#     4  10  20  34  51  72  99 135 183 230 272 301
#     4  10  20  33  49  68  96 134 177 232 276 307
#     4   8  20  32  58  88 120 136 158 192 248 306
#     4  10  20  35  53  73 103 138 174 218 256 311
#     4   9  17  33  54  82 112 135 162 192 253 300
#
# _framework density 23.464081
#
# number of rings (size 3 to 8) (size 9 to 14) (size 15 to 20)
#    0.414    1.931    0.000    4.552    0.000    7.724 
#    0.000    1.379    0.000    0.000    0.000    0.966 
#    0.000    0.000    0.000    0.000    0.000    0.000 
#
# Total GULP energy -161818.768409 kJ/mol
# GULP energy per Si atom -5579.957531 kJ/mol
# Density = 2.341068 g / cm^3
# Si number density = 23.464081 Si / 1000 Ang^3
#
#
#
# Elastic Constant Matrix: (Units=GPa)
#
#
# Indices 1 2 3 4 5 6 
#
# 1 213.1755 115.0044 32.3910 0.0000 -13.9017 0.0000
# 2 115.0044 142.7152 24.6783 0.0000 -23.6233 0.0000
# 3 32.3910 24.6783 70.2820 0.0000 -9.4000 0.0000
# 4 0.0000 0.0000 0.0000 10.3341 0.0000 -10.9998
# 5 -13.9017 -23.6233 -9.4000 0.0000 39.9829 0.0000
# 6 0.0000 0.0000 0.0000 -10.9998 0.0000 49.3096
#
#
#
# Elastic Compliance Matrix: (Units=1/GPa)
#
#
# Indices 1 2 3 4 5 6 
#
# 1 0.008542 -0.006826 -0.001736 0.000000 -0.001472 0.000000
# 2 -0.006826 0.013560 -0.000889 0.000000 0.005429 0.000000
# 3 -0.001736 -0.000889 0.015683 0.000000 0.002558 0.000000
# 4 0.000000 0.000000 0.000000 0.126899 0.000000 0.028308
# 5 -0.001472 0.005429 0.002558 0.000000 0.028308 0.000000
# 6 0.000000 0.000000 0.000000 0.028308 0.000000 0.026595
#
#
# Mechanical properties :
#
#
# Convention : Reuss Voigt Hill
#
# Bulk Modulus (GPa) = 52.96378 85.59113 69.27745
# Shear Modulus (GPa) = 20.42611 36.86526 28.64569
#
# Velocity S-wave (km/s) = 2.95367 3.96806 3.49783
# Velocity P-wave (km/s) = 5.85265 7.58621 6.77511
#
# Compressibility (1/GPa) = 0.01888083
#
# Stress axis : x y z
#
# Youngs Moduli (GPa) = 117.07463 73.74428 63.76328
#
# Poissons Ratio (x) = 0.50341 0.11072
# Poissons Ratio (y) = 0.79920 0.05670
# Poissons Ratio (z) = 0.20329 0.06558
#
# Static dielectric constant tensor:
#      x y z
#    x 1.900000 0.000000 -0.017850 
#    y 0.000000 1.792040 0.000000 
#    z -0.017850 0.000000 2.046120 
# 
# From -- ./inp_files/281160.got.cif
#   From: 2010.05.17/outbox.cif.g08.bks.cpg/sg12_141_cif.got.tgz:281160.got - 2010.06.03 13:09:07.
