data_PCOD9191621
_publ_section_title
;
Structure prediction by ZEFSAII (Michael W. Deem and Ramdas Pophale) SiO2 
 PCOD9191621
Probable space group: C 2/M
;
_chemical_formula_sum "Si O2"
_cell_formula_units_Z 56
_cell_length_a 27.806319
_cell_length_b 15.736675
_cell_length_c 11.434840
_cell_angle_alpha 90.000000
_cell_angle_beta 39.652251
_cell_angle_gamma 90.000000
_cell_volume 3192.958530
_symmetry_space_group_name_H-M "C 2/M"
_symmetry_group_IT_number 12
_symmetry_cell_setting 'monoclinic'
loop_
_space_group_symop_operation_xyz
x,y,z
-x,y,-z
-x,-y,-z
x,-y,z
1/2+x,1/2+y,z
1/2-x,1/2+y,-z
1/2-x,1/2-y,-z
1/2+x,1/2-y,z
loop_
_atom_site_type_symbol
_atom_site_label
_atom_site_fract_x
_atom_site_fract_y
_atom_site_fract_z
Si Si1 0.845611 0.901023 0.838576
Si Si2 0.398011 0.743868 0.899863
Si Si3 0.461942 0.500000 0.256551
Si Si4 0.668608 0.681920 0.758211
Si Si5 0.620514 0.500000 0.827607
Si Si6 0.944454 0.168253 0.446889
Si Si7 0.192452 0.206210 0.444176
Si Si8 0.710436 0.098468 0.906989
O O1 0.848197 0.832605 0.937082
O O2 0.912988 0.870259 0.626451
O O3 0.769164 0.895341 0.905345
O O4 0.857049 0.000000 0.851100
O O5 0.481508 0.726576 0.695002
O O6 0.395073 0.727614 0.044830
O O7 0.357169 0.833568 0.951834
O O8 0.397736 0.500000 0.276976
O O9 0.457405 0.584750 0.342388
O O10 0.540586 0.500000 0.041952
O O11 0.664043 0.582642 0.783759
O O12 0.746989 0.719517 0.656274
O O13 0.661454 0.694458 0.632760
O O14 0.875610 0.219465 0.517227
O O15 0.240764 0.128240 0.297984
O O16 0.687260 0.000000 0.939448
#
# Coordination Sequence:
#
# PCOD9191621 Si02
#       8
#     8   8   4   8   4   8   8   8
#     4  10  21  34  54  80 108 135 168 212 260 315
#     4  11  22  33  52  81 109 136 168 212 267 311
#     4  11  20  30  48  83 112 138 163 203 264 324
#     4  10  20  33  50  77 107 136 169 209 252 314
#     4  11  20  30  51  78 113 138 167 204 261 324
#     4  11  20  34  53  76 109 137 170 209 257 312
#     4   9  20  35  52  77 101 134 176 213 253 299
#     4   9  20  39  58  73  96 139 185 218 246 300
#
# _framework density 17.538592999999999
#
# number of rings (size 3 to 8) (size 9 to 14) (size 15 to 20)
#    0.000    1.857    3.571    0.857    4.000    1.143 
#    0.000    0.000    1.571    1.714    0.000    3.000 
#    0.000    0.000    0.000    0.000    0.000    0.000 
#
# Total GULP energy -156116.105891 kJ/mol
# GULP energy per Si atom -5575.575210 kJ/mol
# Density = 1.749867 g / cm^3
# Si number density = 17.538593 Si / 1000 Ang^3
#
#
#
# Elastic Constant Matrix: (Units=GPa)
#
#
# Indices 1 2 3 4 5 6 
#
# 1 44.0783 40.0903 10.7106 0.0000 2.8754 0.0000
# 2 40.0903 111.6586 29.7069 0.0000 -9.0265 0.0000
# 3 10.7106 29.7069 47.3280 0.0000 4.7239 0.0000
# 4 0.0000 0.0000 0.0000 23.7766 0.0000 -0.5183
# 5 2.8754 -9.0265 4.7239 0.0000 25.1371 0.0000
# 6 0.0000 0.0000 0.0000 -0.5183 0.0000 23.2667
#
#
#
# Elastic Compliance Matrix: (Units=1/GPa)
#
#
# Indices 1 2 3 4 5 6 
#
# 1 0.035625 -0.013994 0.001661 0.000000 -0.009412 0.000000
# 2 -0.013994 0.016967 -0.008409 0.000000 0.009274 0.000000
# 3 0.001661 -0.008409 0.026855 0.000000 -0.008256 0.000000
# 4 0.000000 0.000000 0.000000 0.042079 0.000000 0.000937
# 5 -0.009412 0.009274 -0.008256 0.000000 0.045740 0.000000
# 6 0.000000 0.000000 0.000000 0.000937 0.000000 0.043001
#
#
# Mechanical properties :
#
#
# Convention : Reuss Voigt Hill
#
# Bulk Modulus (GPa) = 26.34049 40.45338 33.39694
# Shear Modulus (GPa) = 18.91046 22.60657 20.75851
#
# Velocity S-wave (km/s) = 3.28719 3.59411 3.44407
# Velocity P-wave (km/s) = 5.42758 6.35129 5.90752
#
# Compressibility (1/GPa) = 0.03796436
#
# Stress axis : x y z
#
# Youngs Moduli (GPa) = 28.07033 58.93802 37.23661
#
# Poissons Ratio (x) = 0.82476 -0.06185
# Poissons Ratio (y) = 0.39281 0.31311
# Poissons Ratio (z) = -0.04662 0.49559
#
# Static dielectric constant tensor:
#      x y z
#    x 1.629570 0.000000 0.026510 
#    y 0.000000 1.574410 0.000000 
#    z 0.026510 0.000000 1.631860 
# 
# From -- ./inp_files/183502.got.cif
#   From: 2010.05.17/outbox.cif.g08.bks.cpg/sg12_92_cif.got.tgz:183502.got - 2010.06.03 13:09:07.
