data_PCOD9191418
_publ_section_title
;
Structure prediction by ZEFSAII (Michael W. Deem and Ramdas Pophale) SiO2 
 PCOD9191418
Probable space group: C 2/M
;
_chemical_formula_sum "Si O2"
_cell_formula_units_Z 42
_cell_length_a 24.650334
_cell_length_b 14.424108
_cell_length_c 14.921857
_cell_angle_alpha 90.000000
_cell_angle_beta 20.082379
_cell_angle_gamma 90.000000
_cell_volume 1821.789061
_symmetry_space_group_name_H-M "C 2/M"
_symmetry_group_IT_number 12
_symmetry_cell_setting 'monoclinic'
loop_
_space_group_symop_operation_xyz
x,y,z
-x,y,-z
-x,-y,-z
x,-y,z
1/2+x,1/2+y,z
1/2-x,1/2+y,-z
1/2-x,1/2-y,-z
1/2+x,1/2-y,z
loop_
_atom_site_type_symbol
_atom_site_label
_atom_site_fract_x
_atom_site_fract_y
_atom_site_fract_z
Si Si1 0.000000 0.000000 0.500000
Si Si2 0.320101 0.864270 0.297457
Si Si3 0.731159 0.143824 0.065451
Si Si4 0.396074 0.854175 0.536196
Si Si5 0.819274 0.138436 0.294846
Si Si6 0.088157 0.131449 0.497813
O O1 0.879594 0.918823 0.645287
O O2 0.254165 0.891909 0.496781
O O3 0.320000 0.751387 0.295933
O O4 0.202422 0.895163 0.401313
O O5 0.500000 0.893050 0.000000
O O6 0.681636 0.133271 0.246243
O O7 0.574761 0.108599 0.257628
O O8 0.750000 0.250000 0.000000
O O9 0.905379 0.100896 0.792496
O O10 0.289014 0.888286 0.621157
O O11 0.406725 0.742021 0.513756
O O12 0.000000 0.109172 0.000000
#
# Coordination Sequence:
#
# PCOD9191418 Si02
#       6
#     2   8   8   8   8   8
#     4  12  24  36  50  70  98 148 186 210 250 312
#     4   9  18  30  47  72 103 134 167 212 261 315
#     4   9  16  28  47  74 104 132 165 218 271 312
#     4   9  17  29  52  81 105 130 168 219 278 325
#     4   9  16  27  46  75 107 134 159 202 271 332
#     4  10  20  33  49  72 105 138 176 214 259 317
#
# _framework density 23.054261
#
# number of rings (size 3 to 8) (size 9 to 14) (size 15 to 20)
#    0.000    2.667    0.000    3.429    0.000   10.667 
#    0.000    0.476    0.000    2.286    0.000    6.000 
#    0.000    0.000    0.000    0.000    0.000    0.000 
#
# Total GULP energy -116979.579319 kJ/mol
# GULP energy per Si atom -5570.456158 kJ/mol
# Density = 2.300179 g / cm^3
# Si number density = 23.054261 Si / 1000 Ang^3
#
#
#
# Elastic Constant Matrix: (Units=GPa)
#
#
# Indices 1 2 3 4 5 6 
#
# 1 230.4706 9.9875 111.4019 -0.0001 -42.2487 0.0000
# 2 9.9875 108.8986 2.2466 -0.0006 -10.5634 -0.0001
# 3 111.4019 2.2466 204.3933 -0.0008 -26.5132 -0.0001
# 4 -0.0001 -0.0006 -0.0008 28.3046 0.0004 112.6997
# 5 -42.2487 -10.5634 -26.5132 0.0004 43.2060 0.0000
# 6 0.0000 -0.0001 -0.0001 112.6997 0.0000 259.1993
#
#
#
# Elastic Compliance Matrix: (Units=1/GPa)
#
#
# Indices 1 2 3 4 5 6 
#
# 1 0.006653 -0.000099 -0.003025 0.000000 0.004625 0.000000
# 2 -0.000099 0.009416 0.000257 0.000000 0.002363 0.000000
# 3 -0.003025 0.000257 0.006696 0.000000 0.001214 0.000000
# 4 0.000000 0.000000 0.000000 -0.048316 0.000000 0.021008
# 5 0.004625 0.002363 0.001214 0.000000 0.028990 0.000000
# 6 0.000000 0.000000 0.000000 0.021008 0.000000 -0.005276
#
#
# Mechanical properties :
#
#
# Convention : Reuss Voigt Hill
#
# Bulk Modulus (GPa) = 58.71806 87.89275 73.30540
# Shear Modulus (GPa) = 522.18009 94.15040 308.16525
#
# Velocity S-wave (km/s) = 15.06626 6.39744 11.57410
# Velocity P-wave (km/s) = 18.11577 9.63207 14.50789
#
# Compressibility (1/GPa) = 0.01703054
#
# Stress axis : x y z
#
# Youngs Moduli (GPa) = 150.29729 106.20388 149.34223
#
# Poissons Ratio (x) = 0.01053 0.45181
# Poissons Ratio (y) = 0.01490 -0.03839
# Poissons Ratio (z) = 0.45470 -0.02730
#
# Static dielectric constant tensor:
#      x y z
#    x 1.931130 0.000000 0.123030 
#    y 0.000000 1.907460 0.000000 
#    z 0.123030 0.000000 1.943460 
# 
# From -- ./inp_files/241710.got.cif
#   From: 2010.05.17/outbox.cif.g08.bks.cpg/sg12_121_cif.got.tgz:241710.got - 2010.06.03 13:09:07.
