data_PCOD9191616
_publ_section_title
;
Structure prediction by ZEFSAII (Michael W. Deem and Ramdas Pophale) SiO2 
 PCOD9191616
Probable space group: C 2/M
;
_chemical_formula_sum "Si O2"
_cell_formula_units_Z 56
_cell_length_a 21.679165
_cell_length_b 27.382652
_cell_length_c 11.231341
_cell_angle_alpha 90.000000
_cell_angle_beta 23.254412
_cell_angle_gamma 90.000000
_cell_volume 2632.345446
_symmetry_space_group_name_H-M "C 2/M"
_symmetry_group_IT_number 12
_symmetry_cell_setting 'monoclinic'
loop_
_space_group_symop_operation_xyz
x,y,z
-x,y,-z
-x,-y,-z
x,-y,z
1/2+x,1/2+y,z
1/2-x,1/2+y,-z
1/2-x,1/2-y,-z
1/2+x,1/2-y,z
loop_
_atom_site_type_symbol
_atom_site_label
_atom_site_fract_x
_atom_site_fract_y
_atom_site_fract_z
Si Si1 0.844117 0.442612 0.699182
Si Si2 0.013417 0.944914 0.616291
Si Si3 0.571872 0.732239 0.540369
Si Si4 0.882020 0.374408 0.453448
Si Si5 0.629188 0.209373 0.671576
Si Si6 0.237606 0.357648 0.835334
Si Si7 0.234589 0.685559 0.109150
O O1 0.839418 0.500000 0.732015
O O2 0.865110 0.430198 0.522377
O O3 0.000000 0.425909 0.500000
O O4 0.662434 0.427534 0.042120
O O5 0.145431 0.902976 0.396562
O O6 0.000000 0.950760 0.500000
O O7 0.045712 0.000000 0.609378
O O8 0.555573 0.767832 0.681286
O O9 0.697105 0.690261 0.344355
O O10 0.639310 0.764932 0.311990
O O11 0.413461 0.702269 0.802882
O O12 0.798910 0.342481 0.499251
O O13 0.829986 0.349549 0.671841
O O14 0.064184 0.369214 0.103462
O O15 0.750000 0.250000 0.500000
O O16 0.500000 0.202525 0.000000
O O17 0.222067 0.340257 0.002577
#
# Coordination Sequence:
#
# PCOD9191616 Si02
#       7
#     8   8   8   8   8   8   8
#     4  10  20  35  57  87 124 160 192 230 281 350
#     4  10  20  33  50  76 113 157 194 221 261 324
#     4  11  22  36  54  77 105 144 189 230 289 352
#     4  11  22  36  56  83 111 150 198 234 284 348
#     4  11  23  41  58  76 105 144 194 253 299 337
#     4  12  22  34  53  81 118 151 184 228 281 349
#     4  11  22  35  51  79 116 149 182 225 279 349
#
# _framework density 21.273803999999998
#
# number of rings (size 3 to 8) (size 9 to 14) (size 15 to 20)
#    0.000    1.143    0.000    9.857    0.000    4.000 
#    0.000    0.000    0.000    0.429    0.000    1.000 
#    0.000   11.429    0.000    0.000    0.000    0.000 
#
# Total GULP energy -156033.974578 kJ/mol
# GULP energy per Si atom -5572.641949 kJ/mol
# Density = 2.122538 g / cm^3
# Si number density = 21.273804 Si / 1000 Ang^3
#
#
#
# Elastic Constant Matrix: (Units=GPa)
#
#
# Indices 1 2 3 4 5 6 
#
# 1 40.1449 7.2866 21.0268 0.0032 6.2992 0.0006
# 2 7.2866 79.1409 41.8918 -0.0012 -4.7528 -0.0018
# 3 21.0268 41.8918 137.7055 0.0685 -5.7657 0.0056
# 4 0.0032 -0.0012 0.0685 184.9656 -0.0068 8.8815
# 5 6.2992 -4.7528 -5.7657 -0.0068 31.5037 -0.0018
# 6 0.0006 -0.0018 0.0056 8.8815 -0.0018 34.3496
#
#
#
# Elastic Compliance Matrix: (Units=1/GPa)
#
#
# Indices 1 2 3 4 5 6 
#
# 1 0.028371 -0.000678 -0.004401 0.000001 -0.006581 0.000000
# 2 -0.000678 0.015143 -0.004436 0.000002 0.001608 0.000001
# 3 -0.004401 -0.004436 0.009364 -0.000003 0.001925 -0.000001
# 4 0.000001 0.000002 -0.000003 0.005474 0.000001 -0.001415
# 5 -0.006581 0.001608 0.001925 0.000001 0.033653 0.000001
# 6 0.000000 0.000001 -0.000001 -0.001415 0.000001 0.029478
#
#
# Mechanical properties :
#
#
# Convention : Reuss Voigt Hill
#
# Bulk Modulus (GPa) = 29.54406 44.15573 36.84990
# Shear Modulus (GPa) = 32.93913 62.61617 47.77765
#
# Velocity S-wave (km/s) = 3.93917 5.43115 4.74418
# Velocity P-wave (km/s) = 5.88278 7.75440 6.88251
#
# Compressibility (1/GPa) = 0.03384775
#
# Stress axis : x y z
#
# Youngs Moduli (GPa) = 35.24773 66.03853 106.79238
#
# Poissons Ratio (x) = 0.04474 0.47004
# Poissons Ratio (y) = 0.02388 0.47371
# Poissons Ratio (z) = 0.15514 0.29293
#
# Static dielectric constant tensor:
#      x y z
#    x 1.841420 -0.000020 0.019860 
#    y -0.000020 2.023720 0.000010 
#    z 0.019860 0.000010 1.867720 
# 
# From -- ./inp_files/178690.got.cif
#   From: 2010.05.17/outbox.cif.g08.bks.cpg/sg12_90_cif.got.tgz:178690.got - 2010.06.03 13:09:07.
