data_PCOD9191039
_publ_section_title
;
Structure prediction by ZEFSAII (Michael W. Deem and Ramdas Pophale) SiO2 
 PCOD9191039
Probable space group: C 2/M
;
_chemical_formula_sum "Si O2"
_cell_formula_units_Z 48
_cell_length_a 19.810995
_cell_length_b 11.655387
_cell_length_c 17.321205
_cell_angle_alpha 90.000000
_cell_angle_beta 150.970227
_cell_angle_gamma 90.000000
_cell_volume 1940.837600
_symmetry_space_group_name_H-M "C 2/M"
_symmetry_group_IT_number 12
_symmetry_cell_setting 'monoclinic'
loop_
_space_group_symop_operation_xyz
x,y,z
-x,y,-z
-x,-y,-z
x,-y,z
1/2+x,1/2+y,z
1/2-x,1/2+y,-z
1/2-x,1/2-y,-z
1/2+x,1/2-y,z
loop_
_atom_site_type_symbol
_atom_site_label
_atom_site_fract_x
_atom_site_fract_y
_atom_site_fract_z
Si Si1 0.872264 0.631106 0.310123
Si Si2 0.621351 0.000000 0.192592
Si Si3 0.425796 0.748282 0.590977
Si Si4 0.157775 0.500000 0.005487
Si Si5 0.397162 0.500000 0.128760
Si Si6 0.547465 0.742362 0.873211
Si Si7 0.144463 0.000000 0.467483
Si Si8 0.682245 0.743269 0.237300
O O1 0.851054 0.500000 0.268167
O O2 0.738659 0.683268 0.217600
O O3 0.000000 0.637311 0.500000
O O4 0.932073 0.700183 0.298375
O O5 0.454618 0.000000 0.034284
O O6 0.690776 0.000000 0.350555
O O7 0.681000 0.119512 0.221273
O O8 0.432431 0.755657 0.689291
O O9 0.415170 0.615713 0.556679
O O10 0.293122 0.798099 0.413915
O O11 0.120438 0.366831 0.944235
O O12 0.315887 0.500000 0.129658
O O13 0.370157 0.624323 0.063121
O O14 0.567028 0.500000 0.307820
O O15 0.465930 0.723798 0.871815
#
# Coordination Sequence:
#
# PCOD9191039 Si02
#       8
#     8   4   8   4   4   8   4   8
#     4   9  18  29  43  69 106 144 173 205 258 313
#     4   8  16  31  50  74 101 129 167 214 263 305
#     4   9  17  30  47  73 106 137 172 214 260 311
#     4  10  20  34  51  76 106 136 174 216 264 312
#     4  10  20  34  51  76 106 136 174 216 264 312
#     4  10  20  32  52  76  99 138 177 218 261 304
#     4   8  16  31  50  74 101 129 167 214 263 305
#     4   9  17  30  47  73 106 137 172 214 260 311
#
# _framework density 24.731590000000001
#
# number of rings (size 3 to 8) (size 9 to 14) (size 15 to 20)
#    0.000    2.833    0.000    1.000    2.333    2.000 
#    0.000    3.333    0.000    0.000    0.000   49.000 
#    0.000    0.000    0.000    0.000    0.000    0.000 
#
# Total GULP energy -133623.462622 kJ/mol
# GULP energy per Si atom -5567.644276 kJ/mol
# Density = 2.467530 g / cm^3
# Si number density = 24.731590 Si / 1000 Ang^3
#
#
#
# Elastic Constant Matrix: (Units=GPa)
#
#
# Indices 1 2 3 4 5 6 
#
# 1 86.2237 21.4914 27.4878 0.0000 26.2748 0.0000
# 2 21.4914 113.1273 24.9373 0.0000 3.0988 0.0000
# 3 27.4878 24.9373 108.2191 0.0000 2.4442 0.0000
# 4 0.0000 0.0000 0.0000 30.6175 0.0000 8.1716
# 5 26.2748 3.0988 2.4442 0.0000 25.1235 0.0000
# 6 0.0000 0.0000 0.0000 8.1716 0.0000 28.9662
#
#
#
# Elastic Compliance Matrix: (Units=1/GPa)
#
#
# Indices 1 2 3 4 5 6 
#
# 1 0.019412 -0.002276 -0.003963 0.000000 -0.019635 0.000000
# 2 -0.002276 0.009602 -0.001665 0.000000 0.001358 0.000000
# 3 -0.003963 -0.001665 0.010556 0.000000 0.003323 0.000000
# 4 0.000000 0.000000 0.000000 0.035320 0.000000 -0.009964
# 5 -0.019635 0.001358 0.003323 0.000000 0.059847 0.000000
# 6 0.000000 0.000000 0.000000 -0.009964 0.000000 0.037334
#
#
# Mechanical properties :
#
#
# Convention : Reuss Voigt Hill
#
# Bulk Modulus (GPa) = 42.08543 50.60035 46.34289
# Shear Modulus (GPa) = 25.53630 32.51834 29.02732
#
# Velocity S-wave (km/s) = 3.21680 3.63002 3.42964
# Velocity P-wave (km/s) = 5.55436 6.17038 5.87046
#
# Compressibility (1/GPa) = 0.02376119
#
# Stress axis : x y z
#
# Youngs Moduli (GPa) = 51.51521 104.14613 94.73596
#
# Poissons Ratio (x) = 0.23708 0.37540
# Poissons Ratio (y) = 0.11727 0.15774
# Poissons Ratio (z) = 0.20413 0.17341
#
# Static dielectric constant tensor:
#      x y z
#    x 2.070460 0.000000 -0.109730 
#    y 0.000000 1.916300 0.000000 
#    z -0.109730 0.000000 2.076510 
# 
# From -- ./inp_files/132536.got.cif
#   From: 2010.05.17/outbox.cif.g08.bks.cpg/sg12_67_cif.got.tgz:132536.got - 2010.06.03 13:09:07.
