data_PCOD9191109
_publ_section_title
;
Structure prediction by ZEFSAII (Michael W. Deem and Ramdas Pophale) SiO2 
 PCOD9191109
Probable space group: C 2/M
;
_chemical_formula_sum "Si O2"
_cell_formula_units_Z 56
_cell_length_a 30.135918
_cell_length_b 9.541548
_cell_length_c 11.763826
_cell_angle_alpha 90.000000
_cell_angle_beta 121.527419
_cell_angle_gamma 90.000000
_cell_volume 2883.302546
_symmetry_space_group_name_H-M "C 2/M"
_symmetry_group_IT_number 12
_symmetry_cell_setting 'monoclinic'
loop_
_space_group_symop_operation_xyz
x,y,z
-x,y,-z
-x,-y,-z
x,-y,z
1/2+x,1/2+y,z
1/2-x,1/2+y,-z
1/2-x,1/2-y,-z
1/2+x,1/2-y,z
loop_
_atom_site_type_symbol
_atom_site_label
_atom_site_fract_x
_atom_site_fract_y
_atom_site_fract_z
Si Si1 0.196787 0.168918 0.959150
Si Si2 0.422878 0.337399 0.626734
Si Si3 0.334380 0.243649 0.673895
Si Si4 0.655376 0.666252 0.661133
Si Si5 0.229038 0.648034 0.622940
Si Si6 0.127241 0.661030 0.036799
Si Si7 0.978938 0.831758 0.100817
O O1 0.158619 0.189667 0.799278
O O2 0.203944 0.000000 0.983884
O O3 0.250000 0.250000 0.000000
O O4 0.170179 0.246171 0.029133
O O5 0.433488 0.500000 0.617382
O O6 0.379372 0.325470 0.667298
O O7 0.394559 0.277368 0.476224
O O8 0.476301 0.282028 0.751354
O O9 0.288465 0.336354 0.666015
O O10 0.304639 0.155496 0.537684
O O11 0.358981 0.161541 0.811120
O O12 0.657035 0.500000 0.644234
O O13 0.706728 0.730691 0.671960
O O14 0.220296 0.500000 0.670194
O O15 0.126148 0.500000 0.994711
O O16 0.072771 0.742058 0.951289
O O17 0.969255 0.000000 0.102448
O O18 0.000000 0.814449 0.000000
#
# Coordination Sequence:
#
# PCOD9191109 Si02
#       7
#     8   8   8   8   8   8   8
#     4  11  24  42  63  87 117 154 198 243 289 341
#     4   9  17  34  59  83 111 148 189 236 290 348
#     4  10  20  33  50  80 117 151 187 230 286 345
#     4   9  20  38  58  80 110 149 191 236 288 343
#     4  10  20  32  53  82 113 147 187 233 284 342
#     4  12  25  39  58  85 120 157 195 237 289 347
#     4  10  20  37  61  89 118 150 193 241 292 347
#
# _framework density 19.422173000000001
#
# number of rings (size 3 to 8) (size 9 to 14) (size 15 to 20)
#    0.000    1.857    1.429    2.571    0.000    9.429 
#    0.000    1.429    0.000    4.286    0.000    0.000 
#    0.000    0.000    0.000    0.000    0.000    0.000 
#
# Total GULP energy -156151.965651 kJ/mol
# GULP energy per Si atom -5576.855916 kJ/mol
# Density = 1.937797 g / cm^3
# Si number density = 19.422173 Si / 1000 Ang^3
#
#
#
# Elastic Constant Matrix: (Units=GPa)
#
#
# Indices 1 2 3 4 5 6 
#
# 1 55.5248 19.4362 22.4558 0.0000 17.0760 0.0000
# 2 19.4362 68.6590 23.6748 0.0000 3.9933 0.0000
# 3 22.4558 23.6748 111.1487 0.0000 8.2428 0.0000
# 4 0.0000 0.0000 0.0000 0.7170 0.0000 -6.3194
# 5 17.0760 3.9933 8.2428 0.0000 35.4415 0.0000
# 6 0.0000 0.0000 0.0000 -6.3194 0.0000 18.6894
#
#
#
# Elastic Compliance Matrix: (Units=1/GPa)
#
#
# Indices 1 2 3 4 5 6 
#
# 1 0.024255 -0.005221 -0.003017 0.000000 -0.010396 0.000000
# 2 -0.005221 0.016879 -0.002631 0.000000 0.001226 0.000000
# 3 -0.003017 -0.002631 0.010213 0.000000 -0.000625 0.000000
# 4 0.000000 0.000000 0.000000 -0.704332 0.000000 -0.238154
# 5 -0.010396 0.001226 -0.000625 0.000000 0.033232 0.000000
# 6 0.000000 0.000000 0.000000 -0.238154 0.000000 -0.027020
#
#
# Mechanical properties :
#
#
# Convention : Reuss Voigt Hill
#
# Bulk Modulus (GPa) = 33.77472 40.71846 37.24659
# Shear Modulus (GPa) = -8.12791 22.28728 7.07969
#
# Velocity S-wave (km/s) = -2.04791 3.39118 1.91130
# Velocity P-wave (km/s) = 3.44029 6.02859 4.90813
#
# Compressibility (1/GPa) = 0.02960794
#
# Stress axis : x y z
#
# Youngs Moduli (GPa) = 41.22844 59.24608 97.91091
#
# Poissons Ratio (x) = 0.30933 0.29542
# Poissons Ratio (y) = 0.21526 0.25763
# Poissons Ratio (z) = 0.12440 0.15589
#
# Static dielectric constant tensor:
#      x y z
#    x 1.636930 0.000000 0.012710 
#    y 0.000000 1.666310 0.000000 
#    z 0.012710 0.000000 1.739990 
# 
# From -- ./inp_files/187690.got.cif
#   From: 2010.05.17/outbox.cif.g08.bks.cpg/sg12_94_cif.got.tgz:187690.got - 2010.06.03 13:09:07.
