data_PCOD9191496
_publ_section_title
;
Structure prediction by ZEFSAII (Michael W. Deem and Ramdas Pophale) SiO2 
 PCOD9191496
Probable space group: C 2/M
;
_chemical_formula_sum "Si O2"
_cell_formula_units_Z 56
_cell_length_a 9.433896
_cell_length_b 18.388837
_cell_length_c 21.041197
_cell_angle_alpha 90.000000
_cell_angle_beta 116.635556
_cell_angle_gamma 90.000000
_cell_volume 3262.820360
_symmetry_space_group_name_H-M "C 2/M"
_symmetry_group_IT_number 12
_symmetry_cell_setting 'monoclinic'
loop_
_space_group_symop_operation_xyz
x,y,z
-x,y,-z
-x,-y,-z
x,-y,z
1/2+x,1/2+y,z
1/2-x,1/2+y,-z
1/2-x,1/2-y,-z
1/2+x,1/2-y,z
loop_
_atom_site_type_symbol
_atom_site_label
_atom_site_fract_x
_atom_site_fract_y
_atom_site_fract_z
Si Si1 0.386957 0.914523 0.217812
Si Si2 0.912835 0.411649 0.078526
Si Si3 0.048596 0.085477 0.217853
Si Si4 0.810852 0.826471 0.639699
Si Si5 0.468582 0.826494 0.639727
Si Si6 0.744166 0.911649 0.078567
Si Si7 0.672144 0.916988 0.499992
O O1 0.392718 0.887208 0.146620
O O2 0.207797 0.910301 0.207857
O O3 0.494330 0.869460 0.287936
O O4 0.433216 0.000000 0.228513
O O5 0.904081 0.500000 0.078101
O O6 0.086040 0.392747 0.086090
O O7 0.785268 0.387117 0.999974
O O8 0.081534 0.130540 0.287985
O O9 0.900424 0.112795 0.146677
O O10 0.023754 0.000000 0.228561
O O11 0.637683 0.816794 0.637681
O O12 0.784203 0.874039 0.571047
O O13 0.887858 0.749984 0.637871
O O14 0.357950 0.874091 0.571095
O O15 0.752075 0.000000 0.078146
O O16 0.500000 0.919692 0.500000
O O17 0.723499 0.000000 0.500016
#
# Coordination Sequence:
#
# PCOD9191496 Si02
#       7
#     8   8   8   8   8   8   8
#     4   9  17  29  46  69  95 123 159 200 237 276
#     4   8  14  25  42  66  95 124 154 191 238 288
#     4   9  17  29  46  69  95 123 159 200 237 276
#     4  10  20  33  50  72  98 128 160 194 234 281
#     4  10  20  33  50  72  98 128 160 194 234 281
#     4   8  14  25  42  66  95 124 154 191 238 288
#     4   9  17  32  55  77  96 123 160 198 234 275
#
# _framework density 17.163066000000001
#
# number of rings (size 3 to 8) (size 9 to 14) (size 15 to 20)
#    0.000    3.000    0.000    2.143    0.000    5.143 
#    0.000    2.857    0.000    4.286    0.000    0.000 
#    0.000    0.000    0.000    0.000    0.000    0.000 
#
# Total GULP energy -155996.336961 kJ/mol
# GULP energy per Si atom -5571.297749 kJ/mol
# Density = 1.712400 g / cm^3
# Si number density = 17.163066 Si / 1000 Ang^3
#
#
#
# Elastic Constant Matrix: (Units=GPa)
#
#
# Indices 1 2 3 4 5 6 
#
# 1 21.6876 37.4973 62.1613 0.0000 4.9015 0.0000
# 2 37.4973 93.7628 88.9742 0.0000 4.4227 0.0000
# 3 62.1613 88.9742 219.7343 0.0000 11.8079 0.0000
# 4 0.0000 0.0000 0.0000 -4.8217 0.0000 -2.3340
# 5 4.9015 4.4227 11.8079 0.0000 9.4803 0.0000
# 6 0.0000 0.0000 0.0000 -2.3340 0.0000 23.7762
#
#
#
# Elastic Compliance Matrix: (Units=1/GPa)
#
#
# Indices 1 2 3 4 5 6 
#
# 1 0.856605 -0.183878 -0.159348 0.000000 -0.158630 0.000000
# 2 -0.183878 0.056796 0.027153 0.000000 0.034754 0.000000
# 3 -0.159348 0.027153 0.037391 0.000000 0.023148 0.000000
# 4 0.000000 0.000000 0.000000 -0.197987 0.000000 -0.019436
# 5 -0.158630 0.034754 0.023148 0.000000 0.142452 0.000000
# 6 0.000000 0.000000 0.000000 -0.019436 0.000000 0.040151
#
#
# Mechanical properties :
#
#
# Convention : Reuss Voigt Hill
#
# Bulk Modulus (GPa) = 3.13829 79.16114 41.14972
# Shear Modulus (GPa) = 2.98727 15.45709 9.22218
#
# Velocity S-wave (km/s) = 1.32072 3.00426 2.32055
# Velocity P-wave (km/s) = 2.03917 7.63264 5.58639
#
# Compressibility (1/GPa) = 0.31864469
#
# Stress axis : x y z
#
# Youngs Moduli (GPa) = 1.16740 17.60688 26.74452
#
# Poissons Ratio (x) = 3.23753 4.26168
# Poissons Ratio (y) = 0.21466 -0.72619
# Poissons Ratio (z) = 0.18602 -0.47807
#
# Static dielectric constant tensor:
#      x y z
#    x 1.571000 0.000000 0.001250 
#    y 0.000000 1.561860 0.000000 
#    z 0.001250 0.000000 1.586250 
# 
# From -- ./inp_files/257185.got.cif
#   From: 2010.05.17/outbox.cif.g08.bks.cpg/sg12_129_cif.got.tgz:257185.got - 2010.06.03 13:09:07.
