data_PCOD9191018
_publ_section_title
;
Structure prediction by ZEFSAII (Michael W. Deem and Ramdas Pophale) SiO2 
 PCOD9191018
Probable space group: C 2/M
;
_chemical_formula_sum "Si O2"
_cell_formula_units_Z 64
_cell_length_a 11.625184
_cell_length_b 23.006283
_cell_length_c 19.380452
_cell_angle_alpha 90.000000
_cell_angle_beta 136.434845
_cell_angle_gamma 90.000000
_cell_volume 3572.253192
_symmetry_space_group_name_H-M "C 2/M"
_symmetry_group_IT_number 12
_symmetry_cell_setting 'monoclinic'
loop_
_space_group_symop_operation_xyz
x,y,z
-x,y,-z
-x,-y,-z
x,-y,z
1/2+x,1/2+y,z
1/2-x,1/2+y,-z
1/2-x,1/2-y,-z
1/2+x,1/2-y,z
loop_
_atom_site_type_symbol
_atom_site_label
_atom_site_fract_x
_atom_site_fract_y
_atom_site_fract_z
Si Si1 0.090042 0.665033 0.604047
Si Si2 0.870288 0.136174 0.149193
Si Si3 0.834114 0.931942 0.650111
Si Si4 0.909083 0.565787 0.035833
Si Si5 0.684221 0.860179 0.212182
Si Si6 0.898988 0.755763 0.757967
Si Si7 0.194407 0.302083 0.426324
Si Si8 0.520839 0.605487 0.435864
O O1 0.181935 0.609221 0.609785
O O2 0.229734 0.707506 0.694539
O O3 0.000000 0.695280 0.500000
O O4 0.947574 0.658267 0.599135
O O5 0.749657 0.107756 0.040461
O O6 0.762086 0.145834 0.170577
O O7 0.012456 0.090598 0.235739
O O8 0.956077 0.197299 0.169414
O O9 0.891153 0.921529 0.594818
O O10 0.800515 0.000000 0.644998
O O11 0.858673 0.500000 0.029244
O O12 0.000000 0.565241 0.000000
O O13 0.046261 0.589557 0.148474
O O14 0.597066 0.799898 0.192404
O O15 0.838715 0.874417 0.329687
O O16 0.882558 0.728631 0.674205
O O17 0.250000 0.250000 0.500000
O O18 0.357945 0.341465 0.490083
O O19 0.500000 0.571946 0.500000
#
# Coordination Sequence:
#
# PCOD9191018 Si02
#       8
#     8   8   8   8   8   8   8   8
#     4  11  20  33  49  79 102 144 196 218 264 325
#     4   9  19  35  54  83 104 134 183 223 285 331
#     4  10  21  37  55  75 106 142 186 241 274 317
#     4   9  18  35  58  76 101 137 179 231 279 329
#     4  10  20  32  51  82 110 142 179 220 274 330
#     4  11  20  31  52  79 115 142 173 230 270 332
#     4  12  20  31  51  74 110 153 185 214 264 328
#     4  11  21  34  50  77 111 146 186 218 268 333
#
# _framework density 17.915863000000002
#
# number of rings (size 3 to 8) (size 9 to 14) (size 15 to 20)
#    0.000    1.625    3.750    3.375    0.000    4.000 
#    0.000    0.000    0.000    0.750    0.000    0.000 
#    0.000   10.000    0.000    0.000    0.000    0.000 
#
# Total GULP energy -178324.894008 kJ/mol
# GULP energy per Si atom -5572.652938 kJ/mol
# Density = 1.787509 g / cm^3
# Si number density = 17.915863 Si / 1000 Ang^3
#
#
#
# Elastic Constant Matrix: (Units=GPa)
#
#
# Indices 1 2 3 4 5 6 
#
# 1 61.7766 30.4095 44.7604 0.0000 10.5335 0.0000
# 2 30.4095 101.6673 47.5435 0.0000 4.2000 0.0000
# 3 44.7604 47.5435 81.9022 -0.0001 19.1934 0.0000
# 4 0.0000 0.0000 -0.0001 6.7395 0.0000 -4.0423
# 5 10.5335 4.2000 19.1934 0.0000 14.6981 0.0000
# 6 0.0000 0.0000 0.0000 -4.0423 0.0000 12.5357
#
#
#
# Elastic Compliance Matrix: (Units=1/GPa)
#
#
# Indices 1 2 3 4 5 6 
#
# 1 0.027007 -0.001736 -0.013448 0.000000 -0.001298 0.000000
# 2 -0.001736 0.014532 -0.009807 0.000000 0.009897 0.000000
# 3 -0.013448 -0.009807 0.032186 0.000001 -0.029590 0.000000
# 4 0.000000 0.000000 0.000001 0.183959 0.000000 0.059321
# 5 -0.001298 0.009897 -0.029590 0.000000 0.104778 0.000000
# 6 0.000000 0.000000 0.000000 0.059321 0.000000 0.098902
#
#
# Mechanical properties :
#
#
# Convention : Reuss Voigt Hill
#
# Bulk Modulus (GPa) = 42.11438 54.53031 48.32234
# Shear Modulus (GPa) = 9.62911 14.97017 12.29964
#
# Velocity S-wave (km/s) = 2.32084 2.89378 2.62300
# Velocity P-wave (km/s) = 5.54432 6.45509 6.01697
#
# Compressibility (1/GPa) = 0.02374486
#
# Stress axis : x y z
#
# Youngs Moduli (GPa) = 37.02797 68.81239 31.06928
#
# Poissons Ratio (x) = 0.11943 0.41781
# Poissons Ratio (y) = 0.06427 0.30469
# Poissons Ratio (z) = 0.49794 0.67482
#
# Static dielectric constant tensor:
#      x y z
#    x 1.686430 0.000000 0.010980 
#    y 0.000000 1.606390 0.000000 
#    z 0.010980 0.000000 1.626950 
# 
# From -- ./inp_files/306810.got.cif
#   From: 2010.05.17/outbox.cif.g08.bks.cpg/sg12_154_cif.got.tgz:306810.got - 2010.06.03 13:09:07.
