data_PCOD9191212
_publ_section_title
;
Structure prediction by ZEFSAII (Michael W. Deem and Ramdas Pophale) SiO2 
 PCOD9191212
Probable space group: C 2/M
;
_chemical_formula_sum "Si O2"
_cell_formula_units_Z 46
_cell_length_a 12.976657
_cell_length_b 14.647991
_cell_length_c 26.430521
_cell_angle_alpha 90.000000
_cell_angle_beta 156.175293
_cell_angle_gamma 90.000000
_cell_volume 2029.379490
_symmetry_space_group_name_H-M "C 2/M"
_symmetry_group_IT_number 12
_symmetry_cell_setting 'monoclinic'
loop_
_space_group_symop_operation_xyz
x,y,z
-x,y,-z
-x,-y,-z
x,-y,z
1/2+x,1/2+y,z
1/2-x,1/2+y,-z
1/2-x,1/2-y,-z
1/2+x,1/2-y,z
loop_
_atom_site_type_symbol
_atom_site_label
_atom_site_fract_x
_atom_site_fract_y
_atom_site_fract_z
Si Si1 0.500000 0.683368 0.500000
Si Si2 0.412068 0.215993 0.851266
Si Si3 0.834479 0.896064 0.876180
Si Si4 0.351402 0.101236 0.728408
Si Si5 0.000000 0.500000 0.500000
Si Si6 0.094658 0.841488 0.320543
Si Si7 0.746766 0.104077 0.074065
O O1 0.574059 0.621823 0.581028
O O2 0.259216 0.749789 0.398693
O O3 0.369225 0.320955 0.848512
O O4 0.426819 0.180242 0.801001
O O5 0.154871 0.166731 0.756923
O O6 0.653049 0.173404 0.989171
O O7 0.907431 0.000000 0.894814
O O8 0.449743 0.898932 0.228857
O O9 0.000000 0.868783 0.000000
O O10 0.367138 0.000000 0.759091
O O11 0.210306 0.421200 0.579355
O O12 0.982293 0.862304 0.213950
O O13 0.792385 0.000000 0.077078
O O14 0.500000 0.100977 0.000000
#
# Coordination Sequence:
#
# PCOD9191212 Si02
#       7
#     4   8   8   8   2   8   8
#     4  11  23  43  65  90 132 190 232 274 332 414
#     4  11  22  39  73 101 129 174 236 287 336 405
#     4  10  22  45  70  97 143 182 218 280 347 406
#     4  11  25  44  71 102 132 180 235 279 340 415
#     4  10  20  32  60  88 146 194 206 260 350 404
#     4  10  20  37  62  93 138 183 220 274 339 402
#     4   9  17  32  59  96 133 171 214 270 343 400
#
# _framework density 22.667027000000001
#
# number of rings (size 3 to 8) (size 9 to 14) (size 15 to 20)
#    0.000    1.739    2.609    2.348    2.435    1.391 
#    0.000    0.000    7.652    2.087    0.000    0.000 
#    0.000    0.000    0.000    0.000    0.000    0.000 
#
# Total GULP energy -128301.809705 kJ/mol
# GULP energy per Si atom -5578.339552 kJ/mol
# Density = 2.261544 g / cm^3
# Si number density = 22.667027 Si / 1000 Ang^3
#
#
#
# Elastic Constant Matrix: (Units=GPa)
#
#
# Indices 1 2 3 4 5 6 
#
# 1 73.3917 50.5099 12.0898 0.0014 1.3300 -0.0027
# 2 50.5099 163.4013 29.8563 0.0014 -7.6209 -0.0007
# 3 12.0898 29.8563 77.8130 0.0179 4.5064 -0.0146
# 4 0.0014 0.0014 0.0179 45.0879 -0.0025 -30.0959
# 5 1.3300 -7.6209 4.5064 -0.0025 36.8546 0.0032
# 6 -0.0027 -0.0007 -0.0146 -30.0959 0.0032 95.9454
#
#
#
# Elastic Compliance Matrix: (Units=1/GPa)
#
#
# Indices 1 2 3 4 5 6 
#
# 1 0.017442 -0.005368 -0.000553 0.000000 -0.001672 0.000000
# 2 -0.005368 0.008339 -0.002494 0.000001 0.002223 0.000000
# 3 -0.000553 -0.002494 0.014022 -0.000005 -0.002210 0.000001
# 4 0.000000 0.000001 -0.000005 0.028052 0.000002 0.008799
# 5 -0.001672 0.002223 -0.002210 0.000002 0.027924 -0.000001
# 6 0.000000 0.000000 0.000001 0.008799 -0.000001 0.013183
#
#
# Mechanical properties :
#
#
# Convention : Reuss Voigt Hill
#
# Bulk Modulus (GPa) = 43.53309 55.50198 49.51753
# Shear Modulus (GPa) = 37.46709 50.38758 43.92734
#
# Velocity S-wave (km/s) = 4.07004 4.71993 4.40698
# Velocity P-wave (km/s) = 6.42916 7.36495 6.91291
#
# Compressibility (1/GPa) = 0.02297103
#
# Stress axis : x y z
#
# Youngs Moduli (GPa) = 57.33426 119.92206 71.31496
#
# Poissons Ratio (x) = 0.64378 0.03946
# Poissons Ratio (y) = 0.30779 0.17787
# Poissons Ratio (z) = 0.03172 0.29911
#
# Static dielectric constant tensor:
#      x y z
#    x 1.861240 0.000000 0.011700 
#    y 0.000000 1.855580 0.000000 
#    z 0.011700 0.000000 1.845830 
# 
# From -- ./inp_files/376680.got.cif
#   From: 2010.05.17/outbox.cif.g08.bks.cpg/sg12_189_cif.got.tgz:376680.got - 2010.06.03 13:09:07.
