data_PCOD9191945
_publ_section_title
;
Structure prediction by ZEFSAII (Michael W. Deem and Ramdas Pophale) SiO2 
 PCOD9191945
Probable space group: C 2/M
;
_chemical_formula_sum "Si O2"
_cell_formula_units_Z 56
_cell_length_a 22.990365
_cell_length_b 18.376840
_cell_length_c 9.969620
_cell_angle_alpha 90.000000
_cell_angle_beta 52.693341
_cell_angle_gamma 90.000000
_cell_volume 3350.291193
_symmetry_space_group_name_H-M "C 2/M"
_symmetry_group_IT_number 12
_symmetry_cell_setting 'monoclinic'
loop_
_space_group_symop_operation_xyz
x,y,z
-x,y,-z
-x,-y,-z
x,-y,z
1/2+x,1/2+y,z
1/2-x,1/2+y,-z
1/2-x,1/2-y,-z
1/2+x,1/2-y,z
loop_
_atom_site_type_symbol
_atom_site_label
_atom_site_fract_x
_atom_site_fract_y
_atom_site_fract_z
Si Si1 0.190448 0.916082 0.250087
Si Si2 0.295563 0.198298 0.611686
Si Si3 0.936819 0.635709 0.699635
Si Si4 0.413001 0.279127 0.619677
Si Si5 0.283294 0.080505 0.850725
Si Si6 0.933059 0.583293 0.992333
Si Si7 0.707121 0.156297 0.688004
O O1 0.128592 0.855278 0.313385
O O2 0.232791 0.897039 0.328794
O O3 0.165570 0.000000 0.285892
O O4 0.245978 0.906994 0.047083
O O5 0.372469 0.235692 0.552942
O O6 0.268690 0.142606 0.762695
O O7 0.301601 0.157653 0.460686
O O8 0.237415 0.263556 0.680778
O O9 0.904625 0.718102 0.747568
O O10 0.870182 0.584715 0.750578
O O11 0.000000 0.634045 0.500000
O O12 0.961610 0.610682 0.809654
O O13 0.500000 0.292283 0.500000
O O14 0.261481 0.000000 0.834666
O O15 0.905268 0.500000 0.018630
O O16 0.868336 0.633956 0.136843
O O17 0.000000 0.583650 0.000000
#
# Coordination Sequence:
#
# PCOD9191945 Si02
#       7
#     8   8   8   8   8   8   8
#     4  10  20  35  57  82 107 139 180 227 275 324
#     4   9  21  36  55  80 104 141 183 221 265 321
#     4  10  21  36  53  75 106 145 182 217 259 318
#     4   9  20  35  57  81 108 137 182 225 271 321
#     4  10  20  33  52  78 105 137 177 217 266 320
#     4  11  24  35  50  79 111 144 180 218 269 321
#     4  10  20  37  55  75 110 139 183 224 263 319
#
# _framework density 16.714964999999999
#
# number of rings (size 3 to 8) (size 9 to 14) (size 15 to 20)
#    0.000    2.143    1.429    0.857    8.000    4.286 
#    0.000    0.000    0.000    0.000    0.000    0.000 
#    0.000   10.286    0.000    0.000    0.000    0.000 
#
# Total GULP energy -155934.096824 kJ/mol
# GULP energy per Si atom -5569.074887 kJ/mol
# Density = 1.667692 g / cm^3
# Si number density = 16.714965 Si / 1000 Ang^3
#
#
#
# Elastic Constant Matrix: (Units=GPa)
#
#
# Indices 1 2 3 4 5 6 
#
# 1 78.4810 42.0474 42.8526 0.0000 7.7037 0.0000
# 2 42.0474 103.3827 53.7476 0.0000 7.5690 0.0000
# 3 42.8526 53.7476 81.7500 0.0000 8.7392 0.0000
# 4 0.0000 0.0000 0.0000 8.7953 0.0000 6.5627
# 5 7.7037 7.5690 8.7392 0.0000 33.7802 0.0000
# 6 0.0000 0.0000 0.0000 6.5627 0.0000 15.2558
#
#
#
# Elastic Compliance Matrix: (Units=1/GPa)
#
#
# Indices 1 2 3 4 5 6 
#
# 1 0.018883 -0.003807 -0.007226 0.000000 -0.001584 0.000000
# 2 -0.003807 0.015486 -0.008132 0.000000 -0.000498 0.000000
# 3 -0.007226 -0.008132 0.021593 0.000000 -0.002116 0.000000
# 4 0.000000 0.000000 0.000000 0.167445 0.000000 -0.072031
# 5 -0.001584 -0.000498 -0.002116 0.000000 0.030623 0.000000
# 6 0.000000 0.000000 0.000000 -0.072031 0.000000 0.096535
#
#
# Mechanical properties :
#
#
# Convention : Reuss Voigt Hill
#
# Bulk Modulus (GPa) = 56.71913 60.10099 58.41006
# Shear Modulus (GPa) = 12.66556 19.89734 16.28145
#
# Velocity S-wave (km/s) = 2.75569 3.45395 3.12439
# Velocity P-wave (km/s) = 6.64319 7.20700 6.93083
#
# Compressibility (1/GPa) = 0.01763074
#
# Stress axis : x y z
#
# Youngs Moduli (GPa) = 52.95877 64.57599 46.31166
#
# Poissons Ratio (x) = 0.24587 0.33463
# Poissons Ratio (y) = 0.20164 0.37662
# Poissons Ratio (z) = 0.38265 0.52515
#
# Static dielectric constant tensor:
#      x y z
#    x 1.582010 0.000000 0.007020 
#    y 0.000000 1.582820 0.000000 
#    z 0.007020 0.000000 1.545230 
# 
# From -- ./inp_files/89488.got.cif
#   From: 2010.05.17/outbox.cif.g08.bks.cpg/sg12_45_cif.got.tgz:89488.got - 2010.06.03 13:09:07.
