data_PCOD9191033
_publ_section_title
;
Structure prediction by ZEFSAII (Michael W. Deem and Ramdas Pophale) SiO2 
 PCOD9191033
Probable space group: C 2/M
;
_chemical_formula_sum "Si O2"
_cell_formula_units_Z 56
_cell_length_a 14.394881
_cell_length_b 25.425095
_cell_length_c 9.506577
_cell_angle_alpha 90.000000
_cell_angle_beta 108.606511
_cell_angle_gamma 90.000000
_cell_volume 3297.466944
_symmetry_space_group_name_H-M "C 2/M"
_symmetry_group_IT_number 12
_symmetry_cell_setting 'monoclinic'
loop_
_space_group_symop_operation_xyz
x,y,z
-x,y,-z
-x,-y,-z
x,-y,z
1/2+x,1/2+y,z
1/2-x,1/2+y,-z
1/2-x,1/2-y,-z
1/2+x,1/2-y,z
loop_
_atom_site_type_symbol
_atom_site_label
_atom_site_fract_x
_atom_site_fract_y
_atom_site_fract_z
Si Si1 0.620744 0.669163 0.262369
Si Si2 0.275169 0.345259 0.398946
Si Si3 0.584470 0.821842 0.446850
Si Si4 0.475402 0.242904 0.148694
Si Si5 0.204354 0.261280 0.746837
Si Si6 0.540518 0.441850 0.175099
Si Si7 0.597885 0.439997 0.639811
O O1 0.654215 0.674274 0.440260
O O2 0.517321 0.697911 0.187442
O O3 0.701164 0.700652 0.209003
O O4 0.612039 0.607326 0.229433
O O5 0.171140 0.355867 0.422504
O O6 0.265857 0.297518 0.284236
O O7 0.322597 0.396743 0.356803
O O8 0.500000 0.848513 0.500000
O O9 0.536187 0.790814 0.293157
O O10 0.637343 0.782959 0.584517
O O11 0.363226 0.238639 0.146961
O O12 0.500000 0.227122 0.000000
O O13 0.582210 0.500000 0.230722
O O14 0.445395 0.434413 0.226209
O O15 0.500000 0.442254 0.000000
O O16 0.500000 0.431099 0.500000
O O17 0.630816 0.500000 0.632002
#
# Coordination Sequence:
#
# PCOD9191033 Si02
#       7
#     8   8   8   8   8   8   8
#     4  11  19  33  50  75 101 133 175 205 249 300
#     4  11  18  32  54  74  97 134 171 214 247 299
#     4   9  18  34  50  67  95 134 170 201 248 304
#     4  11  21  32  45  70 106 134 161 209 251 294
#     4  10  20  32  52  71  97 138 174 202 249 311
#     4  10  21  36  51  73 107 141 168 201 252 305
#     4  10  20  33  53  78 101 130 168 208 250 299
#
# _framework density 16.982731999999999
#
# number of rings (size 3 to 8) (size 9 to 14) (size 15 to 20)
#    0.000    1.714    4.286    2.143    0.000    0.571 
#    2.571    0.000    0.000    0.429    0.000    3.000 
#    0.000    1.143    0.000    0.000    0.000    0.000 
#
# Total GULP energy -156107.618309 kJ/mol
# GULP energy per Si atom -5575.272082 kJ/mol
# Density = 1.694408 g / cm^3
# Si number density = 16.982732 Si / 1000 Ang^3
#
#
#
# Elastic Constant Matrix: (Units=GPa)
#
#
# Indices 1 2 3 4 5 6 
#
# 1 119.3434 81.6969 24.2421 0.0000 -28.1789 0.0000
# 2 81.6969 119.5109 15.2869 0.0000 -13.4738 0.0000
# 3 24.2421 15.2869 48.5781 0.0000 -28.8137 0.0000
# 4 0.0000 0.0000 0.0000 11.1735 0.0000 -4.2265
# 5 -28.1789 -13.4738 -28.8137 0.0000 27.0874 0.0000
# 6 0.0000 0.0000 0.0000 -4.2265 0.0000 29.5603
#
#
#
# Elastic Compliance Matrix: (Units=1/GPa)
#
#
# Indices 1 2 3 4 5 6 
#
# 1 0.021184 -0.012772 0.007454 0.000000 0.023613 0.000000
# 2 -0.012772 0.016569 -0.004966 0.000000 -0.010328 0.000000
# 3 0.007454 -0.004966 0.058426 0.000000 0.067434 0.000000
# 4 0.000000 0.000000 0.000000 0.094615 0.000000 0.013528
# 5 0.023613 -0.010328 0.067434 0.000000 0.128076 0.000000
# 6 0.000000 0.000000 0.000000 0.013528 0.000000 0.035763
#
#
# Mechanical properties :
#
#
# Convention : Reuss Voigt Hill
#
# Bulk Modulus (GPa) = 13.22581 58.87601 36.05091
# Shear Modulus (GPa) = 12.48730 24.64467 18.56598
#
# Velocity S-wave (km/s) = 2.71457 3.81354 3.30999
# Velocity P-wave (km/s) = 4.19880 7.35760 5.99016
#
# Compressibility (1/GPa) = 0.07560975
#
# Stress axis : x y z
#
# Youngs Moduli (GPa) = 47.20541 60.35193 17.11562
#
# Poissons Ratio (x) = 0.77084 -0.12758
# Poissons Ratio (y) = 0.60293 0.08500
# Poissons Ratio (z) = -0.35186 0.29972
#
# Static dielectric constant tensor:
#      x y z
#    x 1.595150 0.000000 0.006750 
#    y 0.000000 1.575290 0.000000 
#    z 0.006750 0.000000 1.592250 
# 
# From -- ./inp_files/65319.got.cif
#   From: 2010.05.17/outbox.cif.g08.bks.cpg/sg12_33_cif.got.tgz:65319.got - 2010.06.03 13:09:07.
