data_PCOD9191631
_publ_section_title
;
Structure prediction by ZEFSAII (Michael W. Deem and Ramdas Pophale) SiO2 
 PCOD9191631
Probable space group: C 2/M
;
_chemical_formula_sum "Si O2"
_cell_formula_units_Z 56
_cell_length_a 13.729197
_cell_length_b 13.719325
_cell_length_c 17.049618
_cell_angle_alpha 90.000000
_cell_angle_beta 123.988637
_cell_angle_gamma 90.000000
_cell_volume 2662.715894
_symmetry_space_group_name_H-M "C 2/M"
_symmetry_group_IT_number 12
_symmetry_cell_setting 'monoclinic'
loop_
_space_group_symop_operation_xyz
x,y,z
-x,y,-z
-x,-y,-z
x,-y,z
1/2+x,1/2+y,z
1/2-x,1/2+y,-z
1/2-x,1/2-y,-z
1/2+x,1/2-y,z
loop_
_atom_site_type_symbol
_atom_site_label
_atom_site_fract_x
_atom_site_fract_y
_atom_site_fract_z
Si Si1 0.201752 0.199029 0.714971
Si Si2 0.726716 0.382381 0.008005
Si Si3 0.864925 0.886667 0.470784
Si Si4 0.218059 0.611886 0.802353
Si Si5 0.473999 0.614987 0.853051
Si Si6 0.130907 0.383300 0.085136
Si Si7 0.038381 0.116821 0.327417
O O1 0.206871 0.172512 0.626192
O O2 0.171193 0.311343 0.718775
O O3 0.317707 0.170473 0.815918
O O4 0.095108 0.138008 0.706110
O O5 0.723858 0.500000 0.016873
O O6 0.593279 0.344731 0.943612
O O7 0.786567 0.362642 0.952257
O O8 0.800346 0.351227 0.117282
O O9 0.876013 0.847515 0.564479
O O10 0.000000 0.885992 0.500000
O O11 0.826551 0.000000 0.453338
O O12 0.179803 0.500000 0.774057
O O13 0.359453 0.615276 0.854906
O O14 0.500232 0.500000 0.851325
O O15 0.445215 0.655081 0.753354
O O16 0.133916 0.500000 0.101374
O O17 0.000000 0.357297 0.000000
O O18 0.054661 0.000000 0.334533
#
# Coordination Sequence:
#
# PCOD9191631 Si02
#       7
#     8   8   8   8   8   8   8
#     4  11  19  32  51  76 106 141 170 216 260 320
#     4   9  17  33  53  71 101 142 180 215 257 298
#     4   8  15  28  53  84 108 126 160 215 276 327
#     4  10  22  35  48  72 103 145 189 222 249 290
#     4   9  16  31  55  77 102 135 177 223 261 297
#     4  10  20  33  50  78 114 144 168 204 262 335
#     4   9  16  31  58  88 106 124 163 221 281 322
#
# _framework density 21.031158000000001
#
# number of rings (size 3 to 8) (size 9 to 14) (size 15 to 20)
#    0.000    2.571    1.429    2.571    0.000    3.429 
#    2.571    0.714    0.000    3.857    0.000    0.000 
#    0.000    0.000    0.000    0.000    0.000    0.000 
#
# Total GULP energy -156223.623389 kJ/mol
# GULP energy per Si atom -5579.415121 kJ/mol
# Density = 2.098329 g / cm^3
# Si number density = 21.031158 Si / 1000 Ang^3
#
#
#
# Elastic Constant Matrix: (Units=GPa)
#
#
# Indices 1 2 3 4 5 6 
#
# 1 12.6880 -10.9434 2.3452 0.0000 -7.2114 0.0000
# 2 -10.9434 76.7083 44.1945 0.0000 -10.7802 0.0000
# 3 2.3452 44.1945 132.7807 0.0000 -21.8900 0.0000
# 4 0.0000 0.0000 0.0000 7.4210 0.0000 -2.9566
# 5 -7.2114 -10.7802 -21.8900 0.0000 22.3793 0.0000
# 6 0.0000 0.0000 0.0000 -2.9566 0.0000 5.6253
#
#
#
# Elastic Compliance Matrix: (Units=1/GPa)
#
#
# Indices 1 2 3 4 5 6 
#
# 1 0.134903 0.028575 -0.002930 0.000000 0.054369 0.000000
# 2 0.028575 0.022353 -0.005546 0.000000 0.014551 0.000000
# 3 -0.002930 -0.005546 0.010531 0.000000 0.006685 0.000000
# 4 0.000000 0.000000 0.000000 0.170445 0.000000 0.089585
# 5 0.054369 0.014551 0.006685 0.000000 0.075752 0.000000
# 6 0.000000 0.000000 0.000000 0.089585 0.000000 0.224853
#
#
# Mechanical properties :
#
#
# Convention : Reuss Voigt Hill
#
# Bulk Modulus (GPa) = 4.80805 32.59661 18.70233
# Shear Modulus (GPa) = 7.48540 19.52384 13.50462
#
# Velocity S-wave (km/s) = 1.88863 3.05015 2.53677
# Velocity P-wave (km/s) = 2.65462 5.28559 4.18237
#
# Compressibility (1/GPa) = 0.20798435
#
# Stress axis : x y z
#
# Youngs Moduli (GPa) = 7.41272 44.73673 94.95859
#
# Poissons Ratio (x) = -1.27834 0.27826
# Poissons Ratio (y) = -0.21182 0.52662
# Poissons Ratio (z) = 0.02172 0.24810
#
# Static dielectric constant tensor:
#      x y z
#    x 1.736890 0.000000 -0.015520 
#    y 0.000000 1.810380 0.000000 
#    z -0.015520 0.000000 1.780530 
# 
# From -- ./inp_files/143698.got.cif
#   From: 2010.05.17/outbox.cif.g08.bks.cpg/sg12_72_cif.got.tgz:143698.got - 2010.06.03 13:09:07.
