data_PCOD9191897
_publ_section_title
;
Structure prediction by ZEFSAII (Michael W. Deem and Ramdas Pophale) SiO2 
 PCOD9191897
Probable space group: C 2/M
;
_chemical_formula_sum "Si O2"
_cell_formula_units_Z 64
_cell_length_a 19.783654
_cell_length_b 17.049985
_cell_length_c 8.082861
_cell_angle_alpha 90.000000
_cell_angle_beta 79.605556
_cell_angle_gamma 90.000000
_cell_volume 2681.694307
_symmetry_space_group_name_H-M "C 2/M"
_symmetry_group_IT_number 12
_symmetry_cell_setting 'monoclinic'
loop_
_space_group_symop_operation_xyz
x,y,z
-x,y,-z
-x,-y,-z
x,-y,z
1/2+x,1/2+y,z
1/2-x,1/2+y,-z
1/2-x,1/2-y,-z
1/2+x,1/2-y,z
loop_
_atom_site_type_symbol
_atom_site_label
_atom_site_fract_x
_atom_site_fract_y
_atom_site_fract_z
Si Si1 0.665764 0.089242 0.429116
Si Si2 0.206068 0.907331 0.429173
Si Si3 0.170153 0.907038 0.933895
Si Si4 0.596605 0.668823 0.654914
Si Si5 0.041888 0.160656 0.157351
Si Si6 0.045524 0.327820 0.307528
Si Si7 0.201119 0.407779 0.940442
Si Si8 0.088210 0.351067 0.771487
O O1 0.738903 0.121304 0.456579
O O2 0.615971 0.130214 0.321649
O O3 0.622997 0.093226 0.619829
O O4 0.676506 0.000000 0.374130
O O5 0.138995 0.853849 0.474205
O O6 0.247189 0.902778 0.240193
O O7 0.190272 0.000000 0.463795
O O8 0.110178 0.888222 0.093951
O O9 0.247063 0.877574 0.940997
O O10 0.176093 0.000000 0.919740
O O11 0.138606 0.872115 0.782695
O O12 0.519755 0.634263 0.694814
O O13 0.595161 0.761174 0.701032
O O14 0.061538 0.244630 0.220586
O O15 0.000000 0.169367 0.000000
O O16 0.000000 0.321142 0.500000
O O17 0.992605 0.368295 0.203341
O O18 0.184530 0.500000 0.971489
O O19 0.132511 0.362218 0.917250
#
# Coordination Sequence:
#
# PCOD9191897 Si02
#       8
#     8   8   8   8   8   8   8   8
#     4   9  18  32  53  81 108 136 170 207 251 303
#     4   9  18  33  51  73 104 136 167 209 257 302
#     4  10  21  36  54  75  99 134 177 214 255 308
#     4  10  20  33  52  77 101 129 172 215 256 304
#     4   9  20  36  52  72 101 135 168 211 263 307
#     4   9  18  32  53  79 104 132 170 213 252 296
#     4   9  19  34  50  71 102 136 168 206 254 304
#     4   9  18  31  49  76 105 131 166 206 252 300
#
# _framework density 23.86551
#
# number of rings (size 3 to 8) (size 9 to 14) (size 15 to 20)
#    0.000    2.750    0.000    1.500    0.000   12.000 
#    0.000    2.500    0.000    3.000    0.000    2.625 
#    0.000    0.000    0.000    0.000    0.000    0.000 
#
# Total GULP energy -178722.201326 kJ/mol
# GULP energy per Si atom -5585.068791 kJ/mol
# Density = 2.381119 g / cm^3
# Si number density = 23.865510 Si / 1000 Ang^3
#
#
#
# Elastic Constant Matrix: (Units=GPa)
#
#
# Indices 1 2 3 4 5 6 
#
# 1 131.1934 20.5240 23.1485 0.0000 7.6245 0.0000
# 2 20.5240 24.2950 5.1536 0.0000 -2.6115 0.0000
# 3 23.1485 5.1536 62.7976 0.0000 5.9483 0.0000
# 4 0.0000 0.0000 0.0000 37.6828 0.0000 6.4824
# 5 7.6245 -2.6115 5.9483 0.0000 43.3633 0.0000
# 6 0.0000 0.0000 0.0000 6.4824 0.0000 13.5085
#
#
#
# Elastic Compliance Matrix: (Units=1/GPa)
#
#
# Indices 1 2 3 4 5 6 
#
# 1 0.009374 -0.007539 -0.002672 0.000000 -0.001736 0.000000
# 2 -0.007539 0.048350 -0.001611 0.000000 0.004458 0.000000
# 3 -0.002672 -0.001611 0.017230 0.000000 -0.001991 0.000000
# 4 0.000000 0.000000 0.000000 0.028925 0.000000 -0.013880
# 5 -0.001736 0.004458 -0.001991 0.000000 0.023908 0.000000
# 6 0.000000 0.000000 0.000000 -0.013880 0.000000 0.080688
#
#
# Mechanical properties :
#
#
# Convention : Reuss Voigt Hill
#
# Bulk Modulus (GPa) = 19.48952 35.10423 27.29688
# Shear Modulus (GPa) = 20.06228 30.20825 25.13527
#
# Velocity S-wave (km/s) = 2.90252 3.56163 3.24883
# Velocity P-wave (km/s) = 4.40647 5.62625 5.05330
#
# Compressibility (1/GPa) = 0.05130962
#
# Stress axis : x y z
#
# Youngs Moduli (GPa) = 106.67683 20.68234 58.03804
#
# Poissons Ratio (x) = 0.15592 0.15510
# Poissons Ratio (y) = 0.80421 0.09352
# Poissons Ratio (z) = 0.28508 0.03333
#
# Static dielectric constant tensor:
#      x y z
#    x 1.934810 0.000000 -0.016570 
#    y 0.000000 1.849970 0.000000 
#    z -0.016570 0.000000 2.068550 
# 
# From -- ./inp_files/87945.got.cif
#   From: 2010.05.17/outbox.cif.g08.bks.cpg/sg12_44_cif.got.tgz:87945.got - 2010.06.03 13:09:07.
