data_PCOD9191303
_publ_section_title
;
Structure prediction by ZEFSAII (Michael W. Deem and Ramdas Pophale) SiO2 
 PCOD9191303
Probable space group: C 2/M
;
_chemical_formula_sum "Si O2"
_cell_formula_units_Z 64
_cell_length_a 20.095419
_cell_length_b 7.352246
_cell_length_c 20.787934
_cell_angle_alpha 90.000000
_cell_angle_beta 71.018361
_cell_angle_gamma 90.000000
_cell_volume 2904.332849
_symmetry_space_group_name_H-M "C 2/M"
_symmetry_group_IT_number 12
_symmetry_cell_setting 'monoclinic'
loop_
_space_group_symop_operation_xyz
x,y,z
-x,y,-z
-x,-y,-z
x,-y,z
1/2+x,1/2+y,z
1/2-x,1/2+y,-z
1/2-x,1/2-y,-z
1/2+x,1/2-y,z
loop_
_atom_site_type_symbol
_atom_site_label
_atom_site_fract_x
_atom_site_fract_y
_atom_site_fract_z
Si Si1 0.927175 0.713950 0.992165
Si Si2 0.284363 0.777036 0.103714
Si Si3 0.649802 0.281214 0.536486
Si Si4 0.376081 0.280537 0.868277
Si Si5 0.595351 0.708143 0.279005
Si Si6 0.764644 0.793301 0.604568
Si Si7 0.007315 0.780925 0.424554
Si Si8 0.237826 0.293184 0.749242
O O1 0.926747 0.500000 0.008196
O O2 0.919723 0.732874 0.917801
O O3 0.852572 0.785435 0.043136
O O4 0.000000 0.787145 0.000000
O O5 0.206517 0.720208 0.103125
O O6 0.293131 0.716229 0.175244
O O7 0.282489 0.000000 0.104183
O O8 0.659803 0.500000 0.532319
O O9 0.702490 0.203854 0.572226
O O10 0.671138 0.216247 0.457916
O O11 0.570105 0.246675 0.578906
O O12 0.373699 0.500000 0.864481
O O13 0.411308 0.212931 0.790619
O O14 0.568097 0.500000 0.284401
O O15 0.561705 0.788691 0.354217
O O16 0.678911 0.700938 0.262649
O O17 0.735946 0.707615 0.679042
O O18 0.785958 0.000000 0.615658
O O19 0.000000 0.713030 0.500000
O O20 0.020042 0.000000 0.427052
O O21 0.209566 0.500000 0.752865
#
# Coordination Sequence:
#
# PCOD9191303 Si02
#       8
#     8   8   8   8   8   8   8   8
#     4  10  20  33  48  69  97 125 151 186 233 281
#     4   8  15  29  49  71  91 115 154 194 228 266
#     4   9  17  27  40  61  88 114 142 178 220 261
#     4   9  17  31  52  72  91 120 155 194 232 271
#     4   8  14  25  43  68  91 111 144 188 228 258
#     4   9  16  27  43  62  84 114 149 179 209 254
#     4   9  15  24  41  65  90 115 145 184 225 261
#     4   8  13  24  44  66  85 109 146 187 216 251
#
# _framework density 22.036041999999998
#
# number of rings (size 3 to 8) (size 9 to 14) (size 15 to 20)
#    0.000    3.250    0.000    2.625    0.000    3.250 
#    2.250    0.000    0.000    4.125    0.000    0.000 
#    0.000    0.000    0.000    0.000    0.000    0.000 
#
# Total GULP energy -178249.991420 kJ/mol
# GULP energy per Si atom -5570.312232 kJ/mol
# Density = 2.198589 g / cm^3
# Si number density = 22.036042 Si / 1000 Ang^3
#
#
#
# Elastic Constant Matrix: (Units=GPa)
#
#
# Indices 1 2 3 4 5 6 
#
# 1 60.7717 3.1416 53.2640 0.0005 -3.6426 -0.0006
# 2 3.1416 74.3144 -4.8787 0.0022 -3.6829 -0.0022
# 3 53.2640 -4.8787 178.1578 0.0006 1.3138 -0.0019
# 4 0.0005 0.0022 0.0006 -2.5929 0.0004 -12.4229
# 5 -3.6426 -3.6829 1.3138 0.0004 31.1274 -0.0003
# 6 -0.0006 -0.0022 -0.0019 -12.4229 -0.0003 124.2789
#
#
#
# Elastic Compliance Matrix: (Units=1/GPa)
#
#
# Indices 1 2 3 4 5 6 
#
# 1 0.022679 -0.001269 -0.006836 0.000002 0.002792 0.000000
# 2 -0.001269 0.013630 0.000742 0.000007 0.001433 0.000001
# 3 -0.006836 0.000742 0.007685 0.000000 -0.001036 0.000000
# 4 0.000002 0.000007 0.000000 -0.260778 0.000004 -0.026067
# 5 0.002792 0.001433 -0.001036 0.000004 0.032666 0.000001
# 6 0.000000 0.000001 0.000000 -0.026067 0.000001 0.005441
#
#
# Mechanical properties :
#
#
# Convention : Reuss Voigt Hill
#
# Bulk Modulus (GPa) = 34.16698 46.25531 40.21115
# Shear Modulus (GPa) = -32.42634 48.01048 7.79207
#
# Velocity S-wave (km/s) = -3.84019 4.67275 1.88248
# Velocity P-wave (km/s) = 2.03078 7.08160 4.79713
#
# Compressibility (1/GPa) = 0.02926803
#
# Stress axis : x y z
#
# Youngs Moduli (GPa) = 44.09305 73.36907 130.12910
#
# Poissons Ratio (x) = 0.09312 0.88954
# Poissons Ratio (y) = 0.05596 -0.09657
# Poissons Ratio (z) = 0.30141 -0.05445
#
# Static dielectric constant tensor:
#      x y z
#    x 1.777240 0.000000 -0.015630 
#    y 0.000000 1.837850 0.000000 
#    z -0.015630 0.000000 1.866460 
# 
# From -- ./inp_files/276545.got.cif
#   From: 2010.05.17/outbox.cif.g08.bks.cpg/sg12_139_cif.got.tgz:276545.got - 2010.06.03 13:09:07.
