data_PCOD9191650
_publ_section_title
;
Structure prediction by ZEFSAII (Michael W. Deem and Ramdas Pophale) SiO2 
 PCOD9191650
Probable space group: C 2/M
;
_chemical_formula_sum "Si O2"
_cell_formula_units_Z 64
_cell_length_a 21.533055
_cell_length_b 20.407325
_cell_length_c 19.212297
_cell_angle_alpha 90.000000
_cell_angle_beta 29.104485
_cell_angle_gamma 90.000000
_cell_volume 4106.463436
_symmetry_space_group_name_H-M "C 2/M"
_symmetry_group_IT_number 12
_symmetry_cell_setting 'monoclinic'
loop_
_space_group_symop_operation_xyz
x,y,z
-x,y,-z
-x,-y,-z
x,-y,z
1/2+x,1/2+y,z
1/2-x,1/2+y,-z
1/2-x,1/2-y,-z
1/2+x,1/2-y,z
loop_
_atom_site_type_symbol
_atom_site_label
_atom_site_fract_x
_atom_site_fract_y
_atom_site_fract_z
Si Si1 0.730437 0.923324 0.918460
Si Si2 0.388368 0.679920 0.552750
Si Si3 0.356748 0.820218 0.111337
Si Si4 0.362112 0.840083 0.871069
Si Si5 0.892160 0.712205 0.434775
Si Si6 0.368715 0.278612 0.977853
Si Si7 0.382590 0.671943 0.327981
Si Si8 0.533146 0.577754 0.638139
O O1 0.676952 0.880090 0.907591
O O2 0.881169 0.907818 0.781026
O O3 0.717621 0.000000 0.916855
O O4 0.659996 0.902711 0.058721
O O5 0.500000 0.673146 0.500000
O O6 0.250514 0.681511 0.724088
O O7 0.411077 0.745965 0.486126
O O8 0.399517 0.618636 0.489171
O O9 0.500000 0.826344 0.000000
O O10 0.347796 0.755225 0.072350
O O11 0.491313 0.834250 0.700779
O O12 0.364694 0.780540 0.925000
O O13 0.243176 0.826861 0.936833
O O14 0.757996 0.674750 0.566003
O O15 0.887010 0.768544 0.379985
O O16 0.505786 0.312548 0.835825
O O17 0.415514 0.607435 0.339900
O O18 0.551716 0.500000 0.614262
#
# Coordination Sequence:
#
# PCOD9191650 Si02
#       8
#     8   8   8   8   8   8   8   8
#     4  10  20  34  50  69  97 132 169 204 233 280
#     4  11  20  33  49  72 102 138 167 192 226 289
#     4  11  22  33  47  71 102 134 166 196 234 284
#     4   9  16  29  49  70  87 118 157 203 249 282
#     4   9  18  28  47  70  97 119 153 203 254 282
#     4   9  16  28  49  66  90 122 157 198 243 281
#     4   9  16  31  48  70  92 120 155 206 252 283
#     4  10  20  33  51  71  95 132 172 201 230 282
#
# _framework density 15.585186999999999
#
# number of rings (size 3 to 8) (size 9 to 14) (size 15 to 20)
#    0.000    2.250    2.500    1.500    3.500    4.000 
#    0.000    1.875    0.000    0.000    0.000    0.000 
#    0.000   20.000    0.000    0.000    0.000    0.000 
#
# Total GULP energy -178362.177310 kJ/mol
# GULP energy per Si atom -5573.818041 kJ/mol
# Density = 1.554971 g / cm^3
# Si number density = 15.585187 Si / 1000 Ang^3
#
#
#
# Elastic Constant Matrix: (Units=GPa)
#
#
# Indices 1 2 3 4 5 6 
#
# 1 20.2795 22.6035 15.6632 -0.0001 2.6111 0.0000
# 2 22.6035 26.8495 31.7934 0.0007 16.4491 -0.0002
# 3 15.6632 31.7934 118.8394 0.0004 0.3239 -0.0003
# 4 -0.0001 0.0007 0.0004 16.6692 -0.0001 2.0906
# 5 2.6111 16.4491 0.3239 -0.0001 18.9625 0.0000
# 6 0.0000 -0.0002 -0.0003 2.0906 0.0000 14.7656
#
#
#
# Elastic Compliance Matrix: (Units=1/GPa)
#
#
# Indices 1 2 3 4 5 6 
#
# 1 -0.022606 0.086678 -0.020014 -0.000004 -0.071735 0.000002
# 2 0.086678 -0.095618 0.013964 0.000005 0.070771 -0.000002
# 3 -0.020014 0.013964 0.007343 -0.000001 -0.009482 0.000001
# 4 -0.000004 0.000005 -0.000001 0.061075 -0.000003 -0.008647
# 5 -0.071735 0.070771 -0.009482 -0.000003 0.001385 0.000001
# 6 0.000002 -0.000002 0.000001 -0.008647 0.000001 0.068949
#
#
# Mechanical properties :
#
#
# Convention : Reuss Voigt Hill
#
# Bulk Modulus (GPa) = 19.85137 34.00984 26.93060
# Shear Modulus (GPa) = -40.34362 16.47335 -11.93513
#
# Velocity S-wave (km/s) = -5.09334 3.25466 -2.77031
# Velocity P-wave (km/s) = 4.67166 5.99942 2.66163
#
# Compressibility (1/GPa) = 0.05037437
#
# Stress axis : x y z
#
# Youngs Moduli (GPa) = -44.23693 -10.45825 136.18983
#
# Poissons Ratio (x) = 0.90650 2.72574
# Poissons Ratio (y) = 3.83438 -1.90173
# Poissons Ratio (z) = -0.88537 0.14604
#
# Static dielectric constant tensor:
#      x y z
#    x 1.512020 0.000000 -0.005900 
#    y 0.000000 1.494560 0.000000 
#    z -0.005900 0.000000 1.528950 
# 
# From -- ./inp_files/279121.got.cif
#   From: 2010.05.17/outbox.cif.g08.bks.cpg/sg12_140_cif.got.tgz:279121.got - 2010.06.03 13:09:07.
