data_PCOD9191868
_publ_section_title
;
Structure prediction by ZEFSAII (Michael W. Deem and Ramdas Pophale) SiO2 
 PCOD9191868
Probable space group: C 2/M
;
_chemical_formula_sum "Si O2"
_cell_formula_units_Z 64
_cell_length_a 18.751567
_cell_length_b 20.505861
_cell_length_c 12.233834
_cell_angle_alpha 90.000000
_cell_angle_beta 47.333275
_cell_angle_gamma 90.000000
_cell_volume 3458.976706
_symmetry_space_group_name_H-M "C 2/M"
_symmetry_group_IT_number 12
_symmetry_cell_setting 'monoclinic'
loop_
_space_group_symop_operation_xyz
x,y,z
-x,y,-z
-x,-y,-z
x,-y,z
1/2+x,1/2+y,z
1/2-x,1/2+y,-z
1/2-x,1/2-y,-z
1/2+x,1/2-y,z
loop_
_atom_site_type_symbol
_atom_site_label
_atom_site_fract_x
_atom_site_fract_y
_atom_site_fract_z
Si Si1 0.110988 0.641662 0.123725
Si Si2 0.100691 0.259805 0.328692
Si Si3 0.962660 0.425633 0.412804
Si Si4 0.161808 0.147570 0.106865
Si Si5 0.949187 0.238816 0.935402
Si Si6 0.696928 0.184150 0.423762
Si Si7 0.485834 0.425183 0.384195
Si Si8 0.627632 0.686400 0.614883
O O1 0.081357 0.692822 0.248734
O O2 0.085339 0.685963 0.044278
O O3 0.045230 0.582054 0.233292
O O4 0.225612 0.628335 0.010085
O O5 0.143266 0.195434 0.229779
O O6 0.180426 0.298033 0.315761
O O7 0.000000 0.249306 0.500000
O O8 0.926409 0.500000 0.450271
O O9 0.880406 0.372458 0.471567
O O10 0.000000 0.413348 0.500000
O O11 0.133270 0.189376 0.027339
O O12 0.083948 0.091098 0.213645
O O13 0.035376 0.220173 0.764005
O O14 0.000000 0.228741 0.000000
O O15 0.674991 0.255202 0.497812
O O16 0.799785 0.164167 0.365231
O O17 0.500000 0.417106 0.500000
O O18 0.457152 0.500000 0.394784
O O19 0.407579 0.373005 0.423012
#
# Coordination Sequence:
#
# PCOD9191868 Si02
#       8
#     8   8   8   8   8   8   8   8
#     4  11  20  36  53  82 115 150 189 236 283 338
#     4  11  17  32  59  82 118 144 186 242 288 330
#     4  11  22  37  58  83 114 156 196 234 285 341
#     4  10  22  33  56  86 114 150 190 238 295 336
#     4  10  20  33  51  82 115 148 182 228 286 348
#     4  11  19  35  56  86 116 141 187 241 291 336
#     4  10  21  41  62  82 110 149 195 241 289 345
#     4  10  22  33  57  86 113 144 183 238 295 334
#
# _framework density 18.502582
#
# number of rings (size 3 to 8) (size 9 to 14) (size 15 to 20)
#    0.000    1.500    3.750    4.125    3.500    1.500 
#    0.000    0.000    0.000    6.375    0.000    0.000 
#    0.000    0.000    0.000    0.000    0.000    0.000 
#
# Total GULP energy -178215.425312 kJ/mol
# GULP energy per Si atom -5569.232041 kJ/mol
# Density = 1.846047 g / cm^3
# Si number density = 18.502582 Si / 1000 Ang^3
#
#
#
# Elastic Constant Matrix: (Units=GPa)
#
#
# Indices 1 2 3 4 5 6 
#
# 1 126.5148 41.0739 23.5116 0.0000 -6.6708 0.0000
# 2 41.0739 94.7846 10.3424 0.0000 -1.7831 0.0000
# 3 23.5116 10.3424 53.7757 0.0000 -6.4102 0.0000
# 4 0.0000 0.0000 0.0000 7.5862 0.0000 0.0604
# 5 -6.6708 -1.7831 -6.4102 0.0000 29.4455 0.0000
# 6 0.0000 0.0000 0.0000 0.0604 0.0000 -9.1990
#
#
#
# Elastic Compliance Matrix: (Units=1/GPa)
#
#
# Indices 1 2 3 4 5 6 
#
# 1 0.009865 -0.003878 -0.003417 0.000000 0.001256 0.000000
# 2 -0.003878 0.012302 -0.000705 0.000000 -0.000287 0.000000
# 3 -0.003417 -0.000705 0.020664 0.000000 0.003682 0.000000
# 4 0.000000 0.000000 0.000000 0.131811 0.000000 0.000866
# 5 0.001256 -0.000287 0.003682 0.000000 0.035030 0.000000
# 6 0.000000 0.000000 0.000000 0.000866 0.000000 -0.108702
#
#
# Mechanical properties :
#
#
# Convention : Reuss Voigt Hill
#
# Bulk Modulus (GPa) = 37.27067 47.21454 42.24261
# Shear Modulus (GPa) = 39.70972 18.90970 29.30971
#
# Velocity S-wave (km/s) = 4.63771 3.20035 3.98438
# Velocity P-wave (km/s) = 6.99035 6.26335 6.63681
#
# Compressibility (1/GPa) = 0.02683075
#
# Stress axis : x y z
#
# Youngs Moduli (GPa) = 101.37240 81.28558 48.39271
#
# Poissons Ratio (x) = 0.31524 0.16538
# Poissons Ratio (y) = 0.39314 0.03410
# Poissons Ratio (z) = 0.34643 0.05728
#
# Static dielectric constant tensor:
#      x y z
#    x 1.447050 0.000000 -0.074660 
#    y 0.000000 1.681840 0.000000 
#    z -0.074660 0.000000 1.652670 
# 
# From -- ./inp_files/159529.got.cif
#   From: 2010.05.17/outbox.cif.g08.bks.cpg/sg12_80_cif.got.tgz:159529.got - 2010.06.03 13:09:07.
