data_PCOD9191124
_publ_section_title
;
Structure prediction by ZEFSAII (Michael W. Deem and Ramdas Pophale) SiO2 
 PCOD9191124
Probable space group: C 2/M
;
_chemical_formula_sum "Si O2"
_cell_formula_units_Z 44
_cell_length_a 13.668406
_cell_length_b 5.675086
_cell_length_c 21.829811
_cell_angle_alpha 90.000000
_cell_angle_beta 95.717531
_cell_angle_gamma 90.000000
_cell_volume 1684.900830
_symmetry_space_group_name_H-M "C 2/M"
_symmetry_group_IT_number 12
_symmetry_cell_setting 'monoclinic'
loop_
_space_group_symop_operation_xyz
x,y,z
-x,y,-z
-x,-y,-z
x,-y,z
1/2+x,1/2+y,z
1/2-x,1/2+y,-z
1/2-x,1/2-y,-z
1/2+x,1/2-y,z
loop_
_atom_site_type_symbol
_atom_site_label
_atom_site_fract_x
_atom_site_fract_y
_atom_site_fract_z
Si Si1 0.074836 0.000000 0.719562
Si Si2 0.092835 0.500000 0.441473
Si Si3 0.550336 0.500000 0.412281
Si Si4 0.077475 0.751078 0.224284
Si Si5 0.787769 0.500000 0.426105
Si Si6 0.462336 0.249855 0.921636
Si Si7 0.801607 0.250055 0.070045
Si Si8 0.271827 0.500000 0.365333
O O1 0.034433 0.216266 0.757715
O O2 0.183673 0.000000 0.700502
O O3 0.004214 0.000000 0.655711
O O4 0.030843 0.259307 0.438592
O O5 0.168198 0.500000 0.502949
O O6 0.159036 0.500000 0.383095
O O7 0.669096 0.500000 0.419937
O O8 0.115722 0.500000 0.247642
O O9 0.070820 0.749715 0.150780
O O10 0.127043 0.000000 0.246560
O O11 0.812010 0.249590 0.395344
O O12 0.429586 0.500000 0.946771
O O13 0.429416 0.000000 0.946853
O O14 0.580495 0.250017 0.929089
O O15 0.776346 0.500000 0.099431
O O16 0.776831 0.000000 0.099812
O O17 0.750000 0.250000 0.000000
#
# Coordination Sequence:
#
# PCOD9191124 Si02
#       8
#     4   4   4   8   4   8   8   4
#     4  10  22  30  47  72  94 106 144 186 216 226
#     4  10  20  39  53  66  88 121 142 161 205 268
#     4  10  20  32  54  70  91 114 142 174 206 247
#     4   8  16  26  38  51  81 108 128 164 209 247
#     4  10  20  39  53  66  88 121 142 161 205 268
#     4   8  12  20  30  42  59  95 126 149 197 240
#     4   8  12  16  24  38  56  77 116 165 192 212
#     4  10  20  32  54  70  91 114 142 174 206 247
#
# _framework density 26.114298000000002
#
# number of rings (size 3 to 8) (size 9 to 14) (size 15 to 20)
#    0.545    2.545    0.000    2.727    2.545    0.000 
#    0.000    5.000    0.000    0.000    0.000    0.000 
#    0.000    0.000    0.000    0.000    0.000    0.000 
#
# Total GULP energy -122665.005780 kJ/mol
# GULP energy per Si atom -5575.682081 kJ/mol
# Density = 2.605486 g / cm^3
# Si number density = 26.114298 Si / 1000 Ang^3
#
#
#
# Elastic Constant Matrix: (Units=GPa)
#
#
# Indices 1 2 3 4 5 6 
#
# 1 119.9138 11.6070 16.3823 0.0000 10.3144 0.0000
# 2 11.6070 335.1495 26.2129 0.0000 -9.7031 0.0000
# 3 16.3823 26.2129 57.0938 0.0000 -28.2993 0.0000
# 4 0.0000 0.0000 0.0000 90.2845 0.0000 90.7240
# 5 10.3144 -9.7031 -28.2993 0.0000 27.9970 0.0000
# 6 0.0000 0.0000 0.0000 90.7240 0.0000 69.3073
#
#
#
# Elastic Compliance Matrix: (Units=1/GPa)
#
#
# Indices 1 2 3 4 5 6 
#
# 1 0.011003 0.000009 -0.010358 0.000000 -0.014521 0.000000
# 2 0.000009 0.003102 -0.001795 0.000000 -0.000742 0.000000
# 3 -0.010358 -0.001795 0.045882 0.000000 0.049571 0.000000
# 4 0.000000 0.000000 0.000000 -0.035120 0.000000 0.045972
# 5 -0.014521 -0.000742 0.049571 0.000000 0.090917 0.000000
# 6 0.000000 0.000000 0.000000 0.045972 0.000000 -0.045749
#
#
# Mechanical properties :
#
#
# Convention : Reuss Voigt Hill
#
# Bulk Modulus (GPa) = 28.01270 68.95128 48.48199
# Shear Modulus (GPa) = 47.07070 68.04810 57.55940
#
# Velocity S-wave (km/s) = 4.25018 5.11022 4.69991
# Velocity P-wave (km/s) = 5.90217 7.82816 6.93238
#
# Compressibility (1/GPa) = 0.03569810
#
# Stress axis : x y z
#
# Youngs Moduli (GPa) = 90.88751 322.33937 21.79513
#
# Poissons Ratio (x) = -0.00281 0.22576
# Poissons Ratio (y) = -0.00079 0.03911
# Poissons Ratio (z) = 0.94145 0.57848
#
# Static dielectric constant tensor:
#      x y z
#    x 2.031700 0.000000 0.005530 
#    y 0.000000 2.163500 0.000000 
#    z 0.005530 0.000000 1.970050 
# 
# From -- ./inp_files/341770.got.cif
#   From: 2010.05.17/outbox.cif.g08.bks.cpg/sg12_171_cif.got.tgz:341770.got - 2010.06.03 13:09:07.
