data_PCOD9191587
_publ_section_title
;
Structure prediction by ZEFSAII (Michael W. Deem and Ramdas Pophale) SiO2 
 PCOD9191587
Probable space group: C 2/M
;
_chemical_formula_sum "Si O2"
_cell_formula_units_Z 44
_cell_length_a 23.329020
_cell_length_b 9.453030
_cell_length_c 14.734592
_cell_angle_alpha 90.000000
_cell_angle_beta 139.696159
_cell_angle_gamma 90.000000
_cell_volume 2101.856795
_symmetry_space_group_name_H-M "C 2/M"
_symmetry_group_IT_number 12
_symmetry_cell_setting 'monoclinic'
loop_
_space_group_symop_operation_xyz
x,y,z
-x,y,-z
-x,-y,-z
x,-y,z
1/2+x,1/2+y,z
1/2-x,1/2+y,-z
1/2-x,1/2-y,-z
1/2+x,1/2-y,z
loop_
_atom_site_type_symbol
_atom_site_label
_atom_site_fract_x
_atom_site_fract_y
_atom_site_fract_z
Si Si1 0.500000 0.248442 0.500000
Si Si2 0.036737 0.665830 0.184432
Si Si3 0.840572 0.159686 0.192024
Si Si4 0.854447 0.329922 0.024572
Si Si5 0.119442 0.343673 0.485527
Si Si6 0.274860 0.171123 0.624296
O O1 0.577198 0.335066 0.641784
O O2 0.450809 0.162190 0.518938
O O3 0.029680 0.500000 0.152584
O O4 0.068473 0.678171 0.328212
O O5 0.123223 0.715578 0.233197
O O6 0.936983 0.724847 0.064103
O O7 0.858848 0.263560 0.130277
O O8 0.829999 0.000000 0.143162
O O9 0.746961 0.198735 0.126021
O O10 0.864978 0.500000 0.042523
O O11 0.160472 0.500000 0.530059
O O12 0.196067 0.228038 0.591548
O O13 0.250000 0.250000 0.500000
O O14 0.272178 0.000000 0.613484
#
# Coordination Sequence:
#
# PCOD9191587 Si02
#       6
#     4   8   8   8   8   8
#     4  12  22  34  50  76 112 146 174 212 266 326
#     4   8  14  29  52  75  97 127 171 215 255 303
#     4  10  21  33  49  75 107 139 173 216 262 311
#     4   9  17  34  55  74 100 136 178 217 255 309
#     4  10  20  33  50  75 102 138 180 218 260 312
#     4   9  17  30  49  75 105 134 168 218 266 311
#
# _framework density 20.933872000000001
#
# number of rings (size 3 to 8) (size 9 to 14) (size 15 to 20)
#    0.000    2.545    1.818    2.182    0.000    2.182 
#    0.000    0.909    0.000    1.091    0.000    6.364 
#    0.000    0.000    0.000    0.000    0.000    0.000 
#
# Total GULP energy -122504.917678 kJ/mol
# GULP energy per Si atom -5568.405349 kJ/mol
# Density = 2.088623 g / cm^3
# Si number density = 20.933872 Si / 1000 Ang^3
#
#
#
# Elastic Constant Matrix: (Units=GPa)
#
#
# Indices 1 2 3 4 5 6 
#
# 1 89.5962 24.5482 44.5796 0.0000 35.8287 0.0000
# 2 24.5482 50.7995 23.3654 0.0000 14.8169 0.0000
# 3 44.5796 23.3654 115.7857 0.0000 38.8356 0.0000
# 4 0.0000 0.0000 0.0000 9.7167 0.0000 13.1351
# 5 35.8287 14.8169 38.8356 0.0000 53.6798 0.0000
# 6 0.0000 0.0000 0.0000 13.1351 0.0000 13.8642
#
#
#
# Elastic Compliance Matrix: (Units=1/GPa)
#
#
# Indices 1 2 3 4 5 6 
#
# 1 0.017088 -0.004556 -0.002979 0.000000 -0.007993 0.000000
# 2 -0.004556 0.023493 -0.002419 0.000000 -0.001694 0.000000
# 3 -0.002979 -0.002419 0.012387 0.000000 -0.006305 0.000000
# 4 0.000000 0.000000 0.000000 -0.366628 0.000000 0.347347
# 5 -0.007993 -0.001694 -0.006305 0.000000 0.028993 0.000000
# 6 0.000000 0.000000 0.000000 0.347347 0.000000 -0.256951
#
#
# Mechanical properties :
#
#
# Convention : Reuss Voigt Hill
#
# Bulk Modulus (GPa) = 30.24749 49.01865 39.63307
# Shear Modulus (GPa) = -9.79066 26.36469 8.28701
#
# Velocity S-wave (km/s) = -2.16497 3.55269 1.99180
# Velocity P-wave (km/s) = 2.86897 6.34788 4.92578
#
# Compressibility (1/GPa) = 0.03306060
#
# Stress axis : x y z
#
# Youngs Moduli (GPa) = 58.52101 42.56510 80.73276
#
# Poissons Ratio (x) = 0.19393 0.24050
# Poissons Ratio (y) = 0.26663 0.19526
# Poissons Ratio (z) = 0.17433 0.10295
#
# Static dielectric constant tensor:
#      x y z
#    x 1.831990 0.000000 0.034860 
#    y 0.000000 1.726140 0.000000 
#    z 0.034860 0.000000 1.793170 
# 
# From -- ./inp_files/288537.got.cif
#   From: 2010.05.17/outbox.cif.g08.bks.cpg/sg12_145_cif.got.tgz:288537.got - 2010.06.03 13:09:07.
