data_PCOD9191072
_publ_section_title
;
Structure prediction by ZEFSAII (Michael W. Deem and Ramdas Pophale) SiO2 
 PCOD9191072
Probable space group: C 2/M
;
_chemical_formula_sum "Si O2"
_cell_formula_units_Z 48
_cell_length_a 31.315276
_cell_length_b 13.565167
_cell_length_c 14.921792
_cell_angle_alpha 90.000000
_cell_angle_beta 158.110265
_cell_angle_gamma 90.000000
_cell_volume 2363.215763
_symmetry_space_group_name_H-M "C 2/M"
_symmetry_group_IT_number 12
_symmetry_cell_setting 'monoclinic'
loop_
_space_group_symop_operation_xyz
x,y,z
-x,y,-z
-x,-y,-z
x,-y,z
1/2+x,1/2+y,z
1/2-x,1/2+y,-z
1/2-x,1/2-y,-z
1/2+x,1/2-y,z
loop_
_atom_site_type_symbol
_atom_site_label
_atom_site_fract_x
_atom_site_fract_y
_atom_site_fract_z
Si Si1 0.726248 0.611286 0.928608
Si Si2 0.100085 0.386864 0.565521
Si Si3 0.851283 0.382998 0.621141
Si Si4 0.111548 0.616918 0.097083
Si Si5 0.609740 0.258414 0.833781
Si Si6 0.781478 0.208863 0.786603
O O1 0.704691 0.500000 0.855555
O O2 0.622331 0.663027 0.778773
O O3 0.823619 0.607145 0.196100
O O4 0.777382 0.687587 0.956522
O O5 0.068166 0.500000 0.479743
O O6 0.174765 0.335493 0.633999
O O7 0.993620 0.316467 0.374054
O O8 0.850060 0.500000 0.605573
O O9 0.850482 0.365834 0.726104
O O10 0.743478 0.339375 0.358348
O O11 0.977677 0.349743 0.832244
O O12 0.115560 0.500000 0.087599
O O13 0.191667 0.678303 0.186869
O O14 0.616957 0.312204 0.944023
#
# Coordination Sequence:
#
# PCOD9191072 Si02
#       6
#     8   8   8   8   8   8
#     4   9  19  36  56  76 102 138 178 218 259 304
#     4  10  20  35  56  79 103 137 178 215 254 306
#     4   9  18  35  57  78 101 135 177 216 256 305
#     4   9  19  35  55  78 104 135 173 215 258 307
#     4  10  20  32  52  81 107 134 174 217 259 307
#     4  11  20  30  50  81 111 134 166 214 262 306
#
# _framework density 20.311306999999999
#
# number of rings (size 3 to 8) (size 9 to 14) (size 15 to 20)
#    0.000    2.333    0.000    4.000    0.000    4.667 
#    0.000    0.833    0.000   20.000    0.000   15.167 
#    0.000    0.000    0.000    0.000    0.000    0.000 
#
# Total GULP energy -133699.926639 kJ/mol
# GULP energy per Si atom -5570.830277 kJ/mol
# Density = 2.026508 g / cm^3
# Si number density = 20.311307 Si / 1000 Ang^3
#
#
#
# Elastic Constant Matrix: (Units=GPa)
#
#
# Indices 1 2 3 4 5 6 
#
# 1 36.4815 2.8584 16.0505 0.0000 -13.9677 0.0000
# 2 2.8584 55.9747 20.6218 0.0000 3.3150 0.0000
# 3 16.0505 20.6218 63.8252 0.0000 -10.7494 0.0000
# 4 0.0000 0.0000 0.0000 30.7249 0.0000 4.0356
# 5 -13.9677 3.3150 -10.7494 0.0000 21.1814 0.0000
# 6 0.0000 0.0000 0.0000 4.0356 0.0000 25.2838
#
#
#
# Elastic Compliance Matrix: (Units=1/GPa)
#
#
# Indices 1 2 3 4 5 6 
#
# 1 0.038701 -0.001336 -0.005432 0.000000 0.022973 0.000000
# 2 -0.001336 0.021353 -0.007954 0.000000 -0.008259 0.000000
# 3 -0.005432 -0.007954 0.021006 0.000000 0.008323 0.000000
# 4 0.000000 0.000000 0.000000 0.033244 0.000000 -0.005306
# 5 0.022973 -0.008259 0.008323 0.000000 0.067877 0.000000
# 6 0.000000 0.000000 0.000000 -0.005306 0.000000 0.040398
#
#
# Mechanical properties :
#
#
# Convention : Reuss Voigt Hill
#
# Bulk Modulus (GPa) = 19.37363 26.14918 22.76140
# Shear Modulus (GPa) = 18.57163 23.22140 20.89652
#
# Velocity S-wave (km/s) = 3.02710 3.38490 3.21099
# Velocity P-wave (km/s) = 4.66657 5.30838 4.99779
#
# Compressibility (1/GPa) = 0.05161656
#
# Stress axis : x y z
#
# Youngs Moduli (GPa) = 25.83885 46.83181 47.60652
#
# Poissons Ratio (x) = 0.06256 0.25858
# Poissons Ratio (y) = 0.03451 0.37867
# Poissons Ratio (z) = 0.14035 0.37251
#
# Static dielectric constant tensor:
#      x y z
#    x 1.776420 0.000000 -0.021470 
#    y 0.000000 1.712890 0.000000 
#    z -0.021470 0.000000 1.767520 
# 
# From -- ./inp_files/251492.got.cif
#   From: 2010.05.17/outbox.cif.g08.bks.cpg/sg12_126_cif.got.tgz:251492.got - 2010.06.03 13:09:07.
