data_PCOD9191590
_publ_section_title
;
Structure prediction by ZEFSAII (Michael W. Deem and Ramdas Pophale) SiO2 
 PCOD9191590
Probable space group: C 2/M
;
_chemical_formula_sum "Si O2"
_cell_formula_units_Z 40
_cell_length_a 16.140119
_cell_length_b 14.802531
_cell_length_c 20.031608
_cell_angle_alpha 90.000000
_cell_angle_beta 27.468062
_cell_angle_gamma 90.000000
_cell_volume 2207.490103
_symmetry_space_group_name_H-M "C 2/M"
_symmetry_group_IT_number 12
_symmetry_cell_setting 'monoclinic'
loop_
_space_group_symop_operation_xyz
x,y,z
-x,y,-z
-x,-y,-z
x,-y,z
1/2+x,1/2+y,z
1/2-x,1/2+y,-z
1/2-x,1/2-y,-z
1/2+x,1/2-y,z
loop_
_atom_site_type_symbol
_atom_site_label
_atom_site_fract_x
_atom_site_fract_y
_atom_site_fract_z
Si Si1 0.766531 0.150368 0.017500
Si Si2 0.112970 0.298339 0.257567
Si Si3 0.105778 0.097843 0.210561
Si Si4 0.803066 0.602394 0.551305
Si Si5 0.152490 0.105853 0.803119
O O1 0.621751 0.148288 0.180349
O O2 0.750000 0.250000 0.000000
O O3 0.775475 0.095492 0.942297
O O4 0.955092 0.133296 0.919765
O O5 0.138111 0.191440 0.226309
O O6 0.270573 0.335584 0.192071
O O7 0.929741 0.325333 0.425597
O O8 0.898255 0.104265 0.334567
O O9 0.129047 0.000000 0.228382
O O10 0.875403 0.500000 0.489630
O O11 0.778704 0.616989 0.647732
O O12 0.150432 0.000000 0.822555
#
# Coordination Sequence:
#
# PCOD9191590 Si02
#       5
#     8   8   8   8   8
#     4   9  19  33  50  71  97 128 162 197 241 295
#     4  11  19  29  51  79 100 125 166 206 241 289
#     4   9  19  35  50  67 100 139 166 195 240 290
#     4   9  18  32  50  74 101 128 160 200 248 295
#     4  10  20  33  50  75 105 129 152 199 261 299
#
# _framework density 18.120125999999999
#
# number of rings (size 3 to 8) (size 9 to 14) (size 15 to 20)
#    0.000    2.400    0.000    4.200    0.000    5.600 
#    0.000    0.000    0.000   13.200    0.000    5.600 
#    0.000    0.000    0.000    0.000    0.000    0.000 
#
# Total GULP energy -111401.030631 kJ/mol
# GULP energy per Si atom -5570.051532 kJ/mol
# Density = 1.807888 g / cm^3
# Si number density = 18.120126 Si / 1000 Ang^3
#
#
#
# Elastic Constant Matrix: (Units=GPa)
#
#
# Indices 1 2 3 4 5 6 
#
# 1 59.1844 56.1190 5.3328 -0.0006 13.5764 0.0005
# 2 56.1190 155.2684 40.4365 0.0057 14.1217 -0.0051
# 3 5.3328 40.4365 60.9294 0.0006 23.1902 -0.0001
# 4 -0.0006 0.0057 0.0006 25.1006 -0.0010 -5.4936
# 5 13.5764 14.1217 23.1902 -0.0010 22.2067 0.0014
# 6 0.0005 -0.0051 -0.0001 -5.4936 0.0014 50.3425
#
#
#
# Elastic Compliance Matrix: (Units=1/GPa)
#
#
# Indices 1 2 3 4 5 6 
#
# 1 0.038022 -0.015905 0.020290 0.000002 -0.034320 -0.000001
# 2 -0.015905 0.014447 -0.013941 -0.000003 0.015095 0.000001
# 3 0.020290 -0.013941 0.041883 0.000001 -0.047277 0.000000
# 4 0.000002 -0.000003 0.000001 0.040814 0.000001 0.004454
# 5 -0.034320 0.015095 -0.047277 0.000001 0.105784 -0.000001
# 6 -0.000001 0.000001 0.000000 0.004454 -0.000001 0.020350
#
#
# Mechanical properties :
#
#
# Convention : Reuss Voigt Hill
#
# Bulk Modulus (GPa) = 13.29095 53.23985 33.26540
# Shear Modulus (GPa) = 16.36703 31.09623 23.73163
#
# Velocity S-wave (km/s) = 3.00867 4.14710 3.62288
# Velocity P-wave (km/s) = 4.40685 7.23717 5.99153
#
# Compressibility (1/GPa) = 0.07523918
#
# Stress axis : x y z
#
# Youngs Moduli (GPa) = 26.30041 69.21911 23.87630
#
# Poissons Ratio (x) = 1.10095 -0.48445
# Poissons Ratio (y) = 0.41831 0.33286
# Poissons Ratio (z) = -0.53364 0.96499
#
# Static dielectric constant tensor:
#      x y z
#    x 1.608290 0.000000 0.016790 
#    y 0.000000 1.637270 0.000000 
#    z 0.016790 0.000000 1.668680 
# 
# From -- ./inp_files/59065.got.cif
#   From: 2010.05.17/outbox.cif.g08.bks.cpg/sg12_30_cif.got.tgz:59065.got - 2010.06.03 13:09:07.
