data_PCOD9191080
_publ_section_title
;
Structure prediction by ZEFSAII (Michael W. Deem and Ramdas Pophale) SiO2 
 PCOD9191080
Probable space group: C 2/M
;
_chemical_formula_sum "Si O2"
_cell_formula_units_Z 64
_cell_length_a 20.966978
_cell_length_b 7.805625
_cell_length_c 24.031205
_cell_angle_alpha 90.000000
_cell_angle_beta 51.598578
_cell_angle_gamma 90.000000
_cell_volume 3082.171133
_symmetry_space_group_name_H-M "C 2/M"
_symmetry_group_IT_number 12
_symmetry_cell_setting 'monoclinic'
loop_
_space_group_symop_operation_xyz
x,y,z
-x,y,-z
-x,-y,-z
x,-y,z
1/2+x,1/2+y,z
1/2-x,1/2+y,-z
1/2-x,1/2-y,-z
1/2+x,1/2-y,z
loop_
_atom_site_type_symbol
_atom_site_label
_atom_site_fract_x
_atom_site_fract_y
_atom_site_fract_z
Si Si1 0.873688 0.701306 0.896188
Si Si2 0.425575 0.702843 0.076396
Si Si3 0.976161 0.801814 0.256816
Si Si4 0.198642 0.706247 0.947897
Si Si5 0.323028 0.203886 0.657985
Si Si6 0.920087 0.697346 0.503851
Si Si7 0.526017 0.698354 0.348112
Si Si8 0.641011 0.288811 0.772121
O O1 0.892930 0.500000 0.887726
O O2 0.789562 0.727273 0.908330
O O3 0.946578 0.794838 0.826036
O O4 0.854222 0.762091 0.969466
O O5 0.440993 0.500000 0.074057
O O6 0.344604 0.729009 0.083898
O O7 0.409829 0.771386 0.146644
O O8 0.500000 0.777765 0.000000
O O9 0.901659 0.729436 0.261485
O O10 0.002169 0.722637 0.301630
O O11 0.954957 0.000000 0.279954
O O12 0.201132 0.500000 0.946590
O O13 0.352475 0.273809 0.581857
O O14 0.394421 0.228459 0.664332
O O15 0.234789 0.266531 0.724276
O O16 0.316329 0.000000 0.653412
O O17 0.900252 0.500000 0.500651
O O18 0.000000 0.694505 0.500000
O O19 0.950231 0.786490 0.431615
O O20 0.545961 0.500000 0.328338
O O21 0.639265 0.500000 0.773937
#
# Coordination Sequence:
#
# PCOD9191080 Si02
#       8
#     8   8   8   8   8   8   8   8
#     4  10  21  36  55  77 104 140 179 219 268 322
#     4  10  20  34  55  80 105 140 187 228 267 320
#     4  10  21  37  55  77 109 144 179 219 270 322
#     4  10  21  36  54  78 106 136 176 226 277 323
#     4   9  18  34  56  79 104 139 184 225 261 313
#     4   8  15  30  52  77 104 138 179 220 260 312
#     4  10  20  32  52  82 111 139 172 217 275 325
#     4   9  19  36  56  77 105 145 185 222 267 321
#
# _framework density 20.764582999999998
#
# number of rings (size 3 to 8) (size 9 to 14) (size 15 to 20)
#    0.000    2.500    0.000    2.625    1.750    6.000 
#    0.000    1.875    0.000    0.000    0.000    0.000 
#    0.000    0.000    0.000    0.000    0.000    0.000 
#
# Total GULP energy -178528.683060 kJ/mol
# GULP energy per Si atom -5579.021346 kJ/mol
# Density = 2.071732 g / cm^3
# Si number density = 20.764583 Si / 1000 Ang^3
#
#
#
# Elastic Constant Matrix: (Units=GPa)
#
#
# Indices 1 2 3 4 5 6 
#
# 1 98.1615 -9.3435 63.3391 -0.0132 13.7757 0.0067
# 2 -9.3435 23.8567 5.4626 -0.0343 -3.7143 0.0174
# 3 63.3391 5.4626 93.9698 0.0090 -0.1032 -0.0041
# 4 -0.0132 -0.0343 0.0090 -177.7259 -0.0002 80.5031
# 5 13.7757 -3.7143 -0.1032 -0.0002 19.6817 -0.0001
# 6 0.0067 0.0174 -0.0041 80.5031 -0.0001 -23.2505
#
#
#
# Elastic Compliance Matrix: (Units=1/GPa)
#
#
# Indices 1 2 3 4 5 6 
#
# 1 0.024403 0.011130 -0.017112 -0.000006 -0.015070 -0.000003
# 2 0.011130 0.048858 -0.010340 -0.000014 0.001376 -0.000007
# 3 -0.017112 -0.010340 0.022788 0.000006 0.010145 0.000003
# 4 -0.000006 -0.000014 0.000006 0.009900 0.000002 0.034278
# 5 -0.015070 0.001376 0.010145 0.000002 0.061669 0.000002
# 6 -0.000003 -0.000007 0.000003 0.034278 0.000002 0.075675
#
#
# Mechanical properties :
#
#
# Convention : Reuss Voigt Hill
#
# Bulk Modulus (GPa) = 15.77212 37.21160 26.49186
# Shear Modulus (GPa) = 16.83081 -25.82361 -4.49640
#
# Velocity S-wave (km/s) = 2.85011 -3.53035 -1.47313
# Velocity P-wave (km/s) = 4.29453 1.15835 3.14522
#
# Compressibility (1/GPa) = 0.06340302
#
# Stress axis : x y z
#
# Youngs Moduli (GPa) = 40.97814 20.46762 43.88231
#
# Poissons Ratio (x) = -0.22779 0.75092
# Poissons Ratio (y) = -0.45607 0.45376
# Poissons Ratio (z) = 0.70123 0.21164
#
# Static dielectric constant tensor:
#      x y z
#    x 1.732820 0.000000 0.010590 
#    y 0.000000 1.756030 0.000000 
#    z 0.010590 0.000000 1.762890 
# 
# From -- ./inp_files/346064.got.cif
#   From: 2010.05.17/outbox.cif.g08.bks.cpg/sg12_174_cif.got.tgz:346064.got - 2010.06.03 13:09:07.
