data_PCOD9191121
_publ_section_title
;
Structure prediction by ZEFSAII (Michael W. Deem and Ramdas Pophale) SiO2 
 PCOD9191121
Probable space group: C 2/M
;
_chemical_formula_sum "Si O2"
_cell_formula_units_Z 40
_cell_length_a 13.024321
_cell_length_b 19.207534
_cell_length_c 7.064141
_cell_angle_alpha 90.000000
_cell_angle_beta 72.232364
_cell_angle_gamma 90.000000
_cell_volume 1682.909333
_symmetry_space_group_name_H-M "C 2/M"
_symmetry_group_IT_number 12
_symmetry_cell_setting 'monoclinic'
loop_
_space_group_symop_operation_xyz
x,y,z
-x,y,-z
-x,-y,-z
x,-y,z
1/2+x,1/2+y,z
1/2-x,1/2+y,-z
1/2-x,1/2-y,-z
1/2+x,1/2-y,z
loop_
_atom_site_type_symbol
_atom_site_label
_atom_site_fract_x
_atom_site_fract_y
_atom_site_fract_z
Si Si1 0.150210 0.852892 0.029326
Si Si2 0.348168 0.198157 0.496695
Si Si3 0.247625 0.581908 0.688900
Si Si4 0.444046 0.208917 0.845057
Si Si5 0.573283 0.418538 0.711706
O O1 0.243070 0.877967 0.117813
O O2 0.127148 0.771480 0.030013
O O3 0.038464 0.880941 0.185295
O O4 0.153858 0.889224 0.825379
O O5 0.250000 0.250000 0.500000
O O6 0.331248 0.124460 0.402163
O O7 0.371121 0.184281 0.706390
O O8 0.451372 0.232435 0.335891
O O9 0.224340 0.500000 0.723423
O O10 0.364216 0.588408 0.519715
O O11 0.500000 0.173191 0.000000
O O12 0.553891 0.500000 0.752838
#
# Coordination Sequence:
#
# PCOD9191121 Si02
#       5
#     8   8   8   8   8
#     4  11  19  33  58  86 122 154 194 246 309 376
#     4  11  24  41  63  92 126 161 212 254 299 373
#     4  11  23  39  60  87 122 162 200 251 307 358
#     4  11  24  40  62  91 123 163 206 255 313 356
#     4  10  20  32  53  87 123 158 193 238 308 381
#
# _framework density 23.768362
#
# number of rings (size 3 to 8) (size 9 to 14) (size 15 to 20)
#    0.000    1.200    4.000    4.200    2.800    4.000 
#    0.000    2.000    0.000    1.200    0.000    0.000 
#    0.000    0.000    0.000    0.000    0.000    0.000 
#
# Total GULP energy -111737.269470 kJ/mol
# GULP energy per Si atom -5586.863473 kJ/mol
# Density = 2.371426 g / cm^3
# Si number density = 23.768362 Si / 1000 Ang^3
#
#
#
# Elastic Constant Matrix: (Units=GPa)
#
#
# Indices 1 2 3 4 5 6 
#
# 1 105.3680 23.8864 30.0724 0.0000 38.3389 0.0000
# 2 23.8864 81.0791 21.2674 0.0000 22.2670 0.0000
# 3 30.0724 21.2674 123.6285 0.0000 50.8600 0.0000
# 4 0.0000 0.0000 0.0000 29.0630 0.0000 1.7642
# 5 38.3389 22.2670 50.8600 0.0000 69.3843 0.0000
# 6 0.0000 0.0000 0.0000 1.7642 0.0000 18.8086
#
#
#
# Elastic Compliance Matrix: (Units=1/GPa)
#
#
# Indices 1 2 3 4 5 6 
#
# 1 0.012143 -0.001891 -0.000169 0.000000 -0.005979 0.000000
# 2 -0.001891 0.013872 -0.000751 0.000000 -0.002856 0.000000
# 3 -0.000169 -0.000751 0.011628 0.000000 -0.008189 0.000000
# 4 0.000000 0.000000 0.000000 0.034605 0.000000 -0.003246
# 5 -0.005979 -0.002856 -0.008189 0.000000 0.024636 0.000000
# 6 0.000000 0.000000 0.000000 -0.003246 0.000000 0.053472
#
#
# Mechanical properties :
#
#
# Convention : Reuss Voigt Hill
#
# Bulk Modulus (GPa) = 31.22936 51.16978 41.19957
# Shear Modulus (GPa) = 30.00269 39.10779 34.55524
#
# Velocity S-wave (km/s) = 3.55673 4.06072 3.81705
# Velocity P-wave (km/s) = 5.48039 6.60009 6.06613
#
# Compressibility (1/GPa) = 0.03202114
#
# Stress axis : x y z
#
# Youngs Moduli (GPa) = 82.35235 72.08627 85.99905
#
# Poissons Ratio (x) = 0.13632 0.01450
# Poissons Ratio (y) = 0.15573 0.06462
# Poissons Ratio (z) = 0.01389 0.05416
#
# Static dielectric constant tensor:
#      x y z
#    x 2.007570 0.000000 0.012120 
#    y 0.000000 1.867520 0.000000 
#    z 0.012120 0.000000 1.944080 
# 
# From -- ./inp_files/48583.got.cif
#   From: 2010.05.17/outbox.cif.g08.bks.cpg/sg12_25_cif.got.tgz:48583.got - 2010.06.03 13:09:07.
