data_PCOD9191614
_publ_section_title
;
Structure prediction by ZEFSAII (Michael W. Deem and Ramdas Pophale) SiO2 
 PCOD9191614
Probable space group: C 2/M
;
_chemical_formula_sum "Si O2"
_cell_formula_units_Z 64
_cell_length_a 25.951990
_cell_length_b 7.724955
_cell_length_c 14.568506
_cell_angle_alpha 90.000000
_cell_angle_beta 90.742335
_cell_angle_gamma 90.000000
_cell_volume 2920.419157
_symmetry_space_group_name_H-M "C 2/M"
_symmetry_group_IT_number 12
_symmetry_cell_setting 'monoclinic'
loop_
_space_group_symop_operation_xyz
x,y,z
-x,y,-z
-x,-y,-z
x,-y,z
1/2+x,1/2+y,z
1/2-x,1/2+y,-z
1/2-x,1/2-y,-z
1/2+x,1/2-y,z
loop_
_atom_site_type_symbol
_atom_site_label
_atom_site_fract_x
_atom_site_fract_y
_atom_site_fract_z
Si Si1 0.307817 0.207469 0.037352
Si Si2 0.161210 0.202868 0.756555
Si Si3 0.439380 0.706456 0.705393
Si Si4 0.192672 0.293193 0.469530
Si Si5 0.915250 0.295945 0.494530
Si Si6 0.051110 0.799379 0.694175
Si Si7 0.354091 0.791566 0.855545
Si Si8 0.229673 0.711798 0.282434
O O1 0.323287 0.283788 0.136067
O O2 0.310425 0.000000 0.046222
O O3 0.250000 0.250000 0.000000
O O4 0.349102 0.265943 0.960559
O O5 0.105365 0.278777 0.730319
O O6 0.212138 0.277977 0.708009
O O7 0.159011 0.000000 0.731624
O O8 0.441802 0.500000 0.695244
O O9 0.425345 0.774437 0.603115
O O10 0.497051 0.775091 0.727682
O O11 0.399961 0.743564 0.787387
O O12 0.187182 0.500000 0.470422
O O13 0.250000 0.250000 0.500000
O O14 0.143134 0.225131 0.520907
O O15 0.193144 0.232802 0.364466
O O16 0.918624 0.500000 0.474826
O O17 0.949549 0.209575 0.417071
O O18 0.051803 0.000000 0.723025
O O19 0.300126 0.733291 0.808603
O O20 0.353519 0.000000 0.856638
O O21 0.231845 0.500000 0.283596
#
# Coordination Sequence:
#
# PCOD9191614 Si02
#       8
#     8   8   8   8   8   8   8   8
#     4  11  22  37  61  91 121 152 192 239 291 353
#     4  10  20  38  62  85 116 157 193 238 297 348
#     4  11  23  39  60  87 116 152 201 247 287 342
#     4  10  20  33  50  76 112 149 188 229 278 340
#     4  11  22  37  59  86 116 155 200 242 287 345
#     4  10  23  41  60  84 117 156 197 243 295 344
#     4  10  20  38  60  84 114 149 189 235 288 344
#     4   9  16  32  55  77 108 147 183 223 280 340
#
# _framework density 21.914662
#
# number of rings (size 3 to 8) (size 9 to 14) (size 15 to 20)
#    0.000    1.750    2.500    2.250    0.000    6.000 
#    0.000    1.250    0.000    3.750    0.000    0.000 
#    0.000    0.000    0.000    0.000    0.000    0.000 
#
# Total GULP energy -178547.050602 kJ/mol
# GULP energy per Si atom -5579.595331 kJ/mol
# Density = 2.186478 g / cm^3
# Si number density = 21.914662 Si / 1000 Ang^3
#
#
#
# Elastic Constant Matrix: (Units=GPa)
#
#
# Indices 1 2 3 4 5 6 
#
# 1 153.0366 -3.2061 32.2920 0.0000 -17.5297 0.0000
# 2 -3.2061 43.8663 -10.3761 0.0000 2.5723 0.0000
# 3 32.2920 -10.3761 68.8238 0.0000 -13.8609 0.0000
# 4 0.0000 0.0000 0.0000 24.4362 0.0000 -2.5900
# 5 -17.5297 2.5723 -13.8609 0.0000 29.5896 0.0000
# 6 0.0000 0.0000 0.0000 -2.5900 0.0000 16.5490
#
#
#
# Elastic Compliance Matrix: (Units=1/GPa)
#
#
# Indices 1 2 3 4 5 6 
#
# 1 0.007504 -0.000330 -0.002948 0.000000 0.003093 0.000000
# 2 -0.000330 0.023659 0.003609 0.000000 -0.000562 0.000000
# 3 -0.002948 0.003609 0.017713 0.000000 0.006238 0.000000
# 4 0.000000 0.000000 0.000000 0.041613 0.000000 0.006513
# 5 0.003093 -0.000562 0.006238 0.000000 0.038599 0.000000
# 6 0.000000 0.000000 0.000000 0.006513 0.000000 0.061446
#
#
# Mechanical properties :
#
#
# Convention : Reuss Voigt Hill
#
# Bulk Modulus (GPa) = 20.18663 33.68292 26.93478
# Shear Modulus (GPa) = 24.22659 30.58274 27.40467
#
# Velocity S-wave (km/s) = 3.32851 3.73974 3.54010
# Velocity P-wave (km/s) = 4.89933 5.83532 5.38769
#
# Compressibility (1/GPa) = 0.04953774
#
# Stress axis : x y z
#
# Youngs Moduli (GPa) = 133.26660 42.26728 56.45535
#
# Poissons Ratio (x) = 0.01396 0.16640
# Poissons Ratio (y) = 0.04400 -0.20373
# Poissons Ratio (z) = 0.39281 -0.15253
#
# Static dielectric constant tensor:
#      x y z
#    x 1.765490 0.000000 0.039370 
#    y 0.000000 1.630870 0.000000 
#    z 0.039370 0.000000 1.827980 
# 
# From -- ./inp_files/238761.got.cif
#   From: 2010.05.17/outbox.cif.g08.bks.cpg/sg12_120_cif.got.tgz:238761.got - 2010.06.03 13:09:07.
