data_PCOD9191776
_publ_section_title
;
Structure prediction by ZEFSAII (Michael W. Deem and Ramdas Pophale) SiO2 
 PCOD9191776
Probable space group: C 2/M
;
_chemical_formula_sum "Si O2"
_cell_formula_units_Z 40
_cell_length_a 24.460597
_cell_length_b 8.854509
_cell_length_c 8.095110
_cell_angle_alpha 90.000000
_cell_angle_beta 82.531395
_cell_angle_gamma 90.000000
_cell_volume 1738.417639
_symmetry_space_group_name_H-M "C 2/M"
_symmetry_group_IT_number 12
_symmetry_cell_setting 'monoclinic'
loop_
_space_group_symop_operation_xyz
x,y,z
-x,y,-z
-x,-y,-z
x,-y,z
1/2+x,1/2+y,z
1/2-x,1/2+y,-z
1/2-x,1/2-y,-z
1/2+x,1/2-y,z
loop_
_atom_site_type_symbol
_atom_site_label
_atom_site_fract_x
_atom_site_fract_y
_atom_site_fract_z
Si Si1 0.382315 0.677698 0.463829
Si Si2 0.683706 0.322162 0.164830
Si Si3 0.084877 0.680256 0.042048
Si Si4 0.980454 0.680777 0.271868
Si Si5 0.217183 0.682537 0.669404
O O1 0.383768 0.500000 0.429398
O O2 0.351747 0.698985 0.651081
O O3 0.443561 0.744782 0.427432
O O4 0.343855 0.758995 0.342093
O O5 0.686657 0.500000 0.128307
O O6 0.645599 0.243777 0.044844
O O7 0.745232 0.268228 0.189361
O O8 0.088516 0.500000 0.054374
O O9 0.041651 0.734306 0.199885
O O10 0.054662 0.711831 0.881724
O O11 0.982186 0.500000 0.296870
O O12 0.217597 0.500000 0.665751
O O13 0.250000 0.750000 0.500000
#
# Coordination Sequence:
#
# PCOD9191776 Si02
#       5
#     8   8   8   8   8
#     4  10  20  33  51  77 103 131 167 206 246 293
#     4   9  19  33  50  75 104 129 161 204 247 291
#     4   9  19  35  54  73  97 131 169 205 248 298
#     4   9  19  36  53  72  99 131 167 208 249 294
#     4   9  17  31  50  73 102 134 164 201 247 294
#
# _framework density 23.009432
#
# number of rings (size 3 to 8) (size 9 to 14) (size 15 to 20)
#    0.000    2.800    0.000    3.600    0.000    7.200 
#    0.000    7.000    0.000    0.000    0.000    0.000 
#    0.000    0.000    0.000    0.000    0.000    0.000 
#
# Total GULP energy -111690.585077 kJ/mol
# GULP energy per Si atom -5584.529254 kJ/mol
# Density = 2.295706 g / cm^3
# Si number density = 23.009432 Si / 1000 Ang^3
#
#
#
# Elastic Constant Matrix: (Units=GPa)
#
#
# Indices 1 2 3 4 5 6 
#
# 1 147.4025 14.4816 9.8896 0.0000 4.7102 0.0000
# 2 14.4816 14.0732 10.8558 0.0000 3.4285 0.0000
# 3 9.8896 10.8558 52.8855 0.0000 11.4194 0.0000
# 4 0.0000 0.0000 0.0000 11.5063 0.0000 6.0035
# 5 4.7102 3.4285 11.4194 0.0000 46.1163 0.0000
# 6 0.0000 0.0000 0.0000 6.0035 0.0000 -11.2471
#
#
#
# Elastic Compliance Matrix: (Units=1/GPa)
#
#
# Indices 1 2 3 4 5 6 
#
# 1 0.007552 -0.007916 0.000266 0.000000 -0.000249 0.000000
# 2 -0.007916 0.092915 -0.017195 0.000000 -0.001841 0.000000
# 3 0.000266 -0.017195 0.023368 0.000000 -0.004535 0.000000
# 4 0.000000 0.000000 0.000000 0.067977 0.000000 0.036285
# 5 -0.000249 -0.001841 -0.004535 0.000000 0.022970 0.000000
# 6 0.000000 0.000000 0.000000 0.036285 0.000000 -0.069544
#
#
# Mechanical properties :
#
#
# Convention : Reuss Voigt Hill
#
# Bulk Modulus (GPa) = 13.48689 31.64612 22.56651
# Shear Modulus (GPa) = 22.76440 21.21740 21.99090
#
# Velocity S-wave (km/s) = 3.14881 3.03993 3.09485
# Velocity P-wave (km/s) = 4.36969 5.10930 4.75390
#
# Compressibility (1/GPa) = 0.07414609
#
# Stress axis : x y z
#
# Youngs Moduli (GPa) = 132.41659 10.76254 42.79396
#
# Poissons Ratio (x) = 0.08520 -0.01140
# Poissons Ratio (y) = 1.04820 0.73583
# Poissons Ratio (z) = -0.03528 0.18506
#
# Static dielectric constant tensor:
#      x y z
#    x 1.865560 0.000000 0.002260 
#    y 0.000000 1.766120 0.000000 
#    z 0.002260 0.000000 1.893430 
# 
# From -- ./inp_files/92921.got.cif
#   From: 2010.05.17/outbox.cif.g08.bks.cpg/sg12_47_cif.got.tgz:92921.got - 2010.06.03 13:09:07.
