data_PCOD9191226
_publ_section_title
;
Structure prediction by ZEFSAII (Michael W. Deem and Ramdas Pophale) SiO2 
 PCOD9191226
Probable space group: C 2/M
;
_chemical_formula_sum "Si O2"
_cell_formula_units_Z 44
_cell_length_a 15.986148
_cell_length_b 18.380907
_cell_length_c 11.157256
_cell_angle_alpha 90.000000
_cell_angle_beta 43.252272
_cell_angle_gamma 90.000000
_cell_volume 2246.430797
_symmetry_space_group_name_H-M "C 2/M"
_symmetry_group_IT_number 12
_symmetry_cell_setting 'monoclinic'
loop_
_space_group_symop_operation_xyz
x,y,z
-x,y,-z
-x,-y,-z
x,-y,z
1/2+x,1/2+y,z
1/2-x,1/2+y,-z
1/2-x,1/2-y,-z
1/2+x,1/2-y,z
loop_
_atom_site_type_symbol
_atom_site_label
_atom_site_fract_x
_atom_site_fract_y
_atom_site_fract_z
Si Si1 0.736360 0.416964 0.820999
Si Si2 0.152429 0.583679 0.558934
Si Si3 0.000000 0.239563 0.500000
Si Si4 0.567519 0.280088 0.042852
Si Si5 0.401877 0.162750 0.814687
Si Si6 0.155921 0.187647 0.550143
O O1 0.687780 0.500000 0.872698
O O2 0.816431 0.410201 0.615912
O O3 0.641547 0.350348 0.921261
O O4 0.815428 0.401058 0.857703
O O5 0.129869 0.500000 0.608919
O O6 0.268595 0.614624 0.507942
O O7 0.033143 0.630374 0.712496
O O8 0.072322 0.288861 0.329814
O O9 0.101852 0.198641 0.473712
O O10 0.641041 0.217551 0.036671
O O11 0.462988 0.307723 0.242087
O O12 0.500000 0.246003 0.000000
O O13 0.250000 0.250000 0.500000
#
# Coordination Sequence:
#
# PCOD9191226 Si02
#       6
#     8   8   4   8   8   8
#     4  11  22  37  57  89 128 152 191 250 307 356
#     4  11  21  36  63  90 119 155 198 252 300 342
#     4  10  20  32  64  86 112 156 208 244 284 334
#     4  11  23  35  58  87 118 158 196 240 302 358
#     4  11  20  38  60  89 117 155 207 250 285 353
#     4  11  20  40  60  87 120 155 203 248 285 358
#
# _framework density 19.586625000000002
#
# number of rings (size 3 to 8) (size 9 to 14) (size 15 to 20)
#    0.000    1.091    7.273    1.091    0.000    2.545 
#    0.000    0.455    0.000    7.636    0.000    0.000 
#    0.000    0.000    0.000    0.000    0.000    0.000 
#
# Total GULP energy -122779.710735 kJ/mol
# GULP energy per Si atom -5580.895943 kJ/mol
# Density = 1.954205 g / cm^3
# Si number density = 19.586625 Si / 1000 Ang^3
#
#
#
# Elastic Constant Matrix: (Units=GPa)
#
#
# Indices 1 2 3 4 5 6 
#
# 1 116.8669 38.3678 -4.6713 0.0000 9.8271 0.0000
# 2 38.3678 99.7225 16.2281 0.0000 10.1409 0.0000
# 3 -4.6713 16.2281 21.1635 0.0000 0.1441 0.0000
# 4 0.0000 0.0000 0.0000 19.6833 0.0000 -0.5600
# 5 9.8271 10.1409 0.1441 0.0000 27.4397 0.0000
# 6 0.0000 0.0000 0.0000 -0.5600 0.0000 30.3085
#
#
#
# Elastic Compliance Matrix: (Units=1/GPa)
#
#
# Indices 1 2 3 4 5 6 
#
# 1 0.010559 -0.004842 0.006057 0.000000 -0.002024 0.000000
# 2 -0.004842 0.014181 -0.011919 0.000000 -0.003444 0.000000
# 3 0.006057 -0.011919 0.057715 0.000000 0.001933 0.000000
# 4 0.000000 0.000000 0.000000 0.050831 0.000000 0.000939
# 5 -0.002024 -0.003444 0.001933 0.000000 0.038431 0.000000
# 6 0.000000 0.000000 0.000000 0.000939 0.000000 0.033011
#
#
# Mechanical properties :
#
#
# Convention : Reuss Voigt Hill
#
# Bulk Modulus (GPa) = 16.38105 37.51135 26.94620
# Shear Modulus (GPa) = 20.28523 28.00819 24.14671
#
# Velocity S-wave (km/s) = 3.22167 3.78559 3.51496
# Velocity P-wave (km/s) = 4.71385 6.18875 5.50096
#
# Compressibility (1/GPa) = 0.06104613
#
# Stress axis : x y z
#
# Youngs Moduli (GPa) = 94.70760 70.51793 17.32660
#
# Poissons Ratio (x) = 0.34148 -0.10496
# Poissons Ratio (y) = 0.45861 0.20652
# Poissons Ratio (z) = -0.57369 0.84052
#
# Static dielectric constant tensor:
#      x y z
#    x 1.763830 0.000000 -0.028090 
#    y 0.000000 1.693170 0.000000 
#    z -0.028090 0.000000 1.691510 
# 
# From -- ./inp_files/145355.got.cif
#   From: 2010.05.17/outbox.cif.g08.bks.cpg/sg12_73_cif.got.tgz:145355.got - 2010.06.03 13:09:07.
