data_PCOD9191494
_publ_section_title
;
Structure prediction by ZEFSAII (Michael W. Deem and Ramdas Pophale) SiO2 
 PCOD9191494
Probable space group: C 2/M
;
_chemical_formula_sum "Si O2"
_cell_formula_units_Z 64
_cell_length_a 15.769852
_cell_length_b 9.051941
_cell_length_c 23.773071
_cell_angle_alpha 90.000000
_cell_angle_beta 110.968690
_cell_angle_gamma 90.000000
_cell_volume 3168.818637
_symmetry_space_group_name_H-M "C 2/M"
_symmetry_group_IT_number 12
_symmetry_cell_setting 'monoclinic'
loop_
_space_group_symop_operation_xyz
x,y,z
-x,y,-z
-x,-y,-z
x,-y,z
1/2+x,1/2+y,z
1/2-x,1/2+y,-z
1/2-x,1/2-y,-z
1/2+x,1/2-y,z
loop_
_atom_site_type_symbol
_atom_site_label
_atom_site_fract_x
_atom_site_fract_y
_atom_site_fract_z
Si Si1 0.580995 0.164988 0.856917
Si Si2 0.529775 0.331366 0.254991
Si Si3 0.415309 0.172051 0.021359
Si Si4 0.008590 0.178230 0.436532
Si Si5 0.847070 0.179604 0.615002
Si Si6 0.824008 0.679999 0.351424
Si Si7 0.203359 0.166624 0.094501
Si Si8 0.206290 0.828324 0.218318
O O1 0.550475 0.246262 0.793718
O O2 0.556694 0.236349 0.911320
O O3 0.688891 0.157965 0.884862
O O4 0.541160 0.000000 0.844992
O O5 0.503023 0.500000 0.259609
O O6 0.576256 0.270369 0.322016
O O7 0.612025 0.329518 0.229546
O O8 0.391320 0.000000 0.025516
O O9 0.500000 0.178122 0.000000
O O10 0.336050 0.249959 0.968331
O O11 0.922516 0.252288 0.385492
O O12 0.000000 0.216872 0.500000
O O13 0.106856 0.221446 0.433302
O O14 0.001117 0.000000 0.429238
O O15 0.749088 0.225527 0.616811
O O16 0.843938 0.000000 0.616456
O O17 0.827935 0.500000 0.352270
O O18 0.780323 0.728039 0.280981
O O19 0.189844 0.239454 0.152959
O O20 0.164203 0.000000 0.085158
O O21 0.232542 0.000000 0.213336
#
# Coordination Sequence:
#
# PCOD9191494 Si02
#       8
#     8   8   8   8   8   8   8   8
#     4  10  21  33  47  72 103 128 156 206 260 296
#     4   9  17  32  54  74  94 128 171 205 243 306
#     4  10  21  36  50  66  95 132 165 201 248 300
#     4  10  21  36  54  79 113 147 177 216 267 317
#     4   8  17  35  55  77 109 145 178 218 269 318
#     4   9  18  35  58  79 105 143 183 222 263 314
#     4  10  20  33  50  72  97 125 161 205 251 299
#     4   8  16  32  52  74  98 126 163 209 257 298
#
# _framework density 20.196802000000002
#
# number of rings (size 3 to 8) (size 9 to 14) (size 15 to 20)
#    0.000    2.750    0.000    2.625    1.750    2.000 
#    0.000    3.750    0.000    0.000    0.000    0.000 
#    0.000    0.000    0.000    0.000    0.000    0.000 
#
# Total GULP energy -178253.550429 kJ/mol
# GULP energy per Si atom -5570.423451 kJ/mol
# Density = 2.015083 g / cm^3
# Si number density = 20.196802 Si / 1000 Ang^3
#
#
#
# Elastic Constant Matrix: (Units=GPa)
#
#
# Indices 1 2 3 4 5 6 
#
# 1 47.9321 -3.0329 -1.1438 0.0000 -10.0952 0.0000
# 2 -3.0329 6.6390 -4.7483 0.0000 5.3082 0.0000
# 3 -1.1438 -4.7483 15.5219 0.0000 -13.6092 0.0000
# 4 0.0000 0.0000 0.0000 13.3972 0.0000 2.4824
# 5 -10.0952 5.3082 -13.6092 0.0000 41.0565 0.0000
# 6 0.0000 0.0000 0.0000 2.4824 0.0000 11.2113
#
#
#
# Elastic Compliance Matrix: (Units=1/GPa)
#
#
# Indices 1 2 3 4 5 6 
#
# 1 0.023849 0.013668 0.013436 0.000000 0.008551 0.000000
# 2 0.013668 0.202333 0.060496 0.000000 -0.002746 0.000000
# 3 0.013436 0.060496 0.112720 0.000000 0.032846 0.000000
# 4 0.000000 0.000000 0.000000 0.077836 0.000000 -0.017234
# 5 0.008551 -0.002746 0.032846 0.000000 0.037702 0.000000
# 6 0.000000 0.000000 0.000000 -0.017234 0.000000 0.093012
#
#
# Mechanical properties :
#
#
# Convention : Reuss Voigt Hill
#
# Bulk Modulus (GPa) = 1.94515 5.80477 3.87496
# Shear Modulus (GPa) = 9.19761 18.40087 13.79924
#
# Velocity S-wave (km/s) = 2.13632 3.02168 2.61672
# Velocity P-wave (km/s) = 2.65525 3.88000 3.32451
#
# Compressibility (1/GPa) = 0.51410037
#
# Stress axis : x y z
#
# Youngs Moduli (GPa) = 41.93019 4.94235 8.87154
#
# Poissons Ratio (x) = -0.06755 -0.11919
# Poissons Ratio (y) = -0.57310 -0.53669
# Poissons Ratio (z) = -0.56335 -0.29899
#
# Static dielectric constant tensor:
#      x y z
#    x 1.743980 0.000000 -0.047330 
#    y 0.000000 1.714720 0.000000 
#    z -0.047330 0.000000 1.765980 
# 
# From -- ./inp_files/309938.got.cif
#   From: 2010.05.17/outbox.cif.g08.bks.cpg/sg12_155_cif.got.tgz:309938.got - 2010.06.03 13:09:07.
