data_PCOD9191890
_publ_section_title
;
Structure prediction by ZEFSAII (Michael W. Deem and Ramdas Pophale) SiO2 
 PCOD9191890
Probable space group: C 2/M
;
_chemical_formula_sum "Si O2"
_cell_formula_units_Z 56
_cell_length_a 14.840996
_cell_length_b 8.871237
_cell_length_c 25.222111
_cell_angle_alpha 90.000000
_cell_angle_beta 115.879483
_cell_angle_gamma 90.000000
_cell_volume 2987.673989
_symmetry_space_group_name_H-M "C 2/M"
_symmetry_group_IT_number 12
_symmetry_cell_setting 'monoclinic'
loop_
_space_group_symop_operation_xyz
x,y,z
-x,y,-z
-x,-y,-z
x,-y,z
1/2+x,1/2+y,z
1/2-x,1/2+y,-z
1/2-x,1/2-y,-z
1/2+x,1/2-y,z
loop_
_atom_site_type_symbol
_atom_site_label
_atom_site_fract_x
_atom_site_fract_y
_atom_site_fract_z
Si Si1 0.411714 0.181315 0.720650
Si Si2 0.131596 0.680285 0.817216
Si Si3 0.684820 0.680213 0.408133
Si Si4 0.892057 0.181802 0.495401
Si Si5 0.720629 0.330612 0.938280
Si Si6 0.935405 0.329350 0.936781
Si Si7 0.675930 0.183197 0.189622
O O1 0.525507 0.222410 0.764652
O O2 0.371410 0.257955 0.657593
O O3 0.346652 0.221696 0.755726
O O4 0.407369 0.000000 0.713243
O O5 0.138957 0.500000 0.820721
O O6 0.146044 0.741859 0.880596
O O7 0.221281 0.747771 0.805104
O O8 0.691339 0.500000 0.407861
O O9 0.796588 0.748002 0.441073
O O10 0.625564 0.721424 0.447184
O O11 0.000000 0.229381 0.500000
O O12 0.886592 0.000000 0.489447
O O13 0.684432 0.500000 0.939148
O O14 0.824321 0.339821 0.932310
O O15 0.750000 0.250000 0.000000
O O16 0.977697 0.500000 0.940500
O O17 0.913921 0.264875 0.873073
O O18 0.000000 0.253482 0.000000
O O19 0.679435 0.000000 0.185912
#
# Coordination Sequence:
#
# PCOD9191890 Si02
#       7
#     8   8   8   8   8   8   8
#     4  10  22  38  58  80 111 157 194 224 274 344
#     4  10  21  37  56  79 109 143 184 234 285 337
#     4  10  21  36  57  88 119 147 187 238 278 320
#     4   9  19  38  62  86 117 155 190 226 275 333
#     4  10  20  33  52  76 104 137 176 227 284 343
#     4   8  15  28  50  73  93 124 171 222 268 327
#     4   9  19  36  55  76 104 142 186 227 276 336
#
# _framework density 18.743679
#
# number of rings (size 3 to 8) (size 9 to 14) (size 15 to 20)
#    0.000    2.571    0.000    2.143    2.000    3.714 
#    0.000    4.286    0.000    2.143    0.000    0.000 
#    0.000    0.000    0.000    0.000    0.000    0.000 
#
# Total GULP energy -156140.175174 kJ/mol
# GULP energy per Si atom -5576.434828 kJ/mol
# Density = 1.870102 g / cm^3
# Si number density = 18.743679 Si / 1000 Ang^3
#
#
#
# Elastic Constant Matrix: (Units=GPa)
#
#
# Indices 1 2 3 4 5 6 
#
# 1 115.3297 38.6415 78.6834 0.0000 7.5597 0.0000
# 2 38.6415 40.4460 58.3753 0.0000 3.0776 0.0000
# 3 78.6834 58.3753 200.1332 0.0000 6.2775 0.0000
# 4 0.0000 0.0000 0.0000 34.1885 0.0000 0.7259
# 5 7.5597 3.0776 6.2775 0.0000 19.2345 0.0000
# 6 0.0000 0.0000 0.0000 0.7259 0.0000 22.9935
#
#
#
# Elastic Compliance Matrix: (Units=1/GPa)
#
#
# Indices 1 2 3 4 5 6 
#
# 1 0.013712 -0.009024 -0.002663 0.000000 -0.003077 0.000000
# 2 -0.009024 0.048788 -0.010658 0.000000 -0.000781 0.000000
# 3 -0.002663 -0.010658 0.009160 0.000000 -0.000238 0.000000
# 4 0.000000 0.000000 0.000000 0.029269 0.000000 -0.000924
# 5 -0.003077 -0.000781 -0.000238 0.000000 0.053402 0.000000
# 6 0.000000 0.000000 0.000000 -0.000924 0.000000 0.043520
#
#
# Mechanical properties :
#
#
# Convention : Reuss Voigt Hill
#
# Bulk Modulus (GPa) = 37.07692 78.58993 57.83343
# Shear Modulus (GPa) = 19.87831 27.29719 23.58775
#
# Velocity S-wave (km/s) = 3.26012 3.82034 3.55130
# Velocity P-wave (km/s) = 5.83053 7.84091 6.90923
#
# Compressibility (1/GPa) = 0.02697095
#
# Stress axis : x y z
#
# Youngs Moduli (GPa) = 72.92676 20.49683 109.17283
#
# Poissons Ratio (x) = 0.18496 0.29068
# Poissons Ratio (y) = 0.65807 1.16361
# Poissons Ratio (z) = 0.19417 0.21846
#
# Static dielectric constant tensor:
#      x y z
#    x 1.651770 0.000000 -0.010070 
#    y 0.000000 1.646270 0.000000 
#    z -0.010070 0.000000 1.647670 
# 
# From -- ./inp_files/339046.got.cif
#   From: 2010.05.17/outbox.cif.g08.bks.cpg/sg12_170_cif.got.tgz:339046.got - 2010.06.03 13:09:07.
