data_PCOD9191549
_publ_section_title
;
Structure prediction by ZEFSAII (Michael W. Deem and Ramdas Pophale) SiO2 
 PCOD9191549
Probable space group: C 2/M
;
_chemical_formula_sum "Si O2"
_cell_formula_units_Z 64
_cell_length_a 29.390240
_cell_length_b 7.833480
_cell_length_c 16.281025
_cell_angle_alpha 90.000000
_cell_angle_beta 116.077284
_cell_angle_gamma 90.000000
_cell_volume 3366.771152
_symmetry_space_group_name_H-M "C 2/M"
_symmetry_group_IT_number 12
_symmetry_cell_setting 'monoclinic'
loop_
_space_group_symop_operation_xyz
x,y,z
-x,y,-z
-x,-y,-z
x,-y,z
1/2+x,1/2+y,z
1/2-x,1/2+y,-z
1/2-x,1/2-y,-z
1/2+x,1/2-y,z
loop_
_atom_site_type_symbol
_atom_site_label
_atom_site_fract_x
_atom_site_fract_y
_atom_site_fract_z
Si Si1 0.099056 0.205347 0.898569
Si Si2 0.473029 0.205718 0.396139
Si Si3 0.276723 0.205588 0.605725
Si Si4 0.885667 0.295832 0.744656
Si Si5 0.261666 0.705174 0.250487
Si Si6 0.864405 0.794180 0.249534
Si Si7 0.848880 0.795753 0.894159
Si Si8 0.509575 0.206193 0.247379
O O1 0.124682 0.269591 0.834371
O O2 0.039707 0.246787 0.844656
O O3 0.103904 0.000000 0.902357
O O4 0.125436 0.270361 0.002115
O O5 0.500000 0.269806 0.500000
O O6 0.413856 0.250581 0.342202
O O7 0.499051 0.267686 0.332153
O O8 0.476867 0.000000 0.399283
O O9 0.250000 0.250000 0.500000
O O10 0.334593 0.269399 0.659843
O O11 0.246855 0.268176 0.662983
O O12 0.278628 0.000000 0.612945
O O13 0.886619 0.500000 0.733971
O O14 0.877666 0.263561 0.834875
O O15 0.938107 0.228370 0.749544
O O16 0.266224 0.500000 0.258084
O O17 0.312286 0.771258 0.247221
O O18 0.209800 0.744122 0.161389
O O19 0.861317 0.000000 0.242735
O O20 0.851011 0.000000 0.896713
O O21 0.511736 0.000000 0.251924
#
# Coordination Sequence:
#
# PCOD9191549 Si02
#       8
#     8   8   8   8   8   8   8   8
#     4   9  19  34  50  72 101 127 155 198 245 284
#     4   9  18  32  50  74 102 128 158 200 244 283
#     4   9  18  32  49  70  96 124 156 196 238 280
#     4   9  19  35  51  69  97 130 163 199 237 281
#     4   9  19  35  52  71  97 128 162 199 238 284
#     4   9  18  34  53  71  96 130 163 196 238 288
#     4  10  20  33  50  73  99 126 159 199 243 288
#     4   9  18  33  52  72  95 128 166 197 233 286
#
# _framework density 19.009309999999999
#
# number of rings (size 3 to 8) (size 9 to 14) (size 15 to 20)
#    0.000    2.875    0.000    1.125    0.000    6.250 
#    0.000    3.750    0.000    0.000    0.000    0.000 
#    0.000    0.000    0.000    0.000    0.000    0.000 
#
# Total GULP energy -178438.130764 kJ/mol
# GULP energy per Si atom -5576.191586 kJ/mol
# Density = 1.896604 g / cm^3
# Si number density = 19.009310 Si / 1000 Ang^3
#
#
#
# Elastic Constant Matrix: (Units=GPa)
#
#
# Indices 1 2 3 4 5 6 
#
# 1 200.2564 2.9209 107.3655 0.0000 14.0602 0.0000
# 2 2.9209 15.7244 -1.7546 0.0000 -0.5000 0.0000
# 3 107.3655 -1.7546 195.7475 0.0000 11.0689 0.0000
# 4 0.0000 0.0000 0.0000 23.5589 0.0000 2.8786
# 5 14.0602 -0.5000 11.0689 0.0000 5.4582 0.0000
# 6 0.0000 0.0000 0.0000 2.8786 0.0000 18.8060
#
#
#
# Elastic Compliance Matrix: (Units=1/GPa)
#
#
# Indices 1 2 3 4 5 6 
#
# 1 0.007884 -0.002286 -0.003597 0.000000 -0.013224 0.000000
# 2 -0.002286 0.064457 0.001316 0.000000 0.009126 0.000000
# 3 -0.003597 0.001316 0.007413 0.000000 -0.005646 0.000000
# 4 0.000000 0.000000 0.000000 0.043256 0.000000 -0.006621
# 5 -0.013224 0.009126 -0.005646 0.000000 0.229558 0.000000
# 6 0.000000 0.000000 0.000000 -0.006621 0.000000 0.054188
#
#
# Mechanical properties :
#
#
# Convention : Reuss Voigt Hill
#
# Bulk Modulus (GPa) = 14.16063 69.86576 42.01320
# Shear Modulus (GPa) = 11.37838 29.77772 20.57805
#
# Velocity S-wave (km/s) = 2.44922 3.96217 3.29374
# Velocity P-wave (km/s) = 3.93239 7.60033 6.05098
#
# Compressibility (1/GPa) = 0.07061834
#
# Stress axis : x y z
#
# Youngs Moduli (GPa) = 126.84144 15.51423 134.90597
#
# Poissons Ratio (x) = 0.03547 0.48525
# Poissons Ratio (y) = 0.29000 -0.17750
# Poissons Ratio (z) = 0.45624 -0.02041
#
# Static dielectric constant tensor:
#      x y z
#    x 1.666450 0.000000 -0.015020 
#    y 0.000000 1.694720 0.000000 
#    z -0.015020 0.000000 1.643360 
# 
# From -- ./inp_files/249187.got.cif
#   From: 2010.05.17/outbox.cif.g08.bks.cpg/sg12_125_cif.got.tgz:249187.got - 2010.06.03 13:09:07.
