data_PCOD9191809
_publ_section_title
;
Structure prediction by ZEFSAII (Michael W. Deem and Ramdas Pophale) SiO2 
 PCOD9191809
Probable space group: C 2/M
;
_chemical_formula_sum "Si O2"
_cell_formula_units_Z 56
_cell_length_a 13.680830
_cell_length_b 28.311788
_cell_length_c 10.198176
_cell_angle_alpha 90.000000
_cell_angle_beta 31.387272
_cell_angle_gamma 90.000000
_cell_volume 2057.263426
_symmetry_space_group_name_H-M "C 2/M"
_symmetry_group_IT_number 12
_symmetry_cell_setting 'monoclinic'
loop_
_space_group_symop_operation_xyz
x,y,z
-x,y,-z
-x,-y,-z
x,-y,z
1/2+x,1/2+y,z
1/2-x,1/2+y,-z
1/2-x,1/2-y,-z
1/2+x,1/2-y,z
loop_
_atom_site_type_symbol
_atom_site_label
_atom_site_fract_x
_atom_site_fract_y
_atom_site_fract_z
Si Si1 0.290841 0.824121 0.194235
Si Si2 0.695061 0.724688 0.925589
Si Si3 0.799507 0.054786 0.690082
Si Si4 0.632105 0.947348 0.135832
Si Si5 0.560832 0.847957 0.250825
Si Si6 0.649655 0.658995 0.632892
Si Si7 0.435292 0.446503 0.258044
O O1 0.158555 0.843013 0.462112
O O2 0.500000 0.836301 0.000000
O O3 0.274932 0.767322 0.208939
O O4 0.292307 0.841999 0.041821
O O5 0.491953 0.700406 0.164249
O O6 0.750000 0.750000 0.000000
O O7 0.834490 0.680720 0.756942
O O8 0.790622 0.055084 0.545649
O O9 0.000000 0.076580 0.500000
O O10 0.815901 0.000000 0.708793
O O11 0.636026 0.066953 0.976820
O O12 0.535399 0.902926 0.311777
O O13 0.556094 0.000000 0.244649
O O14 0.849302 0.947596 0.936635
O O15 0.361211 0.828665 0.433111
O O16 0.593060 0.607565 0.758278
O O17 0.406056 0.500000 0.231914
#
# Coordination Sequence:
#
# PCOD9191809 Si02
#       7
#     8   8   8   8   8   8   8
#     4   9  21  37  56  80 105 144 195 234 283 336
#     4  10  22  39  55  77 107 143 190 240 286 330
#     4   7  11  19  34  58  90 131 176 211 238 286
#     4   9  15  26  44  70 107 145 182 219 254 318
#     4  10  20  33  51  78 107 143 188 227 276 328
#     4  11  21  36  57  79 115 151 185 235 274 325
#     4   9  16  27  47  75 108 149 185 212 259 325
#
# _framework density 27.220625999999999
#
# number of rings (size 3 to 8) (size 9 to 14) (size 15 to 20)
#    0.000    2.714    1.429    2.571    0.000    8.000 
#    0.000    1.429    0.000    5.143    0.000    0.000 
#    0.000    2.286    0.000   33.857    0.000    0.857 
#
# Total GULP energy -156308.542881 kJ/mol
# GULP energy per Si atom -5582.447960 kJ/mol
# Density = 2.715867 g / cm^3
# Si number density = 27.220626 Si / 1000 Ang^3
#
#
#
# Elastic Constant Matrix: (Units=GPa)
#
#
# Indices 1 2 3 4 5 6 
#
# 1 45.7821 20.8756 54.3145 0.0000 12.0191 0.0000
# 2 20.8756 228.2829 40.4313 0.0000 -5.2087 0.0000
# 3 54.3145 40.4313 116.0624 0.0000 -9.8966 0.0000
# 4 0.0000 0.0000 0.0000 25.2758 0.0000 -15.2454
# 5 12.0191 -5.2087 -9.8966 0.0000 49.9308 0.0000
# 6 0.0000 0.0000 0.0000 -15.2454 0.0000 -26.3491
#
#
#
# Elastic Compliance Matrix: (Units=1/GPa)
#
#
# Indices 1 2 3 4 5 6 
#
# 1 0.068093 -0.000812 -0.033555 0.000000 -0.023126 0.000000
# 2 -0.000812 0.004680 -0.001213 0.000000 0.000443 0.000000
# 3 -0.033555 -0.001213 0.025856 0.000000 0.013076 0.000000
# 4 0.000000 0.000000 0.000000 0.029328 0.000000 -0.016969
# 5 -0.023126 0.000443 0.013076 0.000000 0.028232 0.000000
# 6 0.000000 0.000000 0.000000 -0.016969 0.000000 -0.028134
#
#
# Mechanical properties :
#
#
# Convention : Reuss Voigt Hill
#
# Bulk Modulus (GPa) = 36.40299 69.04113 52.72206
# Shear Modulus (GPa) = 23.99564 28.07192 26.03378
#
# Velocity S-wave (km/s) = 2.97227 3.21483 3.09592
# Velocity P-wave (km/s) = 5.01812 6.26089 5.67364
#
# Compressibility (1/GPa) = 0.02747027
#
# Stress axis : x y z
#
# Youngs Moduli (GPa) = 14.68586 213.69257 38.67504
#
# Poissons Ratio (x) = 0.17342 1.29775
# Poissons Ratio (y) = 0.01192 0.04690
# Poissons Ratio (z) = 0.49279 0.25913
#
# Static dielectric constant tensor:
#      x y z
#    x 2.224770 0.000000 0.121300 
#    y 0.000000 2.197270 0.000000 
#    z 0.121300 0.000000 2.180510 
# 
# From -- ./inp_files/150435.got.cif
#   From: 2010.05.17/outbox.cif.g08.bks.cpg/sg12_76_cif.got.tgz:150435.got - 2010.06.03 13:09:07.
