data_PCOD9191403
_publ_section_title
;
Structure prediction by ZEFSAII (Michael W. Deem and Ramdas Pophale) SiO2 
 PCOD9191403
Probable space group: C 2/M
;
_chemical_formula_sum "Si O2"
_cell_formula_units_Z 48
_cell_length_a 19.702475
_cell_length_b 7.357202
_cell_length_c 12.149849
_cell_angle_alpha 90.000000
_cell_angle_beta 94.370703
_cell_angle_gamma 90.000000
_cell_volume 1756.060655
_symmetry_space_group_name_H-M "C 2/M"
_symmetry_group_IT_number 12
_symmetry_cell_setting 'monoclinic'
loop_
_space_group_symop_operation_xyz
x,y,z
-x,y,-z
-x,-y,-z
x,-y,z
1/2+x,1/2+y,z
1/2-x,1/2+y,-z
1/2-x,1/2-y,-z
1/2+x,1/2-y,z
loop_
_atom_site_type_symbol
_atom_site_label
_atom_site_fract_x
_atom_site_fract_y
_atom_site_fract_z
Si Si1 0.745104 0.717228 0.129019
Si Si2 0.511644 0.216810 0.378582
Si Si3 0.659231 0.778324 0.412798
Si Si4 0.691820 0.205839 0.656346
Si Si5 0.400274 0.722114 0.920546
Si Si6 0.953882 0.784580 0.151742
O O1 0.747098 0.500000 0.144418
O O2 0.801288 0.791660 0.221147
O O3 0.668726 0.786647 0.144196
O O4 0.750000 0.750000 0.000000
O O5 0.500000 0.286251 0.500000
O O6 0.587257 0.280541 0.353095
O O7 0.453357 0.252730 0.281830
O O8 0.516360 0.000000 0.386716
O O9 0.658130 0.719037 0.541642
O O10 0.727836 0.702843 0.368714
O O11 0.664877 0.000000 0.412145
O O12 0.665769 0.000000 0.663431
O O13 0.398624 0.500000 0.917518
O O14 0.470897 0.782331 0.875830
O O15 0.403760 0.782179 0.049773
O O16 0.954241 0.000000 0.138591
#
# Coordination Sequence:
#
# PCOD9191403 Si02
#       6
#     8   8   8   8   8   8
#     4  10  20  33  49  72 102 132 160 193 238 290
#     4  10  21  34  47  69 104 136 157 190 243 291
#     4   9  18  33  52  73  97 126 161 200 241 284
#     4   9  18  33  53  74  95 124 163 203 240 281
#     4   8  16  32  53  75  98 123 155 203 252 281
#     4   9  17  33  56  75  92 122 165 205 240 283
#
# _framework density 27.333908000000001
#
# number of rings (size 3 to 8) (size 9 to 14) (size 15 to 20)
#    0.000    2.833    0.000    2.000    0.000    4.333 
#    0.000    5.000    0.000    0.000    0.000    0.000 
#    0.000    0.000    0.000    0.000    0.000    0.000 
#
# Total GULP energy -134173.617511 kJ/mol
# GULP energy per Si atom -5590.567396 kJ/mol
# Density = 2.727169 g / cm^3
# Si number density = 27.333908 Si / 1000 Ang^3
#
#
#
# Elastic Constant Matrix: (Units=GPa)
#
#
# Indices 1 2 3 4 5 6 
#
# 1 79.3752 -0.9626 13.6271 0.0000 28.1369 0.0000
# 2 -0.9626 117.3815 -6.2627 0.0000 5.5745 0.0000
# 3 13.6271 -6.2627 179.8766 0.0000 28.1911 0.0000
# 4 0.0000 0.0000 0.0000 14.4629 0.0000 -4.0606
# 5 28.1369 5.5745 28.1911 0.0000 58.2058 0.0000
# 6 0.0000 0.0000 0.0000 -4.0606 0.0000 9.7811
#
#
#
# Elastic Compliance Matrix: (Units=1/GPa)
#
#
# Indices 1 2 3 4 5 6 
#
# 1 0.015230 0.000479 0.000026 0.000000 -0.007421 0.000000
# 2 0.000479 0.008609 0.000464 0.000000 -0.001281 0.000000
# 3 0.000026 0.000464 0.006041 0.000000 -0.002983 0.000000
# 4 0.000000 0.000000 0.000000 0.078265 0.000000 0.032491
# 5 -0.007421 -0.001281 -0.002983 0.000000 0.022335 0.000000
# 6 0.000000 0.000000 0.000000 0.032491 0.000000 0.115727
#
#
# Mechanical properties :
#
#
# Convention : Reuss Voigt Hill
#
# Bulk Modulus (GPa) = 31.42921 43.27075 37.34998
# Shear Modulus (GPa) = 19.61749 41.17206 30.39477
#
# Velocity S-wave (km/s) = 2.68189 3.88527 3.33825
# Velocity P-wave (km/s) = 4.59492 5.99933 5.34346
#
# Compressibility (1/GPa) = 0.03181754
#
# Stress axis : x y z
#
# Youngs Moduli (GPa) = 65.65875 116.16097 165.53398
#
# Poissons Ratio (x) = -0.05561 -0.00428
# Poissons Ratio (y) = -0.03143 -0.07684
# Poissons Ratio (z) = -0.00170 -0.05392
#
# Static dielectric constant tensor:
#      x y z
#    x 2.139960 0.000000 -0.075010 
#    y 0.000000 4.491270 0.000000 
#    z -0.075010 0.000000 2.223240 
# 
# From -- ./inp_files/172090.got.cif
#   From: 2010.05.17/outbox.cif.g08.bks.cpg/sg12_87_cif.got.tgz:172090.got - 2010.06.03 13:09:07.
