data_PCOD9191228
_publ_section_title
;
Structure prediction by ZEFSAII (Michael W. Deem and Ramdas Pophale) SiO2 
 PCOD9191228
Probable space group: C 2/M
;
_chemical_formula_sum "Si O2"
_cell_formula_units_Z 34
_cell_length_a 14.637024
_cell_length_b 18.094508
_cell_length_c 5.153582
_cell_angle_alpha 90.000000
_cell_angle_beta 76.974792
_cell_angle_gamma 90.000000
_cell_volume 1329.806741
_symmetry_space_group_name_H-M "C 2/M"
_symmetry_group_IT_number 12
_symmetry_cell_setting 'monoclinic'
loop_
_space_group_symop_operation_xyz
x,y,z
-x,y,-z
-x,-y,-z
x,-y,z
1/2+x,1/2+y,z
1/2-x,1/2+y,-z
1/2-x,1/2-y,-z
1/2+x,1/2-y,z
loop_
_atom_site_type_symbol
_atom_site_label
_atom_site_fract_x
_atom_site_fract_y
_atom_site_fract_z
Si Si1 0.888027 0.839618 0.093495
Si Si2 0.910711 0.624913 0.919802
Si Si3 0.385489 0.742138 0.597973
Si Si4 0.185229 0.000000 0.831912
Si Si5 0.297309 0.000000 0.264667
Si Si6 0.000000 0.500000 0.500000
O O1 0.852510 0.781532 0.333457
O O2 0.865370 0.923003 0.190187
O O3 0.854378 0.819443 0.826674
O O4 0.000000 0.835022 0.000000
O O5 0.859483 0.681718 0.760234
O O6 0.956996 0.563309 0.715094
O O7 0.851564 0.576114 0.161328
O O8 0.000000 0.663895 0.000000
O O9 0.500000 0.743547 0.500000
O O10 0.273818 0.000000 0.581660
O O11 0.212278 0.000000 0.116904
#
# Coordination Sequence:
#
# PCOD9191228 Si02
#       6
#     8   8   8   4   4   2
#     4  10  22  41  69  95 121 167 217 272 331 372
#     4  11  23  40  65  98 134 168 215 262 315 390
#     4  10  20  37  66 100 126 157 210 274 323 377
#     4  12  25  47  61  91 134 171 223 274 311 387
#     4  11  28  40  64  93 134 179 215 257 325 377
#     4  10  20  32  64  90 128 162 204 244 318 356
#
# _framework density 25.567623000000001
#
# number of rings (size 3 to 8) (size 9 to 14) (size 15 to 20)
#    0.000    1.412    1.176    5.294    6.588    0.000 
#    0.000   11.765    0.000    0.000    0.000    0.000 
#    0.000    0.000    0.000    0.000    0.000    0.000 
#
# Total GULP energy -94916.979333 kJ/mol
# GULP energy per Si atom -5583.351725 kJ/mol
# Density = 2.550943 g / cm^3
# Si number density = 25.567623 Si / 1000 Ang^3
#
#
#
# Elastic Constant Matrix: (Units=GPa)
#
#
# Indices 1 2 3 4 5 6 
#
# 1 46.0279 16.3383 15.7849 0.0000 10.1558 0.0000
# 2 16.3383 160.1475 35.8309 0.0000 -5.4976 0.0000
# 3 15.7849 35.8309 130.1197 0.0000 7.2171 0.0000
# 4 0.0000 0.0000 0.0000 -30.9972 0.0000 9.7959
# 5 10.1558 -5.4976 7.2171 0.0000 25.7860 0.0000
# 6 0.0000 0.0000 0.0000 9.7959 0.0000 11.7192
#
#
#
# Elastic Compliance Matrix: (Units=1/GPa)
#
#
# Indices 1 2 3 4 5 6 
#
# 1 0.025474 -0.002534 -0.001835 0.000000 -0.010060 0.000000
# 2 -0.002534 0.007005 -0.001788 0.000000 0.002992 0.000000
# 3 -0.001835 -0.001788 0.008513 0.000000 -0.002041 0.000000
# 4 0.000000 0.000000 0.000000 -0.025520 0.000000 0.021332
# 5 -0.010060 0.002992 -0.002041 0.000000 0.043952 0.000000
# 6 0.000000 0.000000 0.000000 0.021332 0.000000 0.067499
#
#
# Mechanical properties :
#
#
# Convention : Reuss Voigt Hill
#
# Bulk Modulus (GPa) = 34.86650 52.46703 43.66677
# Shear Modulus (GPa) = 33.60292 19.19100 26.39696
#
# Velocity S-wave (km/s) = 3.62923 2.74268 3.21664
# Velocity P-wave (km/s) = 5.58823 5.53129 5.55983
#
# Compressibility (1/GPa) = 0.02868082
#
# Stress axis : x y z
#
# Youngs Moduli (GPa) = 39.25551 142.74703 117.46367
#
# Poissons Ratio (x) = 0.36168 0.21550
# Poissons Ratio (y) = 0.09946 0.20998
# Poissons Ratio (z) = 0.07202 0.25518
#
# Static dielectric constant tensor:
#      x y z
#    x 2.148890 0.000000 0.023040 
#    y 0.000000 1.948250 0.000000 
#    z 0.023040 0.000000 1.963010 
# 
# From -- ./inp_files/19980.got.cif
#   From: 2010.05.17/outbox.cif.g08.bks.cpg/sg12_10_cif.got.tgz:19980.got - 2010.06.03 13:09:07.
