data_PCOD9191593
_publ_section_title
;
Structure prediction by ZEFSAII (Michael W. Deem and Ramdas Pophale) SiO2 
 PCOD9191593
Probable space group: C 2/M
;
_chemical_formula_sum "Si O2"
_cell_formula_units_Z 64
_cell_length_a 32.883865
_cell_length_b 8.804206
_cell_length_c 15.938685
_cell_angle_alpha 90.000000
_cell_angle_beta 53.299876
_cell_angle_gamma 90.000000
_cell_volume 3699.795320
_symmetry_space_group_name_H-M "C 2/M"
_symmetry_group_IT_number 12
_symmetry_cell_setting 'monoclinic'
loop_
_space_group_symop_operation_xyz
x,y,z
-x,y,-z
-x,-y,-z
x,-y,z
1/2+x,1/2+y,z
1/2-x,1/2+y,-z
1/2-x,1/2-y,-z
1/2+x,1/2-y,z
loop_
_atom_site_type_symbol
_atom_site_label
_atom_site_fract_x
_atom_site_fract_y
_atom_site_fract_z
Si Si1 0.381421 0.183147 0.975115
Si Si2 0.259233 0.683638 0.732430
Si Si3 0.276696 0.681298 0.048690
Si Si4 0.366554 0.683011 0.522610
Si Si5 0.150897 0.681565 0.797084
Si Si6 0.507967 0.182917 0.225473
Si Si7 0.094545 0.818529 0.708007
Si Si8 0.968790 0.316912 0.457193
O O1 0.436311 0.229270 0.873300
O O2 0.376155 0.000000 0.972870
O O3 0.334620 0.260832 0.985499
O O4 0.375415 0.218414 0.081338
O O5 0.258772 0.500000 0.743533
O O6 0.250966 0.758409 0.833155
O O7 0.311769 0.729568 0.624574
O O8 0.210050 0.722498 0.736912
O O9 0.275255 0.500000 0.047741
O O10 0.250000 0.750000 0.000000
O O11 0.368794 0.500000 0.522725
O O12 0.377226 0.729956 0.413149
O O13 0.412610 0.749147 0.520227
O O14 0.147698 0.500000 0.789391
O O15 0.124263 0.760889 0.752269
O O16 0.462210 0.252579 0.228224
O O17 0.497215 0.225222 0.335587
O O18 0.505085 0.000000 0.222764
O O19 0.092096 0.000000 0.711627
O O20 0.965091 0.500000 0.464107
O O21 0.000000 0.266425 0.500000
#
# Coordination Sequence:
#
# PCOD9191593 Si02
#       8
#     8   8   8   8   8   8   8   8
#     4   9  19  36  55  75 101 135 175 215 255 303
#     4   9  19  37  56  75 102 135 172 212 254 303
#     4  11  22  36  55  79 107 137 170 209 254 303
#     4   9  19  35  53  74 102 135 169 208 255 304
#     4   9  18  33  52  72  98 133 171 213 259 307
#     4   9  18  34  54  73  99 136 172 207 252 307
#     4  10  20  33  50  75 106 135 168 212 257 304
#     4   9  18  32  50  75 104 131 165 209 252 299
#
# _framework density 17.298252999999999
#
# number of rings (size 3 to 8) (size 9 to 14) (size 15 to 20)
#    0.000    2.625    0.000    2.250    0.000    5.750 
#    0.000    3.750    0.000    0.000    0.000    0.000 
#    0.000    0.000    0.000    0.000    0.000    0.000 
#
# Total GULP energy -178504.603418 kJ/mol
# GULP energy per Si atom -5578.268857 kJ/mol
# Density = 1.725888 g / cm^3
# Si number density = 17.298253 Si / 1000 Ang^3
#
#
#
# Elastic Constant Matrix: (Units=GPa)
#
#
# Indices 1 2 3 4 5 6 
#
# 1 187.7272 54.5102 115.0109 0.0000 1.3967 0.0000
# 2 54.5102 31.6554 40.2956 0.0000 -1.1734 0.0002
# 3 115.0109 40.2956 114.2454 0.0000 -26.9247 0.0000
# 4 0.0000 0.0000 0.0000 22.5421 0.0000 0.5596
# 5 1.3967 -1.1734 -26.9247 0.0000 34.9924 0.0000
# 6 0.0000 0.0002 0.0000 0.5596 0.0000 31.8216
#
#
#
# Elastic Compliance Matrix: (Units=1/GPa)
#
#
# Indices 1 2 3 4 5 6 
#
# 1 0.024123 -0.009093 -0.026112 0.000000 -0.021359 0.000000
# 2 -0.009093 0.069986 -0.018191 0.000000 -0.011287 0.000000
# 3 -0.026112 -0.018191 0.050763 0.000000 0.039491 0.000000
# 4 0.000000 0.000000 0.000000 0.044381 0.000000 -0.000780
# 5 -0.021359 -0.011287 0.039491 0.000000 0.059438 0.000000
# 6 0.000000 0.000000 0.000000 -0.000780 0.000000 0.031439
#
#
# Mechanical properties :
#
#
# Convention : Reuss Voigt Hill
#
# Bulk Modulus (GPa) = 26.25970 83.69571 54.97771
# Shear Modulus (GPa) = 12.51204 26.12530 19.31867
#
# Velocity S-wave (km/s) = 2.69236 3.89046 3.34548
# Velocity P-wave (km/s) = 4.98785 8.28672 6.83917
#
# Compressibility (1/GPa) = 0.03808116
#
# Stress axis : x y z
#
# Youngs Moduli (GPa) = 41.45343 14.28856 19.69947
#
# Poissons Ratio (x) = 0.12993 0.51438
# Poissons Ratio (y) = 0.37695 0.35835
# Poissons Ratio (z) = 1.08241 0.25992
#
# Static dielectric constant tensor:
#      x y z
#    x 1.555630 0.000000 -0.005430 
#    y 0.000000 1.580190 0.000000 
#    z -0.005430 0.000000 1.581390 
# 
# From -- ./inp_files/249117.got.cif
#   From: 2010.05.17/outbox.cif.g08.bks.cpg/sg12_125_cif.got.tgz:249117.got - 2010.06.03 13:09:07.
