data_PCOD9191374
_publ_section_title
;
Structure prediction by ZEFSAII (Michael W. Deem and Ramdas Pophale) SiO2 
 PCOD9191374
Probable space group: C 2/M
;
_chemical_formula_sum "Si O2"
_cell_formula_units_Z 40
_cell_length_a 11.845809
_cell_length_b 26.598819
_cell_length_c 9.277620
_cell_angle_alpha 90.000000
_cell_angle_beta 141.602004
_cell_angle_gamma 90.000000
_cell_volume 1815.680512
_symmetry_space_group_name_H-M "C 2/M"
_symmetry_group_IT_number 12
_symmetry_cell_setting 'monoclinic'
loop_
_space_group_symop_operation_xyz
x,y,z
-x,y,-z
-x,-y,-z
x,-y,z
1/2+x,1/2+y,z
1/2-x,1/2+y,-z
1/2-x,1/2-y,-z
1/2+x,1/2-y,z
loop_
_atom_site_type_symbol
_atom_site_label
_atom_site_fract_x
_atom_site_fract_y
_atom_site_fract_z
Si Si1 0.717126 0.698876 0.553588
Si Si2 0.722084 0.399674 0.388501
Si Si3 0.721670 0.500000 0.555621
Si Si4 0.221651 0.000000 0.888004
Si Si5 0.722061 0.600330 0.055915
Si Si6 0.217083 0.198854 0.880739
O O1 0.750000 0.750000 0.500000
O O2 0.783935 0.650337 0.533140
O O3 0.787383 0.701411 0.787496
O O4 0.500030 0.693001 0.345910
O O5 0.778638 0.449821 0.529063
O O6 0.500011 0.399440 0.165933
O O7 0.779473 0.399938 0.279644
O O8 0.779753 0.500000 0.779946
O O9 0.500010 0.500000 0.334310
O O10 0.278620 0.949822 0.028570
O O11 0.783890 0.650329 0.034962
O O12 0.250000 0.250000 0.000000
#
# Coordination Sequence:
#
# PCOD9191374 Si02
#       6
#     8   8   4   4   8   8
#     4  10  20  33  49  70  96 126 160 197 237 281
#     4   9  16  26  41  62  89 120 153 190 233 279
#     4   9  15  23  37  59  88 119 150 187 232 279
#     4   9  15  23  37  59  88 119 150 187 232 279
#     4   9  16  26  41  62  89 120 153 190 233 279
#     4  10  20  33  49  70  96 126 160 197 237 281
#
# _framework density 22.030306
#
# number of rings (size 3 to 8) (size 9 to 14) (size 15 to 20)
#    0.000    2.600    0.000    3.000    0.000    9.600 
#    0.000    0.000    0.000    0.000    0.000    1.400 
#    0.000   11.200    0.000    0.000    0.000    0.000 
#
# Total GULP energy -111823.188764 kJ/mol
# GULP energy per Si atom -5591.159438 kJ/mol
# Density = 2.198016 g / cm^3
# Si number density = 22.030306 Si / 1000 Ang^3
#
#
#
# Elastic Constant Matrix: (Units=GPa)
#
#
# Indices 1 2 3 4 5 6 
#
# 1 77.9740 70.5191 93.3005 0.0000 -30.2776 0.0000
# 2 70.5191 278.0609 113.7630 0.0000 -87.4520 0.0000
# 3 93.3005 113.7630 128.2915 0.0000 -72.4170 0.0000
# 4 0.0000 0.0000 0.0000 35.5329 0.0000 -17.8953
# 5 -30.2776 -87.4520 -72.4170 0.0000 84.2832 0.0000
# 6 0.0000 0.0000 0.0000 -17.8953 0.0000 26.6486
#
#
#
# Elastic Compliance Matrix: (Units=1/GPa)
#
#
# Indices 1 2 3 4 5 6 
#
# 1 -0.700911 -0.000982 0.714380 0.000000 0.360991 0.000000
# 2 -0.000982 0.006069 -0.002547 0.000000 0.003755 0.000000
# 3 0.714380 -0.002547 -0.710899 0.000000 -0.356823 0.000000
# 4 0.000000 0.000000 0.000000 0.042525 0.000000 0.028557
# 5 0.360991 0.003755 -0.356823 0.000000 -0.161143 0.000000
# 6 0.000000 0.000000 0.000000 0.028557 0.000000 0.056702
#
#
# Mechanical properties :
#
#
# Convention : Reuss Voigt Hill
#
# Bulk Modulus (GPa) = 62.65471 115.49906 89.07688
# Shear Modulus (GPa) = -1.73368 43.07586 20.67109
#
# Velocity S-wave (km/s) = -0.88807 4.42667 3.06650
# Velocity P-wave (km/s) = 5.23932 8.86952 7.28419
#
# Compressibility (1/GPa) = 0.01596049
#
# Stress axis : x y z
#
# Youngs Moduli (GPa) = -1.42672 164.77983 -1.40667
#
# Poissons Ratio (x) = 0.16188 1.00490
# Poissons Ratio (y) = -0.00140 -0.00358
# Poissons Ratio (z) = 1.01922 0.41972
#
# Static dielectric constant tensor:
#      x y z
#    x 1.901010 0.000000 0.035850 
#    y 0.000000 1.733950 0.000000 
#    z 0.035850 0.000000 1.888310 
# 
# From -- ./inp_files/50457.got.cif
#   From: 2010.05.17/outbox.cif.g08.bks.cpg/sg12_26_cif.got.tgz:50457.got - 2010.06.03 13:09:07.
