data_PCOD9191053
_publ_section_title
;
Structure prediction by ZEFSAII (Michael W. Deem and Ramdas Pophale) SiO2 
 PCOD9191053
Probable space group: C 2/M
;
_chemical_formula_sum "Si O2"
_cell_formula_units_Z 56
_cell_length_a 14.042340
_cell_length_b 21.390246
_cell_length_c 12.801402
_cell_angle_alpha 90.000000
_cell_angle_beta 115.604217
_cell_angle_gamma 90.000000
_cell_volume 3467.555158
_symmetry_space_group_name_H-M "C 2/M"
_symmetry_group_IT_number 12
_symmetry_cell_setting 'monoclinic'
loop_
_space_group_symop_operation_xyz
x,y,z
-x,y,-z
-x,-y,-z
x,-y,z
1/2+x,1/2+y,z
1/2-x,1/2+y,-z
1/2-x,1/2-y,-z
1/2+x,1/2-y,z
loop_
_atom_site_type_symbol
_atom_site_label
_atom_site_fract_x
_atom_site_fract_y
_atom_site_fract_z
Si Si1 0.142388 0.073972 0.399927
Si Si2 0.448589 0.779739 0.372686
Si Si3 0.624354 0.426722 0.033465
Si Si4 0.169936 0.150288 0.625577
Si Si5 0.758911 0.853437 0.729964
Si Si6 0.333440 0.237585 0.636374
Si Si7 0.404628 0.425793 0.214407
O O1 0.138127 0.113655 0.504950
O O2 0.232797 0.098652 0.364249
O O3 0.030559 0.084341 0.288163
O O4 0.152649 0.000000 0.426312
O O5 0.500000 0.809077 0.500000
O O6 0.546805 0.767237 0.343924
O O7 0.355303 0.825753 0.294699
O O8 0.397147 0.713598 0.384449
O O9 0.655493 0.500000 0.057093
O O10 0.687275 0.385589 0.145835
O O11 0.500000 0.424058 0.000000
O O12 0.634286 0.405498 0.918050
O O13 0.288808 0.174317 0.665279
O O14 0.152283 0.107632 0.717174
O O15 0.820501 0.793638 0.711852
O O16 0.250000 0.250000 0.500000
O O17 0.388844 0.500000 0.213815
#
# Coordination Sequence:
#
# PCOD9191053 Si02
#       7
#     8   8   8   8   8   8   8
#     4  11  19  29  50  83 111 134 172 224 277 324
#     4  11  19  33  52  78 109 144 180 211 272 328
#     4  10  20  36  56  79 108 144 182 222 271 320
#     4  11  20  32  54  79 110 139 177 218 274 332
#     4  11  20  33  56  79 107 145 178 224 266 325
#     4  11  20  34  53  79 106 147 177 213 273 328
#     4  10  20  32  52  78 108 140 173 225 276 317
#
# _framework density 16.149705999999998
#
# number of rings (size 3 to 8) (size 9 to 14) (size 15 to 20)
#    0.000    1.286    5.714    3.000    0.000    1.143 
#    0.000    2.857    0.000    9.429    0.000    2.000 
#    0.000    0.000    0.000    0.000    0.000    0.000 
#
# Total GULP energy -156143.787273 kJ/mol
# GULP energy per Si atom -5576.563831 kJ/mol
# Density = 1.611295 g / cm^3
# Si number density = 16.149706 Si / 1000 Ang^3
#
#
#
# Elastic Constant Matrix: (Units=GPa)
#
#
# Indices 1 2 3 4 5 6 
#
# 1 113.8386 41.2689 43.3165 0.0000 -4.8915 0.0000
# 2 41.2689 79.0525 60.8965 0.0000 3.7193 0.0000
# 3 43.3165 60.8965 129.1070 0.0000 -8.2161 0.0000
# 4 0.0000 0.0000 0.0000 31.6035 0.0000 -2.3450
# 5 -4.8915 3.7193 -8.2161 0.0000 18.3044 0.0000
# 6 0.0000 0.0000 0.0000 -2.3450 0.0000 29.6285
#
#
#
# Elastic Compliance Matrix: (Units=1/GPa)
#
#
# Indices 1 2 3 4 5 6 
#
# 1 0.011236 -0.005190 -0.001095 0.000000 0.003566 0.000000
# 2 -0.005190 0.023635 -0.010089 0.000000 -0.010718 0.000000
# 3 -0.001095 -0.010089 0.013365 0.000000 0.007756 0.000000
# 4 0.000000 0.000000 0.000000 0.031829 0.000000 0.002519
# 5 0.003566 -0.010718 0.007756 0.000000 0.061244 0.000000
# 6 0.000000 0.000000 0.000000 0.002519 0.000000 0.033951
#
#
# Mechanical properties :
#
#
# Convention : Reuss Voigt Hill
#
# Bulk Modulus (GPa) = 64.56317 68.10690 66.33504
# Shear Modulus (GPa) = 23.45549 27.67501 25.56525
#
# Velocity S-wave (km/s) = 3.81514 4.14412 3.98303
# Velocity P-wave (km/s) = 7.71180 8.07230 7.89411
#
# Compressibility (1/GPa) = 0.01548871
#
# Stress axis : x y z
#
# Youngs Moduli (GPa) = 89.00276 42.30971 74.82155
#
# Poissons Ratio (x) = 0.21958 0.08191
# Poissons Ratio (y) = 0.46191 0.75487
# Poissons Ratio (z) = 0.09744 0.42686
#
# Static dielectric constant tensor:
#      x y z
#    x 1.576890 0.000000 -0.016260 
#    y 0.000000 1.560670 0.000000 
#    z -0.016260 0.000000 1.542710 
# 
# From -- ./inp_files/147179.got.cif
#   From: 2010.05.17/outbox.cif.g08.bks.cpg/sg12_74_cif.got.tgz:147179.got - 2010.06.03 13:09:07.
