data_PCOD9191962
_publ_section_title
;
Structure prediction by ZEFSAII (Michael W. Deem and Ramdas Pophale) SiO2 
 PCOD9191962
Probable space group: C 2/M
;
_chemical_formula_sum "Si O2"
_cell_formula_units_Z 56
_cell_length_a 30.783813
_cell_length_b 9.100548
_cell_length_c 14.757238
_cell_angle_alpha 90.000000
_cell_angle_beta 47.274203
_cell_angle_gamma 90.000000
_cell_volume 3037.046155
_symmetry_space_group_name_H-M "C 2/M"
_symmetry_group_IT_number 12
_symmetry_cell_setting 'monoclinic'
loop_
_space_group_symop_operation_xyz
x,y,z
-x,y,-z
-x,-y,-z
x,-y,z
1/2+x,1/2+y,z
1/2-x,1/2+y,-z
1/2-x,1/2-y,-z
1/2+x,1/2-y,z
loop_
_atom_site_type_symbol
_atom_site_label
_atom_site_fract_x
_atom_site_fract_y
_atom_site_fract_z
Si Si1 0.072587 0.174544 0.549994
Si Si2 0.107247 0.675102 0.322295
Si Si3 0.354347 0.676063 0.072430
Si Si4 0.242323 0.324475 0.108176
Si Si5 0.819346 0.326830 0.500986
Si Si6 0.694369 0.827244 0.693130
Si Si7 0.559749 0.674808 0.209681
O O1 0.071162 0.244810 0.452134
O O2 0.126508 0.248564 0.526635
O O3 0.010190 0.201288 0.687646
O O4 0.081468 0.000000 0.530381
O O5 0.098736 0.500000 0.338635
O O6 0.176966 0.708017 0.237931
O O7 0.089299 0.736210 0.249748
O O8 0.353105 0.500000 0.088650
O O9 0.295091 0.718645 0.100519
O O10 0.351541 0.758498 0.171426
O O11 0.409059 0.711584 0.929300
O O12 0.246316 0.500000 0.090231
O O13 0.250000 0.250000 0.000000
O O14 0.818825 0.500000 0.523697
O O15 0.756772 0.256022 0.616757
O O16 0.824079 0.308850 0.385545
O O17 0.702402 0.000000 0.698570
O O18 0.569952 0.500000 0.211028
#
# Coordination Sequence:
#
# PCOD9191962 Si02
#       7
#     8   8   8   8   8   8   8
#     4  11  23  38  58  82 109 148 196 238 278 329
#     4  11  22  35  55  84 113 148 192 236 284 334
#     4  10  20  36  57  81 114 153 188 229 279 330
#     4  10  20  33  52  78 108 142 180 223 271 323
#     4  10  21  39  61  86 115 144 181 230 283 335
#     4  10  21  37  61  90 115 143 180 226 281 341
#     4  10  22  39  56  78 112 154 196 234 274 328
#
# _framework density 18.438969
#
# number of rings (size 3 to 8) (size 9 to 14) (size 15 to 20)
#    0.000    1.714    1.429    3.000    0.000    7.429 
#    0.000    0.714    0.000    4.286    0.000    0.000 
#    0.000    0.000    0.000    0.000    0.000    0.000 
#
# Total GULP energy -156477.959981 kJ/mol
# GULP energy per Si atom -5588.498571 kJ/mol
# Density = 1.839700 g / cm^3
# Si number density = 18.438969 Si / 1000 Ang^3
#
#
#
# Elastic Constant Matrix: (Units=GPa)
#
#
# Indices 1 2 3 4 5 6 
#
# 1 34.5966 31.4389 33.3009 0.0000 -3.2817 0.0000
# 2 31.4389 65.8321 68.5757 0.0000 1.9945 0.0000
# 3 33.3009 68.5757 147.3840 0.0000 7.7470 0.0000
# 4 0.0000 0.0000 0.0000 31.8373 0.0000 7.1561
# 5 -3.2817 1.9945 7.7470 0.0000 19.4239 0.0000
# 6 0.0000 0.0000 0.0000 7.1561 0.0000 26.2941
#
#
#
# Elastic Compliance Matrix: (Units=1/GPa)
#
#
# Indices 1 2 3 4 5 6 
#
# 1 0.053725 -0.024675 -0.001296 0.000000 0.012127 0.000000
# 2 -0.024675 0.040928 -0.013307 0.000000 -0.003064 0.000000
# 3 -0.001296 -0.013307 0.013492 0.000000 -0.004234 0.000000
# 4 0.000000 0.000000 0.000000 0.033456 0.000000 -0.009105
# 5 0.012127 -0.003064 -0.004234 0.000000 0.055535 0.000000
# 6 0.000000 0.000000 0.000000 -0.009105 0.000000 0.040509
#
#
# Mechanical properties :
#
#
# Convention : Reuss Voigt Hill
#
# Bulk Modulus (GPa) = 33.79511 57.16040 45.47775
# Shear Modulus (GPa) = 15.33441 23.14421 19.23931
#
# Velocity S-wave (km/s) = 2.88693 3.54669 3.23368
# Velocity P-wave (km/s) = 5.42958 6.91658 6.21770
#
# Compressibility (1/GPa) = 0.02959008
#
# Stress axis : x y z
#
# Youngs Moduli (GPa) = 18.61343 24.43288 74.11853
#
# Poissons Ratio (x) = 0.60287 0.09602
# Poissons Ratio (y) = 0.45928 0.98631
# Poissons Ratio (z) = 0.02411 0.32513
#
# Static dielectric constant tensor:
#      x y z
#    x 1.616240 0.000000 -0.002730 
#    y 0.000000 1.613330 0.000000 
#    z -0.002730 0.000000 1.642260 
# 
# From -- ./inp_files/237481.got.cif
#   From: 2010.05.17/outbox.cif.g08.bks.cpg/sg12_119_cif.got.tgz:237481.got - 2010.06.03 13:09:07.
