data_PCOD9191879
_publ_section_title
;
Structure prediction by ZEFSAII (Michael W. Deem and Ramdas Pophale) SiO2 
 PCOD9191879
Probable space group: C 2/M
;
_chemical_formula_sum "Si O2"
_cell_formula_units_Z 64
_cell_length_a 30.856140
_cell_length_b 8.722935
_cell_length_c 15.476181
_cell_angle_alpha 90.000000
_cell_angle_beta 78.741870
_cell_angle_gamma 90.000000
_cell_volume 4085.354144
_symmetry_space_group_name_H-M "C 2/M"
_symmetry_group_IT_number 12
_symmetry_cell_setting 'monoclinic'
loop_
_space_group_symop_operation_xyz
x,y,z
-x,y,-z
-x,-y,-z
x,-y,z
1/2+x,1/2+y,z
1/2-x,1/2+y,-z
1/2-x,1/2-y,-z
1/2+x,1/2-y,z
loop_
_atom_site_type_symbol
_atom_site_label
_atom_site_fract_x
_atom_site_fract_y
_atom_site_fract_z
Si Si1 0.443039 0.684881 0.880129
Si Si2 0.532029 0.185930 0.610388
Si Si3 0.896497 0.816369 0.079198
Si Si4 0.124623 0.183297 0.247016
Si Si5 0.790563 0.316628 0.872723
Si Si6 0.539209 0.184194 0.802306
Si Si7 0.934210 0.685363 0.584835
Si Si8 0.303544 0.183434 0.068417
O O1 0.448380 0.500000 0.876255
O O2 0.410114 0.729093 0.815116
O O3 0.490486 0.761661 0.849645
O O4 0.421011 0.727314 0.979997
O O5 0.545644 0.236391 0.700339
O O6 0.481276 0.229924 0.609891
O O7 0.561583 0.233495 0.517041
O O8 0.532331 0.000000 0.609901
O O9 0.924765 0.752854 0.147477
O O10 0.847170 0.750675 0.094733
O O11 0.894927 0.000000 0.083138
O O12 0.171782 0.253495 0.204488
O O13 0.104654 0.242131 0.344576
O O14 0.127593 0.000000 0.245481
O O15 0.788703 0.500000 0.869274
O O16 0.742100 0.248026 0.875851
O O17 0.803536 0.272279 0.966445
O O18 0.541117 0.000000 0.804302
O O19 0.931051 0.500000 0.589636
O O20 0.303692 0.000000 0.073497
#
# Coordination Sequence:
#
# PCOD9191879 Si02
#       8
#     8   8   8   8   8   8   8   8
#     4  10  21  34  46  65  99 138 171 202 242 288
#     4   8  16  30  49  70  95 126 163 207 251 294
#     4  11  22  36  50  67  98 138 172 204 245 292
#     4  11  20  31  48  74 103 132 164 203 246 291
#     4  10  20  33  52  74  99 130 163 200 248 298
#     4  11  21  33  50  72  96 129 173 214 247 287
#     4   9  16  31  51  70  94 128 165 202 249 300
#     4  10  20  34  52  74  98 126 165 209 246 286
#
# _framework density 15.665718
#
# number of rings (size 3 to 8) (size 9 to 14) (size 15 to 20)
#    0.000    2.000    2.500    3.000    0.000    4.000 
#    0.000    2.500    0.000    0.000    0.000    0.875 
#    0.000    0.000    0.000    0.000    0.000    0.000 
#
# Total GULP energy -178591.105468 kJ/mol
# GULP energy per Si atom -5580.972046 kJ/mol
# Density = 1.563006 g / cm^3
# Si number density = 15.665718 Si / 1000 Ang^3
#
#
#
# Elastic Constant Matrix: (Units=GPa)
#
#
# Indices 1 2 3 4 5 6 
#
# 1 129.7400 40.6046 81.2382 0.0000 -13.1738 0.0000
# 2 40.6046 34.3888 33.4568 0.0000 -5.3157 0.0000
# 3 81.2382 33.4568 115.6479 0.0000 -15.0055 0.0000
# 4 0.0000 0.0000 0.0000 20.2314 0.0000 -3.2158
# 5 -13.1738 -5.3157 -15.0055 0.0000 24.7210 0.0000
# 6 0.0000 0.0000 0.0000 -3.2158 0.0000 28.2286
#
#
#
# Elastic Compliance Matrix: (Units=1/GPa)
#
#
# Indices 1 2 3 4 5 6 
#
# 1 0.016483 -0.011353 -0.008110 0.000000 0.001420 0.000000
# 2 -0.011353 0.048357 -0.005917 0.000000 0.000757 0.000000
# 3 -0.008110 -0.005917 0.016641 0.000000 0.004506 0.000000
# 4 0.000000 0.000000 0.000000 0.050340 0.000000 0.005735
# 5 0.001420 0.000757 0.004506 0.000000 0.044106 0.000000
# 6 0.000000 0.000000 0.000000 0.005735 0.000000 0.036078
#
#
# Mechanical properties :
#
#
# Convention : Reuss Voigt Hill
#
# Bulk Modulus (GPa) = 32.55027 65.59733 49.07380
# Shear Modulus (GPa) = 18.31466 22.93466 20.62466
#
# Velocity S-wave (km/s) = 3.42291 3.83038 3.63236
# Velocity P-wave (km/s) = 6.03696 7.84388 6.99898
#
# Compressibility (1/GPa) = 0.03072172
#
# Stress axis : x y z
#
# Youngs Moduli (GPa) = 60.66738 20.67944 60.09410
#
# Poissons Ratio (x) = 0.23477 0.48739
# Poissons Ratio (y) = 0.68873 0.35556
# Poissons Ratio (z) = 0.49203 0.12235
#
# Static dielectric constant tensor:
#      x y z
#    x 1.491900 0.000000 0.000250 
#    y 0.000000 1.525060 0.000000 
#    z 0.000250 0.000000 1.524830 
# 
# From -- ./inp_files/243847.got.cif
#   From: 2010.05.17/outbox.cif.g08.bks.cpg/sg12_122_cif.got.tgz:243847.got - 2010.06.03 13:09:07.
