data_PCOD9191462
_publ_section_title
;
Structure prediction by ZEFSAII (Michael W. Deem and Ramdas Pophale) SiO2 
 PCOD9191462
Probable space group: C 2/M
;
_chemical_formula_sum "Si O2"
_cell_formula_units_Z 40
_cell_length_a 16.549776
_cell_length_b 9.889046
_cell_length_c 23.090372
_cell_angle_alpha 90.000000
_cell_angle_beta 142.251109
_cell_angle_gamma 90.000000
_cell_volume 2313.514222
_symmetry_space_group_name_H-M "C 2/M"
_symmetry_group_IT_number 12
_symmetry_cell_setting 'monoclinic'
loop_
_space_group_symop_operation_xyz
x,y,z
-x,y,-z
-x,-y,-z
x,-y,z
1/2+x,1/2+y,z
1/2-x,1/2+y,-z
1/2-x,1/2-y,-z
1/2+x,1/2-y,z
loop_
_atom_site_type_symbol
_atom_site_label
_atom_site_fract_x
_atom_site_fract_y
_atom_site_fract_z
Si Si1 0.704619 0.000000 0.365254
Si Si2 0.931114 0.000000 0.777595
Si Si3 0.818275 0.283253 0.255793
Si Si4 0.097655 0.000000 0.108777
Si Si5 0.336095 0.500000 0.318438
Si Si6 0.873318 0.000000 0.574005
Si Si7 0.384975 0.000000 0.386407
Si Si8 0.452289 0.729760 0.703445
O O1 0.809390 0.000000 0.371954
O O2 0.620594 0.862633 0.315573
O O3 0.765580 0.000000 0.463746
O O4 0.968825 0.000000 0.865792
O O5 0.982042 0.131575 0.773631
O O6 0.769019 0.000000 0.680098
O O7 0.694259 0.370657 0.165244
O O8 0.891061 0.368734 0.348135
O O9 0.919167 0.267383 0.260331
O O10 0.779227 0.137950 0.259217
O O11 0.000000 0.000000 0.000000
O O12 0.487535 0.500000 0.381977
O O13 0.869244 0.132708 0.612369
O O14 0.500000 0.000000 0.500000
#
# Coordination Sequence:
#
# PCOD9191462 Si02
#       8
#     4   4   8   4   4   4   4   8
#     4  12  18  27  48  75  97 134 187 219 234 282
#     4   9  20  37  53  76 105 138 172 213 263 310
#     4   9  20  37  53  76 105 138 172 213 263 310
#     4  10  20  40  64  80  97 130 170 208 259 332
#     4  10  20  33  50  71 104 138 168 216 261 296
#     4   9  21  33  42  66 106 146 175 204 252 294
#     4  10  20  34  52  74 109 154 194 220 247 296
#     4  10  20  33  50  71 104 138 168 216 261 296
#
# _framework density 17.289715000000001
#
# number of rings (size 3 to 8) (size 9 to 14) (size 15 to 20)
#    0.000    2.400    0.000    5.100    0.000    9.600 
#    0.000    1.500    0.000    0.000    0.000    0.000 
#    0.000    0.000    0.000    0.000    0.000    0.000 
#
# Total GULP energy -111519.597629 kJ/mol
# GULP energy per Si atom -5575.979881 kJ/mol
# Density = 1.725036 g / cm^3
# Si number density = 17.289715 Si / 1000 Ang^3
#
#
#
# Elastic Constant Matrix: (Units=GPa)
#
#
# Indices 1 2 3 4 5 6 
#
# 1 87.1451 29.7611 16.5956 0.0000 -25.0555 0.0000
# 2 29.7611 143.2041 39.6452 0.0000 -11.7905 0.0000
# 3 16.5956 39.6452 105.9872 0.0000 -25.5828 0.0000
# 4 0.0000 0.0000 0.0000 3.7929 0.0000 -11.6601
# 5 -25.0555 -11.7905 -25.5828 0.0000 16.7747 0.0000
# 6 0.0000 0.0000 0.0000 -11.6601 0.0000 28.3482
#
#
#
# Elastic Compliance Matrix: (Units=1/GPa)
#
#
# Indices 1 2 3 4 5 6 
#
# 1 0.025076 -0.003753 0.009308 0.000000 0.049012 0.000000
# 2 -0.003753 0.008380 -0.003922 0.000000 -0.005697 0.000000
# 3 0.009308 -0.003922 0.019205 0.000000 0.040435 0.000000
# 4 0.000000 0.000000 0.000000 -0.996871 -0.000001 -0.410031
# 5 0.049012 -0.005697 0.040435 -0.000001 0.190483 0.000000
# 6 0.000000 0.000000 0.000000 -0.410031 0.000000 -0.133377
#
#
# Mechanical properties :
#
#
# Convention : Reuss Voigt Hill
#
# Bulk Modulus (GPa) = 17.88072 56.48225 37.18149
# Shear Modulus (GPa) = -5.73573 26.47211 10.36819
#
# Velocity S-wave (km/s) = -1.82336 3.91716 2.45148
# Velocity P-wave (km/s) = 2.43546 7.29369 5.43734
#
# Compressibility (1/GPa) = 0.05592617
#
# Stress axis : x y z
#
# Youngs Moduli (GPa) = 39.87898 119.33631 52.07058
#
# Poissons Ratio (x) = 0.44784 -0.48466
# Poissons Ratio (y) = 0.14966 0.20422
# Poissons Ratio (z) = -0.37118 0.46803
#
# Static dielectric constant tensor:
#      x y z
#    x 1.600560 0.000000 -0.005950 
#    y 0.000000 1.602570 0.000000 
#    z -0.005950 0.000000 1.548920 
# 
# From -- ./inp_files/342089.got.cif
#   From: 2010.05.17/outbox.cif.g08.bks.cpg/sg12_172_cif.got.tgz:342089.got - 2010.06.03 13:09:07.
