data_PCOD9191844
_publ_section_title
;
Structure prediction by ZEFSAII (Michael W. Deem and Ramdas Pophale) SiO2 
 PCOD9191844
Probable space group: C 2/M
;
_chemical_formula_sum "Si O2"
_cell_formula_units_Z 44
_cell_length_a 21.412470
_cell_length_b 18.691570
_cell_length_c 6.036943
_cell_angle_alpha 90.000000
_cell_angle_beta 114.545252
_cell_angle_gamma 90.000000
_cell_volume 2197.839899
_symmetry_space_group_name_H-M "C 2/M"
_symmetry_group_IT_number 12
_symmetry_cell_setting 'monoclinic'
loop_
_space_group_symop_operation_xyz
x,y,z
-x,y,-z
-x,-y,-z
x,-y,z
1/2+x,1/2+y,z
1/2-x,1/2+y,-z
1/2-x,1/2-y,-z
1/2+x,1/2-y,z
loop_
_atom_site_type_symbol
_atom_site_label
_atom_site_fract_x
_atom_site_fract_y
_atom_site_fract_z
Si Si1 0.192509 0.169982 0.282130
Si Si2 0.863084 0.696171 0.035276
Si Si3 0.129294 0.079929 0.812476
Si Si4 0.268667 0.081756 0.725464
Si Si5 0.913946 0.788389 0.501004
Si Si6 0.000000 0.271935 0.000000
O O1 0.257519 0.131513 0.490551
O O2 0.148092 0.197568 0.421732
O O3 0.189640 0.239695 0.118940
O O4 0.153023 0.108911 0.086138
O O5 0.892753 0.722623 0.312823
O O6 0.822233 0.622818 0.960193
O O7 0.929359 0.690359 0.970257
O O8 0.197334 0.078786 0.757472
O O9 0.081319 0.139987 0.636309
O O10 0.101105 0.000000 0.781854
O O11 0.287223 0.000000 0.697535
O O12 0.978230 0.772883 0.752118
#
# Coordination Sequence:
#
# PCOD9191844 Si02
#       6
#     8   8   8   8   8   4
#     4   9  18  32  54  80 106 136 169 206 253 309
#     4  10  20  34  54  78 103 135 177 217 254 299
#     4   9  18  32  51  79 113 140 162 199 255 315
#     4  10  20  33  51  79 112 140 166 204 257 312
#     4   9  19  34  54  75 100 134 176 218 257 300
#     4  10  20  36  56  74  96 134 184 228 256 288
#
# _framework density 20.019655
#
# number of rings (size 3 to 8) (size 9 to 14) (size 15 to 20)
#    0.000    2.545    0.000    1.636    0.000   10.182 
#    0.000    0.909    0.000   17.455    0.000    0.000 
#    0.000    0.000    0.000    0.000    0.000    0.000 
#
# Total GULP energy -122620.974074 kJ/mol
# GULP energy per Si atom -5573.680640 kJ/mol
# Density = 1.997409 g / cm^3
# Si number density = 20.019655 Si / 1000 Ang^3
#
#
#
# Elastic Constant Matrix: (Units=GPa)
#
#
# Indices 1 2 3 4 5 6 
#
# 1 41.1539 24.0666 10.2292 0.0000 4.3037 0.0000
# 2 24.0666 82.9862 37.2719 0.0000 24.8926 0.0000
# 3 10.2292 37.2719 117.0532 0.0000 9.7022 0.0000
# 4 0.0000 0.0000 0.0000 4.2247 0.0000 -3.7609
# 5 4.3037 24.8926 9.7022 0.0000 25.0871 0.0000
# 6 0.0000 0.0000 0.0000 -3.7609 0.0000 14.9020
#
#
#
# Elastic Compliance Matrix: (Units=1/GPa)
#
#
# Indices 1 2 3 4 5 6 
#
# 1 0.029687 -0.010199 0.000244 0.000000 0.004932 0.000000
# 2 -0.010199 0.022905 -0.004818 0.000000 -0.019115 0.000000
# 3 0.000244 -0.004818 0.009983 0.000000 0.000878 0.000000
# 4 0.000000 0.000000 0.000000 0.305288 0.000000 0.077047
# 5 0.004932 -0.019115 0.000878 0.000000 0.057642 0.000000
# 6 0.000000 0.000000 0.000000 0.077047 0.000000 0.086550
#
#
# Mechanical properties :
#
#
# Convention : Reuss Voigt Hill
#
# Bulk Modulus (GPa) = 30.27465 42.70319 36.48892
# Shear Modulus (GPa) = 9.04797 20.15115 14.59956
#
# Velocity S-wave (km/s) = 2.12823 3.17609 2.70341
# Velocity P-wave (km/s) = 4.60374 5.90144 5.29251
#
# Compressibility (1/GPa) = 0.03303093
#
# Stress axis : x y z
#
# Youngs Moduli (GPa) = 33.68526 43.65770 100.16904
#
# Poissons Ratio (x) = 0.44524 -0.02447
# Poissons Ratio (y) = 0.34354 0.48260
# Poissons Ratio (z) = -0.00823 0.21034
#
# Static dielectric constant tensor:
#      x y z
#    x 1.739880 0.000000 -0.004750 
#    y 0.000000 1.699960 0.000000 
#    z -0.004750 0.000000 1.741880 
# 
# From -- ./inp_files/20466.got.cif
#   From: 2010.05.17/outbox.cif.g08.bks.cpg/sg12_11_cif.got.tgz:20466.got - 2010.06.03 13:09:07.
