data_PCOD9191346
_publ_section_title
;
Structure prediction by ZEFSAII (Michael W. Deem and Ramdas Pophale) SiO2 
 PCOD9191346
Probable space group: C 2/M
;
_chemical_formula_sum "Si O2"
_cell_formula_units_Z 56
_cell_length_a 19.265414
_cell_length_b 7.440857
_cell_length_c 30.371072
_cell_angle_alpha 90.000000
_cell_angle_beta 142.353068
_cell_angle_gamma 90.000000
_cell_volume 2659.231483
_symmetry_space_group_name_H-M "C 2/M"
_symmetry_group_IT_number 12
_symmetry_cell_setting 'monoclinic'
loop_
_space_group_symop_operation_xyz
x,y,z
-x,y,-z
-x,-y,-z
x,-y,z
1/2+x,1/2+y,z
1/2-x,1/2+y,-z
1/2-x,1/2-y,-z
1/2+x,1/2-y,z
loop_
_atom_site_type_symbol
_atom_site_label
_atom_site_fract_x
_atom_site_fract_y
_atom_site_fract_z
Si Si1 0.453914 0.783198 0.701822
Si Si2 0.581011 0.279785 0.000896
Si Si3 0.616320 0.785020 0.429317
Si Si4 0.039346 0.720262 0.568360
Si Si5 0.162093 0.713122 0.863952
Si Si6 0.796307 0.786697 0.704515
Si Si7 0.004674 0.216398 0.866574
O O1 0.429818 0.716327 0.640713
O O2 0.570512 0.715530 0.782725
O O3 0.352462 0.739644 0.684741
O O4 0.460431 0.000000 0.703500
O O5 0.582796 0.500000 0.000911
O O6 0.710143 0.216953 0.072831
O O7 0.500000 0.225576 0.000000
O O8 0.532992 0.220026 0.929601
O O9 0.750000 0.750000 0.500000
O O10 0.546260 0.719277 0.436377
O O11 0.601395 0.000000 0.421219
O O12 0.039372 0.500000 0.568255
O O13 0.168177 0.781814 0.642027
O O14 0.000000 0.776021 0.500000
O O15 0.169813 0.500000 0.859938
O O16 0.105350 0.739765 0.883146
O O17 0.887935 0.715130 0.785779
O O18 0.789033 0.000000 0.708386
O O19 0.996722 0.000000 0.864277
#
# Coordination Sequence:
#
# PCOD9191346 Si02
#       7
#     8   8   8   8   8   8   8
#     4   9  18  31  47  69  94 119 149 185 226 272
#     4   9  17  28  44  68  95 121 152 191 229 265
#     4  10  20  33  49  69  93 120 151 187 225 268
#     4   9  17  29  46  67  89 115 148 184 222 265
#     4   9  17  30  48  67  90 122 153 183 225 273
#     4   9  17  30  49  70  91 118 152 190 229 267
#     4   9  17  29  47  70  92 117 153 192 226 266
#
# _framework density 21.058716
#
# number of rings (size 3 to 8) (size 9 to 14) (size 15 to 20)
#    0.000    2.857    0.000    1.286    0.000    2.857 
#    0.000    6.429    0.000    4.286    0.000    8.000 
#    0.000    0.000    0.000    0.000    0.000    0.000 
#
# Total GULP energy -156330.987645 kJ/mol
# GULP energy per Si atom -5583.249559 kJ/mol
# Density = 2.101079 g / cm^3
# Si number density = 21.058716 Si / 1000 Ang^3
#
#
#
# Elastic Constant Matrix: (Units=GPa)
#
#
# Indices 1 2 3 4 5 6 
#
# 1 195.3595 -8.0026 157.1307 0.0000 15.7488 0.0002
# 2 -8.0026 61.3110 -1.6485 0.0002 7.0453 -0.0003
# 3 157.1307 -1.6485 181.2789 0.0000 7.9644 0.0001
# 4 0.0000 0.0002 0.0000 -1.3483 0.0000 -3.0678
# 5 15.7488 7.0453 7.9644 0.0000 34.3943 -0.0001
# 6 0.0002 -0.0003 0.0001 -3.0678 -0.0001 19.1073
#
#
#
# Elastic Compliance Matrix: (Units=1/GPa)
#
#
# Indices 1 2 3 4 5 6 
#
# 1 0.017961 0.002530 -0.015317 0.000001 -0.005195 0.000000
# 2 0.002530 0.017076 -0.001852 0.000002 -0.004227 0.000000
# 3 -0.015317 -0.001852 0.018641 0.000000 0.003076 0.000000
# 4 0.000001 0.000002 0.000000 -0.543238 0.000000 -0.087220
# 5 -0.005195 -0.004227 0.003076 0.000000 0.031607 0.000000
# 6 0.000000 0.000000 0.000000 -0.087220 0.000000 0.038332
#
#
# Mechanical properties :
#
#
# Convention : Reuss Voigt Hill
#
# Bulk Modulus (GPa) = 40.98320 81.43428 61.20874
# Shear Modulus (GPa) = -13.08190 29.79532 8.35671
#
# Velocity S-wave (km/s) = -2.49511 3.76555 1.99422
# Velocity P-wave (km/s) = 3.34707 7.59341 5.86783
#
# Compressibility (1/GPa) = 0.02440024
#
# Stress axis : x y z
#
# Youngs Moduli (GPa) = 55.67574 58.56015 53.64453
#
# Poissons Ratio (x) = -0.14813 0.82169
# Poissons Ratio (y) = -0.14083 0.09933
# Poissons Ratio (z) = 0.85280 0.10843
#
# Static dielectric constant tensor:
#      x y z
#    x 1.696300 0.000000 0.001260 
#    y 0.000000 1.814610 0.000000 
#    z 0.001260 0.000000 1.750940 
# 
# From -- ./inp_files/342484.got.cif
#   From: 2010.05.17/outbox.cif.g08.bks.cpg/sg12_172_cif.got.tgz:342484.got - 2010.06.03 13:09:07.
