data_PCOD9191823
_publ_section_title
;
Structure prediction by ZEFSAII (Michael W. Deem and Ramdas Pophale) SiO2 
 PCOD9191823
Probable space group: C 2/M
;
_chemical_formula_sum "Si O2"
_cell_formula_units_Z 64
_cell_length_a 18.848963
_cell_length_b 8.774471
_cell_length_c 31.708392
_cell_angle_alpha 90.000000
_cell_angle_beta 138.130227
_cell_angle_gamma 90.000000
_cell_volume 3500.214982
_symmetry_space_group_name_H-M "C 2/M"
_symmetry_group_IT_number 12
_symmetry_cell_setting 'monoclinic'
loop_
_space_group_symop_operation_xyz
x,y,z
-x,y,-z
-x,-y,-z
x,-y,z
1/2+x,1/2+y,z
1/2-x,1/2+y,-z
1/2-x,1/2-y,-z
1/2+x,1/2-y,z
loop_
_atom_site_type_symbol
_atom_site_label
_atom_site_fract_x
_atom_site_fract_y
_atom_site_fract_z
Si Si1 0.739315 0.318177 0.825294
Si Si2 0.072975 0.818189 0.825856
Si Si3 0.326615 0.183826 0.427719
Si Si4 0.097338 0.320755 0.308942
Si Si5 0.429876 0.181286 0.309746
Si Si6 0.499027 0.184601 0.432187
Si Si7 0.471919 0.317666 0.939279
Si Si8 0.132681 0.681732 0.941943
O O1 0.752515 0.500000 0.830704
O O2 0.667464 0.277925 0.834585
O O3 0.671448 0.264904 0.754880
O O4 0.852848 0.238357 0.877355
O O5 0.090615 0.736221 0.877882
O O6 0.963715 0.767270 0.755278
O O7 0.074334 0.000000 0.832352
O O8 0.213971 0.259350 0.370046
O O9 0.406161 0.220100 0.424356
O O10 0.389515 0.234697 0.497782
O O11 0.314574 0.000000 0.423776
O O12 0.099816 0.500000 0.300129
O O13 0.024945 0.299375 0.318434
O O14 0.467803 0.238850 0.372055
O O15 0.406514 0.000000 0.302280
O O16 0.505238 0.000000 0.432893
O O17 0.478144 0.500000 0.937661
O O18 0.554741 0.242281 0.943848
O O19 0.500000 0.277372 0.000000
O O20 0.137895 0.500000 0.945897
O O21 0.250000 0.750000 0.000000
#
# Coordination Sequence:
#
# PCOD9191823 Si02
#       8
#     8   8   8   8   8   8   8   8
#     4  10  21  37  58  84 113 145 183 230 281 330
#     4  10  21  39  61  83 111 148 188 229 277 332
#     4   9  17  32  53  74 100 136 180 227 273 326
#     4  10  20  33  51  78 110 142 177 221 275 330
#     4   9  18  34  54  75 104 142 182 223 270 330
#     4   8  16  32  53  74  97 135 183 225 269 324
#     4  11  24  41  62  87 115 150 190 228 271 325
#     4  12  25  41  62  88 118 149 185 229 276 327
#
# _framework density 18.284590000000001
#
# number of rings (size 3 to 8) (size 9 to 14) (size 15 to 20)
#    0.000    2.125    0.000    4.125    0.000    6.500 
#    0.000    6.250    0.000    0.000    0.000    0.000 
#    0.000    0.000    0.000    0.000    0.000    0.000 
#
# Total GULP energy -178690.505451 kJ/mol
# GULP energy per Si atom -5584.078295 kJ/mol
# Density = 1.824297 g / cm^3
# Si number density = 18.284590 Si / 1000 Ang^3
#
#
#
# Elastic Constant Matrix: (Units=GPa)
#
#
# Indices 1 2 3 4 5 6 
#
# 1 90.5825 56.8846 93.5175 0.0000 -1.4650 0.0000
# 2 56.8846 67.3809 64.3511 0.0000 -0.5649 0.0001
# 3 93.5175 64.3511 176.7660 0.0000 -0.0687 0.0000
# 4 0.0000 0.0000 0.0000 31.2291 0.0000 6.0213
# 5 -1.4650 -0.5649 -0.0687 0.0000 41.1279 0.0000
# 6 0.0000 0.0001 0.0000 6.0213 0.0000 25.1323
#
#
#
# Elastic Compliance Matrix: (Units=1/GPa)
#
#
# Indices 1 2 3 4 5 6 
#
# 1 0.034238 -0.017780 -0.011641 0.000000 0.000956 0.000000
# 2 -0.017780 0.031987 -0.002239 0.000000 -0.000198 0.000000
# 3 -0.011641 -0.002239 0.012631 0.000000 -0.000424 0.000000
# 4 0.000000 0.000000 0.000000 0.033572 0.000000 -0.008043
# 5 0.000956 -0.000198 -0.000424 0.000000 0.024345 0.000000
# 6 0.000000 0.000000 0.000000 -0.008043 0.000000 0.041717
#
#
# Mechanical properties :
#
#
# Convention : Reuss Voigt Hill
#
# Bulk Modulus (GPa) = 64.35756 84.91508 74.63632
# Shear Modulus (GPa) = 20.24394 27.49626 23.87010
#
# Velocity S-wave (km/s) = 3.33101 3.88209 3.61706
# Velocity P-wave (km/s) = 7.07589 8.16307 7.63885
#
# Compressibility (1/GPa) = 0.01553819
#
# Stress axis : x y z
#
# Youngs Moduli (GPa) = 29.20705 31.26234 79.17317
#
# Poissons Ratio (x) = 0.55583 0.92163
# Poissons Ratio (y) = 0.51929 0.17725
# Poissons Ratio (z) = 0.33999 0.06999
#
# Static dielectric constant tensor:
#      x y z
#    x 1.605660 0.000000 -0.014280 
#    y 0.000000 1.612790 0.000000 
#    z -0.014280 0.000000 1.613200 
# 
# From -- ./inp_files/378496.got.cif
#   From: 2010.05.17/outbox.cif.g08.bks.cpg/sg12_190_cif.got.tgz:378496.got - 2010.06.03 13:09:07.
