data_PCOD9191747
_publ_section_title
;
Structure prediction by ZEFSAII (Michael W. Deem and Ramdas Pophale) SiO2 
 PCOD9191747
Probable space group: C 2/M
;
_chemical_formula_sum "Si O2"
_cell_formula_units_Z 64
_cell_length_a 32.166161
_cell_length_b 9.834712
_cell_length_c 24.233835
_cell_angle_alpha 90.000000
_cell_angle_beta 150.577169
_cell_angle_gamma 90.000000
_cell_volume 3766.052408
_symmetry_space_group_name_H-M "C 2/M"
_symmetry_group_IT_number 12
_symmetry_cell_setting 'monoclinic'
loop_
_space_group_symop_operation_xyz
x,y,z
-x,y,-z
-x,-y,-z
x,-y,z
1/2+x,1/2+y,z
1/2-x,1/2+y,-z
1/2-x,1/2-y,-z
1/2+x,1/2-y,z
loop_
_atom_site_type_symbol
_atom_site_label
_atom_site_fract_x
_atom_site_fract_y
_atom_site_fract_z
Si Si1 0.225094 0.336758 0.184412
Si Si2 0.669958 0.345816 0.416693
Si Si3 0.883466 0.150863 0.770800
Si Si4 0.252610 0.838541 0.918667
Si Si5 0.574982 0.840006 0.393238
Si Si6 0.374273 0.840765 0.156952
Si Si7 0.529248 0.849543 0.970827
Si Si8 0.284561 0.161505 0.352892
O O1 0.236255 0.500000 0.205381
O O2 0.242413 0.304526 0.140280
O O3 0.277865 0.251705 0.290193
O O4 0.126172 0.304655 0.080375
O O5 0.689605 0.500000 0.458918
O O6 0.750000 0.250000 0.500000
O O7 0.633207 0.357728 0.313131
O O8 0.609760 0.264984 0.388538
O O9 0.797433 0.194468 0.703183
O O10 0.962012 0.249079 0.867862
O O11 0.904253 0.000000 0.816463
O O12 0.180399 0.753266 0.865918
O O13 0.235351 0.000000 0.902587
O O14 0.338930 0.814141 0.053864
O O15 0.474207 0.820760 0.280713
O O16 0.630659 0.816682 0.512881
O O17 0.590183 0.000000 0.395408
O O18 0.356357 0.000000 0.147599
O O19 0.525034 0.000000 0.939990
O O20 0.500000 0.859946 0.000000
O O21 0.280199 0.000000 0.335137
#
# Coordination Sequence:
#
# PCOD9191747 Si02
#       8
#     8   8   8   8   8   8   8   8
#     4  10  21  36  54  81 110 142 185 225 269 326
#     4  11  22  36  53  78 111 148 188 227 269 321
#     4  10  21  35  49  72 108 145 182 222 269 316
#     4   9  19  37  59  83 112 138 171 225 278 329
#     4  10  21  38  58  82 111 144 185 229 274 327
#     4   9  19  37  62  85 107 139 176 221 279 333
#     4  10  20  33  51  76 105 140 184 223 262 317
#     4  10  20  36  54  75 109 148 183 223 268 318
#
# _framework density 16.993922000000001
#
# number of rings (size 3 to 8) (size 9 to 14) (size 15 to 20)
#    0.000    2.125    2.500    0.375    1.750    3.250 
#    0.000    0.625    0.000    3.750    0.000    0.000 
#    0.000    0.000    0.000    0.000    0.000    0.000 
#
# Total GULP energy -178312.807176 kJ/mol
# GULP energy per Si atom -5572.275224 kJ/mol
# Density = 1.695524 g / cm^3
# Si number density = 16.993922 Si / 1000 Ang^3
#
#
#
# Elastic Constant Matrix: (Units=GPa)
#
#
# Indices 1 2 3 4 5 6 
#
# 1 102.6496 51.5016 53.7644 0.0000 -14.2809 0.0000
# 2 51.5016 75.2044 67.9942 0.0000 -4.7522 0.0000
# 3 53.7644 67.9942 110.2181 0.0000 -5.7323 0.0000
# 4 0.0000 0.0000 0.0000 31.1380 0.0000 -3.2974
# 5 -14.2809 -4.7522 -5.7323 0.0000 23.7451 0.0000
# 6 0.0000 0.0000 0.0000 -3.2974 0.0000 35.5880
#
#
#
# Elastic Compliance Matrix: (Units=1/GPa)
#
#
# Indices 1 2 3 4 5 6 
#
# 1 0.016308 -0.008715 -0.002187 0.000000 0.007536 0.000000
# 2 -0.008715 0.034781 -0.017334 0.000000 -0.002465 0.000000
# 3 -0.002187 -0.017334 0.020846 0.000000 0.000248 0.000000
# 4 0.000000 0.000000 0.000000 0.032433 0.000000 0.003005
# 5 0.007536 -0.002465 0.000248 0.000000 0.046213 0.000000
# 6 0.000000 0.000000 0.000000 0.003005 0.000000 0.028378
#
#
# Mechanical properties :
#
#
# Convention : Reuss Voigt Hill
#
# Bulk Modulus (GPa) = 64.66528 70.51028 67.58778
# Shear Modulus (GPa) = 20.78257 25.74835 23.26546
#
# Velocity S-wave (km/s) = 3.50085 3.89672 3.70408
# Velocity P-wave (km/s) = 7.38078 7.86304 7.62572
#
# Compressibility (1/GPa) = 0.01546425
#
# Stress axis : x y z
#
# Youngs Moduli (GPa) = 61.31916 28.75092 47.97029
#
# Poissons Ratio (x) = 0.25055 0.10492
# Poissons Ratio (y) = 0.53437 0.83152
# Poissons Ratio (z) = 0.13411 0.49837
#
# Static dielectric constant tensor:
#      x y z
#    x 1.553540 0.000000 -0.003990 
#    y 0.000000 1.603990 0.000000 
#    z -0.003990 0.000000 1.552990 
# 
# From -- ./inp_files/250016.got.cif
#   From: 2010.05.17/outbox.cif.g08.bks.cpg/sg12_126_cif.got.tgz:250016.got - 2010.06.03 13:09:07.
