data_PCOD9191723
_publ_section_title
;
Structure prediction by ZEFSAII (Michael W. Deem and Ramdas Pophale) SiO2 
 PCOD9191723
Probable space group: C 2/M
;
_chemical_formula_sum "Si O2"
_cell_formula_units_Z 56
_cell_length_a 14.760261
_cell_length_b 7.744458
_cell_length_c 28.692099
_cell_angle_alpha 90.000000
_cell_angle_beta 121.071018
_cell_angle_gamma 90.000000
_cell_volume 2809.241528
_symmetry_space_group_name_H-M "C 2/M"
_symmetry_group_IT_number 12
_symmetry_cell_setting 'monoclinic'
loop_
_space_group_symop_operation_xyz
x,y,z
-x,y,-z
-x,-y,-z
x,-y,z
1/2+x,1/2+y,z
1/2-x,1/2+y,-z
1/2-x,1/2-y,-z
1/2+x,1/2-y,z
loop_
_atom_site_type_symbol
_atom_site_label
_atom_site_fract_x
_atom_site_fract_y
_atom_site_fract_z
Si Si1 0.298407 0.707400 0.148739
Si Si2 0.643703 0.298474 0.642559
Si Si3 0.083941 0.209759 0.449287
Si Si4 0.502899 0.707062 0.148011
Si Si5 0.269855 0.796825 0.429902
Si Si6 0.936089 0.791685 0.938199
Si Si7 0.762758 0.291021 0.764910
O O1 0.308365 0.500000 0.154158
O O2 0.400821 0.774441 0.148508
O O3 0.187854 0.746900 0.093983
O O4 0.284887 0.771299 0.198364
O O5 0.623851 0.500000 0.647369
O O6 0.530597 0.224807 0.596590
O O7 0.717924 0.286021 0.617143
O O8 0.698640 0.224981 0.703174
O O9 0.171799 0.267070 0.434982
O O10 0.126431 0.266434 0.510879
O O11 0.082932 0.000000 0.450279
O O12 0.491500 0.500000 0.141833
O O13 0.517090 0.772949 0.098754
O O14 0.613702 0.743254 0.202980
O O15 0.255960 0.000000 0.419271
O O16 0.943656 0.000000 0.939694
O O17 0.000000 0.727716 0.000000
O O18 0.758319 0.500000 0.763801
#
# Coordination Sequence:
#
# PCOD9191723 Si02
#       7
#     8   8   8   8   8   8   8
#     4   9  18  33  52  72  96 129 167 203 239 283
#     4  10  20  34  51  70  95 128 161 194 241 296
#     4   9  19  35  52  70  97 131 160 191 240 296
#     4   9  18  33  52  72  97 130 164 200 244 288
#     4  10  20  33  51  75  99 124 159 201 241 285
#     4   9  18  32  49  73 105 134 161 198 244 291
#     4   9  19  34  50  70  95 124 162 204 241 284
#
# _framework density 19.934206
#
# number of rings (size 3 to 8) (size 9 to 14) (size 15 to 20)
#    0.000    2.714    0.000    0.857    0.000    6.000 
#    0.000    2.857    0.000    0.000    0.000    0.000 
#    0.000    0.000    0.000    0.000    0.000    0.000 
#
# Total GULP energy -156212.842060 kJ/mol
# GULP energy per Si atom -5579.030074 kJ/mol
# Density = 1.988883 g / cm^3
# Si number density = 19.934206 Si / 1000 Ang^3
#
#
#
# Elastic Constant Matrix: (Units=GPa)
#
#
# Indices 1 2 3 4 5 6 
#
# 1 129.6069 2.5692 61.4298 0.0000 0.0717 0.0000
# 2 2.5692 24.4795 -1.1417 0.0000 -0.3946 0.0000
# 3 61.4298 -1.1417 143.1623 0.0000 0.4823 0.0000
# 4 0.0000 0.0000 0.0000 18.0006 0.0000 5.1743
# 5 0.0717 -0.3946 0.4823 0.0000 8.2253 0.0000
# 6 0.0000 0.0000 0.0000 5.1743 0.0000 12.6591
#
#
#
# Elastic Compliance Matrix: (Units=1/GPa)
#
#
# Indices 1 2 3 4 5 6 
#
# 1 0.009722 -0.001214 -0.004181 0.000000 0.000102 0.000000
# 2 -0.001214 0.041048 0.000842 0.000000 0.001930 0.000000
# 3 -0.004181 0.000842 0.008787 0.000000 -0.000438 0.000000
# 4 0.000000 0.000000 0.000000 0.062950 0.000000 -0.025730
# 5 0.000102 0.001930 -0.000438 0.000000 0.121693 0.000000
# 6 0.000000 0.000000 0.000000 -0.025730 0.000000 0.089512
#
#
# Mechanical properties :
#
#
# Convention : Reuss Voigt Hill
#
# Bulk Modulus (GPa) = 19.82149 46.99593 33.40871
# Shear Modulus (GPa) = 13.90295 23.40309 18.65302
#
# Velocity S-wave (km/s) = 2.64378 3.43011 3.06229
# Velocity P-wave (km/s) = 4.39141 6.27011 5.41289
#
# Compressibility (1/GPa) = 0.05045030
#
# Stress axis : x y z
#
# Youngs Moduli (GPa) = 102.86455 24.36155 113.79803
#
# Poissons Ratio (x) = 0.02957 0.47584
# Poissons Ratio (y) = 0.12484 -0.09577
# Poissons Ratio (z) = 0.43012 -0.02050
#
# Static dielectric constant tensor:
#      x y z
#    x 1.701030 0.000000 -0.009100 
#    y 0.000000 1.726450 0.000000 
#    z -0.009100 0.000000 1.686390 
# 
# From -- ./inp_files/338561.got.cif
#   From: 2010.05.17/outbox.cif.g08.bks.cpg/sg12_170_cif.got.tgz:338561.got - 2010.06.03 13:09:07.
