data_PCOD9191357
_publ_section_title
;
Structure prediction by ZEFSAII (Michael W. Deem and Ramdas Pophale) SiO2 
 PCOD9191357
Probable space group: C 2/M
;
_chemical_formula_sum "Si O2"
_cell_formula_units_Z 60
_cell_length_a 26.995419
_cell_length_b 12.901904
_cell_length_c 19.755055
_cell_angle_alpha 90.000000
_cell_angle_beta 32.931631
_cell_angle_gamma 90.000000
_cell_volume 3740.518798
_symmetry_space_group_name_H-M "C 2/M"
_symmetry_group_IT_number 12
_symmetry_cell_setting 'monoclinic'
loop_
_space_group_symop_operation_xyz
x,y,z
-x,y,-z
-x,-y,-z
x,-y,z
1/2+x,1/2+y,z
1/2-x,1/2+y,-z
1/2-x,1/2-y,-z
1/2+x,1/2-y,z
loop_
_atom_site_type_symbol
_atom_site_label
_atom_site_fract_x
_atom_site_fract_y
_atom_site_fract_z
Si Si1 0.421310 0.744431 0.539458
Si Si2 0.962779 0.745911 0.268361
Si Si3 0.200794 0.122328 0.216336
Si Si4 0.543638 0.377897 0.294801
Si Si5 0.660426 0.122706 0.485228
Si Si6 0.000000 0.753474 0.000000
Si Si7 0.876737 0.123263 0.246526
Si Si8 0.085485 0.376794 0.022949
O O1 0.500000 0.784092 0.500000
O O2 0.344079 0.690152 0.673037
O O3 0.470864 0.659418 0.434859
O O4 0.380484 0.830723 0.537040
O O5 0.890012 0.681664 0.395826
O O6 0.912899 0.822784 0.273342
O O7 0.023126 0.811920 0.251754
O O8 0.025298 0.669523 0.152590
O O9 0.142046 0.142046 0.215908
O O10 0.188554 0.000000 0.246304
O O11 0.307596 0.142643 0.086801
O O12 0.534231 0.500000 0.292731
O O13 0.768702 0.141184 0.363456
O O14 0.644225 0.000000 0.508365
O O15 0.945918 0.681601 0.009025
O O16 0.068870 0.824102 0.877616
O O17 0.892971 0.000000 0.229413
O O18 0.071676 0.500000 0.032497
#
# Coordination Sequence:
#
# PCOD9191357 Si02
#       8
#     8   8   8   8   8   4   8   8
#     4   9  17  30  49  72  96 122 154 193 235 276
#     4  10  20  33  49  69  95 126 158 191 228 273
#     4   9  17  30  49  72  96 122 154 193 235 276
#     4   9  17  30  49  72  96 122 154 193 235 276
#     4  10  20  33  49  69  95 126 158 191 228 273
#     4  10  20  34  52  72  94 120 152 192 236 280
#     4  10  20  34  52  72  94 120 152 192 236 280
#     4  10  20  33  49  69  95 126 158 191 228 273
#
# _framework density 16.040555000000001
#
# number of rings (size 3 to 8) (size 9 to 14) (size 15 to 20)
#    0.000    2.400    0.000    2.800    0.000    2.400 
#    0.000    0.000    0.000   13.600    0.000    0.000 
#    0.000    0.000    0.000    0.000    0.000    0.000 
#
# Total GULP energy -167320.482130 kJ/mol
# GULP energy per Si atom -5577.349404 kJ/mol
# Density = 1.600405 g / cm^3
# Si number density = 16.040555 Si / 1000 Ang^3
#
#
#
# Elastic Constant Matrix: (Units=GPa)
#
#
# Indices 1 2 3 4 5 6 
#
# 1 131.5100 87.9682 89.6759 0.0000 3.0467 0.0000
# 2 87.9682 118.2040 82.9788 0.0000 -5.3865 0.0000
# 3 89.6759 82.9788 117.6404 0.0000 -2.4389 0.0000
# 4 0.0000 0.0000 0.0000 20.7787 0.0000 -5.0417
# 5 3.0467 -5.3865 -2.4389 0.0000 26.0328 0.0000
# 6 0.0000 0.0000 0.0000 -5.0417 0.0000 24.4080
#
#
#
# Elastic Compliance Matrix: (Units=1/GPa)
#
#
# Indices 1 2 3 4 5 6 
#
# 1 0.019488 -0.008370 -0.009053 0.000000 -0.004861 0.000000
# 2 -0.008370 0.020499 -0.007986 0.000000 0.004473 0.000000
# 3 -0.009053 -0.007986 0.021063 0.000000 0.001380 0.000000
# 4 0.000000 0.000000 0.000000 0.050665 0.000000 0.010465
# 5 -0.004861 0.004473 0.001380 0.000000 0.040037 0.000000
# 6 0.000000 0.000000 0.000000 0.010465 0.000000 0.043132
#
#
# Mechanical properties :
#
#
# Convention : Reuss Voigt Hill
#
# Bulk Modulus (GPa) = 97.72518 98.73336 98.22927
# Shear Modulus (GPa) = 20.07127 21.35933 20.71530
#
# Velocity S-wave (km/s) = 3.54118 3.65305 3.59755
# Velocity P-wave (km/s) = 8.81907 8.91510 8.86721
#
# Compressibility (1/GPa) = 0.01023278
#
# Stress axis : x y z
#
# Youngs Moduli (GPa) = 51.31311 48.78306 47.47674
#
# Poissons Ratio (x) = 0.40831 0.42979
# Poissons Ratio (y) = 0.42948 0.37916
# Poissons Ratio (z) = 0.46452 0.38959
#
# Static dielectric constant tensor:
#      x y z
#    x 1.524290 0.000000 -0.003890 
#    y 0.000000 1.507990 0.000000 
#    z -0.003890 0.000000 1.508920 
# 
# From -- ./inp_files/289392.got.cif
#   From: 2010.05.17/outbox.cif.g08.bks.cpg/sg12_145_cif.got.tgz:289392.got - 2010.06.03 13:09:07.
