data_PCOD9191836
_publ_section_title
;
Structure prediction by ZEFSAII (Michael W. Deem and Ramdas Pophale) SiO2 
 PCOD9191836
Probable space group: C 2/M
;
_chemical_formula_sum "Si O2"
_cell_formula_units_Z 56
_cell_length_a 27.516957
_cell_length_b 8.849726
_cell_length_c 13.757810
_cell_angle_alpha 90.000000
_cell_angle_beta 64.421040
_cell_angle_gamma 90.000000
_cell_volume 3021.911952
_symmetry_space_group_name_H-M "C 2/M"
_symmetry_group_IT_number 12
_symmetry_cell_setting 'monoclinic'
loop_
_space_group_symop_operation_xyz
x,y,z
-x,y,-z
-x,-y,-z
x,-y,z
1/2+x,1/2+y,z
1/2-x,1/2+y,-z
1/2-x,1/2-y,-z
1/2+x,1/2-y,z
loop_
_atom_site_type_symbol
_atom_site_label
_atom_site_fract_x
_atom_site_fract_y
_atom_site_fract_z
Si Si1 0.583088 0.678569 0.884232
Si Si2 0.914739 0.181902 0.893300
Si Si3 0.698315 0.183030 0.316331
Si Si4 0.023722 0.680430 0.755171
Si Si5 0.691681 0.322216 0.672038
Si Si6 0.128441 0.681578 0.551633
Si Si7 0.699466 0.318514 0.100961
O O1 0.569093 0.500000 0.890764
O O2 0.545553 0.767336 0.841805
O O3 0.644014 0.695206 0.792307
O O4 0.580020 0.728087 0.998187
O O5 0.856739 0.226452 0.901732
O O6 0.965001 0.249924 0.792115
O O7 0.917891 0.000000 0.887971
O O8 0.752199 0.225789 0.329418
O O9 0.648061 0.227587 0.428023
O O10 0.698650 0.259009 0.211584
O O11 0.698887 0.000000 0.304530
O O12 0.020717 0.500000 0.754067
O O13 0.069824 0.733572 0.639486
O O14 0.695671 0.500000 0.644765
O O15 0.671871 0.236028 0.593689
O O16 0.128132 0.500000 0.553855
O O17 0.703168 0.500000 0.095845
O O18 0.750000 0.250000 0.000000
#
# Coordination Sequence:
#
# PCOD9191836 Si02
#       7
#     8   8   8   8   8   8   8
#     4   9  17  31  51  75 105 139 172 211 264 321
#     4  10  21  37  55  75 103 141 180 216 260 315
#     4  10  20  36  56  78 108 145 182 220 265 315
#     4  10  20  33  51  79 110 138 174 219 265 312
#     4   9  17  30  52  80 108 140 177 218 266 321
#     4   9  19  34  52  78 112 144 176 220 269 316
#     4  11  24  41  60  82 107 136 175 220 264 315
#
# _framework density 18.531314999999999
#
# number of rings (size 3 to 8) (size 9 to 14) (size 15 to 20)
#    0.000    2.286    0.000    2.571    0.000    7.429 
#    0.000    3.571    0.000    4.286    0.000    0.000 
#    0.000    0.000    0.000    0.000    0.000    0.000 
#
# Total GULP energy -156309.921399 kJ/mol
# GULP energy per Si atom -5582.497193 kJ/mol
# Density = 1.848914 g / cm^3
# Si number density = 18.531315 Si / 1000 Ang^3
#
#
#
# Elastic Constant Matrix: (Units=GPa)
#
#
# Indices 1 2 3 4 5 6 
#
# 1 127.0960 33.9953 73.2016 0.0000 -28.2533 0.0000
# 2 33.9953 16.9767 35.2331 0.0000 -8.4336 0.0000
# 3 73.2016 35.2331 151.3383 0.0000 -13.2438 0.0000
# 4 0.0000 0.0000 0.0000 26.4439 0.0000 1.2672
# 5 -28.2533 -8.4336 -13.2438 0.0000 13.0809 0.0000
# 6 0.0000 0.0000 0.0000 1.2672 0.0000 28.4303
#
#
#
# Elastic Compliance Matrix: (Units=1/GPa)
#
#
# Indices 1 2 3 4 5 6 
#
# 1 0.022918 -0.025707 -0.002435 0.000000 0.030461 0.000000
# 2 -0.025707 0.185750 -0.027638 0.000000 0.036253 0.000000
# 3 -0.002435 -0.027638 0.013386 0.000000 -0.009525 0.000000
# 4 0.000000 0.000000 0.000000 0.037897 0.000000 -0.001689
# 5 0.030461 0.036253 -0.009525 0.000000 0.155969 0.000000
# 6 0.000000 0.000000 0.000000 -0.001689 0.000000 0.035249
#
#
# Mechanical properties :
#
#
# Convention : Reuss Voigt Hill
#
# Bulk Modulus (GPa) = 9.05017 64.47455 36.76236
# Shear Modulus (GPa) = 8.33948 23.78978 16.06463
#
# Velocity S-wave (km/s) = 2.12367 3.58685 2.94750
# Velocity P-wave (km/s) = 3.30267 7.21261 5.60934
#
# Compressibility (1/GPa) = 0.11049512
#
# Stress axis : x y z
#
# Youngs Moduli (GPa) = 43.63437 5.38359 74.70379
#
# Poissons Ratio (x) = 0.13839 0.18188
# Poissons Ratio (y) = 1.12170 2.06464
# Poissons Ratio (z) = 0.10624 0.14879
#
# Static dielectric constant tensor:
#      x y z
#    x 1.631750 0.000000 -0.030080 
#    y 0.000000 1.625970 0.000000 
#    z -0.030080 0.000000 1.639820 
# 
# From -- ./inp_files/180796.got.cif
#   From: 2010.05.17/outbox.cif.g08.bks.cpg/sg12_91_cif.got.tgz:180796.got - 2010.06.03 13:09:07.
