data_PCOD9191661
_publ_section_title
;
Structure prediction by ZEFSAII (Michael W. Deem and Ramdas Pophale) SiO2 
 PCOD9191661
Probable space group: C 2/M
;
_chemical_formula_sum "Si O2"
_cell_formula_units_Z 40
_cell_length_a 20.138019
_cell_length_b 21.979204
_cell_length_c 5.062183
_cell_angle_alpha 90.000000
_cell_angle_beta 103.716726
_cell_angle_gamma 90.000000
_cell_volume 2176.709058
_symmetry_space_group_name_H-M "C 2/M"
_symmetry_group_IT_number 12
_symmetry_cell_setting 'monoclinic'
loop_
_space_group_symop_operation_xyz
x,y,z
-x,y,-z
-x,-y,-z
x,-y,z
1/2+x,1/2+y,z
1/2-x,1/2+y,-z
1/2-x,1/2-y,-z
1/2+x,1/2-y,z
loop_
_atom_site_type_symbol
_atom_site_label
_atom_site_fract_x
_atom_site_fract_y
_atom_site_fract_z
Si Si1 0.545506 0.897921 0.802120
Si Si2 0.229252 0.646561 0.522615
Si Si3 0.045407 0.254595 0.804760
Si Si4 0.698641 0.069404 0.982071
Si Si5 0.312494 0.263575 0.262991
O O1 0.500000 0.902545 0.500000
O O2 0.559421 0.826267 0.871175
O O3 0.618635 0.928421 0.831910
O O4 0.500000 0.922194 0.000000
O O5 0.239066 0.607651 0.797308
O O6 0.291117 0.683957 0.446819
O O7 0.178243 0.701208 0.560373
O O8 0.203157 0.602675 0.268136
O O9 0.118486 0.223968 0.828107
O O10 0.000000 0.250705 0.500000
O O11 0.000000 0.230034 0.000000
O O12 0.722104 0.000000 0.018839
O O13 0.250000 0.250000 0.000000
#
# Coordination Sequence:
#
# PCOD9191661 Si02
#       5
#     8   8   8   8   8
#     4  10  20  33  51  73 108 155 202 238 276 328
#     4  11  23  37  59  84 109 151 201 235 308 338
#     4  10  22  33  54  86 120 150 187 238 294 341
#     4  12  24  39  55  79 117 154 205 252 283 333
#     4  11  22  38  66  84 118 154 198 243 294 375
#
# _framework density 18.376366000000001
#
# number of rings (size 3 to 8) (size 9 to 14) (size 15 to 20)
#    0.000    1.200    4.000    1.800   11.200    0.800 
#    0.000    0.000    0.000    0.000    0.000    0.000 
#    0.000   16.000    0.000    0.000    0.000    0.000 
#
# Total GULP energy -111739.233597 kJ/mol
# GULP energy per Si atom -5586.961680 kJ/mol
# Density = 1.833454 g / cm^3
# Si number density = 18.376366 Si / 1000 Ang^3
#
#
#
# Elastic Constant Matrix: (Units=GPa)
#
#
# Indices 1 2 3 4 5 6 
#
# 1 115.0704 17.6467 23.7759 0.0000 -29.3379 0.0000
# 2 17.6467 79.8919 24.0730 0.0000 -9.6743 0.0000
# 3 23.7759 24.0730 81.3532 0.0000 -24.5925 0.0000
# 4 0.0000 0.0000 0.0000 16.3231 0.0000 0.9384
# 5 -29.3379 -9.6743 -24.5925 0.0000 32.8485 0.0000
# 6 0.0000 0.0000 0.0000 0.9384 0.0000 -9.5319
#
#
#
# Elastic Compliance Matrix: (Units=1/GPa)
#
#
# Indices 1 2 3 4 5 6 
#
# 1 0.011388 -0.001338 0.000030 0.000000 0.009799 0.000000
# 2 -0.001338 0.013942 -0.003690 0.000000 0.000149 0.000000
# 3 0.000030 -0.003690 0.016873 0.000000 0.011573 0.000000
# 4 0.000000 0.000000 0.000000 0.060918 0.000000 0.005997
# 5 0.009799 0.000149 0.011573 0.000000 0.047903 0.000000
# 6 0.000000 0.000000 0.000000 0.005997 0.000000 -0.104320
#
#
# Mechanical properties :
#
#
# Convention : Reuss Voigt Hill
#
# Bulk Modulus (GPa) = 31.04768 45.25630 38.15199
# Shear Modulus (GPa) = 74.14546 21.98258 48.06402
#
# Velocity S-wave (km/s) = 6.35892 3.46242 5.11978
# Velocity P-wave (km/s) = 8.41704 6.37695 7.46700
#
# Compressibility (1/GPa) = 0.03220852
#
# Stress axis : x y z
#
# Youngs Moduli (GPa) = 87.81463 71.72474 59.26473
#
# Poissons Ratio (x) = 0.09595 -0.00177
# Poissons Ratio (y) = 0.11747 0.21866
# Poissons Ratio (z) = -0.00263 0.26463
#
# Static dielectric constant tensor:
#      x y z
#    x 1.643200 0.000000 -0.019100 
#    y 0.000000 1.652780 0.000000 
#    z -0.019100 0.000000 1.667690 
# 
# From -- ./inp_files/15740.got.cif
#   From: 2010.05.17/outbox.cif.g08.bks.cpg/sg12_8_cif.got.tgz:15740.got - 2010.06.03 13:09:07.
