data_PCOD9191172
_publ_section_title
;
Structure prediction by ZEFSAII (Michael W. Deem and Ramdas Pophale) SiO2 
 PCOD9191172
Probable space group: C 2/M
;
_chemical_formula_sum "Si O2"
_cell_formula_units_Z 36
_cell_length_a 23.424694
_cell_length_b 8.081247
_cell_length_c 21.698160
_cell_angle_alpha 90.000000
_cell_angle_beta 154.295047
_cell_angle_gamma 90.000000
_cell_volume 1781.564965
_symmetry_space_group_name_H-M "C 2/M"
_symmetry_group_IT_number 12
_symmetry_cell_setting 'monoclinic'
loop_
_space_group_symop_operation_xyz
x,y,z
-x,y,-z
-x,-y,-z
x,-y,z
1/2+x,1/2+y,z
1/2-x,1/2+y,-z
1/2-x,1/2-y,-z
1/2+x,1/2-y,z
loop_
_atom_site_type_symbol
_atom_site_label
_atom_site_fract_x
_atom_site_fract_y
_atom_site_fract_z
Si Si1 0.836100 0.685521 0.027318
Si Si2 0.823683 0.313348 0.510858
Si Si3 0.843946 0.500000 0.798367
Si Si4 0.789256 0.000000 0.200297
Si Si5 0.432379 0.321402 0.822193
Si Si6 0.577868 0.500000 0.456950
O O1 0.885841 0.500000 0.091037
O O2 0.958726 0.793684 0.124956
O O3 0.750000 0.750000 0.000000
O O4 0.747957 0.654014 0.880402
O O5 0.877784 0.500000 0.571738
O O6 0.750000 0.250000 0.500000
O O7 0.709314 0.324865 0.348412
O O8 0.918699 0.166030 0.581367
O O9 0.796260 0.500000 0.821794
O O10 0.926535 0.662229 0.860162
O O11 0.709896 0.500000 0.626590
O O12 0.943404 0.000000 0.364039
O O13 0.455580 0.500000 0.874755
#
# Coordination Sequence:
#
# PCOD9191172 Si02
#       6
#     8   8   4   4   8   4
#     4  10  22  37  57  86 125 160 192 244 305 353
#     4  10  20  32  55  88 119 155 199 247 302 360
#     4  10  20  44  65  89 118 160 213 244 308 350
#     4  10  24  40  63  85 128 166 199 256 292 366
#     4  10  21  38  61  87 121 157 202 256 293 359
#     4  10  21  38  60  90 118 161 197 252 308 348
#
# _framework density 20.206952999999999
#
# number of rings (size 3 to 8) (size 9 to 14) (size 15 to 20)
#    0.667    1.333    2.222    1.000    3.111    1.778 
#    0.000    5.556    0.000    5.333    0.000    0.000 
#    0.000    0.000    0.000    0.000    0.000    0.000 
#
# Total GULP energy -100383.285375 kJ/mol
# GULP energy per Si atom -5576.849187 kJ/mol
# Density = 2.016096 g / cm^3
# Si number density = 20.206953 Si / 1000 Ang^3
#
#
#
# Elastic Constant Matrix: (Units=GPa)
#
#
# Indices 1 2 3 4 5 6 
#
# 1 150.8757 74.2877 7.9780 0.0000 13.3866 0.0000
# 2 74.2877 186.3005 24.4132 0.0000 10.5572 0.0000
# 3 7.9780 24.4132 31.4661 0.0000 13.5522 0.0000
# 4 0.0000 0.0000 0.0000 10.5522 0.0000 6.1050
# 5 13.3866 10.5572 13.5522 0.0000 31.5078 0.0000
# 6 0.0000 0.0000 0.0000 6.1050 0.0000 21.1518
#
#
#
# Elastic Compliance Matrix: (Units=1/GPa)
#
#
# Indices 1 2 3 4 5 6 
#
# 1 0.008525 -0.003468 0.001950 0.000000 -0.003299 0.000000
# 2 -0.003468 0.007386 -0.005425 0.000000 0.001332 0.000000
# 3 0.001950 -0.005425 0.043042 0.000000 -0.017524 0.000000
# 4 0.000000 0.000000 0.000000 0.113764 0.000000 -0.032836
# 5 -0.003299 0.001332 -0.017524 0.000000 0.040231 0.000000
# 6 0.000000 0.000000 0.000000 -0.032836 0.000000 0.056755
#
#
# Mechanical properties :
#
#
# Convention : Reuss Voigt Hill
#
# Bulk Modulus (GPa) = 22.18895 64.66667 43.42781
# Shear Modulus (GPa) = 16.74418 30.10658 23.42538
#
# Velocity S-wave (km/s) = 2.88172 3.86413 3.40850
# Velocity P-wave (km/s) = 4.69863 7.20973 6.08512
#
# Compressibility (1/GPa) = 0.04506747
#
# Stress axis : x y z
#
# Youngs Moduli (GPa) = 117.30052 135.39232 23.23302
#
# Poissons Ratio (x) = 0.46954 -0.04530
# Poissons Ratio (y) = 0.40680 0.12603
# Poissons Ratio (z) = -0.22873 0.73448
#
# Static dielectric constant tensor:
#      x y z
#    x 1.667400 0.000000 -0.034760 
#    y 0.000000 1.765390 0.000000 
#    z -0.034760 0.000000 1.759730 
# 
# From -- ./inp_files/320429.got.cif
#   From: 2010.05.17/outbox.cif.g08.bks.cpg/sg12_161_cif.got.tgz:320429.got - 2010.06.03 13:09:07.
