data_PCOD9191017
_publ_section_title
;
Structure prediction by ZEFSAII (Michael W. Deem and Ramdas Pophale) SiO2 
 PCOD9191017
Probable space group: C 2/M
;
_chemical_formula_sum "Si O2"
_cell_formula_units_Z 48
_cell_length_a 11.814783
_cell_length_b 18.021417
_cell_length_c 12.440821
_cell_angle_alpha 90.000000
_cell_angle_beta 67.136894
_cell_angle_gamma 90.000000
_cell_volume 2440.780916
_symmetry_space_group_name_H-M "C 2/M"
_symmetry_group_IT_number 12
_symmetry_cell_setting 'monoclinic'
loop_
_space_group_symop_operation_xyz
x,y,z
-x,y,-z
-x,-y,-z
x,-y,z
1/2+x,1/2+y,z
1/2-x,1/2+y,-z
1/2-x,1/2-y,-z
1/2+x,1/2-y,z
loop_
_atom_site_type_symbol
_atom_site_label
_atom_site_fract_x
_atom_site_fract_y
_atom_site_fract_z
Si Si1 0.304065 0.412984 0.517793
Si Si2 0.488376 0.581533 0.725972
Si Si3 0.313773 0.693857 0.713276
Si Si4 0.198658 0.081892 0.829815
Si Si5 0.353110 0.732974 0.054022
Si Si6 0.871697 0.350809 0.597819
O O1 0.267993 0.500000 0.537279
O O2 0.438950 0.412563 0.413972
O O3 0.290319 0.369814 0.634087
O O4 0.224353 0.367596 0.460938
O O5 0.426980 0.500000 0.751566
O O6 0.402812 0.652764 0.764635
O O7 0.591469 0.581861 0.779617
O O8 0.198510 0.726588 0.819531
O O9 0.373687 0.764703 0.632050
O O10 0.162269 0.144879 0.925446
O O11 0.322149 0.104386 0.719595
O O12 0.208795 0.000000 0.872569
O O13 0.500000 0.749890 0.000000
O O14 0.250000 0.750000 0.000000
O O15 0.000000 0.374219 0.500000
#
# Coordination Sequence:
#
# PCOD9191017 Si02
#       6
#     8   8   8   8   8   8
#     4  10  20  33  52  82 117 149 184 227 276 343
#     4   9  17  33  58  89 120 147 185 233 281 346
#     4  11  21  34  57  82 111 148 189 235 293 349
#     4   9  20  38  61  86 111 148 195 238 283 343
#     4  11  25  44  63  85 114 150 200 258 302 336
#     4  10  20  32  51  81 118 151 179 217 277 356
#
# _framework density 19.665838000000001
#
# number of rings (size 3 to 8) (size 9 to 14) (size 15 to 20)
#    0.000    2.000    0.000    5.000    0.000    8.333 
#    0.000    1.667    0.000    3.500    0.000    0.000 
#    0.000    0.000    0.000    0.000    0.000    0.000 
#
# Total GULP energy -133817.310351 kJ/mol
# GULP energy per Si atom -5575.721265 kJ/mol
# Density = 1.962108 g / cm^3
# Si number density = 19.665838 Si / 1000 Ang^3
#
#
#
# Elastic Constant Matrix: (Units=GPa)
#
#
# Indices 1 2 3 4 5 6 
#
# 1 67.7456 30.7280 18.5968 0.0000 -12.0563 0.0000
# 2 30.7280 138.8936 15.8349 0.0000 -0.4419 0.0000
# 3 18.5968 15.8349 44.8101 0.0000 -2.7152 0.0000
# 4 0.0000 0.0000 0.0000 122.8248 0.0000 -59.6970
# 5 -12.0563 -0.4419 -2.7152 0.0000 32.4284 0.0000
# 6 0.0000 0.0000 0.0000 -59.6970 0.0000 69.9790
#
#
#
# Elastic Compliance Matrix: (Units=1/GPa)
#
#
# Indices 1 2 3 4 5 6 
#
# 1 0.019274 -0.003518 -0.006357 0.000000 0.006586 0.000000
# 2 -0.003518 0.008145 -0.001498 0.000000 -0.001323 0.000000
# 3 -0.006357 -0.001498 0.025469 0.000000 -0.000251 0.000000
# 4 0.000000 0.000000 0.000000 0.013908 0.000000 0.011865
# 5 0.006586 -0.001323 -0.000251 0.000000 0.033246 0.000000
# 6 0.000000 0.000000 0.000000 0.011865 0.000000 0.024412
#
#
# Mechanical properties :
#
#
# Convention : Reuss Voigt Hill
#
# Bulk Modulus (GPa) = 33.17728 42.41874 37.79801
# Shear Modulus (GPa) = 31.79712 57.46575 44.63143
#
# Velocity S-wave (km/s) = 4.02540 5.41152 4.76909
# Velocity P-wave (km/s) = 6.20582 7.78862 7.04183
#
# Compressibility (1/GPa) = 0.03014111
#
# Stress axis : x y z
#
# Youngs Moduli (GPa) = 51.88353 122.77866 39.26395
#
# Poissons Ratio (x) = 0.43199 0.24958
# Poissons Ratio (y) = 0.18255 0.05882
# Poissons Ratio (z) = 0.32980 0.18394
#
# Static dielectric constant tensor:
#      x y z
#    x 1.763420 0.000000 0.009190 
#    y 0.000000 1.690340 0.000000 
#    z 0.009190 0.000000 1.708950 
# 
# From -- ./inp_files/131636.got.cif
#   From: 2010.05.17/outbox.cif.g08.bks.cpg/sg12_66_cif.got.tgz:131636.got - 2010.06.03 13:09:07.
