data_PCOD9191246
_publ_section_title
;
Structure prediction by ZEFSAII (Michael W. Deem and Ramdas Pophale) SiO2 
 PCOD9191246
Probable space group: C 2/M
;
_chemical_formula_sum "Si O2"
_cell_formula_units_Z 56
_cell_length_a 27.846599
_cell_length_b 13.931967
_cell_length_c 13.992794
_cell_angle_alpha 90.000000
_cell_angle_beta 142.500767
_cell_angle_gamma 90.000000
_cell_volume 3304.673742
_symmetry_space_group_name_H-M "C 2/M"
_symmetry_group_IT_number 12
_symmetry_cell_setting 'monoclinic'
loop_
_space_group_symop_operation_xyz
x,y,z
-x,y,-z
-x,-y,-z
x,-y,z
1/2+x,1/2+y,z
1/2-x,1/2+y,-z
1/2-x,1/2-y,-z
1/2+x,1/2-y,z
loop_
_atom_site_type_symbol
_atom_site_label
_atom_site_fract_x
_atom_site_fract_y
_atom_site_fract_z
Si Si1 0.099769 0.884338 0.064275
Si Si2 0.379842 0.727502 0.502730
Si Si3 0.644824 0.385723 0.731520
Si Si4 0.692378 0.886782 0.908176
Si Si5 0.539884 0.233119 0.661239
Si Si6 0.733288 0.885533 0.750055
Si Si7 0.079660 0.116003 0.251511
O O1 0.176189 0.854903 0.125331
O O2 0.107259 0.858392 0.187925
O O3 0.098188 0.000000 0.059539
O O4 0.013318 0.856154 0.891146
O O5 0.361064 0.657252 0.383794
O O6 0.470217 0.758307 0.626440
O O7 0.323660 0.819451 0.403047
O O8 0.374789 0.671184 0.593743
O O9 0.635957 0.500000 0.718517
O O10 0.577646 0.334921 0.689284
O O11 0.729723 0.359507 0.910097
O O12 0.613560 0.830261 0.809099
O O13 0.709795 0.871257 0.823309
O O14 0.680085 0.000000 0.903083
O O15 0.500000 0.193389 0.500000
O O16 0.726241 0.000000 0.718283
O O17 0.085552 0.000000 0.272037
#
# Coordination Sequence:
#
# PCOD9191246 Si02
#       7
#     8   8   8   8   8   8   8
#     4   8  17  34  55  76  99 124 160 207 248 296
#     4  11  22  31  50  75 101 134 163 201 246 295
#     4  10  21  34  47  69 100 133 167 202 243 292
#     4  10  20  34  52  69  97 137 171 204 241 282
#     4  10  20  33  46  70  99 130 167 205 237 282
#     4  10  20  34  51  73  97 131 171 205 242 285
#     4   9  18  34  54  78 102 125 157 202 255 300
#
# _framework density 16.945696000000002
#
# number of rings (size 3 to 8) (size 9 to 14) (size 15 to 20)
#    0.000    2.286    2.857    1.714    2.000    4.571 
#    0.000    0.000    0.000    0.000    0.000    2.000 
#    0.000    0.000    0.000    0.000    0.000    0.000 
#
# Total GULP energy -156168.759861 kJ/mol
# GULP energy per Si atom -5577.455709 kJ/mol
# Density = 1.690713 g / cm^3
# Si number density = 16.945696 Si / 1000 Ang^3
#
#
#
# Elastic Constant Matrix: (Units=GPa)
#
#
# Indices 1 2 3 4 5 6 
#
# 1 19.1658 6.3259 18.7012 0.0000 1.5382 0.0000
# 2 6.3259 54.7024 30.0006 0.0000 1.3793 0.0000
# 3 18.7012 30.0006 78.8681 0.0000 6.4652 0.0000
# 4 0.0000 0.0000 0.0000 34.9463 0.0000 -1.9202
# 5 1.5382 1.3793 6.4652 0.0000 24.4547 0.0000
# 6 0.0000 0.0000 0.0000 -1.9202 0.0000 9.9067
#
#
#
# Elastic Compliance Matrix: (Units=1/GPa)
#
#
# Indices 1 2 3 4 5 6 
#
# 1 0.067949 0.001238 -0.016586 0.000000 0.000041 0.000000
# 2 0.001238 0.023148 -0.009184 0.000000 0.001045 0.000000
# 3 -0.016586 -0.009184 0.020421 0.000000 -0.003837 0.000000
# 4 0.000000 0.000000 0.000000 0.028923 0.000000 0.005606
# 5 0.000041 0.001045 -0.003837 0.000000 0.041845 0.000000
# 6 0.000000 0.000000 0.000000 0.005606 0.000000 0.102028
#
#
# Mechanical properties :
#
#
# Convention : Reuss Voigt Hill
#
# Bulk Modulus (GPa) = 16.01244 29.19910 22.60577
# Shear Modulus (GPa) = 14.11641 20.37543 17.24592
#
# Velocity S-wave (km/s) = 2.88937 3.47132 3.19363
# Velocity P-wave (km/s) = 4.53884 5.77366 5.19308
#
# Compressibility (1/GPa) = 0.06245145
#
# Stress axis : x y z
#
# Youngs Moduli (GPa) = 14.71699 43.19960 48.97019
#
# Poissons Ratio (x) = -0.05346 0.81223
# Poissons Ratio (y) = -0.01821 0.44977
# Poissons Ratio (z) = 0.24410 0.39677
#
# Static dielectric constant tensor:
#      x y z
#    x 1.563980 0.000000 0.005690 
#    y 0.000000 1.573800 0.000000 
#    z 0.005690 0.000000 1.581750 
# 
# From -- ./inp_files/251203.got.cif
#   From: 2010.05.17/outbox.cif.g08.bks.cpg/sg12_126_cif.got.tgz:251203.got - 2010.06.03 13:09:07.
