data_PCOD9191113
_publ_section_title
;
Structure prediction by ZEFSAII (Michael W. Deem and Ramdas Pophale) SiO2 
 PCOD9191113
Probable space group: C 2/M
;
_chemical_formula_sum "Si O2"
_cell_formula_units_Z 48
_cell_length_a 9.434278
_cell_length_b 15.197635
_cell_length_c 21.660253
_cell_angle_alpha 90.000000
_cell_angle_beta 40.140901
_cell_angle_gamma 90.000000
_cell_volume 2002.098015
_symmetry_space_group_name_H-M "C 2/M"
_symmetry_group_IT_number 12
_symmetry_cell_setting 'monoclinic'
loop_
_space_group_symop_operation_xyz
x,y,z
-x,y,-z
-x,-y,-z
x,-y,z
1/2+x,1/2+y,z
1/2-x,1/2+y,-z
1/2-x,1/2-y,-z
1/2+x,1/2-y,z
loop_
_atom_site_type_symbol
_atom_site_label
_atom_site_fract_x
_atom_site_fract_y
_atom_site_fract_z
Si Si1 0.945003 0.000000 0.256232
Si Si2 0.095606 0.696675 0.700220
Si Si3 0.784174 0.647483 0.995997
Si Si4 0.433858 0.000000 0.283199
Si Si5 0.536017 0.807954 0.577576
Si Si6 0.450442 0.500000 0.104234
Si Si7 0.938070 0.500000 0.430743
Si Si8 0.731236 0.343752 0.158552
O O1 0.061642 0.913449 0.241362
O O2 0.949735 0.000000 0.179688
O O3 0.696289 0.000000 0.355533
O O4 0.315705 0.758157 0.626928
O O5 0.001026 0.682218 0.662759
O O6 0.148939 0.598322 0.707613
O O7 0.892417 0.749947 0.798869
O O8 0.032965 0.637443 0.889623
O O9 0.750000 0.750000 0.000000
O O10 0.593679 0.584059 0.034833
O O11 0.772783 0.632978 0.073366
O O12 0.394259 0.000000 0.371234
O O13 0.691716 0.000000 0.177269
O O14 0.750000 0.750000 0.500000
O O15 0.617343 0.903426 0.526175
#
# Coordination Sequence:
#
# PCOD9191113 Si02
#       8
#     4   8   8   4   8   4   4   8
#     4   9  15  32  56  83 111 148 207 245 298 354
#     4  11  23  41  67  91 125 165 207 253 311 372
#     4  10  20  32  53  83 118 156 206 253 299 352
#     4   9  20  36  61  89 121 168 205 240 306 387
#     4  11  24  43  67  96 124 160 206 258 312 374
#     4   9  17  32  55  81 119 162 203 248 297 370
#     4   9  18  38  63  88 119 164 199 241 300 386
#     4  10  20  33  56  85 116 156 206 258 296 354
#
# _framework density 23.974851999999998
#
# number of rings (size 3 to 8) (size 9 to 14) (size 15 to 20)
#    0.000    2.000    1.667    2.000    4.667    2.667 
#    0.000    7.500    0.000    3.000    0.000    0.000 
#    0.000    0.000    0.000    0.000    0.000    0.000 
#
# Total GULP energy -133802.917759 kJ/mol
# GULP energy per Si atom -5575.121573 kJ/mol
# Density = 2.392028 g / cm^3
# Si number density = 23.974852 Si / 1000 Ang^3
#
#
#
# Elastic Constant Matrix: (Units=GPa)
#
#
# Indices 1 2 3 4 5 6 
#
# 1 48.9784 -2.2109 -14.7211 -0.0008 12.1780 0.0001
# 2 -2.2109 189.4916 21.6951 -0.0004 -16.0428 0.0004
# 3 -14.7211 21.6951 38.7618 -0.0034 -8.3572 0.0020
# 4 -0.0008 -0.0004 -0.0034 37.6404 0.0023 -8.7653
# 5 12.1780 -16.0428 -8.3572 0.0023 23.8829 -0.0001
# 6 0.0001 0.0004 0.0020 -8.7653 -0.0001 17.7609
#
#
#
# Elastic Compliance Matrix: (Units=1/GPa)
#
#
# Indices 1 2 3 4 5 6 
#
# 1 0.025606 -0.001592 0.008188 0.000002 -0.011261 0.000000
# 2 -0.001592 0.005930 -0.003126 0.000000 0.003701 0.000000
# 3 0.008188 -0.003126 0.031696 0.000002 0.004817 -0.000002
# 4 0.000002 0.000000 0.000002 0.030017 -0.000003 0.014814
# 5 -0.011261 0.003701 0.004817 -0.000003 0.051785 -0.000002
# 6 0.000000 0.000000 -0.000002 0.014814 -0.000002 0.063614
#
#
# Mechanical properties :
#
#
# Convention : Reuss Voigt Hill
#
# Bulk Modulus (GPa) = 14.25050 31.86200 23.05625
# Shear Modulus (GPa) = 22.21248 34.02142 28.11695
#
# Velocity S-wave (km/s) = 3.04713 3.77111 3.42829
# Velocity P-wave (km/s) = 4.28216 5.68158 5.03076
#
# Compressibility (1/GPa) = 0.07017295
#
# Stress axis : x y z
#
# Youngs Moduli (GPa) = 39.05299 168.63617 31.54954
#
# Poissons Ratio (x) = 0.26848 -0.25833
# Poissons Ratio (y) = 0.06218 0.09861
# Poissons Ratio (z) = -0.31977 0.52709
#
# Static dielectric constant tensor:
#      x y z
#    x 1.842070 -0.000020 -0.029980 
#    y -0.000020 1.928240 0.000020 
#    z -0.029980 0.000020 1.921040 
# 
# From -- ./inp_files/374064.got.cif
#   From: 2010.05.17/outbox.cif.g08.bks.cpg/sg12_188_cif.got.tgz:374064.got - 2010.06.03 13:09:07.
