data_PCOD9191731
_publ_section_title
;
Structure prediction by ZEFSAII (Michael W. Deem and Ramdas Pophale) SiO2 
 PCOD9191731
Probable space group: C 2/M
;
_chemical_formula_sum "Si O2"
_cell_formula_units_Z 56
_cell_length_a 8.794177
_cell_length_b 20.089780
_cell_length_c 31.971239
_cell_angle_alpha 90.000000
_cell_angle_beta 145.608303
_cell_angle_gamma 90.000000
_cell_volume 3190.516572
_symmetry_space_group_name_H-M "C 2/M"
_symmetry_group_IT_number 12
_symmetry_cell_setting 'monoclinic'
loop_
_space_group_symop_operation_xyz
x,y,z
-x,y,-z
-x,-y,-z
x,-y,z
1/2+x,1/2+y,z
1/2-x,1/2+y,-z
1/2-x,1/2-y,-z
1/2+x,1/2-y,z
loop_
_atom_site_type_symbol
_atom_site_label
_atom_site_fract_x
_atom_site_fract_y
_atom_site_fract_z
Si Si1 0.288059 0.821904 0.702079
Si Si2 0.575586 0.678096 0.297920
Si Si3 0.930516 0.922276 0.415842
Si Si4 0.064562 0.677883 0.127072
Si Si5 0.564534 0.922276 0.415840
Si Si6 0.302126 0.322120 0.872926
Si Si7 0.685497 0.576519 0.000000
O O1 0.297975 0.750000 0.682659
O O2 0.179042 0.876603 0.645648
O O3 0.589379 0.836011 0.787593
O O4 0.097195 0.818837 0.699066
O O5 0.363815 0.663991 0.212405
O O6 0.805151 0.623397 0.354349
O O7 0.733660 0.916683 0.411219
O O8 0.227554 0.903424 0.500001
O O9 0.937991 0.000000 0.405359
O O10 0.068310 0.750002 0.106104
O O11 0.870594 0.682421 0.123532
O O12 0.947256 0.619475 0.071675
O O13 0.494161 0.000000 0.405356
O O14 0.517197 0.380529 0.928322
O O15 0.738049 0.500000 0.000002
O O16 0.500000 0.574677 0.000000
#
# Coordination Sequence:
#
# PCOD9191731 Si02
#       7
#     8   8   8   8   8   8   8
#     4  10  20  33  51  76 103 131 167 209 250 294
#     4  10  20  33  51  76 103 131 167 209 250 294
#     4   9  19  36  55  74  99 132 167 203 248 301
#     4   9  18  32  51  73  97 129 165 201 242 289
#     4   9  19  36  55  74  99 132 167 203 248 301
#     4   9  18  32  51  73  97 129 165 201 242 289
#     4   9  17  30  49  73 100 129 162 200 242 287
#
# _framework density 17.552015999999998
#
# number of rings (size 3 to 8) (size 9 to 14) (size 15 to 20)
#    0.000    2.714    0.000    2.143    0.000    4.000 
#    0.000    4.286    0.000    1.714    0.000    0.000 
#    0.000    0.000    0.000    0.000    0.000    0.000 
#
# Total GULP energy -156165.374262 kJ/mol
# GULP energy per Si atom -5577.334795 kJ/mol
# Density = 1.751207 g / cm^3
# Si number density = 17.552016 Si / 1000 Ang^3
#
#
#
# Elastic Constant Matrix: (Units=GPa)
#
#
# Indices 1 2 3 4 5 6 
#
# 1 16.0968 35.8274 34.6823 0.0045 1.5695 0.0001
# 2 35.8274 152.9871 116.9760 -0.0001 2.4695 -0.0001
# 3 34.6823 116.9760 127.4736 -0.0074 1.8206 0.0002
# 4 0.0045 -0.0001 -0.0074 94.2870 -0.0006 1.9419
# 5 1.5695 2.4695 1.8206 -0.0006 16.4903 0.0001
# 6 0.0001 -0.0001 0.0002 1.9419 0.0001 30.4159
#
#
#
# Elastic Compliance Matrix: (Units=1/GPa)
#
#
# Indices 1 2 3 4 5 6 
#
# 1 0.160037 -0.013858 -0.030686 -0.000010 -0.009769 0.000001
# 2 -0.013858 0.023127 -0.017449 -0.000001 -0.000218 0.000000
# 3 -0.030686 -0.017449 0.032178 0.000004 0.001981 0.000000
# 4 -0.000010 -0.000001 0.000004 0.010620 0.000001 -0.000678
# 5 -0.009769 -0.000218 0.001981 0.000001 0.061385 0.000000
# 6 0.000001 0.000000 0.000000 -0.000678 0.000000 0.032921
#
#
# Mechanical properties :
#
#
# Convention : Reuss Voigt Hill
#
# Bulk Modulus (GPa) = 10.94622 74.61433 42.78028
# Shear Modulus (GPa) = 10.53286 35.51009 23.02148
#
# Velocity S-wave (km/s) = 2.45234 4.50281 3.62555
# Velocity P-wave (km/s) = 3.77738 8.34484 6.47707
#
# Compressibility (1/GPa) = 0.09135576
#
# Stress axis : x y z
#
# Youngs Moduli (GPa) = 6.24857 43.23911 31.07761
#
# Poissons Ratio (x) = 0.59920 0.95364
# Poissons Ratio (y) = 0.08659 0.54228
# Poissons Ratio (z) = 0.19174 0.75449
#
# Static dielectric constant tensor:
#      x y z
#    x 1.589290 0.000000 0.000360 
#    y 0.000000 1.565100 0.000000 
#    z 0.000360 0.000000 1.601060 
# 
# From -- ./inp_files/373187.got.cif
#   From: 2010.05.17/outbox.cif.g08.bks.cpg/sg12_187_cif.got.tgz:373187.got - 2010.06.03 13:09:07.
