data_PCOD9191507
_publ_section_title
;
Structure prediction by ZEFSAII (Michael W. Deem and Ramdas Pophale) SiO2 
 PCOD9191507
Probable space group: C 2/M
;
_chemical_formula_sum "Si O2"
_cell_formula_units_Z 56
_cell_length_a 21.982425
_cell_length_b 7.346583
_cell_length_c 27.755235
_cell_angle_alpha 90.000000
_cell_angle_beta 144.693134
_cell_angle_gamma 90.000000
_cell_volume 2590.599280
_symmetry_space_group_name_H-M "C 2/M"
_symmetry_group_IT_number 12
_symmetry_cell_setting 'monoclinic'
loop_
_space_group_symop_operation_xyz
x,y,z
-x,y,-z
-x,-y,-z
x,-y,z
1/2+x,1/2+y,z
1/2-x,1/2+y,-z
1/2-x,1/2-y,-z
1/2+x,1/2-y,z
loop_
_atom_site_type_symbol
_atom_site_label
_atom_site_fract_x
_atom_site_fract_y
_atom_site_fract_z
Si Si1 0.880116 0.721890 0.911940
Si Si2 0.736989 0.278789 0.730639
Si Si3 0.225527 0.720235 0.057946
Si Si4 0.420682 0.210418 0.122197
Si Si5 0.289304 0.717324 0.471308
Si Si6 0.349956 0.777667 0.705687
Si Si7 0.504153 0.277833 0.559484
O O1 0.884226 0.500000 0.912689
O O2 0.820210 0.782333 0.824939
O O3 0.809604 0.775053 0.912020
O O4 0.000000 0.781225 0.000000
O O5 0.737082 0.500000 0.733063
O O6 0.778540 0.227658 0.704891
O O7 0.615310 0.221392 0.654948
O O8 0.226297 0.500000 0.056758
O O9 0.339225 0.781184 0.113507
O O10 0.141094 0.787558 0.963761
O O11 0.532428 0.288852 0.208495
O O12 0.440482 0.000000 0.122180
O O13 0.295008 0.500000 0.469969
O O14 0.250000 0.750000 0.500000
O O15 0.202173 0.785069 0.377274
O O16 0.403363 0.782799 0.525733
O O17 0.352704 0.000000 0.705650
O O18 0.500000 0.223576 0.500000
O O19 0.503454 0.500000 0.558331
#
# Coordination Sequence:
#
# PCOD9191507 Si02
#       7
#     8   8   8   8   8   8   8
#     4   9  16  25  39  63  93 117 143 188 238 275
#     4   9  15  24  43  68  90 116 152 195 238 274
#     4   9  17  29  44  66  95 122 150 189 234 275
#     4   9  17  29  46  65  89 125 160 185 220 277
#     4  10  20  33  50  73 100 126 156 199 247 290
#     4   9  16  28  46  68  92 121 159 195 229 278
#     4   9  15  27  46  68  91 116 154 202 238 271
#
# _framework density 21.616619
#
# number of rings (size 3 to 8) (size 9 to 14) (size 15 to 20)
#    0.000    2.857    1.429    0.857    0.000    4.571 
#    0.000    2.143    0.000    0.857    0.000    2.000 
#    0.000    0.000    0.000    0.000    0.000    0.000 
#
# Total GULP energy -156280.341983 kJ/mol
# GULP energy per Si atom -5581.440785 kJ/mol
# Density = 2.156742 g / cm^3
# Si number density = 21.616619 Si / 1000 Ang^3
#
#
#
# Elastic Constant Matrix: (Units=GPa)
#
#
# Indices 1 2 3 4 5 6 
#
# 1 131.2384 -5.8937 82.7390 0.0017 -1.5495 -0.0015
# 2 -5.8937 79.3435 4.4589 0.0031 1.4671 -0.0039
# 3 82.7390 4.4589 153.6832 -0.0025 19.9984 0.0013
# 4 0.0017 0.0031 -0.0025 109.1685 -0.0004 -77.4957
# 5 -1.5495 1.4671 19.9984 -0.0004 37.9846 0.0000
# 6 -0.0015 -0.0039 0.0013 -77.4957 0.0000 65.0175
#
#
#
# Elastic Compliance Matrix: (Units=1/GPa)
#
#
# Indices 1 2 3 4 5 6 
#
# 1 0.012255 0.001236 -0.007185 0.000000 0.004235 0.000000
# 2 0.001236 0.012752 -0.001050 0.000001 0.000110 0.000002
# 3 -0.007185 -0.001050 0.011206 0.000000 -0.006152 0.000000
# 4 0.000000 0.000001 0.000000 0.059524 0.000000 0.070948
# 5 0.004235 0.000110 -0.006152 0.000000 0.029734 0.000001
# 6 0.000000 0.000002 0.000000 0.070948 0.000001 0.099945
#
#
# Mechanical properties :
#
#
# Convention : Reuss Voigt Hill
#
# Bulk Modulus (GPa) = 45.01288 58.54151 51.77720
# Shear Modulus (GPa) = 20.25782 61.29819 40.77800
#
# Velocity S-wave (km/s) = 3.06460 5.33090 4.34800
# Velocity P-wave (km/s) = 5.77848 8.06423 7.01508
#
# Compressibility (1/GPa) = 0.02221586
#
# Stress axis : x y z
#
# Youngs Moduli (GPa) = 81.60150 78.41807 89.23886
#
# Poissons Ratio (x) = -0.09690 0.64114
# Poissons Ratio (y) = -0.10084 0.09367
# Poissons Ratio (z) = 0.58627 0.08231
#
# Static dielectric constant tensor:
#      x y z
#    x 1.740160 0.000000 0.007820 
#    y 0.000000 1.865830 0.000000 
#    z 0.007820 0.000000 1.769700 
# 
# From -- ./inp_files/343118.got.cif
#   From: 2010.05.17/outbox.cif.g08.bks.cpg/sg12_172_cif.got.tgz:343118.got - 2010.06.03 13:09:07.
