data_PCOD9191217
_publ_section_title
;
Structure prediction by ZEFSAII (Michael W. Deem and Ramdas Pophale) SiO2 
 PCOD9191217
Probable space group: C 2/M
;
_chemical_formula_sum "Si O2"
_cell_formula_units_Z 52
_cell_length_a 15.393545
_cell_length_b 12.220850
_cell_length_c 20.620292
_cell_angle_alpha 90.000000
_cell_angle_beta 35.598088
_cell_angle_gamma 90.000000
_cell_volume 2258.028207
_symmetry_space_group_name_H-M "C 2/M"
_symmetry_group_IT_number 12
_symmetry_cell_setting 'monoclinic'
loop_
_space_group_symop_operation_xyz
x,y,z
-x,y,-z
-x,-y,-z
x,-y,z
1/2+x,1/2+y,z
1/2-x,1/2+y,-z
1/2-x,1/2-y,-z
1/2+x,1/2-y,z
loop_
_atom_site_type_symbol
_atom_site_label
_atom_site_fract_x
_atom_site_fract_y
_atom_site_fract_z
Si Si1 0.126485 0.721042 0.170447
Si Si2 0.340974 0.758067 0.557780
Si Si3 0.979117 0.874704 0.360693
Si Si4 0.373130 0.000000 0.521142
Si Si5 0.208153 0.376107 0.751581
Si Si6 0.100747 0.500000 0.266878
Si Si7 0.550005 0.736348 0.069877
Si Si8 0.066224 0.000000 0.886988
O O1 0.028085 0.811575 0.266493
O O2 0.100061 0.607404 0.223195
O O3 0.091209 0.718975 0.115948
O O4 0.304357 0.742750 0.062978
O O5 0.500000 0.761901 0.500000
O O6 0.369794 0.695248 0.473040
O O7 0.292391 0.883491 0.577319
O O8 0.234297 0.689171 0.668934
O O9 0.133844 0.878316 0.307890
O O10 0.929137 0.000000 0.382196
O O11 0.500000 0.000000 0.500000
O O12 0.462400 0.000000 0.399491
O O13 0.160762 0.500000 0.767543
O O14 0.088025 0.311143 0.866412
O O15 0.254523 0.500000 0.215511
O O16 0.494778 0.610959 0.107654
O O17 0.000000 0.000000 0.000000
#
# Coordination Sequence:
#
# PCOD9191217 Si02
#       8
#     8   8   8   4   8   4   8   4
#     4  11  24  42  62  91 128 175 213 267 330 400
#     4   9  18  34  58  91 126 159 209 267 329 381
#     4  10  20  36  63  87 121 164 211 258 318 392
#     4  10  20  32  62 102 126 162 213 290 327 380
#     4  10  22  39  62  93 125 168 212 270 323 387
#     4  12  22  42  72  96 132 176 231 269 340 396
#     4  11  26  41  63  91 133 166 218 267 330 386
#     4  12  24  42  70  98 123 169 224 285 326 379
#
# _framework density 23.028941
#
# number of rings (size 3 to 8) (size 9 to 14) (size 15 to 20)
#    0.000    1.538    3.077    1.385    6.462    2.462 
#    0.000    2.308    0.000    0.000    0.000    0.000 
#    0.000    0.000    0.000    0.000    0.000    0.000 
#
# Total GULP energy -145584.069516 kJ/mol
# GULP energy per Si atom -5599.387289 kJ/mol
# Density = 2.297653 g / cm^3
# Si number density = 23.028941 Si / 1000 Ang^3
#
#
#
# Elastic Constant Matrix: (Units=GPa)
#
#
# Indices 1 2 3 4 5 6 
#
# 1 66.0093 36.6618 33.8140 -0.0005 3.7704 -0.0003
# 2 36.6618 124.5162 64.7146 -0.0007 -3.5949 -0.0008
# 3 33.8140 64.7146 87.7991 -0.0015 13.7042 -0.0008
# 4 -0.0005 -0.0007 -0.0015 -30.2561 0.0007 -63.8581
# 5 3.7704 -3.5949 13.7042 0.0007 37.0275 0.0005
# 6 -0.0003 -0.0008 -0.0008 -63.8581 0.0005 -46.1849
#
#
#
# Elastic Compliance Matrix: (Units=1/GPa)
#
#
# Indices 1 2 3 4 5 6 
#
# 1 0.019538 -0.003048 -0.005223 0.000000 -0.000352 0.000000
# 2 -0.003048 0.014473 -0.010360 0.000000 0.005550 0.000000
# 3 -0.005223 -0.010360 0.022406 0.000000 -0.008767 -0.000001
# 4 0.000000 0.000000 0.000000 0.017230 0.000000 -0.023823
# 5 -0.000352 0.005550 -0.008767 0.000000 0.030826 0.000001
# 6 0.000000 0.000000 -0.000001 -0.023823 0.000001 0.011288
#
#
# Mechanical properties :
#
#
# Convention : Reuss Voigt Hill
#
# Bulk Modulus (GPa) = 52.20753 60.96728 56.58741
# Shear Modulus (GPa) = 31.36593 1.65957 16.51275
#
# Velocity S-wave (km/s) = 3.69456 0.84983 2.68067
# Velocity P-wave (km/s) = 6.39682 5.24353 5.84867
#
# Compressibility (1/GPa) = 0.01915433
#
# Stress axis : x y z
#
# Youngs Moduli (GPa) = 51.18218 69.09238 44.63157
#
# Poissons Ratio (x) = 0.21062 0.23310
# Poissons Ratio (y) = 0.15603 0.46239
# Poissons Ratio (z) = 0.26731 0.71581
#
# Static dielectric constant tensor:
#      x y z
#    x 2.093020 0.000000 -0.034880 
#    y 0.000000 1.813430 0.000000 
#    z -0.034880 0.000000 1.815540 
# 
# From -- ./inp_files/315658.got.cif
#   From: 2010.05.17/outbox.cif.g08.bks.cpg/sg12_158_cif.got.tgz:315658.got - 2010.06.03 13:09:07.
