data_PCOD9191421
_publ_section_title
;
Structure prediction by ZEFSAII (Michael W. Deem and Ramdas Pophale) SiO2 
 PCOD9191421
Probable space group: C 2/M
;
_chemical_formula_sum "Si O2"
_cell_formula_units_Z 60
_cell_length_a 14.469324
_cell_length_b 28.560918
_cell_length_c 14.347861
_cell_angle_alpha 90.000000
_cell_angle_beta 150.242290
_cell_angle_gamma 90.000000
_cell_volume 2942.937257
_symmetry_space_group_name_H-M "C 2/M"
_symmetry_group_IT_number 12
_symmetry_cell_setting 'monoclinic'
loop_
_space_group_symop_operation_xyz
x,y,z
-x,y,-z
-x,-y,-z
x,-y,z
1/2+x,1/2+y,z
1/2-x,1/2+y,-z
1/2-x,1/2-y,-z
1/2+x,1/2-y,z
loop_
_atom_site_type_symbol
_atom_site_label
_atom_site_fract_x
_atom_site_fract_y
_atom_site_fract_z
Si Si1 0.662124 0.305971 0.766442
Si Si2 0.636641 0.555325 0.355363
Si Si3 0.586717 0.550919 0.662330
Si Si4 0.954573 0.391931 0.747317
Si Si5 0.000000 0.574205 0.000000
Si Si6 0.868816 0.872118 0.089136
Si Si7 0.556422 0.726310 0.941944
Si Si8 0.234824 0.299838 0.354744
O O1 0.655593 0.351489 0.825588
O O2 0.448667 0.292087 0.566328
O O3 0.757608 0.314588 0.749031
O O4 0.777345 0.264190 0.913549
O O5 0.648729 0.500000 0.339119
O O6 0.470259 0.562784 0.284536
O O7 0.819923 0.573200 0.570942
O O8 0.544875 0.595295 0.209610
O O9 0.500000 0.579495 0.500000
O O10 0.489536 0.500000 0.573594
O O11 0.804485 0.548487 0.841648
O O12 0.857207 0.340858 0.664450
O O13 0.970209 0.403089 0.871647
O O14 0.163083 0.392815 0.889103
O O15 0.893576 0.822876 0.057652
O O16 0.384847 0.752902 0.742742
O O17 0.500000 0.719828 0.000000
#
# Coordination Sequence:
#
# PCOD9191421 Si02
#       8
#     8   8   8   8   4   8   8   8
#     4  10  20  35  59  87 121 158 193 226 275 350
#     4  11  25  41  54  80 119 159 203 250 293 336
#     4  10  20  33  49  72 108 151 194 236 276 327
#     4  12  23  33  55  85 116 161 200 240 277 339
#     4  12  21  30  52  78 116 154 204 230 273 322
#     4  12  23  39  61  87 116 156 201 243 294 355
#     4  10  23  41  61  90 119 148 190 248 303 358
#     4  10  21  35  56  85 125 159 187 228 282 340
#
# _framework density 20.387794
#
# number of rings (size 3 to 8) (size 9 to 14) (size 15 to 20)
#    0.000    1.200    5.333    1.400    0.933    2.667 
#    0.000    0.000    0.000    0.400    0.000    0.933 
#    0.000    0.000    0.000    0.000    0.000    0.000 
#
# Total GULP energy -167063.471667 kJ/mol
# GULP energy per Si atom -5568.782389 kJ/mol
# Density = 2.034139 g / cm^3
# Si number density = 20.387794 Si / 1000 Ang^3
#
#
#
# Elastic Constant Matrix: (Units=GPa)
#
#
# Indices 1 2 3 4 5 6 
#
# 1 17.9014 10.8667 9.6139 -0.0001 8.7005 0.0000
# 2 10.8667 120.0652 43.6664 0.0001 13.2577 0.0001
# 3 9.6139 43.6664 117.1464 -0.0002 36.8049 -0.0001
# 4 -0.0001 0.0001 -0.0002 13.9186 -0.0002 -8.0200
# 5 8.7005 13.2577 36.8049 -0.0002 14.8494 -0.0001
# 6 0.0000 0.0001 -0.0001 -8.0200 -0.0001 -33.4520
#
#
#
# Elastic Compliance Matrix: (Units=1/GPa)
#
#
# Indices 1 2 3 4 5 6 
#
# 1 0.150045 -0.011689 0.074044 -0.000002 -0.260999 0.000001
# 2 -0.011689 0.010552 -0.009787 0.000000 0.021687 0.000000
# 3 0.074044 -0.009787 0.076789 -0.000002 -0.224970 0.000001
# 4 -0.000002 0.000000 -0.000002 0.063126 0.000005 -0.015134
# 5 -0.260999 0.021687 -0.224970 0.000005 0.758504 -0.000003
# 6 0.000001 0.000000 0.000001 -0.015134 -0.000003 -0.026265
#
#
# Mechanical properties :
#
#
# Convention : Reuss Voigt Hill
#
# Bulk Modulus (GPa) = 2.91955 42.60079 22.76017
# Shear Modulus (GPa) = 4.79943 11.79425 8.29684
#
# Velocity S-wave (km/s) = 1.53596 2.40780 2.01949
# Velocity P-wave (km/s) = 2.14026 5.35450 4.07746
#
# Compressibility (1/GPa) = 0.34251874
#
# Stress axis : x y z
#
# Youngs Moduli (GPa) = 6.66467 94.77176 13.02275
#
# Poissons Ratio (x) = 1.10782 -0.96425
# Poissons Ratio (y) = 0.07791 0.12746
# Poissons Ratio (z) = -0.49348 0.92757
#
# Static dielectric constant tensor:
#      x y z
#    x 2.024900 0.000000 -0.418180 
#    y 0.000000 1.790280 0.000000 
#    z -0.418180 0.000000 2.425430 
# 
# From -- ./inp_files/219254.got.cif
#   From: 2010.05.17/outbox.cif.g08.bks.cpg/sg12_110_cif.got.tgz:219254.got - 2010.06.03 13:09:07.
