data_PCOD9191241
_publ_section_title
;
Structure prediction by ZEFSAII (Michael W. Deem and Ramdas Pophale) SiO2 
 PCOD9191241
Probable space group: C 2/M
;
_chemical_formula_sum "Si O2"
_cell_formula_units_Z 64
_cell_length_a 25.523877
_cell_length_b 8.431927
_cell_length_c 24.498212
_cell_angle_alpha 90.000000
_cell_angle_beta 139.508386
_cell_angle_gamma 90.000000
_cell_volume 3423.559261
_symmetry_space_group_name_H-M "C 2/M"
_symmetry_group_IT_number 12
_symmetry_cell_setting 'monoclinic'
loop_
_space_group_symop_operation_xyz
x,y,z
-x,y,-z
-x,-y,-z
x,-y,z
1/2+x,1/2+y,z
1/2-x,1/2+y,-z
1/2-x,1/2-y,-z
1/2+x,1/2-y,z
loop_
_atom_site_type_symbol
_atom_site_label
_atom_site_fract_x
_atom_site_fract_y
_atom_site_fract_z
Si Si1 0.986587 0.312614 0.745143
Si Si2 0.795530 0.809438 0.706402
Si Si3 0.194959 0.809603 0.407447
Si Si4 0.264832 0.309993 0.230977
Si Si5 0.483111 0.689637 0.862719
Si Si6 0.252151 0.815361 0.061642
Si Si7 0.388603 0.316486 0.242445
Si Si8 0.875510 0.310231 0.963291
O O1 0.989968 0.500000 0.755254
O O2 0.011866 0.237359 0.823907
O O3 0.040837 0.266351 0.735873
O O4 0.895665 0.256537 0.661352
O O5 0.772458 0.761207 0.626677
O O6 0.742004 0.742468 0.712442
O O7 0.888980 0.760759 0.789475
O O8 0.793401 0.000000 0.707342
O O9 0.250000 0.750000 0.500000
O O10 0.190568 0.000000 0.405112
O O11 0.268408 0.500000 0.230365
O O12 0.345581 0.250583 0.263476
O O13 0.180742 0.263638 0.133133
O O14 0.487458 0.500000 0.870715
O O15 0.531667 0.766912 0.951682
O O16 0.312731 0.702591 0.142110
O O17 0.276408 0.000000 0.083818
O O18 0.250000 0.750000 0.000000
O O19 0.166526 0.788360 0.021643
O O20 0.410831 0.500000 0.268133
O O21 0.867217 0.500000 0.963283
#
# Coordination Sequence:
#
# PCOD9191241 Si02
#       8
#     8   8   8   8   8   8   8   8
#     4  11  21  34  55  83 110 141 176 217 267 318
#     4   9  20  36  55  78 107 138 173 214 262 315
#     4  10  21  39  62  90 116 140 167 206 258 315
#     4   9  20  35  52  73 102 142 186 223 263 310
#     4  10  20  34  50  73 104 141 181 227 276 320
#     4  11  20  30  44  64  92 131 176 224 272 317
#     4  10  20  35  51  72 103 139 177 220 262 311
#     4  10  20  33  46  67  98 136 182 229 269 312
#
# _framework density 18.693995999999999
#
# number of rings (size 3 to 8) (size 9 to 14) (size 15 to 20)
#    0.000    2.000    0.000    6.000    0.000    6.500 
#    0.000    2.500    0.000    0.750    0.000    5.250 
#    0.000    0.000    0.000    0.000    0.000    0.000 
#
# Total GULP energy -178378.681224 kJ/mol
# GULP energy per Si atom -5574.333788 kJ/mol
# Density = 1.865145 g / cm^3
# Si number density = 18.693996 Si / 1000 Ang^3
#
#
#
# Elastic Constant Matrix: (Units=GPa)
#
#
# Indices 1 2 3 4 5 6 
#
# 1 101.8440 11.1131 29.0513 0.0000 -25.7029 0.0000
# 2 11.1131 49.1881 7.2791 0.0000 -3.8024 0.0000
# 3 29.0513 7.2791 60.3932 0.0000 -9.9063 0.0000
# 4 0.0000 0.0000 0.0000 25.4435 0.0000 1.6841
# 5 -25.7029 -3.8024 -9.9063 0.0000 22.5132 0.0000
# 6 0.0000 0.0000 0.0000 1.6841 0.0000 26.8525
#
#
#
# Elastic Compliance Matrix: (Units=1/GPa)
#
#
# Indices 1 2 3 4 5 6 
#
# 1 0.015069 -0.001569 -0.004614 0.000000 0.014909 0.000000
# 2 -0.001569 0.021003 -0.001604 0.000000 0.001050 0.000000
# 3 -0.004614 -0.001604 0.019468 0.000000 0.003027 0.000000
# 4 0.000000 0.000000 0.000000 0.039467 0.000000 -0.002475
# 5 0.014909 0.001050 0.003027 0.000000 0.062949 0.000000
# 6 0.000000 0.000000 0.000000 -0.002475 0.000000 0.037396
#
#
# Mechanical properties :
#
#
# Convention : Reuss Voigt Hill
#
# Bulk Modulus (GPa) = 25.02232 34.03471 29.52851
# Shear Modulus (GPa) = 22.29675 25.89396 24.09535
#
# Velocity S-wave (km/s) = 3.45733 3.72580 3.59407
# Velocity P-wave (km/s) = 5.41773 6.06255 5.74918
#
# Compressibility (1/GPa) = 0.03996432
#
# Stress axis : x y z
#
# Youngs Moduli (GPa) = 66.36169 47.61169 51.36726
#
# Poissons Ratio (x) = 0.07471 0.23701
# Poissons Ratio (y) = 0.10414 0.08241
# Poissons Ratio (z) = 0.30620 0.07639
#
# Static dielectric constant tensor:
#      x y z
#    x 1.718800 0.000000 0.013560 
#    y 0.000000 1.652430 0.000000 
#    z 0.013560 0.000000 1.624080 
# 
# From -- ./inp_files/324221.got.cif
#   From: 2010.05.17/outbox.cif.g08.bks.cpg/sg12_163_cif.got.tgz:324221.got - 2010.06.03 13:09:07.
