data_PCOD9191146
_publ_section_title
;
Structure prediction by ZEFSAII (Michael W. Deem and Ramdas Pophale) SiO2 
 PCOD9191146
Probable space group: C 2/M
;
_chemical_formula_sum "Si O2"
_cell_formula_units_Z 48
_cell_length_a 19.765275
_cell_length_b 18.865370
_cell_length_c 15.300170
_cell_angle_alpha 90.000000
_cell_angle_beta 152.703053
_cell_angle_gamma 90.000000
_cell_volume 2616.378564
_symmetry_space_group_name_H-M "C 2/M"
_symmetry_group_IT_number 12
_symmetry_cell_setting 'monoclinic'
loop_
_space_group_symop_operation_xyz
x,y,z
-x,y,-z
-x,-y,-z
x,-y,z
1/2+x,1/2+y,z
1/2-x,1/2+y,-z
1/2-x,1/2-y,-z
1/2+x,1/2-y,z
loop_
_atom_site_type_symbol
_atom_site_label
_atom_site_fract_x
_atom_site_fract_y
_atom_site_fract_z
Si Si1 0.702468 0.728253 0.042040
Si Si2 0.652136 0.083128 0.226876
Si Si3 0.330414 0.917509 0.548621
Si Si4 0.864727 0.790371 0.695560
Si Si5 0.021293 0.651860 0.619128
Si Si6 0.709399 0.720797 0.671952
O O1 0.753265 0.776150 0.182670
O O2 0.804063 0.659716 0.172313
O O3 0.750000 0.750000 0.000000
O O4 0.528846 0.719952 0.850841
O O5 0.624519 0.093214 0.298590
O O6 0.778737 0.139184 0.344561
O O7 0.690281 0.000000 0.256334
O O8 0.500000 0.097870 0.000000
O O9 0.184620 0.871632 0.363901
O O10 0.450742 0.887497 0.619641
O O11 0.307289 0.000000 0.507756
O O12 0.750000 0.750000 0.500000
O O13 0.835343 0.759131 0.758029
O O14 0.933781 0.729057 0.512650
O O15 0.000000 0.617489 0.500000
#
# Coordination Sequence:
#
# PCOD9191146 Si02
#       6
#     8   8   8   8   8   8
#     4  11  22  33  56  88 112 145 186 240 290 330
#     4  10  20  32  54  85 113 148 195 235 273 329
#     4  10  21  37  60  84 114 153 192 234 281 340
#     4  11  20  36  59  83 111 149 196 235 277 331
#     4   9  21  38  56  85 115 145 189 236 294 337
#     4  10  20  36  59  82 113 149 192 239 278 337
#
# _framework density 18.345969
#
# number of rings (size 3 to 8) (size 9 to 14) (size 15 to 20)
#    0.000    1.833    1.667    3.500    2.333    0.333 
#    0.000    0.833    0.000   18.500    0.000    0.000 
#    0.000    0.000    0.000    0.000    0.000    0.000 
#
# Total GULP energy -133748.103988 kJ/mol
# GULP energy per Si atom -5572.837666 kJ/mol
# Density = 1.830421 g / cm^3
# Si number density = 18.345969 Si / 1000 Ang^3
#
#
#
# Elastic Constant Matrix: (Units=GPa)
#
#
# Indices 1 2 3 4 5 6 
#
# 1 147.3352 39.7873 47.3426 0.0000 -3.2421 0.0000
# 2 39.7873 102.6261 25.1859 0.0000 -5.0052 0.0000
# 3 47.3426 25.1859 74.4610 0.0000 6.9993 0.0000
# 4 0.0000 0.0000 0.0000 11.5510 0.0000 -5.2799
# 5 -3.2421 -5.0052 6.9993 0.0000 45.2505 0.0000
# 6 0.0000 0.0000 0.0000 -5.2799 0.0000 23.4520
#
#
#
# Elastic Compliance Matrix: (Units=1/GPa)
#
#
# Indices 1 2 3 4 5 6 
#
# 1 0.009053 -0.002193 -0.005127 0.000000 0.001199 0.000000
# 2 -0.002193 0.011297 -0.002567 0.000000 0.001489 0.000000
# 3 -0.005127 -0.002567 0.017879 0.000000 -0.003417 0.000000
# 4 0.000000 0.000000 0.000000 0.096504 0.000000 0.021726
# 5 0.001199 0.001489 -0.003417 0.000000 0.022878 0.000000
# 6 0.000000 0.000000 0.000000 0.021726 0.000000 0.047532
#
#
# Mechanical properties :
#
#
# Convention : Reuss Voigt Hill
#
# Bulk Modulus (GPa) = 54.18451 61.00598 57.59524
# Shear Modulus (GPa) = 21.63858 30.19111 25.91485
#
# Velocity S-wave (km/s) = 3.43807 4.06107 3.76249
# Velocity P-wave (km/s) = 6.73494 7.43740 7.09487
#
# Compressibility (1/GPa) = 0.01845546
#
# Stress axis : x y z
#
# Youngs Moduli (GPa) = 110.45639 88.51960 55.93160
#
# Poissons Ratio (x) = 0.19414 0.28676
# Poissons Ratio (y) = 0.24225 0.14356
# Poissons Ratio (z) = 0.56631 0.22720
#
# Static dielectric constant tensor:
#      x y z
#    x 1.573860 0.000000 0.068160 
#    y 0.000000 1.656710 0.000000 
#    z 0.068160 0.000000 1.559050 
# 
# From -- ./inp_files/234347.got.cif
#   From: 2010.05.17/outbox.cif.g08.bks.cpg/sg12_118_cif.got.tgz:234347.got - 2010.06.03 13:09:07.
