data_PCOD9191813
_publ_section_title
;
Structure prediction by ZEFSAII (Michael W. Deem and Ramdas Pophale) SiO2 
 PCOD9191813
Probable space group: C 2/M
;
_chemical_formula_sum "Si O2"
_cell_formula_units_Z 56
_cell_length_a 19.958646
_cell_length_b 7.411633
_cell_length_c 17.586890
_cell_angle_alpha 90.000000
_cell_angle_beta 56.749545
_cell_angle_gamma 90.000000
_cell_volume 2175.638197
_symmetry_space_group_name_H-M "C 2/M"
_symmetry_group_IT_number 12
_symmetry_cell_setting 'monoclinic'
loop_
_space_group_symop_operation_xyz
x,y,z
-x,y,-z
-x,-y,-z
x,-y,z
1/2+x,1/2+y,z
1/2-x,1/2+y,-z
1/2-x,1/2-y,-z
1/2+x,1/2-y,z
loop_
_atom_site_type_symbol
_atom_site_label
_atom_site_fract_x
_atom_site_fract_y
_atom_site_fract_z
Si Si1 0.935629 0.221776 0.602283
Si Si2 0.891115 0.793150 0.786173
Si Si3 0.807145 0.793243 0.573225
Si Si4 0.414927 0.714942 0.189457
Si Si5 0.360748 0.213321 0.383712
Si Si6 0.712687 0.281026 0.848294
Si Si7 0.088674 0.220401 0.056073
O O1 0.942638 0.286142 0.684418
O O2 0.851532 0.284893 0.617967
O O3 0.000000 0.278517 0.500000
O O4 0.935433 0.000000 0.603550
O O5 0.800505 0.791359 0.810902
O O6 0.891035 0.716702 0.870976
O O7 0.918266 0.000000 0.778060
O O8 0.724527 0.711109 0.595233
O O9 0.868101 0.792541 0.463220
O O10 0.788818 0.000000 0.602358
O O11 0.413333 0.500000 0.182070
O O12 0.418704 0.754029 0.276927
O O13 0.334142 0.780399 0.198721
O O14 0.496942 0.777578 0.099404
O O15 0.354810 0.000000 0.399245
O O16 0.718947 0.500000 0.843680
O O17 0.653343 0.225121 0.953803
O O18 0.090087 0.000000 0.053497
#
# Coordination Sequence:
#
# PCOD9191813 Si02
#       7
#     8   8   8   8   8   8   8
#     4   9  18  31  52  79 104 134 178 225 261 304
#     4  10  20  35  57  83 109 143 185 226 270 322
#     4   9  18  33  52  73 102 140 181 220 261 317
#     4  10  20  34  56  81 107 143 184 223 269 322
#     4  10  20  33  51  78 108 138 175 223 273 320
#     4  10  20  36  57  82 112 144 180 226 275 324
#     4   9  19  35  57  83 109 142 187 230 265 315
#
# _framework density 25.739573
#
# number of rings (size 3 to 8) (size 9 to 14) (size 15 to 20)
#    0.000    2.429    0.000    2.143    2.000    4.000 
#    0.000    2.143    0.000    2.571    0.000    0.000 
#    0.000    0.000    0.000    0.000    0.000    0.000 
#
# Total GULP energy -156583.463968 kJ/mol
# GULP energy per Si atom -5592.266570 kJ/mol
# Density = 2.568099 g / cm^3
# Si number density = 25.739573 Si / 1000 Ang^3
#
#
#
# Elastic Constant Matrix: (Units=GPa)
#
#
# Indices 1 2 3 4 5 6 
#
# 1 79.8995 -2.3756 8.7753 0.0000 17.7802 -0.0001
# 2 -2.3756 99.5562 -3.7063 0.0003 2.2402 -0.0008
# 3 8.7753 -3.7063 135.5329 -0.0002 9.8149 0.0000
# 4 0.0000 0.0003 -0.0002 4.1862 0.0000 -3.5304
# 5 17.7802 2.2402 9.8149 0.0000 47.3932 0.0000
# 6 -0.0001 -0.0008 0.0000 -3.5304 0.0000 10.9230
#
#
#
# Elastic Compliance Matrix: (Units=1/GPa)
#
#
# Indices 1 2 3 4 5 6 
#
# 1 0.013710 0.000422 -0.000510 0.000000 -0.005058 0.000000
# 2 0.000422 0.010081 0.000299 0.000000 -0.000697 0.000001
# 3 -0.000510 0.000299 0.007519 0.000001 -0.001380 0.000000
# 4 0.000000 0.000000 0.000001 0.328388 0.000000 0.106136
# 5 -0.005058 -0.000697 -0.001380 0.000000 0.023316 0.000000
# 6 0.000000 0.000001 0.000000 0.106136 0.000000 0.125854
#
#
# Mechanical properties :
#
#
# Convention : Reuss Voigt Hill
#
# Bulk Modulus (GPa) = 31.51342 35.59727 33.55534
# Shear Modulus (GPa) = 9.63347 33.32016 21.47681
#
# Velocity S-wave (km/s) = 1.93670 3.60183 2.89171
# Velocity P-wave (km/s) = 4.15582 5.58188 4.92078
#
# Compressibility (1/GPa) = 0.03173252
#
# Stress axis : x y z
#
# Youngs Moduli (GPa) = 72.94065 99.19208 132.98925
#
# Poissons Ratio (x) = -0.04186 0.06780
# Poissons Ratio (y) = -0.03078 -0.03974
# Poissons Ratio (z) = 0.03719 -0.02964
#
# Static dielectric constant tensor:
#      x y z
#    x 2.033690 0.000000 -0.020290 
#    y 0.000000 1.972480 0.000000 
#    z -0.020290 0.000000 2.034130 
# 
# From -- ./inp_files/281034.got.cif
#   From: 2010.05.17/outbox.cif.g08.bks.cpg/sg12_141_cif.got.tgz:281034.got - 2010.06.03 13:09:07.
