data_PCOD9191805
_publ_section_title
;
Structure prediction by ZEFSAII (Michael W. Deem and Ramdas Pophale) SiO2 
 PCOD9191805
Probable space group: C 2/M
;
_chemical_formula_sum "Si O2"
_cell_formula_units_Z 64
_cell_length_a 20.274113
_cell_length_b 7.616567
_cell_length_c 23.884711
_cell_angle_alpha 90.000000
_cell_angle_beta 120.586279
_cell_angle_gamma 90.000000
_cell_volume 3175.086924
_symmetry_space_group_name_H-M "C 2/M"
_symmetry_group_IT_number 12
_symmetry_cell_setting 'monoclinic'
loop_
_space_group_symop_operation_xyz
x,y,z
-x,y,-z
-x,-y,-z
x,-y,z
1/2+x,1/2+y,z
1/2-x,1/2+y,-z
1/2-x,1/2-y,-z
1/2+x,1/2-y,z
loop_
_atom_site_type_symbol
_atom_site_label
_atom_site_fract_x
_atom_site_fract_y
_atom_site_fract_z
Si Si1 0.660493 0.709491 0.968060
Si Si2 0.275535 0.212166 0.825731
Si Si3 0.082387 0.298334 0.048149
Si Si4 0.367567 0.712733 0.573352
Si Si5 0.372664 0.285200 0.168410
Si Si6 0.970882 0.794395 0.312341
Si Si7 0.675423 0.792173 0.678142
Si Si8 0.717923 0.791144 0.574308
O O1 0.650677 0.500000 0.969587
O O2 0.620921 0.768564 0.893067
O O3 0.750000 0.750000 0.000000
O O4 0.627522 0.796817 0.009091
O O5 0.358304 0.279288 0.881107
O O6 0.209106 0.270027 0.840508
O O7 0.244988 0.261256 0.751440
O O8 0.277583 0.000000 0.829644
O O9 0.067661 0.500000 0.059673
O O10 0.000000 0.214656 0.000000
O O11 0.367560 0.500000 0.574830
O O12 0.449845 0.778887 0.629713
O O13 0.346032 0.762369 0.500721
O O14 0.297707 0.776780 0.582531
O O15 0.372468 0.500000 0.169014
O O16 0.437438 0.221941 0.239513
O O17 0.901254 0.782077 0.326400
O O18 0.985212 0.000000 0.308220
O O19 0.694627 0.720647 0.624943
O O20 0.662640 0.000000 0.668411
O O21 0.728224 0.000000 0.585584
#
# Coordination Sequence:
#
# PCOD9191805 Si02
#       8
#     8   8   8   8   8   8   8   8
#     4  11  20  33  55  81 106 137 180 221 263 314
#     4   9  17  34  55  73 100 138 175 210 256 310
#     4  10  21  38  56  75 106 143 177 219 271 317
#     4   9  18  34  56  76  97 133 176 209 243 297
#     4   8  15  30  51  74  99 131 168 209 257 302
#     4   9  18  34  54  75 101 134 172 211 251 298
#     4  10  20  33  51  78 106 133 167 207 258 309
#     4   9  19  35  52  74 105 136 165 205 256 302
#
# _framework density 20.156929000000002
#
# number of rings (size 3 to 8) (size 9 to 14) (size 15 to 20)
#    0.000    2.625    1.250    1.500    0.000    2.750 
#    2.250    3.125    0.000    0.000    0.000    0.000 
#    0.000    0.000    0.000    0.000    0.000    0.000 
#
# Total GULP energy -178481.884185 kJ/mol
# GULP energy per Si atom -5577.558881 kJ/mol
# Density = 2.011105 g / cm^3
# Si number density = 20.156929 Si / 1000 Ang^3
#
#
#
# Elastic Constant Matrix: (Units=GPa)
#
#
# Indices 1 2 3 4 5 6 
#
# 1 63.5146 -12.8762 63.4998 0.0000 23.1417 0.0000
# 2 -12.8762 41.2088 -13.0206 0.0000 0.3953 0.0000
# 3 63.4998 -13.0206 154.7753 0.0000 18.0939 0.0000
# 4 0.0000 0.0000 0.0000 15.3143 0.0000 -3.5850
# 5 23.1417 0.3953 18.0939 0.0000 38.7023 0.0000
# 6 0.0000 0.0000 0.0000 -3.5850 0.0000 11.2779
#
#
#
# Elastic Compliance Matrix: (Units=1/GPa)
#
#
# Indices 1 2 3 4 5 6 
#
# 1 0.034526 0.007212 -0.011780 0.000000 -0.015211 0.000000
# 2 0.007212 0.026498 -0.000205 0.000000 -0.004487 0.000000
# 3 -0.011780 -0.000205 0.011057 0.000000 0.001876 0.000000
# 4 0.000000 0.000000 0.000000 0.070548 0.000000 0.022426
# 5 -0.015211 -0.004487 0.001876 0.000000 0.034102 0.000000
# 6 0.000000 0.000000 0.000000 0.022426 0.000000 0.095798
#
#
# Mechanical properties :
#
#
# Convention : Reuss Voigt Hill
#
# Bulk Modulus (GPa) = 15.99104 37.18939 26.59021
# Shear Modulus (GPa) = 16.50598 27.85195 22.17897
#
# Velocity S-wave (km/s) = 2.86470 3.72123 3.32070
# Velocity P-wave (km/s) = 4.34655 6.07893 5.28422
#
# Compressibility (1/GPa) = 0.06253504
#
# Stress axis : x y z
#
# Youngs Moduli (GPa) = 28.96394 37.73816 90.43756
#
# Poissons Ratio (x) = -0.27216 1.06535
# Poissons Ratio (y) = -0.20888 0.01854
# Poissons Ratio (z) = 0.34119 0.00774
#
# Static dielectric constant tensor:
#      x y z
#    x 1.693600 0.000000 0.018020 
#    y 0.000000 1.751300 0.000000 
#    z 0.018020 0.000000 1.724690 
# 
# From -- ./inp_files/320158.got.cif
#   From: 2010.05.17/outbox.cif.g08.bks.cpg/sg12_161_cif.got.tgz:320158.got - 2010.06.03 13:09:07.
