data_PCOD9191540
_publ_section_title
;
Structure prediction by ZEFSAII (Michael W. Deem and Ramdas Pophale) SiO2 
 PCOD9191540
Probable space group: C 2/M
;
_chemical_formula_sum "Si O2"
_cell_formula_units_Z 56
_cell_length_a 30.785772
_cell_length_b 7.829018
_cell_length_c 20.563727
_cell_angle_alpha 90.000000
_cell_angle_beta 31.722695
_cell_angle_gamma 90.000000
_cell_volume 2606.074759
_symmetry_space_group_name_H-M "C 2/M"
_symmetry_group_IT_number 12
_symmetry_cell_setting 'monoclinic'
loop_
_space_group_symop_operation_xyz
x,y,z
-x,y,-z
-x,-y,-z
x,-y,z
1/2+x,1/2+y,z
1/2-x,1/2+y,-z
1/2-x,1/2-y,-z
1/2+x,1/2-y,z
loop_
_atom_site_type_symbol
_atom_site_label
_atom_site_fract_x
_atom_site_fract_y
_atom_site_fract_z
Si Si1 0.050053 0.698438 0.293355
Si Si2 0.659494 0.705699 0.640924
Si Si3 0.352160 0.707881 0.065801
Si Si4 0.095132 0.209012 0.863982
Si Si5 0.994338 0.205524 0.789840
Si Si6 0.195078 0.692970 0.197267
Si Si7 0.079011 0.809838 0.447326
O O1 0.048386 0.500000 0.314490
O O2 0.131079 0.773104 0.226812
O O3 0.049542 0.720247 0.217492
O O4 0.963787 0.772827 0.429889
O O5 0.654195 0.500000 0.649804
O O6 0.750000 0.750000 0.500000
O O7 0.633920 0.766285 0.746063
O O8 0.587482 0.765485 0.683519
O O9 0.343501 0.500000 0.077484
O O10 0.351406 0.763958 0.141412
O O11 0.281404 0.775210 0.107580
O O12 0.440556 0.745570 0.921815
O O13 0.094257 0.000000 0.863679
O O14 0.000000 0.259905 0.000000
O O15 0.994222 0.000000 0.782127
O O16 0.212186 0.500000 0.152283
O O17 0.145338 0.689965 0.329117
O O18 0.000000 0.802804 0.500000
O O19 0.113925 0.000000 0.401974
#
# Coordination Sequence:
#
# PCOD9191540 Si02
#       7
#     8   8   8   8   8   8   8
#     4  10  20  33  50  73 107 147 182 221 271 323
#     4  10  21  36  57  86 116 142 176 228 281 334
#     4   9  17  31  54  80 105 137 181 226 269 324
#     4   9  15  30  57  83 103 133 180 224 266 322
#     4  10  20  35  54  77 106 143 184 225 270 323
#     4   9  18  32  50  77 109 140 178 225 271 319
#     4   9  17  31  51  73  99 136 180 223 269 322
#
# _framework density 21.488254999999999
#
# number of rings (size 3 to 8) (size 9 to 14) (size 15 to 20)
#    0.000    2.571    1.429    0.857    0.000    4.571 
#    0.000    2.143    0.000    1.286    0.000    0.000 
#    0.000    0.000    0.000    0.000    0.000    0.000 
#
# Total GULP energy -156061.846735 kJ/mol
# GULP energy per Si atom -5573.637383 kJ/mol
# Density = 2.143935 g / cm^3
# Si number density = 21.488255 Si / 1000 Ang^3
#
#
#
# Elastic Constant Matrix: (Units=GPa)
#
#
# Indices 1 2 3 4 5 6 
#
# 1 126.3798 -3.3255 53.6251 -0.0030 -6.3667 -0.0010
# 2 -3.3255 31.0485 0.5700 -0.0172 -2.5302 -0.0107
# 3 53.6251 0.5700 94.7466 -0.0169 -12.4941 -0.0039
# 4 -0.0030 -0.0172 -0.0169 9.6650 0.0066 -1.7732
# 5 -6.3667 -2.5302 -12.4941 0.0066 37.7991 0.0008
# 6 -0.0010 -0.0107 -0.0039 -1.7732 0.0008 8.2373
#
#
#
# Elastic Compliance Matrix: (Units=1/GPa)
#
#
# Indices 1 2 3 4 5 6 
#
# 1 0.010461 0.001220 -0.005944 -0.000005 -0.000121 -0.000001
# 2 0.001220 0.032527 -0.000598 0.000066 0.002185 0.000056
# 3 -0.005944 -0.000598 0.014413 0.000022 0.003723 0.000010
# 4 -0.000005 0.000066 0.000022 0.107721 -0.000009 0.023189
# 5 -0.000121 0.002185 0.003723 -0.000009 0.027812 0.000000
# 6 -0.000001 0.000056 0.000010 0.023189 0.000000 0.126391
#
#
# Mechanical properties :
#
#
# Convention : Reuss Voigt Hill
#
# Bulk Modulus (GPa) = 21.38711 39.32379 30.35545
# Shear Modulus (GPa) = 14.46947 24.56063 19.51505
#
# Velocity S-wave (km/s) = 2.59775 3.38447 3.01686
# Velocity P-wave (km/s) = 4.35571 5.79764 5.12762
#
# Compressibility (1/GPa) = 0.04675713
#
# Stress axis : x y z
#
# Youngs Moduli (GPa) = 95.59524 30.74332 69.38085
#
# Poissons Ratio (x) = -0.03750 0.41240
# Poissons Ratio (y) = -0.11659 0.04148
# Poissons Ratio (z) = 0.56821 0.01838
#
# Static dielectric constant tensor:
#      x y z
#    x 1.793320 0.000000 -0.009430 
#    y 0.000000 1.830240 0.000010 
#    z -0.009430 0.000010 1.794890 
# 
# From -- ./inp_files/281738.got.cif
#   From: 2010.05.17/outbox.cif.g08.bks.cpg/sg12_141_cif.got.tgz:281738.got - 2010.06.03 13:09:07.
