data_PCOD9191317
_publ_section_title
;
Structure prediction by ZEFSAII (Michael W. Deem and Ramdas Pophale) SiO2 
 PCOD9191317
Probable space group: C 2/M
;
_chemical_formula_sum "Si O2"
_cell_formula_units_Z 64
_cell_length_a 29.152271
_cell_length_b 9.176503
_cell_length_c 14.670887
_cell_angle_alpha 90.000000
_cell_angle_beta 107.857483
_cell_angle_gamma 90.000000
_cell_volume 3735.612451
_symmetry_space_group_name_H-M "C 2/M"
_symmetry_group_IT_number 12
_symmetry_cell_setting 'monoclinic'
loop_
_space_group_symop_operation_xyz
x,y,z
-x,y,-z
-x,-y,-z
x,-y,z
1/2+x,1/2+y,z
1/2-x,1/2+y,-z
1/2-x,1/2-y,-z
1/2+x,1/2-y,z
loop_
_atom_site_type_symbol
_atom_site_label
_atom_site_fract_x
_atom_site_fract_y
_atom_site_fract_z
Si Si1 0.500291 0.675254 0.393461
Si Si2 0.692180 0.826531 0.866925
Si Si3 0.411591 0.171024 0.652261
Si Si4 0.607441 0.672189 0.705766
Si Si5 0.792450 0.326721 0.911808
Si Si6 0.755443 0.829999 0.599326
Si Si7 0.659393 0.824697 0.240907
Si Si8 0.854500 0.665264 0.436359
O O1 0.500000 0.723592 0.500000
O O2 0.505254 0.500000 0.397498
O O3 0.543513 0.744053 0.362362
O O4 0.448654 0.711354 0.317068
O O5 0.645999 0.757091 0.790355
O O6 0.742612 0.758072 0.863458
O O7 0.692748 0.000000 0.853113
O O8 0.691303 0.795784 0.975069
O O9 0.388886 0.220741 0.734562
O O10 0.369119 0.183164 0.550612
O O11 0.424156 0.000000 0.666802
O O12 0.613164 0.500000 0.722546
O O13 0.619535 0.716614 0.609396
O O14 0.782278 0.500000 0.899785
O O15 0.832893 0.292190 0.861025
O O16 0.750000 0.750000 0.500000
O O17 0.795643 0.750466 0.682435
O O18 0.702533 0.822864 0.611638
O O19 0.767537 0.000000 0.593722
O O20 0.662724 0.000000 0.254748
O O21 0.869422 0.500000 0.419124
#
# Coordination Sequence:
#
# PCOD9191317 Si02
#       8
#     8   8   8   8   8   8   8   8
#     4  10  21  37  53  74 103 136 179 223 263 314
#     4  10  20  35  56  84 112 137 174 220 262 313
#     4  10  20  34  52  74 102 135 172 216 261 307
#     4  11  22  35  54  77 104 139 175 218 269 315
#     4   9  19  36  59  82 109 143 174 212 264 315
#     4  11  21  32  46  69 103 140 175 209 249 299
#     4  10  20  36  53  75 105 138 177 214 258 315
#     4  10  20  33  48  72 104 136 173 214 256 306
#
# _framework density 17.132398999999999
#
# number of rings (size 3 to 8) (size 9 to 14) (size 15 to 20)
#    0.000    1.875    2.500    1.875    0.000    5.750 
#    0.000    0.000    0.000    0.750    0.000    5.250 
#    0.000    0.000    0.000    0.000    0.000    0.000 
#
# Total GULP energy -178527.990175 kJ/mol
# GULP energy per Si atom -5578.999693 kJ/mol
# Density = 1.709340 g / cm^3
# Si number density = 17.132399 Si / 1000 Ang^3
#
#
#
# Elastic Constant Matrix: (Units=GPa)
#
#
# Indices 1 2 3 4 5 6 
#
# 1 120.6996 39.7032 44.8786 0.0000 -13.6924 0.0000
# 2 39.7032 28.0869 25.4775 0.0000 -1.0712 0.0000
# 3 44.8786 25.4775 64.1595 0.0000 -9.1943 0.0000
# 4 0.0000 0.0000 0.0000 21.5675 0.0000 -0.0751
# 5 -13.6924 -1.0712 -9.1943 0.0000 28.3997 0.0000
# 6 0.0000 0.0000 0.0000 -0.0751 0.0000 26.7459
#
#
#
# Elastic Compliance Matrix: (Units=1/GPa)
#
#
# Indices 1 2 3 4 5 6 
#
# 1 0.017062 -0.021730 -0.002353 0.000000 0.006645 0.000000
# 2 -0.021730 0.084097 -0.020177 0.000000 -0.013837 0.000000
# 3 -0.002353 -0.020177 0.026188 0.000000 0.006583 0.000000
# 4 0.000000 0.000000 0.000000 0.046366 0.000000 0.000130
# 5 0.006645 -0.013837 0.006583 0.000000 0.040024 0.000000
# 6 0.000000 0.000000 0.000000 0.000130 0.000000 0.037389
#
#
# Mechanical properties :
#
#
# Convention : Reuss Voigt Hill
#
# Bulk Modulus (GPa) = 25.75695 48.11829 36.93762
# Shear Modulus (GPa) = 14.18076 22.20172 18.19124
#
# Velocity S-wave (km/s) = 2.88013 3.60375 3.26207
# Velocity P-wave (km/s) = 5.11144 6.74264 5.98289
#
# Compressibility (1/GPa) = 0.03882447
#
# Stress axis : x y z
#
# Youngs Moduli (GPa) = 58.61032 11.89105 38.18557
#
# Poissons Ratio (x) = 0.25840 0.08986
# Poissons Ratio (y) = 1.27362 0.77049
# Poissons Ratio (z) = 0.13792 0.23993
#
# Static dielectric constant tensor:
#      x y z
#    x 1.585890 0.000000 -0.023460 
#    y 0.000000 1.574010 0.000000 
#    z -0.023460 0.000000 1.588420 
# 
# From -- ./inp_files/244132.got.cif
#   From: 2010.05.17/outbox.cif.g08.bks.cpg/sg12_123_cif.got.tgz:244132.got - 2010.06.03 13:09:07.
