data_PCOD9191583
_publ_section_title
;
Structure prediction by ZEFSAII (Michael W. Deem and Ramdas Pophale) SiO2 
 PCOD9191583
Probable space group: C 2/M
;
_chemical_formula_sum "Si O2"
_cell_formula_units_Z 64
_cell_length_a 32.652280
_cell_length_b 14.050570
_cell_length_c 23.219541
_cell_angle_alpha 90.000000
_cell_angle_beta 18.208598
_cell_angle_gamma 90.000000
_cell_volume 3328.739400
_symmetry_space_group_name_H-M "C 2/M"
_symmetry_group_IT_number 12
_symmetry_cell_setting 'monoclinic'
loop_
_space_group_symop_operation_xyz
x,y,z
-x,y,-z
-x,-y,-z
x,-y,z
1/2+x,1/2+y,z
1/2-x,1/2+y,-z
1/2-x,1/2-y,-z
1/2+x,1/2-y,z
loop_
_atom_site_type_symbol
_atom_site_label
_atom_site_fract_x
_atom_site_fract_y
_atom_site_fract_z
Si Si1 0.526254 0.390781 0.113061
Si Si2 0.913548 0.217916 0.475795
Si Si3 0.570627 0.770307 0.672192
Si Si4 0.695734 0.392085 0.679671
Si Si5 0.232714 0.610952 0.284268
Si Si6 0.133813 0.615476 0.855546
Si Si7 0.864261 0.386292 0.013377
Si Si8 0.902708 0.891154 0.684231
O O1 0.523363 0.500000 0.138082
O O2 0.458988 0.320306 0.248117
O O3 0.443343 0.388027 0.164866
O O4 0.672308 0.367450 0.896200
O O5 0.969286 0.246838 0.339560
O O6 0.880015 0.311397 0.558199
O O7 0.774370 0.162051 0.651338
O O8 0.019307 0.158078 0.369026
O O9 0.715817 0.812563 0.469506
O O10 0.486003 0.853139 0.813723
O O11 0.748236 0.500000 0.599359
O O12 0.696148 0.379360 0.747932
O O13 0.192743 0.500000 0.333297
O O14 0.145083 0.500000 0.835388
O O15 0.118559 0.642815 0.943090
O O16 0.000000 0.643242 0.000000
O O17 0.852970 0.500000 0.030279
O O18 0.732745 0.348318 0.158586
O O19 0.000000 0.892488 0.500000
O O20 0.876438 0.000000 0.736735
#
# Coordination Sequence:
#
# PCOD9191583 Si02
#       8
#     8   8   8   8   8   8   8   8
#     4  10  20  33  50  74 110 155 193 225 269 329
#     4  11  22  36  59  87 115 147 188 235 284 336
#     4  11  23  34  51  81 118 150 180 228 288 345
#     4   9  18  34  54  76 104 146 198 239 270 317
#     4   9  19  35  55  77 105 145 196 243 271 311
#     4  10  21  37  59  89 121 150 187 240 296 342
#     4  10  21  39  62  86 113 148 191 237 283 337
#     4  10  20  38  66  91 109 138 188 241 285 335
#
# _framework density 19.226497999999999
#
# number of rings (size 3 to 8) (size 9 to 14) (size 15 to 20)
#    0.000    2.000    1.250    2.250    0.000    8.500 
#    0.000    2.500    0.000    1.125    0.000    0.000 
#    0.000    0.000    0.000    0.000    0.000    0.000 
#
# Total GULP energy -178441.687714 kJ/mol
# GULP energy per Si atom -5576.302741 kJ/mol
# Density = 1.918274 g / cm^3
# Si number density = 19.226498 Si / 1000 Ang^3
#
#
#
# Elastic Constant Matrix: (Units=GPa)
#
#
# Indices 1 2 3 4 5 6 
#
# 1 71.0800 23.1359 24.4481 -0.0004 -5.3591 0.0001
# 2 23.1359 70.5268 17.8203 -0.0019 1.4053 0.0001
# 3 24.4481 17.8203 57.6563 -0.0012 11.3809 0.0001
# 4 -0.0004 -0.0019 -0.0012 14.3620 0.0002 1.1071
# 5 -5.3591 1.4053 11.3809 0.0002 29.8648 0.0000
# 6 0.0001 0.0001 0.0001 1.1071 0.0000 17.9085
#
#
#
# Elastic Compliance Matrix: (Units=1/GPa)
#
#
# Indices 1 2 3 4 5 6 
#
# 1 0.018664 -0.004259 -0.007892 -0.000001 0.006557 0.000000
# 2 -0.004259 0.016390 -0.003197 0.000002 -0.000317 0.000000
# 3 -0.007892 -0.003197 0.023712 0.000002 -0.010302 0.000000
# 4 -0.000001 0.000002 0.000002 0.069961 -0.000001 -0.004325
# 5 0.006557 -0.000317 -0.010302 -0.000001 0.038602 0.000000
# 6 0.000000 0.000000 0.000000 -0.004325 0.000000 0.056107
#
#
# Mechanical properties :
#
#
# Convention : Reuss Voigt Hill
#
# Bulk Modulus (GPa) = 35.62550 36.67463 36.15007
# Shear Modulus (GPa) = 18.97608 21.35099 20.16353
#
# Velocity S-wave (km/s) = 3.14502 3.33603 3.24193
# Velocity P-wave (km/s) = 5.63541 5.82711 5.73206
#
# Compressibility (1/GPa) = 0.02806978
#
# Stress axis : x y z
#
# Youngs Moduli (GPa) = 53.57975 61.01141 42.17220
#
# Poissons Ratio (x) = 0.25985 0.33282
# Poissons Ratio (y) = 0.22820 0.13484
# Poissons Ratio (z) = 0.42285 0.19507
#
# Static dielectric constant tensor:
#      x y z
#    x 1.616200 0.000000 0.007070 
#    y 0.000000 1.719990 0.000000 
#    z 0.007070 0.000000 1.643610 
# 
# From -- ./inp_files/330373.got.cif
#   From: 2010.05.17/outbox.cif.g08.bks.cpg/sg12_166_cif.got.tgz:330373.got - 2010.06.03 13:09:07.
