data_PCOD9191732
_publ_section_title
;
Structure prediction by ZEFSAII (Michael W. Deem and Ramdas Pophale) SiO2 
 PCOD9191732
Probable space group: C 2/M
;
_chemical_formula_sum "Si O2"
_cell_formula_units_Z 32
_cell_length_a 9.966863
_cell_length_b 13.766334
_cell_length_c 17.718380
_cell_angle_alpha 90.000000
_cell_angle_beta 151.690112
_cell_angle_gamma 90.000000
_cell_volume 1152.919872
_symmetry_space_group_name_H-M "C 2/M"
_symmetry_group_IT_number 12
_symmetry_cell_setting 'monoclinic'
loop_
_space_group_symop_operation_xyz
x,y,z
-x,y,-z
-x,-y,-z
x,-y,z
1/2+x,1/2+y,z
1/2-x,1/2+y,-z
1/2-x,1/2-y,-z
1/2+x,1/2-y,z
loop_
_atom_site_type_symbol
_atom_site_label
_atom_site_fract_x
_atom_site_fract_y
_atom_site_fract_z
Si Si1 0.930682 0.830797 0.848090
Si Si2 0.465887 0.106565 0.833223
Si Si3 0.798133 0.860531 0.618838
Si Si4 0.803875 0.364779 0.589145
O O1 0.986095 0.859128 0.786943
O O2 0.631642 0.873385 0.725148
O O3 0.901755 0.712462 0.839764
O O4 0.203430 0.872264 0.024594
O O5 0.296243 0.098655 0.670531
O O6 0.454649 0.000000 0.866075
O O7 0.500000 0.900499 0.500000
O O8 0.868140 0.899336 0.570189
O O9 0.744196 0.748269 0.573019
#
# Coordination Sequence:
#
# PCOD9191732 Si02
#       4
#     8   8   8   8
#     4   9  18  32  51  74 103 135 165 204 252 297
#     4  10  20  33  51  76 103 132 169 209 247 293
#     4   8  15  29  50  72  95 129 166 201 247 297
#     4   9  16  29  52  74  97 129 166 203 247 296
#
# _framework density 27.755614999999999
#
# number of rings (size 3 to 8) (size 9 to 14) (size 15 to 20)
#    0.000    3.000    0.000    0.750    0.000    2.000 
#    0.000    1.250    0.000  106.500    0.000    0.000 
#    0.000    0.000    0.000    0.000    0.000    0.000 
#
# Total GULP energy -89280.253949 kJ/mol
# GULP energy per Si atom -5580.015872 kJ/mol
# Density = 2.769244 g / cm^3
# Si number density = 27.755615 Si / 1000 Ang^3
#
#
#
# Elastic Constant Matrix: (Units=GPa)
#
#
# Indices 1 2 3 4 5 6 
#
# 1 139.2905 -6.1087 25.2609 0.0115 -25.7542 0.0078
# 2 -6.1087 186.9142 18.9716 0.0099 -6.4731 0.0055
# 3 25.2609 18.9716 128.7854 0.0303 -25.6884 0.0224
# 4 0.0115 0.0099 0.0303 -35.9074 0.0136 -18.9855
# 5 -25.7542 -6.4731 -25.6884 0.0136 53.6209 0.0096
# 6 0.0078 0.0055 0.0224 -18.9855 0.0096 -47.8505
#
#
#
# Elastic Compliance Matrix: (Units=1/GPa)
#
#
# Indices 1 2 3 4 5 6 
#
# 1 0.008011 0.000478 -0.000954 0.000003 0.003448 0.000000
# 2 0.000478 0.005464 -0.000798 0.000001 0.000507 0.000000
# 3 -0.000954 -0.000798 0.008800 0.000007 0.003661 0.000002
# 4 0.000003 0.000001 0.000007 -0.035243 0.000012 0.013983
# 5 0.003448 0.000507 0.003661 0.000012 0.022121 0.000002
# 6 0.000000 0.000000 0.000002 0.013983 0.000002 -0.026447
#
#
# Mechanical properties :
#
#
# Convention : Reuss Voigt Hill
#
# Bulk Modulus (GPa) = 50.68952 59.02639 54.85795
# Shear Modulus (GPa) = -611.92651 21.76369 -295.08141
#
# Velocity S-wave (km/s) = -14.86432 2.80325 -10.32206
# Velocity P-wave (km/s) = 16.62212 5.63828 11.05678
#
# Compressibility (1/GPa) = 0.01972795
#
# Stress axis : x y z
#
# Youngs Moduli (GPa) = 124.83186 183.00987 113.63957
#
# Poissons Ratio (x) = -0.08749 0.10840
# Poissons Ratio (y) = -0.05968 0.09063
# Poissons Ratio (z) = 0.11908 0.14596
#
# Static dielectric constant tensor:
#      x y z
#    x 2.246040 0.000000 -0.028460 
#    y 0.000000 2.267120 0.000000 
#    z -0.028460 0.000000 2.168640 
# 
# From -- ./inp_files/128509.got.cif
#   From: 2010.05.17/outbox.cif.g08.bks.cpg/sg12_65_cif.got.tgz:128509.got - 2010.06.03 13:09:07.
