data_PCOD9191997
_publ_section_title
;
Structure prediction by ZEFSAII (Michael W. Deem and Ramdas Pophale) SiO2 
 PCOD9191997
Probable space group: C 2/M
;
_chemical_formula_sum "Si O2"
_cell_formula_units_Z 56
_cell_length_a 26.196229
_cell_length_b 9.517395
_cell_length_c 13.740445
_cell_angle_alpha 90.000000
_cell_angle_beta 117.649918
_cell_angle_gamma 90.000000
_cell_volume 3034.541997
_symmetry_space_group_name_H-M "C 2/M"
_symmetry_group_IT_number 12
_symmetry_cell_setting 'monoclinic'
loop_
_space_group_symop_operation_xyz
x,y,z
-x,y,-z
-x,-y,-z
x,-y,z
1/2+x,1/2+y,z
1/2-x,1/2+y,-z
1/2-x,1/2-y,-z
1/2+x,1/2-y,z
loop_
_atom_site_type_symbol
_atom_site_label
_atom_site_fract_x
_atom_site_fract_y
_atom_site_fract_z
Si Si1 0.970626 0.665453 0.742331
Si Si2 0.284242 0.338698 0.611055
Si Si3 0.568919 0.155596 0.081014
Si Si4 0.214834 0.832857 0.687440
Si Si5 0.614324 0.340185 0.444523
Si Si6 0.200632 0.166180 0.901408
Si Si7 0.416868 0.667086 0.088271
O O1 0.982880 0.500000 0.740895
O O2 0.930058 0.677607 0.802802
O O3 0.936933 0.733214 0.622195
O O4 0.028249 0.752134 0.818112
O O5 0.263882 0.500000 0.599671
O O6 0.250000 0.250000 0.500000
O O7 0.268898 0.256696 0.695814
O O8 0.347326 0.343642 0.620244
O O9 0.592294 0.000000 0.078053
O O10 0.500000 0.152358 0.000000
O O11 0.593033 0.271068 0.029026
O O12 0.158802 0.801973 0.570345
O O13 0.201685 0.802261 0.787581
O O14 0.226320 0.000000 0.685176
O O15 0.593732 0.500000 0.444027
O O16 0.138917 0.194726 0.895439
O O17 0.211505 0.000000 0.921511
O O18 0.250000 0.250000 0.000000
O O19 0.427748 0.500000 0.093480
#
# Coordination Sequence:
#
# PCOD9191997 Si02
#       7
#     8   8   8   8   8   8   8
#     4  10  20  33  52  79 110 142 174 211 261 319
#     4   9  17  30  50  77 107 139 175 214 259 309
#     4   8  16  31  49  72 103 137 170 206 254 308
#     4   9  19  37  56  76 107 144 181 222 267 314
#     4   9  18  32  52  78 108 141 175 213 258 312
#     4  10  23  41  59  79 103 136 179 224 270 320
#     4  10  20  35  55  78 105 138 177 220 264 311
#
# _framework density 18.454186
#
# number of rings (size 3 to 8) (size 9 to 14) (size 15 to 20)
#    0.000    2.714    0.000    3.000    0.000    8.857 
#    0.000    6.429    0.000    4.286    0.000    0.000 
#    0.000    0.000    0.000    0.000    0.000    0.000 
#
# Total GULP energy -156018.961847 kJ/mol
# GULP energy per Si atom -5572.105780 kJ/mol
# Density = 1.841218 g / cm^3
# Si number density = 18.454186 Si / 1000 Ang^3
#
#
#
# Elastic Constant Matrix: (Units=GPa)
#
#
# Indices 1 2 3 4 5 6 
#
# 1 78.2266 61.4998 37.5947 0.0000 -17.1913 0.0000
# 2 61.4998 109.0216 60.9941 0.0000 0.2802 0.0000
# 3 37.5947 60.9941 91.7718 0.0000 -4.8332 0.0000
# 4 0.0000 0.0000 0.0000 26.7167 0.0000 -0.6048
# 5 -17.1913 0.2802 -4.8332 0.0000 20.8615 0.0000
# 6 0.0000 0.0000 0.0000 -0.6048 0.0000 25.3454
#
#
#
# Elastic Compliance Matrix: (Units=1/GPa)
#
#
# Indices 1 2 3 4 5 6 
#
# 1 0.034378 -0.019794 0.000586 0.000000 0.028731 0.000000
# 2 -0.019794 0.026127 -0.010259 0.000000 -0.019039 0.000000
# 3 0.000586 -0.010259 0.017724 0.000000 0.004727 0.000000
# 4 0.000000 0.000000 0.000000 0.037450 0.000000 0.000894
# 5 0.028731 -0.019039 0.004727 0.000000 0.072962 0.000000
# 6 0.000000 0.000000 0.000000 0.000894 0.000000 0.039476
#
#
# Mechanical properties :
#
#
# Convention : Reuss Voigt Hill
#
# Bulk Modulus (GPa) = 51.82852 66.57748 59.20300
# Shear Modulus (GPa) = 17.03684 22.51347 19.77516
#
# Velocity S-wave (km/s) = 3.04171 3.49659 3.27705
# Velocity P-wave (km/s) = 6.36254 7.24272 6.81685
#
# Compressibility (1/GPa) = 0.01929440
#
# Stress axis : x y z
#
# Youngs Moduli (GPa) = 29.08876 38.27476 56.42209
#
# Poissons Ratio (x) = 0.75762 -0.03307
# Poissons Ratio (y) = 0.57579 0.57881
# Poissons Ratio (z) = -0.01705 0.39264
#
# Static dielectric constant tensor:
#      x y z
#    x 1.638490 0.000000 -0.004200 
#    y 0.000000 1.642630 0.000000 
#    z -0.004200 0.000000 1.650360 
# 
# From -- ./inp_files/244322.got.cif
#   From: 2010.05.17/outbox.cif.g08.bks.cpg/sg12_123_cif.got.tgz:244322.got - 2010.06.03 13:09:07.
