data_PCOD9191299
_publ_section_title
;
Structure prediction by ZEFSAII (Michael W. Deem and Ramdas Pophale) SiO2 
 PCOD9191299
Probable space group: C 2/M
;
_chemical_formula_sum "Si O2"
_cell_formula_units_Z 48
_cell_length_a 12.444798
_cell_length_b 21.894082
_cell_length_c 8.872151
_cell_angle_alpha 90.000000
_cell_angle_beta 87.982088
_cell_angle_gamma 90.000000
_cell_volume 2415.873072
_symmetry_space_group_name_H-M "C 2/M"
_symmetry_group_IT_number 12
_symmetry_cell_setting 'monoclinic'
loop_
_space_group_symop_operation_xyz
x,y,z
-x,y,-z
-x,-y,-z
x,-y,z
1/2+x,1/2+y,z
1/2-x,1/2+y,-z
1/2-x,1/2-y,-z
1/2+x,1/2-y,z
loop_
_atom_site_type_symbol
_atom_site_label
_atom_site_fract_x
_atom_site_fract_y
_atom_site_fract_z
Si Si1 0.195721 0.837415 0.892668
Si Si2 0.904737 0.747241 0.892390
Si Si3 0.880632 0.647478 0.433261
Si Si4 0.202866 0.568691 0.302674
Si Si5 0.439614 0.277073 0.364262
Si Si6 0.033303 0.430307 0.829873
O O1 0.305711 0.798579 0.894511
O O2 0.229741 0.904894 0.841730
O O3 0.122809 0.815499 0.756303
O O4 0.134337 0.813758 0.044966
O O5 0.959236 0.748044 0.728915
O O6 0.000000 0.727846 0.000000
O O7 0.800117 0.613877 0.552568
O O8 0.864732 0.719731 0.413507
O O9 0.889526 0.613707 0.270632
O O10 0.000000 0.642160 0.500000
O O11 0.235019 0.500000 0.342430
O O12 0.079586 0.566953 0.253006
O O13 0.500000 0.309020 0.500000
O O14 0.076544 0.500000 0.834909
O O15 0.000000 0.411314 0.000000
#
# Coordination Sequence:
#
# PCOD9191299 Si02
#       6
#     8   8   8   8   8   8
#     4  10  20  34  54  77 103 137 173 209 260 307
#     4   9  19  34  52  77 107 135 167 211 259 308
#     4   9  17  29  48  71 100 131 161 199 257 317
#     4  10  20  33  48  69 101 138 173 206 243 299
#     4  10  20  33  52  79 104 128 166 216 263 309
#     4   9  17  28  44  68  98 132 167 202 245 302
#
# _framework density 19.868594000000002
#
# number of rings (size 3 to 8) (size 9 to 14) (size 15 to 20)
#    0.000    2.500    0.000    3.500    0.000   11.333 
#    0.000    0.000    0.000    5.000    0.000    0.000 
#    0.000    0.000    0.000    0.000    0.000    0.000 
#
# Total GULP energy -133738.092087 kJ/mol
# GULP energy per Si atom -5572.420504 kJ/mol
# Density = 1.982337 g / cm^3
# Si number density = 19.868594 Si / 1000 Ang^3
#
#
#
# Elastic Constant Matrix: (Units=GPa)
#
#
# Indices 1 2 3 4 5 6 
#
# 1 39.4284 -2.1450 -3.3446 0.0000 -3.1191 0.0000
# 2 -2.1450 53.2565 -7.2409 0.0000 -23.0456 0.0000
# 3 -3.3446 -7.2409 66.8665 0.0000 -10.8883 0.0000
# 4 0.0000 0.0000 0.0000 47.4301 0.0000 -0.2021
# 5 -3.1191 -23.0456 -10.8883 0.0000 20.5348 0.0000
# 6 0.0000 0.0000 0.0000 -0.2021 0.0000 13.1144
#
#
#
# Elastic Compliance Matrix: (Units=1/GPa)
#
#
# Indices 1 2 3 4 5 6 
#
# 1 0.027721 0.009466 0.005283 0.000000 0.017636 0.000000
# 2 0.009466 0.050415 0.016834 0.000000 0.066944 0.000000
# 3 0.005283 0.016834 0.022163 0.000000 0.031446 0.000000
# 4 0.000000 0.000000 0.000000 0.021085 0.000000 0.000325
# 5 0.017636 0.066944 0.031446 0.000000 0.143179 0.000000
# 6 0.000000 0.000000 0.000000 0.000325 0.000000 0.076257
#
#
# Mechanical properties :
#
#
# Convention : Reuss Voigt Hill
#
# Bulk Modulus (GPa) = 6.11745 14.89892 10.50818
# Shear Modulus (GPa) = 15.05381 27.70133 21.37757
#
# Velocity S-wave (km/s) = 2.75556 3.73799 3.28372
# Velocity P-wave (km/s) = 3.63453 5.11322 4.43593
#
# Compressibility (1/GPa) = 0.16346682
#
# Stress axis : x y z
#
# Youngs Moduli (GPa) = 36.07407 19.83518 45.12022
#
# Poissons Ratio (x) = -0.18777 -0.23839
# Poissons Ratio (y) = -0.34149 -0.75955
# Poissons Ratio (z) = -0.19060 -0.33390
#
# Static dielectric constant tensor:
#      x y z
#    x 1.701150 0.000000 -0.000490 
#    y 0.000000 1.758580 0.000000 
#    z -0.000490 0.000000 1.771400 
# 
# From -- ./inp_files/50727.got.cif
#   From: 2010.05.17/outbox.cif.g08.bks.cpg/sg12_26_cif.got.tgz:50727.got - 2010.06.03 13:09:07.
