data_PCOD9191368
_publ_section_title
;
Structure prediction by ZEFSAII (Michael W. Deem and Ramdas Pophale) SiO2 
 PCOD9191368
Probable space group: C 2/M
;
_chemical_formula_sum "Si O2"
_cell_formula_units_Z 58
_cell_length_a 23.654043
_cell_length_b 8.065955
_cell_length_c 13.981102
_cell_angle_alpha 90.000000
_cell_angle_beta 123.317545
_cell_angle_gamma 90.000000
_cell_volume 2229.058089
_symmetry_space_group_name_H-M "C 2/M"
_symmetry_group_IT_number 12
_symmetry_cell_setting 'monoclinic'
loop_
_space_group_symop_operation_xyz
x,y,z
-x,y,-z
-x,-y,-z
x,-y,z
1/2+x,1/2+y,z
1/2-x,1/2+y,-z
1/2-x,1/2-y,-z
1/2+x,1/2-y,z
loop_
_atom_site_type_symbol
_atom_site_label
_atom_site_fract_x
_atom_site_fract_y
_atom_site_fract_z
Si Si1 0.084602 0.685878 0.018700
Si Si2 0.593625 0.690359 0.541966
Si Si3 0.271730 0.692050 0.890817
Si Si4 0.732870 0.809437 0.628250
Si Si5 0.000000 0.000000 0.000000
Si Si6 0.874935 0.802353 0.212282
Si Si7 0.621000 0.308289 0.255053
Si Si8 0.015887 0.313696 0.300091
O O1 0.058453 0.500000 0.973325
O O2 0.157090 0.714456 0.034662
O O3 0.102740 0.693371 0.149271
O O4 0.036998 0.849133 0.969450
O O5 0.572773 0.500000 0.527587
O O6 0.666021 0.702834 0.555932
O O7 0.609175 0.751248 0.663129
O O8 0.538079 0.786122 0.430197
O O9 0.282078 0.500000 0.924736
O O10 0.254674 0.700574 0.760754
O O11 0.203186 0.756413 0.876763
O O12 0.802934 0.768817 0.640599
O O13 0.714642 0.000000 0.590645
O O14 0.937085 0.723742 0.212808
O O15 0.881176 0.000000 0.212663
O O16 0.619130 0.500000 0.214753
O O17 0.566052 0.298208 0.285795
O O18 0.031650 0.500000 0.288048
#
# Coordination Sequence:
#
# PCOD9191368 Si02
#       8
#     8   8   8   8   2   8   8   8
#     4  11  21  37  62  92 125 152 180 217 275 333
#     4  10  20  33  49  70 100 139 186 246 296 332
#     4   9  16  32  54  80 113 145 180 229 275 324
#     4   8  16  30  51  72  97 139 180 225 284 332
#     4  12  22  40  60  98 128 148 174 220 272 336
#     4  10  20  34  52  75 103 141 195 244 292 327
#     4  10  20  38  56  76 111 147 183 231 278 336
#     4  12  24  34  48  72 103 145 196 238 288 341
#
# _framework density 26.019959
#
# number of rings (size 3 to 8) (size 9 to 14) (size 15 to 20)
#    0.000    1.931    1.379    4.345    0.000    7.724 
#    0.000    0.000    0.000    0.000    0.000    0.966 
#    0.000    0.000    0.000    0.000    0.000    0.000 
#
# Total GULP energy -162166.271826 kJ/mol
# GULP energy per Si atom -5591.940408 kJ/mol
# Density = 2.596074 g / cm^3
# Si number density = 26.019959 Si / 1000 Ang^3
#
#
#
# Elastic Constant Matrix: (Units=GPa)
#
#
# Indices 1 2 3 4 5 6 
#
# 1 176.6207 42.2720 24.0349 0.0000 28.5323 0.0000
# 2 42.2720 121.5834 28.6032 0.0000 31.6242 0.0000
# 3 24.0349 28.6032 114.6546 0.0000 19.7328 0.0000
# 4 0.0000 0.0000 0.0000 20.4251 0.0000 7.8154
# 5 28.5323 31.6242 19.7328 0.0000 33.4583 0.0000
# 6 0.0000 0.0000 0.0000 7.8154 0.0000 32.8804
#
#
#
# Elastic Compliance Matrix: (Units=1/GPa)
#
#
# Indices 1 2 3 4 5 6 
#
# 1 0.006692 -0.001077 -0.000364 0.000000 -0.004474 0.000000
# 2 -0.001077 0.011195 -0.001006 0.000000 -0.009069 0.000000
# 3 -0.000364 -0.001006 0.009830 0.000000 -0.004536 0.000000
# 4 0.000000 0.000000 0.000000 0.053858 0.000000 -0.012802
# 5 -0.004474 -0.009069 -0.004536 0.000000 0.044950 0.000000
# 6 0.000000 0.000000 0.000000 -0.012802 0.000000 0.033456
#
#
# Mechanical properties :
#
#
# Convention : Reuss Voigt Hill
#
# Bulk Modulus (GPa) = 43.81829 66.96434 55.39132
# Shear Modulus (GPa) = 28.98833 38.54932 33.76882
#
# Velocity S-wave (km/s) = 3.34141 3.85324 3.60641
# Velocity P-wave (km/s) = 5.63591 6.75191 6.21899
#
# Compressibility (1/GPa) = 0.02282152
#
# Stress axis : x y z
#
# Youngs Moduli (GPa) = 149.43317 89.32548 101.73119
#
# Poissons Ratio (x) = 0.09624 0.03704
# Poissons Ratio (y) = 0.16100 0.10236
# Poissons Ratio (z) = 0.05441 0.08987
#
# Static dielectric constant tensor:
#      x y z
#    x 2.126110 0.000000 0.099240 
#    y 0.000000 1.899320 0.000000 
#    z 0.099240 0.000000 2.729180 
# 
# From -- ./inp_files/282201.got.cif
#   From: 2010.05.17/outbox.cif.g08.bks.cpg/sg12_142_cif.got.tgz:282201.got - 2010.06.03 13:09:07.
