data_PCOD9191699
_publ_section_title
;
Structure prediction by ZEFSAII (Michael W. Deem and Ramdas Pophale) SiO2 
 PCOD9191699
Probable space group: C 2/M
;
_chemical_formula_sum "Si O2"
_cell_formula_units_Z 64
_cell_length_a 20.395435
_cell_length_b 7.781166
_cell_length_c 21.345263
_cell_angle_alpha 90.000000
_cell_angle_beta 97.114550
_cell_angle_gamma 90.000000
_cell_volume 3361.416915
_symmetry_space_group_name_H-M "C 2/M"
_symmetry_group_IT_number 12
_symmetry_cell_setting 'monoclinic'
loop_
_space_group_symop_operation_xyz
x,y,z
-x,y,-z
-x,-y,-z
x,-y,z
1/2+x,1/2+y,z
1/2-x,1/2+y,-z
1/2-x,1/2-y,-z
1/2+x,1/2-y,z
loop_
_atom_site_type_symbol
_atom_site_label
_atom_site_fract_x
_atom_site_fract_y
_atom_site_fract_z
Si Si1 0.407528 0.211669 0.170540
Si Si2 0.294234 0.703896 0.445813
Si Si3 0.446279 0.206021 0.444462
Si Si4 0.688950 0.705981 0.037828
Si Si5 0.255171 0.793360 0.171260
Si Si6 0.566632 0.802394 0.693538
Si Si7 0.946734 0.299341 0.040552
Si Si8 0.716227 0.295496 0.692930
O O1 0.330341 0.264926 0.164520
O O2 0.443800 0.271615 0.238366
O O3 0.439262 0.272602 0.109657
O O4 0.407254 0.000000 0.171162
O O5 0.298098 0.500000 0.444999
O O6 0.250000 0.750000 0.500000
O O7 0.370292 0.766280 0.456055
O O8 0.263211 0.758417 0.374761
O O9 0.500000 0.272867 0.500000
O O10 0.456527 0.276737 0.374968
O O11 0.454808 0.000000 0.441250
O O12 0.680447 0.500000 0.037635
O O13 0.707225 0.765990 0.110190
O O14 0.750000 0.750000 0.000000
O O15 0.623877 0.787746 0.001202
O O16 0.239953 0.741392 0.240882
O O17 0.255897 0.000000 0.169102
O O18 0.646448 0.798221 0.696535
O O19 0.543781 0.000000 0.692518
O O20 0.964538 0.500000 0.051328
O O21 0.000000 0.219570 0.000000
O O22 0.703624 0.500000 0.690736
#
# Coordination Sequence:
#
# PCOD9191699 Si02
#       8
#     8   8   8   8   8   8   8   8
#     4   8  13  26  46  68  92 121 162 201 240 292
#     4  10  20  33  51  75 103 136 170 207 248 297
#     4   9  17  30  50  75 100 131 167 205 250 298
#     4  11  21  34  53  77 103 131 168 210 253 301
#     4   9  17  30  49  71  97 129 162 203 252 302
#     4   8  14  26  45  67  94 126 161 201 245 294
#     4  10  20  34  51  71 100 136 171 206 248 301
#     4   9  17  28  45  73 101 123 160 209 249 288
#
# _framework density 19.039591000000001
#
# number of rings (size 3 to 8) (size 9 to 14) (size 15 to 20)
#    0.000    2.750    1.250    1.875    0.000    3.000 
#    0.000    0.000    2.750    0.000    0.000    0.000 
#    0.000    0.000    0.000    0.000    0.000    0.000 
#
# Total GULP energy -178201.650729 kJ/mol
# GULP energy per Si atom -5568.801585 kJ/mol
# Density = 1.899626 g / cm^3
# Si number density = 19.039591 Si / 1000 Ang^3
#
#
#
# Elastic Constant Matrix: (Units=GPa)
#
#
# Indices 1 2 3 4 5 6 
#
# 1 56.1400 -8.1165 61.9239 0.0000 -11.1696 0.0000
# 2 -8.1165 29.5739 2.5238 0.0000 -2.3837 0.0000
# 3 61.9239 2.5238 230.1501 0.0000 -9.8251 0.0000
# 4 0.0000 0.0000 0.0000 16.4432 0.0000 1.6774
# 5 -11.1696 -2.3837 -9.8251 0.0000 26.5564 0.0000
# 6 0.0000 0.0000 0.0000 1.6774 0.0000 11.1917
#
#
#
# Elastic Compliance Matrix: (Units=1/GPa)
#
#
# Indices 1 2 3 4 5 6 
#
# 1 0.029764 0.009673 -0.007664 0.000000 0.010551 0.000000
# 2 0.009673 0.037218 -0.002738 0.000000 0.006396 0.000000
# 3 -0.007664 -0.002738 0.006390 0.000000 -0.001105 0.000000
# 4 0.000000 0.000000 0.000000 0.061760 0.000000 -0.009257
# 5 0.010551 0.006396 -0.001105 0.000000 0.042259 0.000000
# 6 0.000000 0.000000 0.000000 -0.009257 0.000000 0.090740
#
#
# Mechanical properties :
#
#
# Convention : Reuss Voigt Hill
#
# Bulk Modulus (GPa) = 13.90542 47.61404 30.75973
# Shear Modulus (GPa) = 17.03240 28.14043 22.58641
#
# Velocity S-wave (km/s) = 2.99419 3.84864 3.44799
# Velocity P-wave (km/s) = 4.39009 6.69415 5.66059
#
# Compressibility (1/GPa) = 0.07191443
#
# Stress axis : x y z
#
# Youngs Moduli (GPa) = 33.59776 26.86907 156.49786
#
# Poissons Ratio (x) = -0.25991 1.19938
# Poissons Ratio (y) = -0.32500 0.42845
# Poissons Ratio (z) = 0.25749 0.07356
#
# Static dielectric constant tensor:
#      x y z
#    x 1.385700 0.000000 0.163360 
#    y 0.000000 1.708640 0.000000 
#    z 0.163360 0.000000 1.630900 
# 
# From -- ./inp_files/319207.got.cif
#   From: 2010.05.17/outbox.cif.g08.bks.cpg/sg12_160_cif.got.tgz:319207.got - 2010.06.03 13:09:07.
