data_PCOD9191205
_publ_section_title
;
Structure prediction by ZEFSAII (Michael W. Deem and Ramdas Pophale) SiO2 
 PCOD9191205
Probable space group: C 2/M
;
_chemical_formula_sum "Si O2"
_cell_formula_units_Z 46
_cell_length_a 12.424131
_cell_length_b 14.114131
_cell_length_c 12.272834
_cell_angle_alpha 90.000000
_cell_angle_beta 90.098649
_cell_angle_gamma 90.000000
_cell_volume 2152.109588
_symmetry_space_group_name_H-M "C 2/M"
_symmetry_group_IT_number 12
_symmetry_cell_setting 'monoclinic'
loop_
_space_group_symop_operation_xyz
x,y,z
-x,y,-z
-x,-y,-z
x,-y,z
1/2+x,1/2+y,z
1/2-x,1/2+y,-z
1/2-x,1/2-y,-z
1/2+x,1/2-y,z
loop_
_atom_site_type_symbol
_atom_site_label
_atom_site_fract_x
_atom_site_fract_y
_atom_site_fract_z
Si Si1 0.878086 0.171788 0.893325
Si Si2 0.151423 0.391639 0.811605
Si Si3 0.500000 0.500000 0.000000
Si Si4 0.397543 0.884408 0.433585
Si Si5 0.994749 0.114417 0.679392
Si Si6 0.000000 0.663471 0.000000
Si Si7 0.170368 0.114524 0.517625
O O1 0.756363 0.164836 0.851026
O O2 0.958410 0.161554 0.790245
O O3 0.907245 0.268739 0.951923
O O4 0.910832 0.083714 0.969877
O O5 0.190158 0.500000 0.796592
O O6 0.108410 0.359701 0.693631
O O7 0.057372 0.389855 0.901021
O O8 0.500000 0.848846 0.500000
O O9 0.289945 0.851808 0.494664
O O10 0.399879 0.000000 0.437264
O O11 0.106843 0.145715 0.625202
O O12 0.904264 0.131728 0.587579
O O13 0.998795 0.000000 0.699437
O O14 0.175152 0.000000 0.526646
#
# Coordination Sequence:
#
# PCOD9191205 Si02
#       7
#     8   8   2   8   8   4   8
#     4  11  20  38  62  90 125 160 206 258 313 365
#     4  11  21  42  69  86 119 173 210 248 311 379
#     4  10  20  32  58  96 112 152 220 252 288 368
#     4   9  17  31  57  90 119 154 206 252 299 369
#     4   9  14  26  53  86 118 149 195 243 306 364
#     4  11  27  39  59  94 128 160 209 271 307 351
#     4   8  14  24  47  87 118 146 190 252 298 354
#
# _framework density 21.374376000000002
#
# number of rings (size 3 to 8) (size 9 to 14) (size 15 to 20)
#    0.000    2.261    3.478    1.826    0.000    0.000 
#    0.000    5.217    7.652    2.087    0.000    0.000 
#    0.000    0.000    0.000    0.000    0.000    0.000 
#
# Total GULP energy -128264.203152 kJ/mol
# GULP energy per Si atom -5576.704485 kJ/mol
# Density = 2.132573 g / cm^3
# Si number density = 21.374376 Si / 1000 Ang^3
#
#
#
# Elastic Constant Matrix: (Units=GPa)
#
#
# Indices 1 2 3 4 5 6 
#
# 1 147.7976 9.3373 70.2525 0.0000 -2.1272 0.0000
# 2 9.3373 61.6996 21.5141 0.0000 5.4940 0.0000
# 3 70.2525 21.5141 89.1663 0.0000 -9.4561 0.0000
# 4 0.0000 0.0000 0.0000 -10.1661 0.0000 10.0875
# 5 -2.1272 5.4940 -9.4561 0.0000 41.1442 0.0000
# 6 0.0000 0.0000 0.0000 10.0875 0.0000 -5.8097
#
#
#
# Elastic Compliance Matrix: (Units=1/GPa)
#
#
# Indices 1 2 3 4 5 6 
#
# 1 0.011064 0.001739 -0.009328 0.000000 -0.001804 0.000000
# 2 0.001739 0.018454 -0.006226 0.000000 -0.003805 0.000000
# 3 -0.009328 -0.006226 0.020606 0.000000 0.005085 0.000000
# 4 0.000000 0.000000 0.000000 0.136069 0.000000 0.236262
# 5 -0.001804 -0.003805 0.005085 0.000000 0.025888 0.000000
# 6 0.000000 0.000000 0.000000 0.236262 0.000000 0.238103
#
#
# Mechanical properties :
#
#
# Convention : Reuss Voigt Hill
#
# Bulk Modulus (GPa) = 44.45740 55.65236 50.05488
# Shear Modulus (GPa) = 10.30262 18.20433 14.25348
#
# Velocity S-wave (km/s) = 2.19785 2.92154 2.58514
# Velocity P-wave (km/s) = 5.22353 6.12160 5.69031
#
# Compressibility (1/GPa) = 0.02249344
#
# Stress axis : x y z
#
# Youngs Moduli (GPa) = 90.38254 54.18799 48.52974
#
# Poissons Ratio (x) = -0.09423 0.45269
# Poissons Ratio (y) = -0.15716 0.30216
# Poissons Ratio (z) = 0.84309 0.33739
#
# Static dielectric constant tensor:
#      x y z
#    x 1.752030 0.000000 -0.018590 
#    y 0.000000 1.794620 0.000000 
#    z -0.018590 0.000000 1.767950 
# 
# From -- ./inp_files/131186.got.cif
#   From: 2010.05.17/outbox.cif.g08.bks.cpg/sg12_66_cif.got.tgz:131186.got - 2010.06.03 13:09:07.
