data_PCOD9191953
_publ_section_title
;
Structure prediction by ZEFSAII (Michael W. Deem and Ramdas Pophale) SiO2 
 PCOD9191953
Probable space group: C 2/M
;
_chemical_formula_sum "Si O2"
_cell_formula_units_Z 64
_cell_length_a 15.459067
_cell_length_b 8.800806
_cell_length_c 27.388440
_cell_angle_alpha 90.000000
_cell_angle_beta 66.062151
_cell_angle_gamma 90.000000
_cell_volume 3405.748904
_symmetry_space_group_name_H-M "C 2/M"
_symmetry_group_IT_number 12
_symmetry_cell_setting 'monoclinic'
loop_
_space_group_symop_operation_xyz
x,y,z
-x,y,-z
-x,-y,-z
x,-y,z
1/2+x,1/2+y,z
1/2-x,1/2+y,-z
1/2-x,1/2-y,-z
1/2+x,1/2-y,z
loop_
_atom_site_type_symbol
_atom_site_label
_atom_site_fract_x
_atom_site_fract_y
_atom_site_fract_z
Si Si1 0.506207 0.325392 0.556517
Si Si2 0.178074 0.182718 0.949798
Si Si3 0.810736 0.315852 0.250458
Si Si4 0.601050 0.320051 0.326186
Si Si5 0.408125 0.183950 0.328417
Si Si6 0.315977 0.825780 0.444876
Si Si7 0.111866 0.318734 0.065698
Si Si8 0.587641 0.682019 0.866716
O O1 0.500000 0.315485 0.500000
O O2 0.539551 0.500000 0.559803
O O3 0.414422 0.303507 0.611612
O O4 0.579683 0.200036 0.557425
O O5 0.289629 0.219635 0.929440
O O6 0.134464 0.226693 0.907899
O O7 0.168324 0.000000 0.957675
O O8 0.125683 0.261432 0.007053
O O9 0.810835 0.500000 0.248185
O O10 0.702949 0.264488 0.285217
O O11 0.874887 0.271542 0.282272
O O12 0.853215 0.249783 0.191381
O O13 0.596951 0.500000 0.317150
O O14 0.510834 0.245300 0.320418
O O15 0.330323 0.235925 0.386673
O O16 0.410557 0.000000 0.330528
O O17 0.250000 0.750000 0.500000
O O18 0.287132 0.000000 0.447715
O O19 0.100859 0.500000 0.068939
O O20 0.019634 0.241935 0.109324
O O21 0.588091 0.500000 0.864023
#
# Coordination Sequence:
#
# PCOD9191953 Si02
#       8
#     8   8   8   8   8   8   8   8
#     4   9  18  32  54  79 105 138 173 215 273 338
#     4   9  20  38  58  83 118 155 186 224 278 331
#     4  10  22  39  58  79 106 147 191 231 276 332
#     4   9  19  36  57  80 107 139 182 229 274 329
#     4   9  20  38  58  77 106 143 180 224 279 335
#     4  10  20  33  52  78 107 137 173 219 273 334
#     4  10  20  36  60  88 117 151 189 229 273 326
#     4  11  23  38  56  82 115 150 189 233 279 328
#
# _framework density 18.791754999999998
#
# number of rings (size 3 to 8) (size 9 to 14) (size 15 to 20)
#    0.000    2.375    0.000    1.500    1.750    5.750 
#    0.000    3.750    0.000    0.000    0.000    0.000 
#    0.000    0.000    0.000    0.000    0.000    0.000 
#
# Total GULP energy -178457.977738 kJ/mol
# GULP energy per Si atom -5576.811804 kJ/mol
# Density = 1.874898 g / cm^3
# Si number density = 18.791755 Si / 1000 Ang^3
#
#
#
# Elastic Constant Matrix: (Units=GPa)
#
#
# Indices 1 2 3 4 5 6 
#
# 1 60.8304 15.8404 46.0003 0.0000 -17.2340 0.0000
# 2 15.8404 15.7308 26.7629 0.0000 -5.7574 0.0000
# 3 46.0003 26.7629 112.2795 0.0000 -29.9874 0.0000
# 4 0.0000 0.0000 0.0000 31.4531 0.0000 -2.1203
# 5 -17.2340 -5.7574 -29.9874 0.0000 27.2824 0.0000
# 6 0.0000 0.0000 0.0000 -2.1203 0.0000 26.2378
#
#
#
# Elastic Compliance Matrix: (Units=1/GPa)
#
#
# Indices 1 2 3 4 5 6 
#
# 1 0.026487 -0.014982 -0.005176 0.000000 0.007881 0.000000
# 2 -0.014982 0.116567 -0.024920 0.000000 -0.012256 0.000000
# 3 -0.005176 -0.024920 0.020793 0.000000 0.014326 0.000000
# 4 0.000000 0.000000 0.000000 0.031967 0.000000 0.002583
# 5 0.007881 -0.012256 0.014326 0.000000 0.054792 0.000000
# 6 0.000000 0.000000 0.000000 0.002583 0.000000 0.038322
#
#
# Mechanical properties :
#
#
# Convention : Reuss Voigt Hill
#
# Bulk Modulus (GPa) = 13.57001 40.67201 27.12101
# Shear Modulus (GPa) = 12.38702 23.67714 18.03208
#
# Velocity S-wave (km/s) = 2.57022 3.55346 3.10106
# Velocity P-wave (km/s) = 4.00562 6.20698 5.22358
#
# Compressibility (1/GPa) = 0.07369192
#
# Stress axis : x y z
#
# Youngs Moduli (GPa) = 37.75414 8.57874 48.09301
#
# Poissons Ratio (x) = 0.12852 0.24892
# Poissons Ratio (y) = 0.56562 1.19849
# Poissons Ratio (z) = 0.19541 0.21378
#
# Static dielectric constant tensor:
#      x y z
#    x 1.646740 0.000000 -0.004250 
#    y 0.000000 1.643720 0.000000 
#    z -0.004250 0.000000 1.654110 
# 
# From -- ./inp_files/375013.got.cif
#   From: 2010.05.17/outbox.cif.g08.bks.cpg/sg12_188_cif.got.tgz:375013.got - 2010.06.03 13:09:07.
