data_PCOD9191548
_publ_section_title
;
Structure prediction by ZEFSAII (Michael W. Deem and Ramdas Pophale) SiO2 
 PCOD9191548
Probable space group: C 2/M
;
_chemical_formula_sum "Si O2"
_cell_formula_units_Z 64
_cell_length_a 32.915527
_cell_length_b 7.705928
_cell_length_c 16.324739
_cell_angle_alpha 90.000000
_cell_angle_beta 52.973016
_cell_angle_gamma 90.000000
_cell_volume 3305.722691
_symmetry_space_group_name_H-M "C 2/M"
_symmetry_group_IT_number 12
_symmetry_cell_setting 'monoclinic'
loop_
_space_group_symop_operation_xyz
x,y,z
-x,y,-z
-x,-y,-z
x,-y,z
1/2+x,1/2+y,z
1/2-x,1/2+y,-z
1/2-x,1/2-y,-z
1/2+x,1/2-y,z
loop_
_atom_site_type_symbol
_atom_site_label
_atom_site_fract_x
_atom_site_fract_y
_atom_site_fract_z
Si Si1 0.844937 0.711626 0.704733
Si Si2 0.628574 0.203983 0.983018
Si Si3 0.723373 0.207955 0.447640
Si Si4 0.519662 0.299319 0.061967
Si Si5 0.399263 0.212486 0.803738
Si Si6 0.009286 0.295908 0.721307
Si Si7 0.264016 0.709818 0.225152
Si Si8 0.385095 0.787550 0.479193
O O1 0.844899 0.500000 0.706000
O O2 0.871198 0.772528 0.756068
O O3 0.786171 0.765470 0.764426
O O4 0.875296 0.762215 0.585591
O O5 0.580803 0.288258 0.994769
O O6 0.682784 0.231141 0.876011
O O7 0.616659 0.000000 0.998601
O O8 0.628044 0.264028 0.078315
O O9 0.750000 0.250000 0.500000
O O10 0.754343 0.269819 0.330185
O O11 0.665129 0.269729 0.509439
O O12 0.721404 0.000000 0.443253
O O13 0.503978 0.500000 0.082606
O O14 0.500000 0.222854 0.000000
O O15 0.497495 0.220732 0.172667
O O16 0.457604 0.273515 0.742675
O O17 0.399542 0.000000 0.800782
O O18 0.009922 0.500000 0.701344
O O19 0.062153 0.223501 0.622915
O O20 0.264588 0.500000 0.224081
O O21 0.385688 0.000000 0.476287
#
# Coordination Sequence:
#
# PCOD9191548 Si02
#       8
#     8   8   8   8   8   8   8   8
#     4   8  14  27  47  70  98 129 159 194 235 277
#     4  10  20  33  50  73  99 124 156 200 242 281
#     4   9  18  32  48  68  94 124 161 199 236 282
#     4  10  21  36  52  70  94 125 161 196 233 285
#     4   8  15  27  44  70  99 124 156 197 236 278
#     4   9  17  30  49  74 101 124 153 196 240 281
#     4   9  18  32  49  69  96 130 164 197 235 283
#     4   8  15  28  46  69  96 125 156 192 235 283
#
# _framework density 19.360367
#
# number of rings (size 3 to 8) (size 9 to 14) (size 15 to 20)
#    0.000    3.125    0.000    3.000    0.000    3.500 
#    0.000    5.625    0.000    3.750    0.000    3.500 
#    0.000    0.000    0.000    0.000    0.000    0.000 
#
# Total GULP energy -178382.320902 kJ/mol
# GULP energy per Si atom -5574.447528 kJ/mol
# Density = 1.931630 g / cm^3
# Si number density = 19.360367 Si / 1000 Ang^3
#
#
#
# Elastic Constant Matrix: (Units=GPa)
#
#
# Indices 1 2 3 4 5 6 
#
# 1 165.2680 -4.1989 119.2666 0.0001 19.0115 0.0001
# 2 -4.1989 27.1854 -5.0945 0.0007 0.4253 0.0014
# 3 119.2666 -5.0945 142.7826 0.0000 -16.0722 0.0000
# 4 0.0001 0.0007 0.0000 8.6581 0.0000 -5.5500
# 5 19.0115 0.4253 -16.0722 0.0000 37.1392 0.0000
# 6 0.0001 0.0014 0.0000 -5.5500 0.0000 10.9077
#
#
#
# Elastic Compliance Matrix: (Units=1/GPa)
#
#
# Indices 1 2 3 4 5 6 
#
# 1 0.027884 -0.000199 -0.026181 -0.000001 -0.025601 0.000000
# 2 -0.000199 0.037034 0.001526 -0.000009 0.000338 -0.000009
# 3 -0.026181 0.001526 0.031992 0.000000 0.027229 0.000000
# 4 -0.000001 -0.000009 0.000000 0.171403 0.000001 0.087212
# 5 -0.025601 0.000338 0.027229 0.000001 0.051811 0.000000
# 6 0.000000 -0.000009 0.000000 0.087212 0.000000 0.136053
#
#
# Mechanical properties :
#
#
# Convention : Reuss Voigt Hill
#
# Bulk Modulus (GPa) = 21.18536 61.68693 41.43615
# Shear Modulus (GPa) = 9.58554 26.35851 17.97202
#
# Velocity S-wave (km/s) = 2.22752 3.69381 3.05009
# Velocity P-wave (km/s) = 4.19312 7.07983 5.81834
#
# Compressibility (1/GPa) = 0.04720241
#
# Stress axis : x y z
#
# Youngs Moduli (GPa) = 35.86275 27.00200 31.25807
#
# Poissons Ratio (x) = 0.00537 0.81835
# Poissons Ratio (y) = 0.00713 -0.04769
# Poissons Ratio (z) = 0.93891 -0.04119
#
# Static dielectric constant tensor:
#      x y z
#    x 1.666990 0.000000 0.004000 
#    y 0.000000 1.747110 0.000000 
#    z 0.004000 0.000000 1.656910 
# 
# From -- ./inp_files/249000.got.cif
#   From: 2010.05.17/outbox.cif.g08.bks.cpg/sg12_125_cif.got.tgz:249000.got - 2010.06.03 13:09:07.
