data_PCOD9191924
_publ_section_title
;
Structure prediction by ZEFSAII (Michael W. Deem and Ramdas Pophale) SiO2 
 PCOD9191924
Probable space group: C 2/M
;
_chemical_formula_sum "Si O2"
_cell_formula_units_Z 48
_cell_length_a 14.365231
_cell_length_b 9.406520
_cell_length_c 21.391624
_cell_angle_alpha 90.000000
_cell_angle_beta 87.897941
_cell_angle_gamma 90.000000
_cell_volume 2888.637256
_symmetry_space_group_name_H-M "C 2/M"
_symmetry_group_IT_number 12
_symmetry_cell_setting 'monoclinic'
loop_
_space_group_symop_operation_xyz
x,y,z
-x,y,-z
-x,-y,-z
x,-y,z
1/2+x,1/2+y,z
1/2-x,1/2+y,-z
1/2-x,1/2-y,-z
1/2+x,1/2-y,z
loop_
_atom_site_type_symbol
_atom_site_label
_atom_site_fract_x
_atom_site_fract_y
_atom_site_fract_z
Si Si1 0.592357 0.329867 0.669830
Si Si2 0.739876 0.331731 0.098888
Si Si3 0.101611 0.669600 0.333319
Si Si4 0.606640 0.831737 0.011655
Si Si5 0.740021 0.669711 0.772216
Si Si6 0.750139 0.170632 0.434515
O O1 0.578913 0.500000 0.669452
O O2 0.494846 0.251053 0.668924
O O3 0.651148 0.295520 0.730887
O O4 0.659305 0.293998 0.609649
O O5 0.725160 0.500000 0.106494
O O6 0.828719 0.310761 0.050979
O O7 0.756878 0.256998 0.164414
O O8 0.653100 0.259110 0.065530
O O9 0.085803 0.500000 0.335097
O O10 0.169401 0.698888 0.272898
O O11 0.160794 0.707212 0.393827
O O12 0.610121 0.000000 0.027531
O O13 0.500000 0.793808 0.000000
O O14 0.738144 0.500000 0.784757
O O15 0.750000 0.250000 0.500000
O O16 0.749642 0.000000 0.443416
#
# Coordination Sequence:
#
# PCOD9191924 Si02
#       6
#     8   8   8   8   8   8
#     4   9  19  35  53  74 101 132 167 207 249 293
#     4  10  20  33  52  78 102 127 166 210 246 288
#     4   9  19  35  53  73  99 132 168 204 246 298
#     4   9  19  36  54  72 100 136 167 199 246 299
#     4   9  19  36  53  70 100 137 165 198 249 301
#     4   9  19  35  52  73 102 134 167 204 249 298
#
# _framework density 16.616831999999999
#
# number of rings (size 3 to 8) (size 9 to 14) (size 15 to 20)
#    0.000    2.833    0.000    2.500    0.000    5.667 
#    0.000   11.667    0.000    0.000    0.000    0.000 
#    0.000    0.000    0.000    0.000    0.000    0.000 
#
# Total GULP energy -133843.428802 kJ/mol
# GULP energy per Si atom -5576.809533 kJ/mol
# Density = 1.657901 g / cm^3
# Si number density = 16.616832 Si / 1000 Ang^3
#
#
#
# Elastic Constant Matrix: (Units=GPa)
#
#
# Indices 1 2 3 4 5 6 
#
# 1 162.5030 72.6474 71.4611 0.0000 17.2196 0.0000
# 2 72.6474 61.3848 79.9834 0.0000 9.6964 0.0000
# 3 71.4611 79.9834 148.5974 0.0000 17.1392 0.0000
# 4 0.0000 0.0000 0.0000 37.6178 0.0000 1.5935
# 5 17.2196 9.6964 17.1392 0.0000 6.5834 0.0000
# 6 0.0000 0.0000 0.0000 1.5935 0.0000 35.6198
#
#
#
# Elastic Compliance Matrix: (Units=1/GPa)
#
#
# Indices 1 2 3 4 5 6 
#
# 1 0.019950 -0.036294 0.013997 0.000000 -0.035167 0.000000
# 2 -0.036294 0.120717 -0.054257 0.000000 0.058384 0.000000
# 3 0.013997 -0.054257 0.034596 0.000000 -0.046767 0.000000
# 4 0.000000 0.000000 0.000000 0.026634 0.000000 -0.001191
# 5 -0.035167 0.058384 -0.046767 0.000000 0.279643 0.000000
# 6 0.000000 0.000000 0.000000 -0.001191 0.000000 0.028128
#
#
# Mechanical properties :
#
#
# Convention : Reuss Voigt Hill
#
# Bulk Modulus (GPa) = 45.13248 91.18545 68.15896
# Shear Modulus (GPa) = 7.46092 25.85709 16.65901
#
# Velocity S-wave (km/s) = 2.12126 3.94900 3.16972
# Velocity P-wave (km/s) = 5.76362 8.70559 7.38263
#
# Compressibility (1/GPa) = 0.02215699
#
# Stress axis : x y z
#
# Youngs Moduli (GPa) = 50.12523 8.28386 28.90492
#
# Poissons Ratio (x) = 0.30065 -0.40460
# Poissons Ratio (y) = 1.81924 1.56828
# Poissons Ratio (z) = -0.70163 0.44945
#
# Static dielectric constant tensor:
#      x y z
#    x 1.539630 0.000000 -0.003210 
#    y 0.000000 1.545460 0.000000 
#    z -0.003210 0.000000 1.536920 
# 
# From -- ./inp_files/307991.got.cif
#   From: 2010.05.17/outbox.cif.g08.bks.cpg/sg12_154_cif.got.tgz:307991.got - 2010.06.03 13:09:07.
