data_PCOD9191853
_publ_section_title
;
Structure prediction by ZEFSAII (Michael W. Deem and Ramdas Pophale) SiO2 
 PCOD9191853
Probable space group: C 2/M
;
_chemical_formula_sum "Si O2"
_cell_formula_units_Z 64
_cell_length_a 19.513542
_cell_length_b 8.684788
_cell_length_c 21.933502
_cell_angle_alpha 90.000000
_cell_angle_beta 70.245918
_cell_angle_gamma 90.000000
_cell_volume 3498.348319
_symmetry_space_group_name_H-M "C 2/M"
_symmetry_group_IT_number 12
_symmetry_cell_setting 'monoclinic'
loop_
_space_group_symop_operation_xyz
x,y,z
-x,y,-z
-x,-y,-z
x,-y,z
1/2+x,1/2+y,z
1/2-x,1/2+y,-z
1/2-x,1/2-y,-z
1/2+x,1/2-y,z
loop_
_atom_site_type_symbol
_atom_site_label
_atom_site_fract_x
_atom_site_fract_y
_atom_site_fract_z
Si Si1 0.230251 0.816074 0.180539
Si Si2 0.667359 0.685378 0.676483
Si Si3 0.672765 0.816358 0.320179
Si Si4 0.883302 0.813137 0.179165
Si Si5 0.827353 0.182133 0.458900
Si Si6 0.084649 0.676634 0.460265
Si Si7 0.682877 0.313610 0.059442
Si Si8 0.023542 0.812253 0.060772
O O1 0.181073 0.764925 0.252747
O O2 0.310601 0.744442 0.166741
O O3 0.196148 0.768992 0.125994
O O4 0.237298 0.000000 0.178923
O O5 0.658887 0.500000 0.678751
O O6 0.752270 0.716532 0.665560
O O7 0.623342 0.741236 0.748695
O O8 0.648631 0.743789 0.614872
O O9 0.607704 0.772133 0.385414
O O10 0.670077 0.000000 0.309836
O O11 0.958346 0.764352 0.125364
O O12 0.880668 0.000000 0.178990
O O13 0.750000 0.250000 0.500000
O O14 0.879593 0.223368 0.498179
O O15 0.820189 0.000000 0.455381
O O16 0.112771 0.500000 0.457081
O O17 0.000000 0.675245 0.500000
O O18 0.684094 0.500000 0.055980
O O19 0.604111 0.261877 0.057336
O O20 0.750000 0.250000 0.000000
O O21 0.025060 0.000000 0.060437
O O22 0.000000 0.763468 0.000000
#
# Coordination Sequence:
#
# PCOD9191853 Si02
#       8
#     8   8   8   8   8   8   8   8
#     4  10  20  33  51  80 111 135 167 216 267 312
#     4   8  15  29  50  76 100 130 173 217 257 307
#     4   9  17  34  56  75 101 140 183 216 258 324
#     4   9  17  33  56  76 100 139 179 212 253 308
#     4  11  20  33  54  80 108 138 182 229 273 326
#     4  10  21  38  56  76 106 143 184 231 279 326
#     4  10  21  36  54  80 109 137 173 216 257 304
#     4   9  17  31  54  80 102 130 175 216 246 294
#
# _framework density 18.294346999999998
#
# number of rings (size 3 to 8) (size 9 to 14) (size 15 to 20)
#    0.000    2.500    1.250    2.250    0.000    2.750 
#    2.250    1.250    0.000    2.250    0.000    0.000 
#    0.000    0.000    0.000    0.000    0.000    0.000 
#
# Total GULP energy -178375.395154 kJ/mol
# GULP energy per Si atom -5574.231099 kJ/mol
# Density = 1.825271 g / cm^3
# Si number density = 18.294347 Si / 1000 Ang^3
#
#
#
# Elastic Constant Matrix: (Units=GPa)
#
#
# Indices 1 2 3 4 5 6 
#
# 1 103.1553 23.2116 88.3759 0.0000 2.5385 -0.0001
# 2 23.2116 18.0357 27.2019 0.0000 3.7150 0.0000
# 3 88.3759 27.2019 182.1228 0.0000 -1.5566 -0.0001
# 4 0.0000 0.0000 0.0000 23.8237 0.0000 1.8428
# 5 2.5385 3.7150 -1.5566 0.0000 32.8035 -0.0001
# 6 -0.0001 0.0000 -0.0001 1.8428 -0.0001 19.1575
#
#
#
# Elastic Compliance Matrix: (Units=1/GPa)
#
#
# Indices 1 2 3 4 5 6 
#
# 1 0.018836 -0.013418 -0.007138 0.000000 -0.000277 0.000000
# 2 -0.013418 0.083645 -0.006057 0.000000 -0.008722 0.000000
# 3 -0.007138 -0.006057 0.009874 0.000000 0.001707 0.000000
# 4 0.000000 0.000000 0.000000 0.042290 0.000000 -0.004068
# 5 -0.000277 -0.008722 0.001707 0.000000 0.031575 0.000000
# 6 0.000000 0.000000 0.000000 -0.004068 0.000000 0.052590
#
#
# Mechanical properties :
#
#
# Convention : Reuss Voigt Hill
#
# Bulk Modulus (GPa) = 16.91216 64.54362 40.72789
# Shear Modulus (GPa) = 16.03870 26.12524 21.08197
#
# Velocity S-wave (km/s) = 2.96413 3.78305 3.39835
# Velocity P-wave (km/s) = 4.58032 7.37829 6.14079
#
# Compressibility (1/GPa) = 0.05912907
#
# Stress axis : x y z
#
# Youngs Moduli (GPa) = 53.09014 11.95522 101.27616
#
# Poissons Ratio (x) = 0.16041 0.72296
# Poissons Ratio (y) = 0.71236 0.61340
# Poissons Ratio (z) = 0.37898 0.07241
#
# Static dielectric constant tensor:
#      x y z
#    x 1.665870 0.000000 0.021030 
#    y 0.000000 1.636950 0.000000 
#    z 0.021030 0.000000 1.656400 
# 
# From -- ./inp_files/345541.got.cif
#   From: 2010.05.17/outbox.cif.g08.bks.cpg/sg12_173_cif.got.tgz:345541.got - 2010.06.03 13:09:07.
