data_PCOD9191517
_publ_section_title
;
Structure prediction by ZEFSAII (Michael W. Deem and Ramdas Pophale) SiO2 
 PCOD9191517
Probable space group: C 2/M
;
_chemical_formula_sum "Si O2"
_cell_formula_units_Z 64
_cell_length_a 19.343485
_cell_length_b 9.750941
_cell_length_c 18.756607
_cell_angle_alpha 90.000000
_cell_angle_beta 96.040557
_cell_angle_gamma 90.000000
_cell_volume 3518.175150
_symmetry_space_group_name_H-M "C 2/M"
_symmetry_group_IT_number 12
_symmetry_cell_setting 'monoclinic'
loop_
_space_group_symop_operation_xyz
x,y,z
-x,y,-z
-x,-y,-z
x,-y,z
1/2+x,1/2+y,z
1/2-x,1/2+y,-z
1/2-x,1/2-y,-z
1/2+x,1/2-y,z
loop_
_atom_site_type_symbol
_atom_site_label
_atom_site_fract_x
_atom_site_fract_y
_atom_site_fract_z
Si Si1 0.986079 0.843547 0.794034
Si Si2 0.994862 0.343393 0.084265
Si Si3 0.090626 0.662283 0.715301
Si Si4 0.624625 0.341765 0.345106
Si Si5 0.253014 0.333341 0.737505
Si Si6 0.846162 0.656518 0.028653
Si Si7 0.297213 0.340255 0.899258
Si Si8 0.019172 0.338248 0.421710
O O1 0.965543 0.765202 0.863664
O O2 0.047555 0.756695 0.764465
O O3 0.923613 0.843772 0.730833
O O4 0.006282 0.000000 0.810569
O O5 0.012314 0.500000 0.105916
O O6 0.912553 0.318301 0.084992
O O7 0.000000 0.329836 0.000000
O O8 0.086706 0.500000 0.734794
O O9 0.171729 0.701901 0.721325
O O10 0.048489 0.677924 0.636443
O O11 0.630724 0.500000 0.370741
O O12 0.698867 0.290134 0.323740
O O13 0.582720 0.249069 0.396318
O O14 0.256302 0.500000 0.739250
O O15 0.285012 0.288728 0.817321
O O16 0.851672 0.500000 0.002970
O O17 0.842687 0.753351 0.959566
O O18 0.778189 0.666038 0.070073
O O19 0.319315 0.500000 0.899092
O O20 0.037243 0.500000 0.422842
O O21 0.000000 0.298345 0.500000
#
# Coordination Sequence:
#
# PCOD9191517 Si02
#       8
#     8   8   8   8   8   8   8   8
#     4  10  20  33  50  73 101 130 165 213 261 304
#     4  10  21  34  48  66  92 128 170 211 251 302
#     4   9  17  33  57  77  98 135 173 203 241 296
#     4   9  19  34  52  77 106 134 168 207 252 305
#     4   9  17  31  52  75  98 130 172 209 247 299
#     4   9  18  32  45  64  90 119 162 207 249 297
#     4   9  17  29  48  66  87 121 158 202 250 298
#     4   9  18  34  56  81 107 136 170 204 241 292
#
# _framework density 18.191248999999999
#
# number of rings (size 3 to 8) (size 9 to 14) (size 15 to 20)
#    0.000    2.750    0.000    1.125    1.750    3.500 
#    0.000    5.000    0.000    0.000    0.000    0.000 
#    0.000    0.000    0.000    0.000    0.000    0.000 
#
# Total GULP energy -178384.151652 kJ/mol
# GULP energy per Si atom -5574.504739 kJ/mol
# Density = 1.814985 g / cm^3
# Si number density = 18.191249 Si / 1000 Ang^3
#
#
#
# Elastic Constant Matrix: (Units=GPa)
#
#
# Indices 1 2 3 4 5 6 
#
# 1 68.5506 20.0266 15.8438 0.0000 -15.2774 0.0000
# 2 20.0266 53.4793 40.0007 0.0000 -3.3351 0.0000
# 3 15.8438 40.0007 86.0957 0.0000 -11.7965 0.0000
# 4 0.0000 0.0000 0.0000 22.4489 0.0000 -0.9533
# 5 -15.2774 -3.3351 -11.7965 0.0000 14.5350 0.0000
# 6 0.0000 0.0000 0.0000 -0.9533 0.0000 12.6258
#
#
#
# Elastic Compliance Matrix: (Units=1/GPa)
#
#
# Indices 1 2 3 4 5 6 
#
# 1 0.021758 -0.009350 0.003578 0.000000 0.023628 0.000000
# 2 -0.009350 0.032971 -0.015648 0.000000 -0.014962 0.000000
# 3 0.003578 -0.015648 0.020534 0.000000 0.016835 0.000000
# 4 0.000000 0.000000 0.000000 0.044689 0.000000 0.003374
# 5 0.023628 -0.014962 0.016835 0.000000 0.103864 0.000000
# 6 0.000000 0.000000 0.000000 0.003374 0.000000 0.079458
#
#
# Mechanical properties :
#
#
# Convention : Reuss Voigt Hill
#
# Bulk Modulus (GPa) = 30.84396 39.98531 35.41463
# Shear Modulus (GPa) = 14.00863 18.73889 16.37376
#
# Velocity S-wave (km/s) = 2.77803 3.21301 3.00340
# Velocity P-wave (km/s) = 5.22323 5.98271 5.61582
#
# Compressibility (1/GPa) = 0.03242126
#
# Stress axis : x y z
#
# Youngs Moduli (GPa) = 45.95959 30.32926 48.70090
#
# Poissons Ratio (x) = 0.28359 -0.17423
# Poissons Ratio (y) = 0.42974 0.76208
# Poissons Ratio (z) = -0.16442 0.47460
#
# Static dielectric constant tensor:
#      x y z
#    x 1.679160 0.000000 -0.018540 
#    y 0.000000 1.624410 0.000000 
#    z -0.018540 0.000000 1.631180 
# 
# From -- ./inp_files/281326.got.cif
#   From: 2010.05.17/outbox.cif.g08.bks.cpg/sg12_141_cif.got.tgz:281326.got - 2010.06.03 13:09:07.
