data_PCOD9191748
_publ_section_title
;
Structure prediction by ZEFSAII (Michael W. Deem and Ramdas Pophale) SiO2 
 PCOD9191748
Probable space group: C 2/M
;
_chemical_formula_sum "Si O2"
_cell_formula_units_Z 48
_cell_length_a 16.104914
_cell_length_b 9.115820
_cell_length_c 19.247642
_cell_angle_alpha 90.000000
_cell_angle_beta 47.089240
_cell_angle_gamma 90.000000
_cell_volume 2069.612040
_symmetry_space_group_name_H-M "C 2/M"
_symmetry_group_IT_number 12
_symmetry_cell_setting 'monoclinic'
loop_
_space_group_symop_operation_xyz
x,y,z
-x,y,-z
-x,-y,-z
x,-y,z
1/2+x,1/2+y,z
1/2-x,1/2+y,-z
1/2-x,1/2-y,-z
1/2+x,1/2-y,z
loop_
_atom_site_type_symbol
_atom_site_label
_atom_site_fract_x
_atom_site_fract_y
_atom_site_fract_z
Si Si1 0.392205 0.832638 0.987402
Si Si2 0.553552 0.326183 0.700802
Si Si3 0.104910 0.329458 0.536616
Si Si4 0.660534 0.169942 0.351025
Si Si5 0.828566 0.333365 0.858538
Si Si6 0.871155 0.325021 0.199236
O O1 0.359596 0.837728 0.923458
O O2 0.524367 0.787933 0.911308
O O3 0.380111 0.000000 0.020815
O O4 0.298624 0.727307 0.073282
O O5 0.559034 0.500000 0.703247
O O6 0.620145 0.269869 0.595214
O O7 0.423296 0.270861 0.771558
O O8 0.598817 0.249932 0.744511
O O9 0.134159 0.500000 0.533693
O O10 0.969656 0.324778 0.597944
O O11 0.160740 0.282997 0.432084
O O12 0.745965 0.265274 0.256994
O O13 0.696736 0.000000 0.328305
O O14 0.839225 0.500000 0.825644
O O15 0.871698 0.500000 0.205784
#
# Coordination Sequence:
#
# PCOD9191748 Si02
#       6
#     8   8   8   8   8   8
#     4   8  15  27  43  67  98 131 164 198 241 293
#     4  11  21  32  50  76 104 134 169 208 249 294
#     4   9  19  37  56  74  99 131 167 206 251 302
#     4   9  19  36  57  76  97 130 168 206 250 303
#     4   9  16  27  45  69  98 131 164 202 247 293
#     4  10  20  33  51  76 106 135 165 207 252 293
#
# _framework density 23.192754000000001
#
# number of rings (size 3 to 8) (size 9 to 14) (size 15 to 20)
#    0.000    2.667    0.000    4.500    0.000    6.667 
#    0.000    1.667    0.000    1.000    0.000    7.000 
#    0.000    0.000    0.000    0.000    0.000    0.000 
#
# Total GULP energy -134264.846927 kJ/mol
# GULP energy per Si atom -5594.368622 kJ/mol
# Density = 2.313997 g / cm^3
# Si number density = 23.192754 Si / 1000 Ang^3
#
#
#
# Elastic Constant Matrix: (Units=GPa)
#
#
# Indices 1 2 3 4 5 6 
#
# 1 70.4097 22.1378 31.2387 0.0000 -4.5728 0.0000
# 2 22.1378 80.9014 60.3576 0.0000 -4.5608 0.0000
# 3 31.2387 60.3576 136.4220 0.0000 -6.7938 0.0000
# 4 0.0000 0.0000 0.0000 33.9596 0.0000 -13.1660
# 5 -4.5728 -4.5608 -6.7938 0.0000 55.7900 0.0000
# 6 0.0000 0.0000 0.0000 -13.1660 0.0000 15.0995
#
#
#
# Elastic Compliance Matrix: (Units=1/GPa)
#
#
# Indices 1 2 3 4 5 6 
#
# 1 0.016171 -0.002458 -0.002575 0.000000 0.000811 0.000000
# 2 -0.002458 0.018840 -0.007753 0.000000 0.000395 0.000000
# 3 -0.002575 -0.007753 0.011377 0.000000 0.000541 0.000000
# 4 0.000000 0.000000 0.000000 0.044485 0.000000 0.038789
# 5 0.000811 0.000395 0.000541 0.000000 0.018089 0.000000
# 6 0.000000 0.000000 0.000000 0.038789 0.000000 0.100049
#
#
# Mechanical properties :
#
#
# Convention : Reuss Voigt Hill
#
# Bulk Modulus (GPa) = 48.04130 57.24459 52.64294
# Shear Modulus (GPa) = 20.70217 32.56975 26.63596
#
# Velocity S-wave (km/s) = 2.99091 3.75147 3.39257
# Velocity P-wave (km/s) = 5.71719 6.59549 6.17198
#
# Compressibility (1/GPa) = 0.02081543
#
# Stress axis : x y z
#
# Youngs Moduli (GPa) = 61.84097 53.07950 87.89818
#
# Poissons Ratio (x) = 0.13048 0.22633
# Poissons Ratio (y) = 0.15201 0.68145
# Poissons Ratio (z) = 0.15923 0.41151
#
# Static dielectric constant tensor:
#      x y z
#    x 2.000500 0.000000 0.003730 
#    y 0.000000 1.777100 0.000000 
#    z 0.003730 0.000000 1.877070 
# 
# From -- ./inp_files/345408.got.cif
#   From: 2010.05.17/outbox.cif.g08.bks.cpg/sg12_173_cif.got.tgz:345408.got - 2010.06.03 13:09:07.
