data_PCOD9191644
_publ_section_title
;
Structure prediction by ZEFSAII (Michael W. Deem and Ramdas Pophale) SiO2 
 PCOD9191644
Probable space group: C 2/M
;
_chemical_formula_sum "Si O2"
_cell_formula_units_Z 36
_cell_length_a 5.361730
_cell_length_b 24.865224
_cell_length_c 16.049445
_cell_angle_alpha 90.000000
_cell_angle_beta 121.359848
_cell_angle_gamma 90.000000
_cell_volume 1827.142146
_symmetry_space_group_name_H-M "C 2/M"
_symmetry_group_IT_number 12
_symmetry_cell_setting 'monoclinic'
loop_
_space_group_symop_operation_xyz
x,y,z
-x,y,-z
-x,-y,-z
x,-y,z
1/2+x,1/2+y,z
1/2-x,1/2+y,-z
1/2-x,1/2-y,-z
1/2+x,1/2-y,z
loop_
_atom_site_type_symbol
_atom_site_label
_atom_site_fract_x
_atom_site_fract_y
_atom_site_fract_z
Si Si1 0.099608 0.891809 0.112531
Si Si2 0.152023 0.435258 0.610852
Si Si3 0.175611 0.434978 0.272196
Si Si4 0.153065 0.000000 0.934862
Si Si5 0.422843 0.272859 0.113416
O O1 0.445165 0.902117 0.176403
O O2 0.957863 0.945595 0.127019
O O3 0.977881 0.836175 0.125270
O O4 0.000000 0.890046 0.000000
O O5 0.171871 0.500000 0.606916
O O6 0.488840 0.417391 0.676309
O O7 0.000000 0.414988 0.500000
O O8 0.952283 0.425243 0.656831
O O9 0.151629 0.500000 0.251299
O O10 0.500000 0.000000 0.000000
O O11 0.000000 0.000000 0.000000
O O12 0.734843 0.245549 0.158162
O O13 0.250000 0.250000 0.000000
#
# Coordination Sequence:
#
# PCOD9191644 Si02
#       5
#     8   8   8   4   8
#     4  11  22  38  55  78 119 153 188 224 275 325
#     4   9  18  34  54  74 106 144 180 225 272 323
#     4  10  20  33  50  81 109 143 186 218 267 336
#     4  10  24  34  50  74 103 154 187 210 264 324
#     4  10  21  37  55  73  97 148 194 237 266 305
#
# _framework density 19.702901000000001
#
# number of rings (size 3 to 8) (size 9 to 14) (size 15 to 20)
#    0.000    2.000    3.333    0.667    3.111    8.000 
#    0.000    0.000    0.000    0.000    0.000    0.000 
#    0.000   17.778    0.000    0.000    0.000    0.000 
#
# Total GULP energy -100475.425418 kJ/mol
# GULP energy per Si atom -5581.968079 kJ/mol
# Density = 1.965806 g / cm^3
# Si number density = 19.702901 Si / 1000 Ang^3
#
#
#
# Elastic Constant Matrix: (Units=GPa)
#
#
# Indices 1 2 3 4 5 6 
#
# 1 135.3431 38.7072 36.2119 0.0000 25.9281 0.0000
# 2 38.7072 131.6942 9.6149 0.0000 15.9306 0.0000
# 3 36.2119 9.6149 98.9944 0.0000 9.7938 0.0000
# 4 0.0000 0.0000 0.0000 -6.7979 0.0000 1.4533
# 5 25.9281 15.9306 9.7938 0.0000 26.1549 0.0000
# 6 0.0000 0.0000 0.0000 1.4533 0.0000 13.0226
#
#
#
# Elastic Compliance Matrix: (Units=1/GPa)
#
#
# Indices 1 2 3 4 5 6 
#
# 1 0.010169 -0.001828 -0.002757 0.000000 -0.007935 0.000000
# 2 -0.001828 0.008535 0.000181 0.000000 -0.003455 0.000000
# 3 -0.002757 0.000181 0.011250 0.000000 -0.001590 0.000000
# 4 0.000000 0.000000 0.000000 -0.143677 0.000000 0.016034
# 5 -0.007935 -0.003455 -0.001590 0.000000 0.048800 0.000000
# 6 0.000000 0.000000 0.000000 0.016034 0.000000 0.075000
#
#
# Mechanical properties :
#
#
# Convention : Reuss Voigt Hill
#
# Bulk Modulus (GPa) = 47.28794 59.45554 53.37174
# Shear Modulus (GPa) = 192.80219 25.24244 109.02232
#
# Velocity S-wave (km/s) = 9.90289 3.58320 7.44669
# Velocity P-wave (km/s) = 12.44222 6.88191 10.05409
#
# Compressibility (1/GPa) = 0.02114704
#
# Stress axis : x y z
#
# Youngs Moduli (GPa) = 98.33539 117.16178 88.89011
#
# Poissons Ratio (x) = 0.21414 0.24510
# Poissons Ratio (y) = 0.17973 -0.01612
# Poissons Ratio (z) = 0.27114 -0.02125
#
# Static dielectric constant tensor:
#      x y z
#    x 1.746090 0.000000 -0.032010 
#    y 0.000000 1.723290 0.000000 
#    z -0.032010 0.000000 1.735290 
# 
# From -- ./inp_files/191435.got.cif
#   From: 2010.05.17/outbox.cif.g08.bks.cpg/sg12_96_cif.got.tgz:191435.got - 2010.06.03 13:09:07.
