data_PCOD9191264
_publ_section_title
;
Structure prediction by ZEFSAII (Michael W. Deem and Ramdas Pophale) SiO2 
 PCOD9191264
Probable space group: C 2/M
;
_chemical_formula_sum "Si O2"
_cell_formula_units_Z 56
_cell_length_a 14.151306
_cell_length_b 7.340831
_cell_length_c 26.751288
_cell_angle_alpha 90.000000
_cell_angle_beta 59.759742
_cell_angle_gamma 90.000000
_cell_volume 2400.825254
_symmetry_space_group_name_H-M "C 2/M"
_symmetry_group_IT_number 12
_symmetry_cell_setting 'monoclinic'
loop_
_space_group_symop_operation_xyz
x,y,z
-x,y,-z
-x,-y,-z
x,-y,z
1/2+x,1/2+y,z
1/2-x,1/2+y,-z
1/2-x,1/2-y,-z
1/2+x,1/2-y,z
loop_
_atom_site_type_symbol
_atom_site_label
_atom_site_fract_x
_atom_site_fract_y
_atom_site_fract_z
Si Si1 0.679930 0.281091 0.952845
Si Si2 0.938476 0.710351 0.275838
Si Si3 0.101351 0.779725 0.505860
Si Si4 0.855785 0.219581 0.196211
Si Si5 0.336030 0.777743 0.829135
Si Si6 0.981756 0.780926 0.926302
Si Si7 0.833137 0.712416 0.403720
O O1 0.688614 0.500000 0.954682
O O2 0.788217 0.213545 0.895513
O O3 0.580911 0.247868 0.939446
O O4 0.629975 0.211081 0.018526
O O5 0.966216 0.500000 0.279597
O O6 0.851567 0.717058 0.254059
O O7 0.891123 0.791146 0.339381
O O8 0.048170 0.789975 0.221885
O O9 0.095236 0.724575 0.565289
O O10 0.215308 0.711858 0.451721
O O11 0.000000 0.718726 0.500000
O O12 0.103792 0.000000 0.504961
O O13 0.754220 0.271752 0.188621
O O14 0.967296 0.286722 0.139137
O O15 0.858628 0.000000 0.195609
O O16 0.338205 0.000000 0.831470
O O17 0.971942 0.000000 0.925550
O O18 0.813257 0.500000 0.397468
#
# Coordination Sequence:
#
# PCOD9191264 Si02
#       7
#     8   8   8   8   8   8   8
#     4   7   9  17  36  60  82 108 146 190 232 270
#     4  10  20  33  47  67  98 129 153 183 227 275
#     4   9  18  34  55  76  97 121 151 188 227 265
#     4   9  17  30  47  67  90 119 158 198 231 268
#     4   8  15  28  45  64  89 122 157 190 228 279
#     4   7  10  18  36  61  84 106 143 196 237 262
#     4   9  19  34  50  71  99 127 154 185 222 267
#
# _framework density 23.325313000000001
#
# number of rings (size 3 to 8) (size 9 to 14) (size 15 to 20)
#    0.000    3.571    0.000    2.571    0.000    2.000 
#    0.000    1.429    0.000    0.000    0.000    8.000 
#    0.000    0.000    0.000    0.000    0.000    0.000 
#
# Total GULP energy -156271.254785 kJ/mol
# GULP energy per Si atom -5581.116242 kJ/mol
# Density = 2.327222 g / cm^3
# Si number density = 23.325313 Si / 1000 Ang^3
#
#
#
# Elastic Constant Matrix: (Units=GPa)
#
#
# Indices 1 2 3 4 5 6 
#
# 1 78.5961 -7.8917 52.2323 0.0002 12.0286 0.0000
# 2 -7.8917 89.1019 7.2008 0.0005 -6.8958 0.0000
# 3 52.2323 7.2008 203.6631 0.0001 26.9241 0.0000
# 4 0.0002 0.0005 0.0001 94.6646 0.0002 -11.5680
# 5 12.0286 -6.8958 26.9241 0.0002 20.7447 0.0000
# 6 0.0000 0.0000 0.0000 -11.5680 0.0000 9.1187
#
#
#
# Elastic Compliance Matrix: (Units=1/GPa)
#
#
# Indices 1 2 3 4 5 6 
#
# 1 0.015865 0.001377 -0.003575 0.000000 -0.004101 0.000000
# 2 0.001377 0.011848 -0.001433 0.000000 0.005000 0.000000
# 3 -0.003575 -0.001433 0.006840 0.000000 -0.007281 0.000000
# 4 0.000000 0.000000 0.000000 0.012502 0.000000 0.015860
# 5 -0.004101 0.005000 -0.007281 0.000000 0.061695 0.000000
# 6 0.000000 0.000000 0.000000 0.015860 0.000000 0.129784
#
#
# Mechanical properties :
#
#
# Convention : Reuss Voigt Hill
#
# Bulk Modulus (GPa) = 36.64339 52.71600 44.67970
# Shear Modulus (GPa) = 19.61600 46.22692 32.92146
#
# Velocity S-wave (km/s) = 2.90310 4.45661 3.76094
# Velocity P-wave (km/s) = 5.19434 7.00937 6.16897
#
# Compressibility (1/GPa) = 0.02729005
#
# Stress axis : x y z
#
# Youngs Moduli (GPa) = 63.03086 84.40391 146.19410
#
# Poissons Ratio (x) = -0.11620 0.52270
# Poissons Ratio (y) = -0.08678 0.20949
# Poissons Ratio (z) = 0.22536 0.12095
#
# Static dielectric constant tensor:
#      x y z
#    x 1.887360 0.000000 -0.016150 
#    y 0.000000 1.880130 0.000000 
#    z -0.016150 0.000000 1.888550 
# 
# From -- ./inp_files/359650.got.cif
#   From: 2010.05.17/outbox.cif.g08.bks.cpg/sg12_180_cif.got.tgz:359650.got - 2010.06.03 13:09:07.
