data_PCOD9191959
_publ_section_title
;
Structure prediction by ZEFSAII (Michael W. Deem and Ramdas Pophale) SiO2 
 PCOD9191959
Probable space group: C 2/M
;
_chemical_formula_sum "Si O2"
_cell_formula_units_Z 56
_cell_length_a 9.677528
_cell_length_b 15.218356
_cell_length_c 21.984874
_cell_angle_alpha 90.000000
_cell_angle_beta 125.190035
_cell_angle_gamma 90.000000
_cell_volume 2646.113713
_symmetry_space_group_name_H-M "C 2/M"
_symmetry_group_IT_number 12
_symmetry_cell_setting 'monoclinic'
loop_
_space_group_symop_operation_xyz
x,y,z
-x,y,-z
-x,-y,-z
x,-y,z
1/2+x,1/2+y,z
1/2-x,1/2+y,-z
1/2-x,1/2-y,-z
1/2+x,1/2-y,z
loop_
_atom_site_type_symbol
_atom_site_label
_atom_site_fract_x
_atom_site_fract_y
_atom_site_fract_z
Si Si1 0.416553 0.828834 0.834043
Si Si2 0.302348 0.101435 0.434739
Si Si3 0.809199 0.892614 0.466199
Si Si4 0.603612 0.350727 0.845913
Si Si5 0.845085 0.339519 0.005928
Si Si6 0.560383 0.105716 0.295066
Si Si7 0.752764 0.900061 0.711092
O O1 0.503134 0.734372 0.845447
O O2 0.244964 0.829774 0.830329
O O3 0.390623 0.863068 0.759504
O O4 0.560939 0.878795 0.911207
O O5 0.500000 0.097330 0.500000
O O6 0.225564 0.143079 0.475395
O O7 0.269384 0.143359 0.360668
O O8 0.236942 0.000000 0.414806
O O9 0.683475 0.864653 0.380754
O O10 0.000000 0.870817 0.500000
O O11 0.791685 0.000000 0.464294
O O12 0.709095 0.390017 0.929615
O O13 0.447676 0.403073 0.778535
O O14 0.750000 0.250000 0.000000
O O15 0.000000 0.316910 0.000000
O O16 0.372164 0.135672 0.268476
O O17 0.567141 0.000000 0.293384
O O18 0.689105 0.000000 0.686428
#
# Coordination Sequence:
#
# PCOD9191959 Si02
#       7
#     8   8   8   8   8   8   8
#     4  10  20  35  56  78 104 135 170 213 258 308
#     4   9  15  28  48  70  97 134 173 209 251 295
#     4   9  17  28  46  72 101 132 171 214 251 296
#     4  10  20  35  56  79 103 134 172 212 257 309
#     4   8  16  32  53  76  98 128 171 212 250 300
#     4  10  20  34  51  77 110 139 170 213 260 302
#     4  10  20  33  52  78 108 138 173 214 256 304
#
# _framework density 21.163111000000001
#
# number of rings (size 3 to 8) (size 9 to 14) (size 15 to 20)
#    0.000    2.571    1.429    0.857    2.000    1.714 
#    0.000    0.714    0.000    6.000    0.000    0.000 
#    0.000    0.000    0.000    0.000    0.000    0.000 
#
# Total GULP energy -155909.457711 kJ/mol
# GULP energy per Si atom -5568.194918 kJ/mol
# Density = 2.111494 g / cm^3
# Si number density = 21.163111 Si / 1000 Ang^3
#
#
#
# Elastic Constant Matrix: (Units=GPa)
#
#
# Indices 1 2 3 4 5 6 
#
# 1 105.6680 3.1877 35.6879 0.0000 -1.4829 0.0000
# 2 3.1877 21.9347 2.0927 0.0000 0.1159 0.0000
# 3 35.6879 2.0927 101.8126 0.0000 -2.1265 0.0000
# 4 0.0000 0.0000 0.0000 19.0149 0.0000 35.2559
# 5 -1.4829 0.1159 -2.1265 0.0000 37.5748 0.0000
# 6 0.0000 0.0000 0.0000 35.2559 0.0000 135.5608
#
#
#
# Elastic Compliance Matrix: (Units=1/GPa)
#
#
# Indices 1 2 3 4 5 6 
#
# 1 0.010768 -0.001209 -0.003745 0.000000 0.000217 0.000000
# 2 -0.001209 0.045817 -0.000523 0.000000 -0.000219 0.000000
# 3 -0.003745 -0.000523 0.011156 0.000000 0.000485 0.000000
# 4 0.000000 0.000000 0.000000 0.101567 0.000000 -0.026415
# 5 0.000217 -0.000219 0.000485 0.000000 0.026650 0.000000
# 6 0.000000 0.000000 0.000000 -0.026415 0.000000 0.014247
#
#
# Mechanical properties :
#
#
# Convention : Reuss Voigt Hill
#
# Bulk Modulus (GPa) = 17.60956 34.59466 26.10211
# Shear Modulus (GPa) = 20.82590 50.99321 35.90956
#
# Velocity S-wave (km/s) = 3.14039 4.91402 4.12369
# Velocity P-wave (km/s) = 4.63555 6.96987 5.91892
#
# Compressibility (1/GPa) = 0.05678734
#
# Stress axis : x y z
#
# Youngs Moduli (GPa) = 92.86818 21.82613 89.64120
#
# Poissons Ratio (x) = 0.02638 0.33571
# Poissons Ratio (y) = 0.11225 0.04685
# Poissons Ratio (z) = 0.34780 0.01141
#
# Static dielectric constant tensor:
#      x y z
#    x 1.686750 0.000000 0.003440 
#    y 0.000000 1.821440 0.000000 
#    z 0.003440 0.000000 1.815370 
# 
# From -- ./inp_files/258222.got.cif
#   From: 2010.05.17/outbox.cif.g08.bks.cpg/sg12_130_cif.got.tgz:258222.got - 2010.06.03 13:09:07.
