data_PCOD9191646
_publ_section_title
;
Structure prediction by ZEFSAII (Michael W. Deem and Ramdas Pophale) SiO2 
 PCOD9191646
Probable space group: C 2/M
;
_chemical_formula_sum "Si O2"
_cell_formula_units_Z 56
_cell_length_a 13.014914
_cell_length_b 20.370308
_cell_length_c 12.010760
_cell_angle_alpha 90.000000
_cell_angle_beta 63.393772
_cell_angle_gamma 90.000000
_cell_volume 2847.070249
_symmetry_space_group_name_H-M "C 2/M"
_symmetry_group_IT_number 12
_symmetry_cell_setting 'monoclinic'
loop_
_space_group_symop_operation_xyz
x,y,z
-x,y,-z
-x,-y,-z
x,-y,z
1/2+x,1/2+y,z
1/2-x,1/2+y,-z
1/2-x,1/2-y,-z
1/2+x,1/2-y,z
loop_
_atom_site_type_symbol
_atom_site_label
_atom_site_fract_x
_atom_site_fract_y
_atom_site_fract_z
Si Si1 0.336648 0.305110 0.007804
Si Si2 0.248853 0.578360 0.905986
Si Si3 0.940783 0.427927 0.833568
Si Si4 0.179207 0.630787 0.713200
Si Si5 0.230163 0.176172 0.552736
Si Si6 0.660380 0.816836 0.272419
Si Si7 0.527877 0.263109 0.759602
O O1 0.318344 0.376737 0.960210
O O2 0.459523 0.282171 0.903945
O O3 0.250000 0.250000 0.000000
O O4 0.287216 0.307088 0.156806
O O5 0.275830 0.500000 0.887583
O O6 0.254249 0.615151 0.785087
O O7 0.119120 0.584924 0.018492
O O8 0.903395 0.500000 0.818531
O O9 0.892474 0.377205 0.768713
O O10 0.076788 0.421616 0.768753
O O11 0.247738 0.630519 0.563943
O O12 0.109887 0.700370 0.746941
O O13 0.250000 0.250000 0.500000
O O14 0.322175 0.168313 0.607067
O O15 0.103829 0.179701 0.667550
O O16 0.570694 0.759528 0.282112
#
# Coordination Sequence:
#
# PCOD9191646 Si02
#       7
#     8   8   8   8   8   8   8
#     4   9  19  34  57  86 110 141 189 243 283 332
#     4  10  20  36  58  84 118 149 183 238 295 344
#     4   9  18  34  57  80 105 142 177 225 290 330
#     4  10  20  33  50  83 114 143 188 224 278 347
#     4  10  22  35  49  75 112 154 181 223 282 335
#     4   9  19  37  52  80 112 136 187 228 277 338
#     4   9  20  34  54  82 110 148 182 239 289 328
#
# _framework density 19.669342
#
# number of rings (size 3 to 8) (size 9 to 14) (size 15 to 20)
#    0.000    2.571    0.000    1.714    8.000    6.857 
#    5.143    2.143    0.000    3.429    0.000    4.000 
#    0.000    0.000    0.000    0.000    0.000    0.000 
#
# Total GULP energy -155979.754839 kJ/mol
# GULP energy per Si atom -5570.705530 kJ/mol
# Density = 1.962457 g / cm^3
# Si number density = 19.669342 Si / 1000 Ang^3
#
#
#
# Elastic Constant Matrix: (Units=GPa)
#
#
# Indices 1 2 3 4 5 6 
#
# 1 46.4850 14.9673 26.0767 0.0000 2.0820 0.0000
# 2 14.9673 59.0204 26.5365 0.0000 5.3663 0.0000
# 3 26.0767 26.5365 102.3034 0.0000 15.4648 0.0000
# 4 0.0000 0.0000 0.0000 12.5922 0.0000 -7.5393
# 5 2.0820 5.3663 15.4648 0.0000 35.4894 0.0000
# 6 0.0000 0.0000 0.0000 -7.5393 0.0000 11.4051
#
#
#
# Elastic Compliance Matrix: (Units=1/GPa)
#
#
# Indices 1 2 3 4 5 6 
#
# 1 0.026030 -0.004138 -0.005808 0.000000 0.001629 0.000000
# 2 -0.004138 0.019858 -0.003939 0.000000 -0.001044 0.000000
# 3 -0.005808 -0.003939 0.012991 0.000000 -0.004725 0.000000
# 4 0.000000 0.000000 0.000000 0.131434 0.000000 0.086883
# 5 0.001629 -0.001044 -0.004725 0.000000 0.030298 0.000000
# 6 0.000000 0.000000 0.000000 0.086883 0.000000 0.145114
#
#
# Mechanical properties :
#
#
# Convention : Reuss Voigt Hill
#
# Bulk Modulus (GPa) = 32.14339 38.10776 35.12557
# Shear Modulus (GPa) = 12.38042 21.24590 16.81316
#
# Velocity S-wave (km/s) = 2.51156 3.29013 2.92685
# Velocity P-wave (km/s) = 4.97875 5.81804 5.41468
#
# Compressibility (1/GPa) = 0.03111060
#
# Stress axis : x y z
#
# Youngs Moduli (GPa) = 38.41767 50.35660 76.97590
#
# Poissons Ratio (x) = 0.20837 0.44706
# Poissons Ratio (y) = 0.15897 0.30318
# Poissons Ratio (z) = 0.22312 0.19833
#
# Static dielectric constant tensor:
#      x y z
#    x 1.749910 0.000000 -0.015320 
#    y 0.000000 1.706270 0.000000 
#    z -0.015320 0.000000 1.746600 
# 
# From -- ./inp_files/133851.got.cif
#   From: 2010.05.17/outbox.cif.g08.bks.cpg/sg12_67_cif.got.tgz:133851.got - 2010.06.03 13:09:07.
