data_PCOD9191632
_publ_section_title
;
Structure prediction by ZEFSAII (Michael W. Deem and Ramdas Pophale) SiO2 
 PCOD9191632
Probable space group: C 2/M
;
_chemical_formula_sum "Si O2"
_cell_formula_units_Z 52
_cell_length_a 19.564418
_cell_length_b 7.933518
_cell_length_c 21.918923
_cell_angle_alpha 90.000000
_cell_angle_beta 142.741694
_cell_angle_gamma 90.000000
_cell_volume 2059.686384
_symmetry_space_group_name_H-M "C 2/M"
_symmetry_group_IT_number 12
_symmetry_cell_setting 'monoclinic'
loop_
_space_group_symop_operation_xyz
x,y,z
-x,y,-z
-x,-y,-z
x,-y,z
1/2+x,1/2+y,z
1/2-x,1/2+y,-z
1/2-x,1/2-y,-z
1/2+x,1/2-y,z
loop_
_atom_site_type_symbol
_atom_site_label
_atom_site_fract_x
_atom_site_fract_y
_atom_site_fract_z
Si Si1 0.338687 0.303074 0.973488
Si Si2 0.874788 0.202135 0.484392
Si Si3 0.597034 0.803884 0.849023
Si Si4 0.132641 0.307588 0.132572
Si Si5 0.599336 0.500000 0.192473
Si Si6 0.362617 0.319734 0.654853
Si Si7 0.118444 0.796785 0.652364
O O1 0.337403 0.500000 0.955317
O O2 0.208341 0.247246 0.891949
O O3 0.389082 0.192859 0.955085
O O4 0.396039 0.291534 0.081086
O O5 0.764585 0.256427 0.442998
O O6 0.870697 0.259987 0.410486
O O7 0.998453 0.261926 0.593772
O O8 0.872012 0.000000 0.480328
O O9 0.479065 0.780387 0.730026
O O10 0.611720 0.000000 0.874043
O O11 0.120630 0.500000 0.148525
O O12 0.077800 0.150955 0.127815
O O13 0.266111 0.255189 0.232636
O O14 0.631530 0.358386 0.268375
O O15 0.376414 0.500000 0.632180
O O16 0.111887 0.000000 0.646610
#
# Coordination Sequence:
#
# PCOD9191632 Si02
#       7
#     8   8   8   8   4   8   8
#     4  10  21  38  61  84 110 137 187 244 278 330
#     4   9  15  28  49  73 105 146 184 226 270 329
#     4  10  21  38  60  84 105 144 190 232 285 335
#     4  11  20  36  58  82 117 153 187 230 282 338
#     4  10  22  36  52  88 118 152 186 228 284 338
#     4  10  20  33  50  78 114 147 178 233 276 326
#     4   8  15  27  48  76 106 142 186 223 269 325
#
# _framework density 25.246559999999999
#
# number of rings (size 3 to 8) (size 9 to 14) (size 15 to 20)
#    0.462    1.846    2.308    2.308    0.000    2.462 
#    1.385    3.077    0.000    2.769    0.000    0.000 
#    0.000    0.000    0.000    0.000    0.000    0.000 
#
# Total GULP energy -144737.611547 kJ/mol
# GULP energy per Si atom -5566.831213 kJ/mol
# Density = 2.518910 g / cm^3
# Si number density = 25.246560 Si / 1000 Ang^3
#
#
#
# Elastic Constant Matrix: (Units=GPa)
#
#
# Indices 1 2 3 4 5 6 
#
# 1 101.6127 23.0429 26.7549 0.0000 -4.1441 0.0000
# 2 23.0429 84.8832 4.0654 0.0000 -0.6429 0.0000
# 3 26.7549 4.0654 102.1053 0.0000 33.1058 0.0000
# 4 0.0000 0.0000 0.0000 11.3474 0.0000 1.3639
# 5 -4.1441 -0.6429 33.1058 0.0000 50.3161 0.0000
# 6 0.0000 0.0000 0.0000 1.3639 0.0000 9.8688
#
#
#
# Elastic Compliance Matrix: (Units=1/GPa)
#
#
# Indices 1 2 3 4 5 6 
#
# 1 0.011755 -0.002965 -0.004149 0.000000 0.003660 0.000000
# 2 -0.002965 0.012565 0.000386 0.000000 -0.000338 0.000000
# 3 -0.004149 0.000386 0.013951 0.000000 -0.009516 0.000000
# 4 0.000000 0.000000 0.000000 0.089615 0.000000 -0.012385
# 5 0.003660 -0.000338 -0.009516 0.000000 0.026433 0.000000
# 6 0.000000 0.000000 0.000000 -0.012385 0.000000 0.103041
#
#
# Mechanical properties :
#
#
# Convention : Reuss Voigt Hill
#
# Bulk Modulus (GPa) = 40.29712 44.03640 42.16676
# Shear Modulus (GPa) = 17.91562 29.95566 23.93564
#
# Velocity S-wave (km/s) = 2.66677 3.44833 3.08242
# Velocity P-wave (km/s) = 5.04760 5.77365 5.42279
#
# Compressibility (1/GPa) = 0.02481567
#
# Stress axis : x y z
#
# Youngs Moduli (GPa) = 85.06801 79.58831 71.67964
#
# Poissons Ratio (x) = 0.23596 0.29740
# Poissons Ratio (y) = 0.25220 -0.02767
# Poissons Ratio (z) = 0.35294 -0.03072
#
# Static dielectric constant tensor:
#      x y z
#    x 2.056910 0.000000 0.086150 
#    y 0.000000 2.007960 0.000000 
#    z 0.086150 0.000000 2.064410 
# 
# From -- ./inp_files/367414.got.cif
#   From: 2010.05.17/outbox.cif.g08.bks.cpg/sg12_184_cif.got.tgz:367414.got - 2010.06.03 13:09:07.
