data_PCOD9191529
_publ_section_title
;
Structure prediction by ZEFSAII (Michael W. Deem and Ramdas Pophale) SiO2 
 PCOD9191529
Probable space group: C 2/M
;
_chemical_formula_sum "Si O2"
_cell_formula_units_Z 64
_cell_length_a 32.025937
_cell_length_b 9.721147
_cell_length_c 16.209304
_cell_angle_alpha 90.000000
_cell_angle_beta 132.857463
_cell_angle_gamma 90.000000
_cell_volume 3699.271259
_symmetry_space_group_name_H-M "C 2/M"
_symmetry_group_IT_number 12
_symmetry_cell_setting 'monoclinic'
loop_
_space_group_symop_operation_xyz
x,y,z
-x,y,-z
-x,-y,-z
x,-y,z
1/2+x,1/2+y,z
1/2-x,1/2+y,-z
1/2-x,1/2-y,-z
1/2+x,1/2-y,z
loop_
_atom_site_type_symbol
_atom_site_label
_atom_site_fract_x
_atom_site_fract_y
_atom_site_fract_z
Si Si1 0.827235 0.161456 0.545196
Si Si2 0.253382 0.149871 0.079947
Si Si3 0.570374 0.167282 0.864705
Si Si4 0.457302 0.334346 0.679763
Si Si5 0.440444 0.650470 0.466385
Si Si6 0.839347 0.165078 0.907911
Si Si7 0.612930 0.151809 0.736160
Si Si8 0.273355 0.662032 0.653993
O O1 0.894216 0.195690 0.629910
O O2 0.784953 0.251030 0.431321
O O3 0.805281 0.178923 0.609387
O O4 0.821627 0.000000 0.515757
O O5 0.214801 0.188505 0.105138
O O6 0.319864 0.142003 0.186684
O O7 0.232389 0.000000 0.024481
O O8 0.250000 0.250000 0.000000
O O9 0.508544 0.240990 0.783022
O O10 0.597247 0.195604 0.808979
O O11 0.568257 0.000000 0.871837
O O12 0.610363 0.241798 0.986489
O O13 0.468872 0.500000 0.705349
O O14 0.452278 0.304882 0.575323
O O15 0.500000 0.637415 0.500000
O O16 0.412330 0.500000 0.433167
O O17 0.407036 0.751130 0.363039
O O18 0.816259 0.200101 0.785690
O O19 0.853520 0.000000 0.928872
O O20 0.586811 0.000000 0.691539
O O21 0.259579 0.500000 0.646257
#
# Coordination Sequence:
#
# PCOD9191529 Si02
#       8
#     8   8   8   8   8   8   8   8
#     4   9  19  37  60  84 110 139 172 216 267 318
#     4  10  20  34  50  73 104 139 177 216 258 309
#     4  11  22  36  54  77 107 143 182 223 265 310
#     4  10  21  37  55  78 108 143 181 217 262 320
#     4  10  20  33  50  73 102 138 179 216 254 307
#     4  10  21  36  56  79 106 143 181 218 265 318
#     4  10  21  34  48  71 105 139 174 218 264 307
#     4   9  19  37  60  85 110 137 173 217 267 319
#
# _framework density 17.300705000000001
#
# number of rings (size 3 to 8) (size 9 to 14) (size 15 to 20)
#    0.000    2.125    2.500    0.375    1.750    2.750 
#    0.000    0.625    0.000    3.750    0.000    0.000 
#    0.000    0.000    0.000    0.000    0.000    0.000 
#
# Total GULP energy -178234.275337 kJ/mol
# GULP energy per Si atom -5569.821104 kJ/mol
# Density = 1.726133 g / cm^3
# Si number density = 17.300705 Si / 1000 Ang^3
#
#
#
# Elastic Constant Matrix: (Units=GPa)
#
#
# Indices 1 2 3 4 5 6 
#
# 1 71.4288 36.3038 42.6426 0.0000 20.4373 0.0000
# 2 36.3038 76.9223 86.6017 0.0000 8.8432 0.0000
# 3 42.6426 86.6017 139.3867 0.0000 10.5614 0.0000
# 4 0.0000 0.0000 0.0000 36.2686 0.0000 6.0110
# 5 20.4373 8.8432 10.5614 0.0000 26.0042 0.0000
# 6 0.0000 0.0000 0.0000 6.0110 0.0000 20.4998
#
#
#
# Elastic Compliance Matrix: (Units=1/GPa)
#
#
# Indices 1 2 3 4 5 6 
#
# 1 0.022902 -0.008249 -0.000753 0.000000 -0.014888 0.000000
# 2 -0.008249 0.046621 -0.026549 0.000000 0.001412 0.000000
# 3 -0.000753 -0.026549 0.023907 0.000000 -0.000089 0.000000
# 4 0.000000 0.000000 0.000000 0.028980 0.000000 -0.008498
# 5 -0.014888 0.001412 -0.000089 0.000000 0.049712 0.000000
# 6 0.000000 0.000000 0.000000 -0.008498 0.000000 0.051273
#
#
# Mechanical properties :
#
#
# Convention : Reuss Voigt Hill
#
# Bulk Modulus (GPa) = 44.78961 68.75931 56.77446
# Shear Modulus (GPa) = 16.55954 24.70050 20.63002
#
# Velocity S-wave (km/s) = 3.09716 3.78261 3.45692
# Velocity P-wave (km/s) = 6.22374 7.67512 6.98722
#
# Compressibility (1/GPa) = 0.02232660
#
# Stress axis : x y z
#
# Youngs Moduli (GPa) = 43.66423 21.44947 41.82958
#
# Poissons Ratio (x) = 0.17695 0.03149
# Poissons Ratio (y) = 0.36021 1.11054
# Poissons Ratio (z) = 0.03287 0.56947
#
# Static dielectric constant tensor:
#      x y z
#    x 1.584850 0.000000 0.003200 
#    y 0.000000 1.643370 0.000000 
#    z 0.003200 0.000000 1.551150 
# 
# From -- ./inp_files/250000.got.cif
#   From: 2010.05.17/outbox.cif.g08.bks.cpg/sg12_125_cif.got.tgz:250000.got - 2010.06.03 13:09:07.
