data_PCOD9191444
_publ_section_title
;
Structure prediction by ZEFSAII (Michael W. Deem and Ramdas Pophale) SiO2 
 PCOD9191444
Probable space group: C 2/M
;
_chemical_formula_sum "Si O2"
_cell_formula_units_Z 56
_cell_length_a 13.482582
_cell_length_b 33.233858
_cell_length_c 8.839656
_cell_angle_alpha 90.000000
_cell_angle_beta 130.774322
_cell_angle_gamma 90.000000
_cell_volume 2999.508982
_symmetry_space_group_name_H-M "C 2/M"
_symmetry_group_IT_number 12
_symmetry_cell_setting 'monoclinic'
loop_
_space_group_symop_operation_xyz
x,y,z
-x,y,-z
-x,-y,-z
x,-y,z
1/2+x,1/2+y,z
1/2-x,1/2+y,-z
1/2-x,1/2-y,-z
1/2+x,1/2-y,z
loop_
_atom_site_type_symbol
_atom_site_label
_atom_site_fract_x
_atom_site_fract_y
_atom_site_fract_z
Si Si1 0.548358 0.727143 0.879237
Si Si2 0.348538 0.044189 0.025950
Si Si3 0.829342 0.629244 0.497046
Si Si4 0.666924 0.954260 0.340705
Si Si5 0.354392 0.123866 0.180677
Si Si6 0.297089 0.800347 0.962426
Si Si7 0.705530 0.292257 0.531243
O O1 0.693659 0.712013 0.988293
O O2 0.448319 0.707866 0.661588
O O3 0.500000 0.718588 0.000000
O O4 0.568367 0.775392 0.882372
O O5 0.303862 0.050889 0.808732
O O6 0.305825 0.000000 0.031778
O O7 0.507687 0.044964 0.187515
O O8 0.308046 0.079381 0.095668
O O9 0.787567 0.585255 0.521465
O O10 0.798841 0.634976 0.289250
O O11 0.772625 0.667667 0.529727
O O12 0.987804 0.627411 0.659489
O O13 0.709108 0.000000 0.428851
O O14 0.315746 0.152829 0.005555
O O15 0.240036 0.790272 0.741897
O O16 0.750000 0.250000 0.500000
#
# Coordination Sequence:
#
# PCOD9191444 Si02
#       7
#     8   8   8   8   8   8   8
#     4  11  23  41  58  80 106 139 183 227 279 321
#     4   8  14  26  46  70 102 141 177 218 272 327
#     4  10  21  32  50  78 109 146 185 226 277 324
#     4   8  14  27  46  71 103 140 180 222 271 329
#     4  10  20  33  49  77 111 142 185 228 269 331
#     4  11  24  39  58  80 107 144 183 228 272 330
#     4  12  23  38  57  78 106 145 183 226 273 326
#
# _framework density 18.669723000000001
#
# number of rings (size 3 to 8) (size 9 to 14) (size 15 to 20)
#    0.000    2.000    1.429    3.857    2.000    1.714 
#    0.000    2.857    0.000    0.000    0.000    1.000 
#    0.000    8.000    0.000    0.000    0.000    0.000 
#
# Total GULP energy -156016.377007 kJ/mol
# GULP energy per Si atom -5572.013465 kJ/mol
# Density = 1.862723 g / cm^3
# Si number density = 18.669723 Si / 1000 Ang^3
#
#
#
# Elastic Constant Matrix: (Units=GPa)
#
#
# Indices 1 2 3 4 5 6 
#
# 1 59.5117 31.5580 24.0703 0.0000 -17.7839 0.0000
# 2 31.5580 131.0146 44.8505 0.0000 -18.4951 0.0000
# 3 24.0703 44.8505 72.3448 0.0000 -16.9464 0.0000
# 4 0.0000 0.0000 0.0000 29.6986 0.0000 -8.9108
# 5 -17.7839 -18.4951 -16.9464 0.0000 21.1445 0.0000
# 6 0.0000 0.0000 0.0000 -8.9108 0.0000 17.7591
#
#
#
# Elastic Compliance Matrix: (Units=1/GPa)
#
#
# Indices 1 2 3 4 5 6 
#
# 1 0.023980 -0.002648 -0.002653 0.000000 0.015726 0.000000
# 2 -0.002648 0.010343 -0.004843 0.000000 0.002939 0.000000
# 3 -0.002653 -0.004843 0.019936 0.000000 0.009510 0.000000
# 4 0.000000 0.000000 0.000000 0.039639 0.000000 0.019889
# 5 0.015726 0.002939 0.009510 0.000000 0.070713 0.000000
# 6 0.000000 0.000000 0.000000 0.019889 0.000000 0.066289
#
#
# Mechanical properties :
#
#
# Convention : Reuss Voigt Hill
#
# Bulk Modulus (GPa) = 29.43697 51.53651 40.48674
# Shear Modulus (GPa) = 19.04677 24.54659 21.79668
#
# Velocity S-wave (km/s) = 3.19752 3.62992 3.42056
# Velocity P-wave (km/s) = 5.42527 6.72553 6.11009
#
# Compressibility (1/GPa) = 0.03397089
#
# Stress axis : x y z
#
# Youngs Moduli (GPa) = 41.70118 96.68081 50.16175
#
# Poissons Ratio (x) = 0.25599 0.13309
# Poissons Ratio (y) = 0.11042 0.24293
# Poissons Ratio (z) = 0.11064 0.46822
#
# Static dielectric constant tensor:
#      x y z
#    x 1.644360 0.000000 0.004870 
#    y 0.000000 1.698400 0.000000 
#    z 0.004870 0.000000 1.663150 
# 
# From -- ./inp_files/68112.got.cif
#   From: 2010.05.17/outbox.cif.g08.bks.cpg/sg12_35_cif.got.tgz:68112.got - 2010.06.03 13:09:07.
