data_PCOD9191343
_publ_section_title
;
Structure prediction by ZEFSAII (Michael W. Deem and Ramdas Pophale) SiO2 
 PCOD9191343
Probable space group: C 2/M
;
_chemical_formula_sum "Si O2"
_cell_formula_units_Z 56
_cell_length_a 16.056769
_cell_length_b 7.317648
_cell_length_c 17.768151
_cell_angle_alpha 90.000000
_cell_angle_beta 72.278318
_cell_angle_gamma 90.000000
_cell_volume 1988.648525
_symmetry_space_group_name_H-M "C 2/M"
_symmetry_group_IT_number 12
_symmetry_cell_setting 'monoclinic'
loop_
_space_group_symop_operation_xyz
x,y,z
-x,y,-z
-x,-y,-z
x,-y,z
1/2+x,1/2+y,z
1/2-x,1/2+y,-z
1/2-x,1/2-y,-z
1/2+x,1/2-y,z
loop_
_atom_site_type_symbol
_atom_site_label
_atom_site_fract_x
_atom_site_fract_y
_atom_site_fract_z
Si Si1 0.655333 0.710330 0.590582
Si Si2 0.817637 0.722757 0.837875
Si Si3 0.903589 0.220941 0.548663
Si Si4 0.985599 0.719882 0.261352
Si Si5 0.571385 0.220149 0.880477
Si Si6 0.262237 0.788096 0.698596
Si Si7 0.631159 0.220386 0.018068
O O1 0.681421 0.500000 0.578156
O O2 0.654952 0.784287 0.506642
O O3 0.556367 0.712497 0.650287
O O4 0.708608 0.798769 0.644507
O O5 0.814580 0.500000 0.839669
O O6 0.760181 0.790358 0.783290
O O7 0.811332 0.786600 0.926516
O O8 0.916158 0.774430 0.785228
O O9 0.860753 0.284171 0.637773
O O10 0.000000 0.283136 0.500000
O O11 0.903992 0.000000 0.549535
O O12 0.984641 0.500000 0.263118
O O13 0.925355 0.781396 0.206821
O O14 0.470150 0.258802 0.931061
O O15 0.578328 0.000000 0.878900
O O16 0.633338 0.289711 0.931184
O O17 0.238251 0.000000 0.711659
O O18 0.638478 0.000000 0.014704
#
# Coordination Sequence:
#
# PCOD9191343 Si02
#       7
#     8   8   8   8   8   8   8
#     4  10  21  34  46  64  92 122 148 176 217 268
#     4   8  14  25  43  68  92 113 144 186 225 259
#     4  10  21  36  52  69  89 114 146 182 220 264
#     4   9  16  27  46  70  91 113 148 189 221 253
#     4   7  10  17  33  61  90 111 137 178 222 255
#     4  10  20  33  49  69  92 117 147 181 217 261
#     4   7   9  16  33  59  90 114 134 174 226 259
#
# _framework density 28.159827
#
# number of rings (size 3 to 8) (size 9 to 14) (size 15 to 20)
#    0.000    3.286    0.000    3.857    0.000    1.429 
#    0.000    0.000    0.000    0.857    0.000    9.000 
#    0.000    0.000    0.000    0.000    0.000    0.000 
#
# Total GULP energy -156666.182737 kJ/mol
# GULP energy per Si atom -5595.220812 kJ/mol
# Density = 2.809573 g / cm^3
# Si number density = 28.159827 Si / 1000 Ang^3
#
#
#
# Elastic Constant Matrix: (Units=GPa)
#
#
# Indices 1 2 3 4 5 6 
#
# 1 103.0473 13.5962 37.4999 0.0000 25.8801 0.0000
# 2 13.5962 132.7001 7.4632 0.0000 -1.2472 0.0000
# 3 37.4999 7.4632 238.2637 0.0000 24.9359 0.0000
# 4 0.0000 0.0000 0.0000 3.4255 0.0000 -2.5281
# 5 25.8801 -1.2472 24.9359 0.0000 72.7340 0.0000
# 6 0.0000 0.0000 0.0000 -2.5281 0.0000 -5.1391
#
#
#
# Elastic Compliance Matrix: (Units=1/GPa)
#
#
# Indices 1 2 3 4 5 6 
#
# 1 0.011238 -0.001108 -0.001362 0.000000 -0.003551 0.000000
# 2 -0.001108 0.007662 -0.000125 0.000000 0.000569 0.000000
# 3 -0.001362 -0.000125 0.004527 0.000000 -0.001069 0.000000
# 4 0.000000 0.000000 0.000000 0.214174 0.000000 -0.105358
# 5 -0.003551 0.000569 -0.001069 0.000000 0.015389 0.000000
# 6 0.000000 0.000000 0.000000 -0.105358 0.000000 -0.142758
#
#
# Mechanical properties :
#
#
# Convention : Reuss Voigt Hill
#
# Bulk Modulus (GPa) = 54.83757 65.68108 60.25933
# Shear Modulus (GPa) = 41.15162 41.90086 41.52624
#
# Velocity S-wave (km/s) = 3.82692 3.86160 3.84430
# Velocity P-wave (km/s) = 6.24844 6.57705 6.41485
#
# Compressibility (1/GPa) = 0.01823567
#
# Stress axis : x y z
#
# Youngs Moduli (GPa) = 88.98361 130.51920 220.88176
#
# Poissons Ratio (x) = 0.14464 0.30094
# Poissons Ratio (y) = 0.09861 0.02763
# Poissons Ratio (z) = 0.12123 0.01633
#
# Static dielectric constant tensor:
#      x y z
#    x 2.337650 0.000000 0.016580 
#    y 0.000000 2.011000 0.000000 
#    z 0.016580 0.000000 2.140630 
# 
# From -- ./inp_files/276049.got.cif
#   From: 2010.05.17/outbox.cif.g08.bks.cpg/sg12_139_cif.got.tgz:276049.got - 2010.06.03 13:09:07.
