data_PCOD9191052
_publ_section_title
;
Structure prediction by ZEFSAII (Michael W. Deem and Ramdas Pophale) SiO2 
 PCOD9191052
Probable space group: C 2/M
;
_chemical_formula_sum "Si O2"
_cell_formula_units_Z 64
_cell_length_a 20.773461
_cell_length_b 22.854542
_cell_length_c 12.295620
_cell_angle_alpha 90.000000
_cell_angle_beta 140.605110
_cell_angle_gamma 90.000000
_cell_volume 3704.879028
_symmetry_space_group_name_H-M "C 2/M"
_symmetry_group_IT_number 12
_symmetry_cell_setting 'monoclinic'
loop_
_space_group_symop_operation_xyz
x,y,z
-x,y,-z
-x,-y,-z
x,-y,z
1/2+x,1/2+y,z
1/2-x,1/2+y,-z
1/2-x,1/2-y,-z
1/2+x,1/2-y,z
loop_
_atom_site_type_symbol
_atom_site_label
_atom_site_fract_x
_atom_site_fract_y
_atom_site_fract_z
Si Si1 0.620123 0.064251 0.635913
Si Si2 0.859776 0.253826 0.017373
Si Si3 0.571137 0.906889 0.340116
Si Si4 0.200262 0.433520 0.298503
Si Si5 0.909417 0.271605 0.676663
Si Si6 0.749475 0.801367 0.342399
Si Si7 0.840031 0.565199 0.002286
Si Si8 0.722569 0.843681 0.924745
O O1 0.500000 0.067451 0.500000
O O2 0.631949 0.068965 0.522038
O O3 0.671343 0.117421 0.765042
O O4 0.655787 0.000000 0.719250
O O5 0.846699 0.294472 0.107583
O O6 0.978207 0.251086 0.144276
O O7 0.792832 0.282510 0.832004
O O8 0.815251 0.191261 0.993746
O O9 0.619811 0.928302 0.291042
O O10 0.577950 0.837056 0.352177
O O11 0.453592 0.924889 0.194635
O O12 0.245987 0.500000 0.364848
O O13 0.261257 0.371580 0.377916
O O14 0.150083 0.429275 0.114154
O O15 0.851894 0.231313 0.513653
O O16 0.837204 0.278568 0.687329
O O17 0.805900 0.500000 0.981226
O O18 0.763928 0.610607 0.958629
#
# Coordination Sequence:
#
# PCOD9191052 Si02
#       8
#     8   8   8   8   8   8   8   8
#     4  11  20  31  48  72 108 145 180 225 279 338
#     4  11  21  37  54  77 112 146 189 231 272 325
#     4  11  19  32  50  80 110 141 178 223 286 343
#     4  10  20  32  52  78 107 140 181 232 280 331
#     4  10  20  35  58  84 112 144 184 233 279 335
#     4  10  20  36  58  83 111 144 184 231 287 331
#     4  11  19  32  52  77 110 145 181 222 279 339
#     4  11  22  33  50  74 108 149 184 215 267 327
#
# _framework density 17.274519000000002
#
# number of rings (size 3 to 8) (size 9 to 14) (size 15 to 20)
#    0.000    1.375    3.750    3.000    0.000    3.000 
#    0.000    1.875    0.000    1.500    0.000    1.750 
#    0.000   11.000    0.000    0.000    0.000    0.000 
#
# Total GULP energy -178287.785323 kJ/mol
# GULP energy per Si atom -5571.493291 kJ/mol
# Density = 1.723520 g / cm^3
# Si number density = 17.274519 Si / 1000 Ang^3
#
#
#
# Elastic Constant Matrix: (Units=GPa)
#
#
# Indices 1 2 3 4 5 6 
#
# 1 53.2013 34.6935 24.0490 0.0000 -16.3097 0.0000
# 2 34.6935 144.3235 48.2835 0.0000 1.1980 0.0000
# 3 24.0490 48.2835 66.7901 0.0000 -13.9644 0.0000
# 4 0.0000 0.0000 0.0000 28.1168 0.0000 -0.6327
# 5 -16.3097 1.1980 -13.9644 0.0000 25.3276 0.0000
# 6 0.0000 0.0000 0.0000 -0.6327 0.0000 20.1829
#
#
#
# Elastic Compliance Matrix: (Units=1/GPa)
#
#
# Indices 1 2 3 4 5 6 
#
# 1 0.029616 -0.006565 -0.002109 0.000000 0.018219 0.000000
# 2 -0.006565 0.011096 -0.007518 0.000000 -0.008897 0.000000
# 3 -0.002109 -0.007518 0.023687 0.000000 0.012058 0.000000
# 4 0.000000 0.000000 0.000000 0.035591 0.000000 0.001116
# 5 0.018219 -0.008897 0.012058 0.000000 0.058284 0.000000
# 6 0.000000 0.000000 0.000000 0.001116 0.000000 0.049582
#
#
# Mechanical properties :
#
#
# Convention : Reuss Voigt Hill
#
# Bulk Modulus (GPa) = 31.23383 53.15188 42.19285
# Shear Modulus (GPa) = 19.92732 25.21139 22.56935
#
# Velocity S-wave (km/s) = 3.40010 3.82443 3.61849
# Velocity P-wave (km/s) = 5.79089 7.09488 6.47579
#
# Compressibility (1/GPa) = 0.03201657
#
# Stress axis : x y z
#
# Youngs Moduli (GPa) = 33.76504 90.12248 42.21686
#
# Poissons Ratio (x) = 0.59168 0.08902
# Poissons Ratio (y) = 0.22168 0.31738
# Poissons Ratio (z) = 0.07119 0.67752
#
# Static dielectric constant tensor:
#      x y z
#    x 1.599080 0.000000 -0.042320 
#    y 0.000000 1.623790 0.000000 
#    z -0.042320 0.000000 1.581090 
# 
# From -- ./inp_files/169696.got.cif
#   From: 2010.05.17/outbox.cif.g08.bks.cpg/sg12_85_cif.got.tgz:169696.got - 2010.06.03 13:09:07.
