data_PCOD9191577
_publ_section_title
;
Structure prediction by ZEFSAII (Michael W. Deem and Ramdas Pophale) SiO2 
 PCOD9191577
Probable space group: C 2/M
;
_chemical_formula_sum "Si O2"
_cell_formula_units_Z 56
_cell_length_a 14.415605
_cell_length_b 9.455595
_cell_length_c 20.719357
_cell_angle_alpha 90.000000
_cell_angle_beta 108.445945
_cell_angle_gamma 90.000000
_cell_volume 2679.115717
_symmetry_space_group_name_H-M "C 2/M"
_symmetry_group_IT_number 12
_symmetry_cell_setting 'monoclinic'
loop_
_space_group_symop_operation_xyz
x,y,z
-x,y,-z
-x,-y,-z
x,-y,z
1/2+x,1/2+y,z
1/2-x,1/2+y,-z
1/2-x,1/2-y,-z
1/2+x,1/2-y,z
loop_
_atom_site_type_symbol
_atom_site_label
_atom_site_fract_x
_atom_site_fract_y
_atom_site_fract_z
Si Si1 0.518088 0.159662 0.316684
Si Si2 0.493750 0.334982 0.187640
Si Si3 0.913331 0.166566 0.932875
Si Si4 0.897379 0.840533 0.548268
Si Si5 0.783838 0.339527 0.275872
Si Si6 0.690767 0.840320 0.574742
Si Si7 0.264496 0.667784 0.145828
O O1 0.539709 0.242398 0.255102
O O2 0.548850 0.245652 0.386796
O O3 0.400603 0.151293 0.292407
O O4 0.558254 0.000000 0.326503
O O5 0.499323 0.500000 0.208336
O O6 0.545239 0.317107 0.130469
O O7 0.378008 0.302042 0.154179
O O8 0.814357 0.255633 0.916621
O O9 0.892948 0.000000 0.939289
O O10 0.000000 0.209779 0.000000
O O11 0.786777 0.851214 0.551818
O O12 0.884849 0.762801 0.476964
O O13 0.936581 0.000000 0.552909
O O14 0.743293 0.500000 0.258896
O O15 0.772583 0.291960 0.347106
O O16 0.748317 0.233781 0.213428
O O17 0.649930 0.000000 0.573718
O O18 0.250476 0.500000 0.142551
#
# Coordination Sequence:
#
# PCOD9191577 Si02
#       7
#     8   8   8   8   8   8   8
#     4  10  20  34  54  79 106 138 182 229 274 328
#     4   9  20  39  59  82 117 153 187 231 284 336
#     4  10  22  40  62  87 115 153 194 225 270 342
#     4  10  20  33  50  74 105 140 178 225 280 329
#     4   9  19  36  56  77 103 142 186 226 272 330
#     4   9  19  35  52  71  99 139 184 225 270 326
#     4  10  21  37  58  87 119 149 185 237 288 328
#
# _framework density 20.902418999999998
#
# number of rings (size 3 to 8) (size 9 to 14) (size 15 to 20)
#    0.000    2.429    0.000    1.286    2.000    4.286 
#    0.000    2.857    0.000    0.000    0.000    0.000 
#    0.000    0.000    0.000    0.000    0.000    0.000 
#
# Total GULP energy -156402.404878 kJ/mol
# GULP energy per Si atom -5585.800174 kJ/mol
# Density = 2.085484 g / cm^3
# Si number density = 20.902419 Si / 1000 Ang^3
#
#
#
# Elastic Constant Matrix: (Units=GPa)
#
#
# Indices 1 2 3 4 5 6 
#
# 1 39.3140 17.6437 3.8499 0.0000 13.8313 0.0000
# 2 17.6437 96.1770 48.1182 0.0000 27.8159 0.0000
# 3 3.8499 48.1182 64.5262 0.0000 31.7072 0.0000
# 4 0.0000 0.0000 0.0000 35.6271 0.0000 4.8404
# 5 13.8313 27.8159 31.7072 0.0000 29.6949 0.0000
# 6 0.0000 0.0000 0.0000 4.8404 0.0000 14.6728
#
#
#
# Elastic Compliance Matrix: (Units=1/GPa)
#
#
# Indices 1 2 3 4 5 6 
#
# 1 0.037252 -0.007092 0.017521 0.000000 -0.029416 0.000000
# 2 -0.007092 0.018282 -0.013503 0.000000 0.000596 0.000000
# 3 0.017521 -0.013503 0.046951 0.000000 -0.045645 0.000000
# 4 0.000000 0.000000 0.000000 0.029386 0.000000 -0.009694
# 5 -0.029416 0.000596 -0.045645 0.000000 0.095557 0.000000
# 6 0.000000 0.000000 0.000000 -0.009694 0.000000 0.071351
#
#
# Mechanical properties :
#
#
# Convention : Reuss Voigt Hill
#
# Bulk Modulus (GPa) = 10.38033 37.69343 24.03688
# Shear Modulus (GPa) = 14.83509 24.69264 19.76386
#
# Velocity S-wave (km/s) = 2.66697 3.44078 3.07828
# Velocity P-wave (km/s) = 3.80270 5.81872 4.91518
#
# Compressibility (1/GPa) = 0.09633609
#
# Stress axis : x y z
#
# Youngs Moduli (GPa) = 26.84396 54.69971 21.29897
#
# Poissons Ratio (x) = 0.38794 -0.37317
# Poissons Ratio (y) = 0.19038 0.28760
# Poissons Ratio (z) = -0.47032 0.73860
#
# Static dielectric constant tensor:
#      x y z
#    x 1.800660 0.000000 0.008350 
#    y 0.000000 1.747570 0.000000 
#    z 0.008350 0.000000 1.734090 
# 
# From -- ./inp_files/338151.got.cif
#   From: 2010.05.17/outbox.cif.g08.bks.cpg/sg12_170_cif.got.tgz:338151.got - 2010.06.03 13:09:07.
