data_PCOD9191624
_publ_section_title
;
Structure prediction by ZEFSAII (Michael W. Deem and Ramdas Pophale) SiO2 
 PCOD9191624
Probable space group: C 2/M
;
_chemical_formula_sum "Si O2"
_cell_formula_units_Z 56
_cell_length_a 20.449799
_cell_length_b 8.934130
_cell_length_c 18.547889
_cell_angle_alpha 90.000000
_cell_angle_beta 47.266914
_cell_angle_gamma 90.000000
_cell_volume 2489.092967
_symmetry_space_group_name_H-M "C 2/M"
_symmetry_group_IT_number 12
_symmetry_cell_setting 'monoclinic'
loop_
_space_group_symop_operation_xyz
x,y,z
-x,y,-z
-x,-y,-z
x,-y,z
1/2+x,1/2+y,z
1/2-x,1/2+y,-z
1/2-x,1/2-y,-z
1/2+x,1/2-y,z
loop_
_atom_site_type_symbol
_atom_site_label
_atom_site_fract_x
_atom_site_fract_y
_atom_site_fract_z
Si Si1 0.436035 0.326940 0.266300
Si Si2 0.289774 0.673873 0.900024
Si Si3 0.959332 0.679973 0.692191
Si Si4 0.525547 0.829431 0.903255
Si Si5 0.226310 0.335476 0.797336
Si Si6 0.267841 0.825823 0.562244
Si Si7 0.378690 0.823905 0.608404
O O1 0.458859 0.500000 0.260443
O O2 0.457991 0.237118 0.322836
O O3 0.490581 0.259913 0.157964
O O4 0.330641 0.319284 0.328771
O O5 0.310496 0.500000 0.898730
O O6 0.375696 0.753273 0.799923
O O7 0.217296 0.679718 0.889870
O O8 0.250000 0.750000 0.000000
O O9 0.956266 0.500000 0.694871
O O10 0.951873 0.728239 0.612921
O O11 0.631875 0.840072 0.831099
O O12 0.489457 0.000000 0.925594
O O13 0.500000 0.762047 0.000000
O O14 0.270726 0.500000 0.751774
O O15 0.288881 0.205084 0.721808
O O16 0.250000 0.750000 0.500000
O O17 0.344619 0.760762 0.557095
O O18 0.289342 0.000000 0.534382
O O19 0.394682 0.000000 0.585460
#
# Coordination Sequence:
#
# PCOD9191624 Si02
#       7
#     8   8   8   8   8   8   8
#     4  11  23  40  60  87 122 154 192 248 300 350
#     4  10  20  33  50  77 112 152 198 245 290 342
#     4  10  21  37  59  82 111 155 197 239 294 348
#     4  10  21  35  54  81 115 156 198 240 287 346
#     4   9  18  32  51  76 107 146 191 237 283 334
#     4  10  22  40  64  92 119 149 190 238 292 355
#     4   9  18  37  60  83 112 147 189 236 281 337
#
# _framework density 22.498155000000001
#
# number of rings (size 3 to 8) (size 9 to 14) (size 15 to 20)
#    0.000    2.143    1.429    1.286    2.000    3.143 
#    0.000    0.714    0.000    4.286    0.000    0.000 
#    0.000    0.000    0.000    0.000    0.000    0.000 
#
# Total GULP energy -156156.179667 kJ/mol
# GULP energy per Si atom -5577.006417 kJ/mol
# Density = 2.244695 g / cm^3
# Si number density = 22.498155 Si / 1000 Ang^3
#
#
#
# Elastic Constant Matrix: (Units=GPa)
#
#
# Indices 1 2 3 4 5 6 
#
# 1 139.3948 39.3102 34.4373 0.0000 35.1150 0.0000
# 2 39.3102 65.0213 37.2613 0.0001 17.4590 0.0000
# 3 34.4373 37.2613 85.2159 0.0000 36.1705 0.0000
# 4 0.0000 0.0001 0.0000 23.7900 0.0000 1.0136
# 5 35.1150 17.4590 36.1705 0.0000 42.2628 0.0000
# 6 0.0000 0.0000 0.0000 1.0136 0.0000 19.8817
#
#
#
# Elastic Compliance Matrix: (Units=1/GPa)
#
#
# Indices 1 2 3 4 5 6 
#
# 1 0.010102 -0.004778 0.001149 0.000000 -0.007403 0.000000
# 2 -0.004778 0.022824 -0.009002 0.000000 0.002246 0.000000
# 3 0.001149 -0.009002 0.022040 0.000000 -0.016099 0.000000
# 4 0.000000 0.000000 0.000000 0.042126 0.000000 -0.002148
# 5 -0.007403 0.002246 -0.016099 0.000000 0.042663 0.000000
# 6 0.000000 0.000000 0.000000 -0.002148 0.000000 0.050407
#
#
# Mechanical properties :
#
#
# Convention : Reuss Voigt Hill
#
# Bulk Modulus (GPa) = 33.66576 56.84996 45.25786
# Shear Modulus (GPa) = 22.18992 29.09511 25.64251
#
# Velocity S-wave (km/s) = 3.14395 3.60004 3.37970
# Velocity P-wave (km/s) = 5.30806 6.52717 5.94893
#
# Compressibility (1/GPa) = 0.02970377
#
# Stress axis : x y z
#
# Youngs Moduli (GPa) = 98.98551 43.81287 45.37174
#
# Poissons Ratio (x) = 0.20935 -0.05214
# Poissons Ratio (y) = 0.47299 0.40846
# Poissons Ratio (z) = -0.11376 0.39442
#
# Static dielectric constant tensor:
#      x y z
#    x 1.908450 0.000000 -0.008690 
#    y 0.000000 1.820360 0.000000 
#    z -0.008690 0.000000 1.862250 
# 
# From -- ./inp_files/280893.got.cif
#   From: 2010.05.17/outbox.cif.g08.bks.cpg/sg12_141_cif.got.tgz:280893.got - 2010.06.03 13:09:07.
