data_PCOD9191651
_publ_section_title
;
Structure prediction by ZEFSAII (Michael W. Deem and Ramdas Pophale) SiO2 
 PCOD9191651
Probable space group: C 2/M
;
_chemical_formula_sum "Si O2"
_cell_formula_units_Z 64
_cell_length_a 18.473229
_cell_length_b 15.322698
_cell_length_c 13.971302
_cell_angle_alpha 90.000000
_cell_angle_beta 102.441760
_cell_angle_gamma 90.000000
_cell_volume 3861.838266
_symmetry_space_group_name_H-M "C 2/M"
_symmetry_group_IT_number 12
_symmetry_cell_setting 'monoclinic'
loop_
_space_group_symop_operation_xyz
x,y,z
-x,y,-z
-x,-y,-z
x,-y,z
1/2+x,1/2+y,z
1/2-x,1/2+y,-z
1/2-x,1/2-y,-z
1/2+x,1/2-y,z
loop_
_atom_site_type_symbol
_atom_site_label
_atom_site_fract_x
_atom_site_fract_y
_atom_site_fract_z
Si Si1 0.526499 0.677325 0.113564
Si Si2 0.127561 0.772723 0.901748
Si Si3 0.727753 0.791067 0.759670
Si Si4 0.166569 0.097728 0.080952
Si Si5 0.633979 0.173384 0.218522
Si Si6 0.553810 0.896188 0.381331
Si Si7 0.910973 0.597878 0.992135
Si Si8 0.892058 0.393874 0.391494
O O1 0.448476 0.675263 0.145041
O O2 0.584500 0.600952 0.106529
O O3 0.576795 0.749923 0.175438
O O4 0.500000 0.705096 0.000000
O O5 0.177462 0.755973 0.824765
O O6 0.165387 0.832376 0.994240
O O7 0.110209 0.677124 0.943035
O O8 0.774895 0.866243 0.826623
O O9 0.787163 0.719225 0.742041
O O10 0.676187 0.838921 0.668147
O O11 0.182639 0.000000 0.053362
O O12 0.601346 0.130076 0.303667
O O13 0.629769 0.114266 0.121508
O O14 0.467405 0.868529 0.355427
O O15 0.590353 0.870881 0.493018
O O16 0.550043 0.000000 0.383386
O O17 0.893000 0.500000 0.023169
O O18 0.000000 0.599617 0.000000
O O19 0.881323 0.500000 0.381011
#
# Coordination Sequence:
#
# PCOD9191651 Si02
#       8
#     8   8   8   8   8   8   8   8
#     4   9  16  31  50  65  99 132 175 216 240 285
#     4  11  19  36  47  72 105 137 179 216 243 294
#     4  11  22  32  51  72 108 138 167 213 255 310
#     4  10  20  33  51  71  98 139 177 212 254 292
#     4  11  18  33  47  73 106 137 166 207 257 305
#     4   9  19  35  56  76 100 127 167 217 261 312
#     4  11  20  31  50  76 105 143 183 213 253 308
#     4   9  19  36  55  79  99 125 169 216 261 313
#
# _framework density 16.572419
#
# number of rings (size 3 to 8) (size 9 to 14) (size 15 to 20)
#    0.000    1.875    5.000    2.625    0.000    3.750 
#    0.000    0.625    0.000    0.000    0.000    0.000 
#    0.000    0.000    0.000   33.500    0.000    0.000 
#
# Total GULP energy -178236.468404 kJ/mol
# GULP energy per Si atom -5569.889638 kJ/mol
# Density = 1.653470 g / cm^3
# Si number density = 16.572419 Si / 1000 Ang^3
#
#
#
# Elastic Constant Matrix: (Units=GPa)
#
#
# Indices 1 2 3 4 5 6 
#
# 1 77.5766 -2.8570 32.8601 0.0000 13.4217 0.0000
# 2 -2.8570 41.3408 -0.6479 0.0000 12.1578 0.0000
# 3 32.8601 -0.6479 34.8067 0.0000 11.4685 0.0000
# 4 0.0000 0.0000 0.0000 10.1065 0.0000 -0.4256
# 5 13.4217 12.1578 11.4685 0.0000 27.0707 0.0000
# 6 0.0000 0.0000 0.0000 -0.4256 0.0000 19.4050
#
#
#
# Elastic Compliance Matrix: (Units=1/GPa)
#
#
# Indices 1 2 3 4 5 6 
#
# 1 0.021792 0.002272 -0.019334 0.000000 -0.003634 0.000000
# 2 0.002272 0.029007 0.003555 0.000000 -0.015660 0.000000
# 3 -0.019334 0.003555 0.051623 0.000000 -0.013881 0.000000
# 4 0.000000 0.000000 0.000000 0.099038 0.000000 0.002172
# 5 -0.003634 -0.015660 -0.013881 0.000000 0.051656 0.000000
# 6 0.000000 0.000000 0.000000 0.002172 0.000000 0.051581
#
#
# Mechanical properties :
#
#
# Convention : Reuss Voigt Hill
#
# Bulk Modulus (GPa) = 13.26111 23.60381 18.43246
# Shear Modulus (GPa) = 14.01161 19.60769 16.80965
#
# Velocity S-wave (km/s) = 2.91086 3.44343 3.18829
# Velocity P-wave (km/s) = 4.39509 5.48483 4.96992
#
# Compressibility (1/GPa) = 0.07540844
#
# Stress axis : x y z
#
# Youngs Moduli (GPa) = 45.88753 34.47398 19.37136
#
# Poissons Ratio (x) = -0.07832 0.37452
# Poissons Ratio (y) = -0.10425 -0.06887
# Poissons Ratio (z) = 0.88719 -0.12256
#
# Static dielectric constant tensor:
#      x y z
#    x 1.621200 0.000000 -0.006920 
#    y 0.000000 1.562050 0.000000 
#    z -0.006920 0.000000 1.550360 
# 
# From -- ./inp_files/224805.got.cif
#   From: 2010.05.17/outbox.cif.g08.bks.cpg/sg12_113_cif.got.tgz:224805.got - 2010.06.03 13:09:07.
