data_PCOD9191168
_publ_section_title
;
Structure prediction by ZEFSAII (Michael W. Deem and Ramdas Pophale) SiO2 
 PCOD9191168
Probable space group: C 2/M
;
_chemical_formula_sum "Si O2"
_cell_formula_units_Z 44
_cell_length_a 9.294528
_cell_length_b 23.194020
_cell_length_c 18.713149
_cell_angle_alpha 90.000000
_cell_angle_beta 144.504740
_cell_angle_gamma 90.000000
_cell_volume 2342.361413
_symmetry_space_group_name_H-M "C 2/M"
_symmetry_group_IT_number 12
_symmetry_cell_setting 'monoclinic'
loop_
_space_group_symop_operation_xyz
x,y,z
-x,y,-z
-x,-y,-z
x,-y,z
1/2+x,1/2+y,z
1/2-x,1/2+y,-z
1/2-x,1/2-y,-z
1/2+x,1/2-y,z
loop_
_atom_site_type_symbol
_atom_site_label
_atom_site_fract_x
_atom_site_fract_y
_atom_site_fract_z
Si Si1 0.350116 0.219609 0.109982
Si Si2 0.325943 0.431815 0.495607
Si Si3 0.797220 0.143821 0.619724
Si Si4 0.217337 0.617317 0.744177
Si Si5 0.500000 0.617562 0.000000
Si Si6 0.359367 0.253479 0.264034
O O1 0.268339 0.255735 0.145532
O O2 0.647197 0.220208 0.228148
O O3 0.250000 0.250000 0.000000
O O4 0.225868 0.157730 0.064785
O O5 0.500000 0.412683 0.500000
O O6 0.359570 0.500000 0.518275
O O7 0.385282 0.399023 0.593227
O O8 0.036595 0.418378 0.363194
O O9 0.500000 0.145813 0.500000
O O10 0.858659 0.121489 0.724825
O O11 0.900386 0.206671 0.639760
O O12 0.382933 0.594364 0.877882
O O13 0.130911 0.684703 0.719497
#
# Coordination Sequence:
#
# PCOD9191168 Si02
#       6
#     8   8   8   8   4   8
#     4  11  17  30  49  73 122 161 187 216 262 337
#     4  10  24  43  63  82 103 143 197 250 297 338
#     4  10  22  37  56  83 117 149 193 233 283 339
#     4  10  21  36  57  86 119 153 190 227 281 342
#     4  10  20  32  55  86 122 156 189 224 274 338
#     4  11  20  31  50  85 119 152 184 225 278 335
#
# _framework density 18.784462999999999
#
# number of rings (size 3 to 8) (size 9 to 14) (size 15 to 20)
#    0.000    1.636    5.455    0.000    5.091    6.909 
#    0.000    0.455    0.000    0.000    0.000    2.545 
#    0.000    0.000    0.000    0.000    0.000    0.000 
#
# Total GULP energy -122479.876173 kJ/mol
# GULP energy per Si atom -5567.267099 kJ/mol
# Density = 1.874171 g / cm^3
# Si number density = 18.784463 Si / 1000 Ang^3
#
#
#
# Elastic Constant Matrix: (Units=GPa)
#
#
# Indices 1 2 3 4 5 6 
#
# 1 127.2526 30.9572 24.9213 0.0003 -18.3061 0.0000
# 2 30.9572 42.2758 12.9413 0.0005 -10.8986 0.0000
# 3 24.9213 12.9413 51.0694 0.0013 -29.3649 -0.0007
# 4 0.0003 0.0005 0.0013 14.2064 0.0002 1.4208
# 5 -18.3061 -10.8986 -29.3649 0.0002 37.2409 -0.0001
# 6 0.0000 0.0000 -0.0007 1.4208 -0.0001 24.4041
#
#
#
# Elastic Compliance Matrix: (Units=1/GPa)
#
#
# Indices 1 2 3 4 5 6 
#
# 1 0.010064 -0.006280 -0.002803 0.000000 0.000899 0.000000
# 2 -0.006280 0.029954 -0.002306 -0.000001 0.003861 0.000000
# 3 -0.002803 -0.002306 0.037235 -0.000004 0.027308 0.000001
# 4 0.000000 -0.000001 -0.000004 0.070803 -0.000003 -0.004122
# 5 0.000899 0.003861 0.027308 -0.000003 0.049957 0.000001
# 6 0.000000 0.000000 0.000001 -0.004122 0.000001 0.041217
#
#
# Mechanical properties :
#
#
# Convention : Reuss Voigt Hill
#
# Bulk Modulus (GPa) = 18.35663 39.80414 29.08039
# Shear Modulus (GPa) = 17.84651 25.28882 21.56766
#
# Velocity S-wave (km/s) = 3.08566 3.67313 3.39213
# Velocity P-wave (km/s) = 4.74221 6.26299 5.55489
#
# Compressibility (1/GPa) = 0.05447622
#
# Stress axis : x y z
#
# Youngs Moduli (GPa) = 99.35981 33.38443 26.85619
#
# Poissons Ratio (x) = 0.20966 0.07527
# Poissons Ratio (y) = 0.62398 0.06193
# Poissons Ratio (z) = 0.27848 0.07699
#
# Static dielectric constant tensor:
#      x y z
#    x 1.715470 0.000000 0.024210 
#    y 0.000000 1.636260 0.000000 
#    z 0.024210 0.000000 1.720280 
# 
# From -- ./inp_files/122109.got.cif
#   From: 2010.05.17/outbox.cif.g08.bks.cpg/sg12_62_cif.got.tgz:122109.got - 2010.06.03 13:09:07.
