data_PCOD9191144
_publ_section_title
;
Structure prediction by ZEFSAII (Michael W. Deem and Ramdas Pophale) SiO2 
 PCOD9191144
Probable space group: C 2/M
;
_chemical_formula_sum "Si O2"
_cell_formula_units_Z 48
_cell_length_a 19.002931
_cell_length_b 33.433550
_cell_length_c 8.375061
_cell_angle_alpha 90.000000
_cell_angle_beta 149.582698
_cell_angle_gamma 90.000000
_cell_volume 2693.977818
_symmetry_space_group_name_H-M "C 2/M"
_symmetry_group_IT_number 12
_symmetry_cell_setting 'monoclinic'
loop_
_space_group_symop_operation_xyz
x,y,z
-x,y,-z
-x,-y,-z
x,-y,z
1/2+x,1/2+y,z
1/2-x,1/2+y,-z
1/2-x,1/2-y,-z
1/2+x,1/2-y,z
loop_
_atom_site_type_symbol
_atom_site_label
_atom_site_fract_x
_atom_site_fract_y
_atom_site_fract_z
Si Si1 0.533698 0.177533 0.381071
Si Si2 0.880247 0.756637 0.641168
Si Si3 0.718388 0.379020 0.044133
Si Si4 0.548214 0.598706 0.263834
Si Si5 0.781400 0.834265 0.287276
Si Si6 0.659345 0.454813 0.747291
O O1 0.500000 0.188534 0.500000
O O2 0.582506 0.215840 0.377370
O O3 0.651582 0.143093 0.619115
O O4 0.384671 0.164276 0.021680
O O5 0.750000 0.750000 0.500000
O O6 0.840934 0.790446 0.435900
O O7 0.000000 0.768899 0.000000
O O8 0.585608 0.385922 0.897250
O O9 0.683125 0.351729 0.819351
O O10 0.745027 0.423163 0.021614
O O11 0.647333 0.636973 0.444872
O O12 0.635552 0.565493 0.529623
O O13 0.500000 0.583469 0.000000
O O14 0.500000 0.455812 0.500000
O O15 0.712605 0.500000 0.849810
#
# Coordination Sequence:
#
# PCOD9191144 Si02
#       6
#     8   8   8   8   8   8
#     4  10  23  39  56  75 107 145 187 226 273 324
#     4  12  25  40  55  81 109 143 187 231 281 317
#     4   9  20  36  57  80 107 146 184 220 272 324
#     4  10  20  32  54  85 109 144 182 221 273 320
#     4  10  21  38  53  75 108 145 183 226 268 327
#     4   8  15  32  55  82 113 140 175 221 266 323
#
# _framework density 17.817519000000001
#
# number of rings (size 3 to 8) (size 9 to 14) (size 15 to 20)
#    0.000    2.167    1.667    2.000    4.667    4.333 
#    0.000    0.000    0.000   12.500    0.000    0.000 
#    0.000   27.333    0.000    0.000    0.000    0.000 
#
# Total GULP energy -133763.779873 kJ/mol
# GULP energy per Si atom -5573.490828 kJ/mol
# Density = 1.777697 g / cm^3
# Si number density = 17.817519 Si / 1000 Ang^3
#
#
#
# Elastic Constant Matrix: (Units=GPa)
#
#
# Indices 1 2 3 4 5 6 
#
# 1 49.4089 34.5231 11.6755 0.0000 7.1217 0.0000
# 2 34.5231 131.8446 49.7533 0.0000 -2.7059 0.0000
# 3 11.6755 49.7533 97.3079 0.0000 5.5707 0.0000
# 4 0.0000 0.0000 0.0000 19.9943 0.0000 2.8978
# 5 7.1217 -2.7059 5.5707 0.0000 17.4322 0.0000
# 6 0.0000 0.0000 0.0000 2.8978 0.0000 9.6405
#
#
#
# Elastic Compliance Matrix: (Units=1/GPa)
#
#
# Indices 1 2 3 4 5 6 
#
# 1 0.027326 -0.008006 0.001554 0.000000 -0.012903 0.000000
# 2 -0.008006 0.011906 -0.005521 0.000000 0.006883 0.000000
# 3 0.001554 -0.005521 0.013241 0.000000 -0.005723 0.000000
# 4 0.000000 0.000000 0.000000 0.052292 0.000000 -0.015718
# 5 -0.012903 0.006883 -0.005723 0.000000 0.065534 0.000000
# 6 0.000000 0.000000 0.000000 -0.015718 0.000000 0.108454
#
#
# Mechanical properties :
#
#
# Convention : Reuss Voigt Hill
#
# Bulk Modulus (GPa) = 35.05644 52.27390 43.66517
# Shear Modulus (GPa) = 16.01496 21.58736 18.80116
#
# Velocity S-wave (km/s) = 3.00131 3.48455 3.25192
# Velocity P-wave (km/s) = 5.63280 6.75216 6.21772
#
# Compressibility (1/GPa) = 0.02852543
#
# Stress axis : x y z
#
# Youngs Moduli (GPa) = 36.59494 83.99317 75.52505
#
# Poissons Ratio (x) = 0.67248 -0.11733
# Poissons Ratio (y) = 0.29299 0.41696
# Poissons Ratio (z) = -0.05685 0.46371
#
# Static dielectric constant tensor:
#      x y z
#    x 1.618460 0.000000 -0.013790 
#    y 0.000000 1.610020 0.000000 
#    z -0.013790 0.000000 1.608720 
# 
# From -- ./inp_files/91280.got.cif
#   From: 2010.05.17/outbox.cif.g08.bks.cpg/sg12_46_cif.got.tgz:91280.got - 2010.06.03 13:09:07.
