data_PCOD9191659
_publ_section_title
;
Structure prediction by ZEFSAII (Michael W. Deem and Ramdas Pophale) SiO2 
 PCOD9191659
Probable space group: C 2/M
;
_chemical_formula_sum "Si O2"
_cell_formula_units_Z 58
_cell_length_a 20.020189
_cell_length_b 7.339757
_cell_length_c 19.752461
_cell_angle_alpha 90.000000
_cell_angle_beta 109.782928
_cell_angle_gamma 90.000000
_cell_volume 2731.191965
_symmetry_space_group_name_H-M "C 2/M"
_symmetry_group_IT_number 12
_symmetry_cell_setting 'monoclinic'
loop_
_space_group_symop_operation_xyz
x,y,z
-x,y,-z
-x,-y,-z
x,-y,z
1/2+x,1/2+y,z
1/2-x,1/2+y,-z
1/2-x,1/2-y,-z
1/2+x,1/2-y,z
loop_
_atom_site_type_symbol
_atom_site_label
_atom_site_fract_x
_atom_site_fract_y
_atom_site_fract_z
Si Si1 0.525080 0.222489 0.081986
Si Si2 0.827815 0.282574 0.241875
Si Si3 0.403494 0.222432 0.682025
Si Si4 0.907193 0.279745 0.406698
Si Si5 0.335540 0.215148 0.796692
Si Si6 0.666515 0.216411 0.479418
Si Si7 0.000000 0.000000 0.500000
Si Si8 0.046779 0.721710 0.804777
O O1 0.604147 0.282679 0.131100
O O2 0.474466 0.278430 0.126940
O O3 0.524456 0.000000 0.079955
O O4 0.500000 0.285032 0.000000
O O5 0.832826 0.500000 0.242419
O O6 0.861651 0.228781 0.325397
O O7 0.745087 0.240454 0.209636
O O8 0.878630 0.214459 0.199474
O O9 0.352577 0.282612 0.726581
O O10 0.374538 0.288265 0.600401
O O11 0.482704 0.273905 0.732115
O O12 0.402448 0.000000 0.678699
O O13 0.919204 0.500000 0.410462
O O14 0.864141 0.218773 0.459461
O O15 0.977749 0.162031 0.437572
O O16 0.347857 0.000000 0.796686
O O17 0.750000 0.250000 0.500000
O O18 0.656203 0.000000 0.477628
O O19 0.046954 0.500000 0.805828
#
# Coordination Sequence:
#
# PCOD9191659 Si02
#       8
#     8   8   8   8   8   8   2   8
#     4   8  14  28  52  81 107 134 176 224 264 313
#     4  10  20  34  52  74 108 142 176 220 273 337
#     4   8  15  29  49  69  91 126 173 220 266 315
#     4  10  24  40  56  81 111 151 195 242 294 345
#     4   9  17  30  52  78 103 136 177 221 271 326
#     4  10  20  33  51  73 102 135 180 236 286 337
#     4  12  26  40  60  78 112 152 198 242 292 354
#     4   8  15  28  48  72  97 134 175 214 263 318
#
# _framework density 21.236151
#
# number of rings (size 3 to 8) (size 9 to 14) (size 15 to 20)
#    0.000    2.897    0.000    2.690    3.862    0.000 
#    0.000    0.690    0.000    3.724    0.000    0.000 
#    0.000    0.000    0.000    0.000    0.000    0.000 
#
# Total GULP energy -161643.096383 kJ/mol
# GULP energy per Si atom -5573.899875 kJ/mol
# Density = 2.118782 g / cm^3
# Si number density = 21.236151 Si / 1000 Ang^3
#
#
#
# Elastic Constant Matrix: (Units=GPa)
#
#
# Indices 1 2 3 4 5 6 
#
# 1 154.1440 2.6665 84.0807 0.0000 -5.8576 0.0000
# 2 2.6665 89.7944 17.8069 0.0000 0.9223 0.0000
# 3 84.0807 17.8069 178.5807 0.0000 -4.5247 0.0000
# 4 0.0000 0.0000 0.0000 -9.2441 0.0000 4.4684
# 5 -5.8576 0.9223 -4.5247 0.0000 17.5496 0.0000
# 6 0.0000 0.0000 0.0000 4.4684 0.0000 9.7697
#
#
#
# Elastic Compliance Matrix: (Units=1/GPa)
#
#
# Indices 1 2 3 4 5 6 
#
# 1 0.008816 0.000544 -0.004159 0.000000 0.001842 0.000000
# 2 0.000544 0.011409 -0.001414 0.000000 -0.000782 0.000000
# 3 -0.004159 -0.001414 0.007716 0.000000 0.000676 0.000000
# 4 0.000000 0.000000 0.000000 -0.088592 0.000000 0.040519
# 5 0.001842 -0.000782 0.000676 0.000000 0.057811 0.000000
# 6 0.000000 0.000000 0.000000 0.040519 0.000000 0.083825
#
#
# Mechanical properties :
#
#
# Convention : Reuss Voigt Hill
#
# Bulk Modulus (GPa) = 55.91411 70.18080 63.04746
# Shear Modulus (GPa) = 51.54456 24.81273 38.17865
#
# Velocity S-wave (km/s) = 4.93202 3.42192 4.24466
# Velocity P-wave (km/s) = 7.66941 6.98085 7.33322
#
# Compressibility (1/GPa) = 0.01788457
#
# Stress axis : x y z
#
# Youngs Moduli (GPa) = 113.42513 87.65201 129.60518
#
# Poissons Ratio (x) = -0.04768 0.53897
# Poissons Ratio (y) = -0.06170 0.18320
# Poissons Ratio (z) = 0.47169 0.12390
#
# Static dielectric constant tensor:
#      x y z
#    x 1.870870 0.000000 -0.067070 
#    y 0.000000 1.832430 0.000000 
#    z -0.067070 0.000000 1.801950 
# 
# From -- ./inp_files/281545.got.cif
#   From: 2010.05.17/outbox.cif.g08.bks.cpg/sg12_141_cif.got.tgz:281545.got - 2010.06.03 13:09:07.
