data_PCOD9191513
_publ_section_title
;
Structure prediction by ZEFSAII (Michael W. Deem and Ramdas Pophale) SiO2 
 PCOD9191513
Probable space group: C 2/M
;
_chemical_formula_sum "Si O2"
_cell_formula_units_Z 64
_cell_length_a 19.907506
_cell_length_b 8.078615
_cell_length_c 20.844830
_cell_angle_alpha 90.000000
_cell_angle_beta 112.260701
_cell_angle_gamma 90.000000
_cell_volume 3102.518366
_symmetry_space_group_name_H-M "C 2/M"
_symmetry_group_IT_number 12
_symmetry_cell_setting 'monoclinic'
loop_
_space_group_symop_operation_xyz
x,y,z
-x,y,-z
-x,-y,-z
x,-y,z
1/2+x,1/2+y,z
1/2-x,1/2+y,-z
1/2-x,1/2-y,-z
1/2+x,1/2-y,z
loop_
_atom_site_type_symbol
_atom_site_label
_atom_site_fract_x
_atom_site_fract_y
_atom_site_fract_z
Si Si1 0.403464 0.193347 0.280938
Si Si2 0.698967 0.697174 0.923541
Si Si3 0.165300 0.695462 0.537016
Si Si4 0.456553 0.310468 0.425688
Si Si5 0.043250 0.300845 0.837893
Si Si6 0.251151 0.304960 0.198058
Si Si7 0.331969 0.200486 0.605288
Si Si8 0.382768 0.202930 0.764482
O O1 0.457290 0.219862 0.358921
O O2 0.438220 0.255343 0.227763
O O3 0.326660 0.281851 0.262883
O O4 0.387919 0.000000 0.268383
O O5 0.699029 0.500000 0.918866
O O6 0.614987 0.749574 0.902571
O O7 0.730807 0.763978 0.866825
O O8 0.750000 0.750000 0.000000
O O9 0.151582 0.500000 0.541358
O O10 0.124471 0.799370 0.575819
O O11 0.250630 0.728217 0.575027
O O12 0.139269 0.745104 0.455583
O O13 0.500000 0.230992 0.500000
O O14 0.479352 0.500000 0.425360
O O15 0.041300 0.500000 0.838458
O O16 0.961061 0.244013 0.820694
O O17 0.237033 0.500000 0.185032
O O18 0.183688 0.238118 0.214778
O O19 0.371510 0.252002 0.685546
O O20 0.328026 0.000000 0.604312
O O21 0.381637 0.000000 0.763688
#
# Coordination Sequence:
#
# PCOD9191513 Si02
#       8
#     8   8   8   8   8   8   8   8
#     4  10  20  34  55  79 105 137 177 226 276 330
#     4  10  20  36  59  85 113 147 183 215 256 309
#     4  10  20  33  50  73 100 132 178 227 274 329
#     4  11  24  37  49  67  97 138 183 230 279 324
#     4   9  19  35  57  84 112 140 175 218 270 326
#     4   9  18  34  58  84 110 142 180 217 258 318
#     4   9  18  32  53  75 102 138 172 214 272 335
#     4   9  17  32  55  80 105 138 177 218 266 319
#
# _framework density 20.628402999999999
#
# number of rings (size 3 to 8) (size 9 to 14) (size 15 to 20)
#    0.000    2.375    0.000    2.250    1.750    3.500 
#    0.000    1.875    0.000    3.750    0.000    0.000 
#    0.000    0.000    0.000    0.000    0.000    0.000 
#
# Total GULP energy -178477.631376 kJ/mol
# GULP energy per Si atom -5577.425981 kJ/mol
# Density = 2.058145 g / cm^3
# Si number density = 20.628403 Si / 1000 Ang^3
#
#
#
# Elastic Constant Matrix: (Units=GPa)
#
#
# Indices 1 2 3 4 5 6 
#
# 1 70.6883 2.4858 22.3247 0.0000 15.1105 0.0000
# 2 2.4858 13.8663 -0.0377 0.0000 -1.2688 0.0000
# 3 22.3247 -0.0377 113.5026 0.0000 15.4604 0.0000
# 4 0.0000 0.0000 0.0000 21.7016 0.0000 6.6487
# 5 15.1105 -1.2688 15.4604 0.0000 22.0347 0.0000
# 6 0.0000 0.0000 0.0000 6.6487 0.0000 15.2764
#
#
#
# Elastic Compliance Matrix: (Units=1/GPa)
#
#
# Indices 1 2 3 4 5 6 
#
# 1 0.017177 -0.004060 -0.001928 0.000000 -0.010660 0.000000
# 2 -0.004060 0.073496 -0.000147 0.000000 0.007119 0.000000
# 3 -0.001928 -0.000147 0.009963 0.000000 -0.005677 0.000000
# 4 0.000000 0.000000 0.000000 0.053169 0.000000 -0.023141
# 5 -0.010660 0.007119 -0.005677 0.000000 0.057086 0.000000
# 6 0.000000 0.000000 0.000000 -0.023141 0.000000 0.075532
#
#
# Mechanical properties :
#
#
# Convention : Reuss Voigt Hill
#
# Bulk Modulus (GPa) = 11.31646 27.51143 19.41395
# Shear Modulus (GPa) = 15.23702 23.35482 19.29592
#
# Velocity S-wave (km/s) = 2.72075 3.36842 3.06176
# Velocity P-wave (km/s) = 3.92017 5.33797 4.68304
#
# Compressibility (1/GPa) = 0.08836687
#
# Stress axis : x y z
#
# Youngs Moduli (GPa) = 58.21731 13.60615 100.37412
#
# Poissons Ratio (x) = 0.05524 0.19350
# Poissons Ratio (y) = 0.23636 0.01473
# Poissons Ratio (z) = 0.11223 0.00200
#
# Static dielectric constant tensor:
#      x y z
#    x 1.778200 0.000000 0.000910 
#    y 0.000000 1.728740 0.000000 
#    z 0.000910 0.000000 1.763840 
# 
# From -- ./inp_files/320061.got.cif
#   From: 2010.05.17/outbox.cif.g08.bks.cpg/sg12_161_cif.got.tgz:320061.got - 2010.06.03 13:09:07.
