data_PCOD9191383
_publ_section_title
;
Structure prediction by ZEFSAII (Michael W. Deem and Ramdas Pophale) SiO2 
 PCOD9191383
Probable space group: C 2/M
;
_chemical_formula_sum "Si O2"
_cell_formula_units_Z 48
_cell_length_a 13.261776
_cell_length_b 11.413050
_cell_length_c 17.025209
_cell_angle_alpha 90.000000
_cell_angle_beta 61.557398
_cell_angle_gamma 90.000000
_cell_volume 2265.845567
_symmetry_space_group_name_H-M "C 2/M"
_symmetry_group_IT_number 12
_symmetry_cell_setting 'monoclinic'
loop_
_space_group_symop_operation_xyz
x,y,z
-x,y,-z
-x,-y,-z
x,-y,z
1/2+x,1/2+y,z
1/2-x,1/2+y,-z
1/2-x,1/2-y,-z
1/2+x,1/2-y,z
loop_
_atom_site_type_symbol
_atom_site_label
_atom_site_fract_x
_atom_site_fract_y
_atom_site_fract_z
Si Si1 0.964453 0.166424 0.599242
Si Si2 0.361135 0.365273 0.044773
Si Si3 0.214126 0.136195 0.110565
Si Si4 0.768121 0.707170 0.359295
Si Si5 0.119102 0.371182 0.530037
Si Si6 0.959567 0.871662 0.262363
O O1 0.829481 0.148428 0.656900
O O2 0.039216 0.120704 0.643042
O O3 0.000000 0.122795 0.500000
O O4 0.999943 0.303102 0.585217
O O5 0.335391 0.500000 0.084683
O O6 0.299050 0.245271 0.098898
O O7 0.500000 0.352350 0.000000
O O8 0.316021 0.366511 0.971357
O O9 0.089331 0.160871 0.194303
O O10 0.248840 0.000000 0.118427
O O11 0.825971 0.627543 0.403572
O O12 0.698143 0.797469 0.441495
O O13 0.864860 0.776727 0.276367
O O14 0.108994 0.500000 0.503403
O O15 0.935184 0.000000 0.237894
#
# Coordination Sequence:
#
# PCOD9191383 Si02
#       6
#     8   8   8   8   8   8
#     4   9  19  32  46  68  95 127 171 214 250 292
#     4   9  18  35  60  84 105 134 169 203 247 307
#     4   9  19  35  53  78 111 138 165 207 254 303
#     4   9  18  30  45  66  91 122 163 206 249 297
#     4   9  17  30  46  64  88 120 162 212 258 295
#     4  10  20  33  49  71 100 132 166 205 249 297
#
# _framework density 21.184144
#
# number of rings (size 3 to 8) (size 9 to 14) (size 15 to 20)
#    0.000    2.833    0.000    1.500    0.000    6.333 
#    0.000    3.333    0.000    0.000    0.000    0.000 
#    0.000    0.000    0.000    0.000    0.000    0.000 
#
# Total GULP energy -133609.630396 kJ/mol
# GULP energy per Si atom -5567.067933 kJ/mol
# Density = 2.113593 g / cm^3
# Si number density = 21.184144 Si / 1000 Ang^3
#
#
#
# Elastic Constant Matrix: (Units=GPa)
#
#
# Indices 1 2 3 4 5 6 
#
# 1 95.0679 36.2751 6.0583 0.0000 -16.8956 0.0000
# 2 36.2751 146.7791 23.8303 0.0000 -30.0793 0.0000
# 3 6.0583 23.8303 40.4475 0.0000 -17.2891 0.0000
# 4 0.0000 0.0000 0.0000 -14.6484 0.0000 1.0614
# 5 -16.8956 -30.0793 -17.2891 0.0000 30.6750 0.0000
# 6 0.0000 0.0000 0.0000 1.0614 0.0000 -10.0030
#
#
#
# Elastic Compliance Matrix: (Units=1/GPa)
#
#
# Indices 1 2 3 4 5 6 
#
# 1 0.012233 -0.002165 0.001865 0.000000 0.005666 0.000000
# 2 -0.002165 0.009023 -0.002265 0.000000 0.006378 0.000000
# 3 0.001865 -0.002265 0.033288 0.000000 0.017568 0.000000
# 4 0.000000 0.000000 0.000000 -0.068796 0.000000 -0.007300
# 5 0.005666 0.006378 0.017568 0.000000 0.051877 0.000000
# 6 0.000000 0.000000 0.000000 -0.007300 0.000000 -0.100745
#
#
# Mechanical properties :
#
#
# Convention : Reuss Voigt Hill
#
# Bulk Modulus (GPa) = 20.23712 46.06910 33.15311
# Shear Modulus (GPa) = -120.42812 15.61345 -52.40733
#
# Velocity S-wave (km/s) = -7.54796 2.71778 -4.97922
# Velocity P-wave (km/s) = 8.14791 5.62518 4.16808
#
# Compressibility (1/GPa) = 0.04941414
#
# Stress axis : x y z
#
# Youngs Moduli (GPa) = 81.74585 110.82898 30.04082
#
# Poissons Ratio (x) = 0.23994 -0.05603
# Poissons Ratio (y) = 0.17697 0.06805
# Poissons Ratio (z) = -0.15248 0.25106
#
# Static dielectric constant tensor:
#      x y z
#    x 1.810790 0.000000 0.035800 
#    y 0.000000 1.820780 0.000000 
#    z 0.035800 0.000000 1.799750 
# 
# From -- ./inp_files/309410.got.cif
#   From: 2010.05.17/outbox.cif.g08.bks.cpg/sg12_155_cif.got.tgz:309410.got - 2010.06.03 13:09:07.
