data_PCOD9191056
_publ_section_title
;
Structure prediction by ZEFSAII (Michael W. Deem and Ramdas Pophale) SiO2 
 PCOD9191056
Probable space group: C 2/M
;
_chemical_formula_sum "Si O2"
_cell_formula_units_Z 48
_cell_length_a 24.690077
_cell_length_b 7.606811
_cell_length_c 17.380677
_cell_angle_alpha 90.000000
_cell_angle_beta 134.497032
_cell_angle_gamma 90.000000
_cell_volume 2328.391040
_symmetry_space_group_name_H-M "C 2/M"
_symmetry_group_IT_number 12
_symmetry_cell_setting 'monoclinic'
loop_
_space_group_symop_operation_xyz
x,y,z
-x,y,-z
-x,-y,-z
x,-y,z
1/2+x,1/2+y,z
1/2-x,1/2+y,-z
1/2-x,1/2-y,-z
1/2+x,1/2-y,z
loop_
_atom_site_type_symbol
_atom_site_label
_atom_site_fract_x
_atom_site_fract_y
_atom_site_fract_z
Si Si1 0.932115 0.290215 0.531339
Si Si2 0.068697 0.785038 0.171216
Si Si3 0.661337 0.292744 0.409566
Si Si4 0.749972 0.788847 0.909891
Si Si5 0.100947 0.284723 0.672900
Si Si6 0.100979 0.785505 0.030331
O O1 0.937029 0.500000 0.529034
O O2 0.880704 0.253356 0.553293
O O3 0.898603 0.228481 0.416155
O O4 0.019264 0.227199 0.625058
O O5 0.117422 0.718123 0.291456
O O6 0.101285 0.732497 0.120313
O O7 0.069141 0.000000 0.171962
O O8 0.980286 0.731282 0.085538
O O9 0.655807 0.500000 0.396023
O O10 0.750000 0.250000 0.500000
O O11 0.673559 0.722687 0.792539
O O12 0.826217 0.722859 0.944145
O O13 0.750201 0.000000 0.901361
O O14 0.750000 0.750000 0.000000
O O15 0.102352 0.500000 0.675874
O O16 0.101532 0.000000 0.029893
#
# Coordination Sequence:
#
# PCOD9191056 Si02
#       6
#     8   8   8   8   8   8
#     4   9  18  36  58  77 103 139 180 220 259 310
#     4   8  16  31  51  75 100 131 171 214 256 303
#     4  11  23  35  53  81 109 137 173 216 265 314
#     4  10  20  32  52  79 106 137 173 212 256 307
#     4   8  17  34  56  79 103 141 182 214 259 316
#     4   8  15  30  52  75  99 131 173 214 251 298
#
# _framework density 20.615093000000002
#
# number of rings (size 3 to 8) (size 9 to 14) (size 15 to 20)
#    0.000    3.000    0.000    2.500    4.667    0.000 
#    0.000    2.500    0.000    0.000    0.000    5.833 
#    0.000    0.000    0.000    0.000    0.000    0.000 
#
# Total GULP energy -133921.694168 kJ/mol
# GULP energy per Si atom -5580.070590 kJ/mol
# Density = 2.056817 g / cm^3
# Si number density = 20.615093 Si / 1000 Ang^3
#
#
#
# Elastic Constant Matrix: (Units=GPa)
#
#
# Indices 1 2 3 4 5 6 
#
# 1 227.5465 1.2251 151.7099 0.0000 6.0943 0.0000
# 2 1.2251 38.2470 4.1360 0.0000 2.0182 0.0000
# 3 151.7099 4.1360 222.0353 0.0000 11.8149 0.0000
# 4 0.0000 0.0000 0.0000 11.7487 0.0000 -9.1396
# 5 6.0943 2.0182 11.8149 0.0000 18.3877 0.0000
# 6 0.0000 0.0000 0.0000 -9.1396 0.0000 18.7282
#
#
#
# Elastic Compliance Matrix: (Units=1/GPa)
#
#
# Indices 1 2 3 4 5 6 
#
# 1 0.008090 0.000298 -0.005579 0.000000 0.000871 0.000000
# 2 0.000298 0.026335 -0.000554 0.000000 -0.002633 0.000000
# 3 -0.005579 -0.000554 0.008516 0.000000 -0.003562 0.000000
# 4 0.000000 0.000000 0.000000 0.137203 0.000000 0.066957
# 5 0.000871 -0.002633 -0.003562 0.000000 0.056673 0.000000
# 6 0.000000 0.000000 0.000000 0.066957 0.000000 0.086071
#
#
# Mechanical properties :
#
#
# Convention : Reuss Voigt Hill
#
# Bulk Modulus (GPa) = 31.97951 89.10788 60.54370
# Shear Modulus (GPa) = 14.49354 31.82346 23.15850
#
# Velocity S-wave (km/s) = 2.65439 3.93325 3.35532
# Velocity P-wave (km/s) = 4.99407 7.99661 6.66658
#
# Compressibility (1/GPa) = 0.03127002
#
# Stress axis : x y z
#
# Youngs Moduli (GPa) = 123.61575 37.97207 117.42897
#
# Poissons Ratio (x) = -0.01133 0.65517
# Poissons Ratio (y) = -0.03687 0.06508
# Poissons Ratio (z) = 0.68969 0.02105
#
# Static dielectric constant tensor:
#      x y z
#    x 1.676900 0.000000 -0.000270 
#    y 0.000000 1.795310 0.000000 
#    z -0.000270 0.000000 1.731060 
# 
# From -- ./inp_files/239406.got.cif
#   From: 2010.05.17/outbox.cif.g08.bks.cpg/sg12_120_cif.got.tgz:239406.got - 2010.06.03 13:09:07.
