data_PCOD9191414
_publ_section_title
;
Structure prediction by ZEFSAII (Michael W. Deem and Ramdas Pophale) SiO2 
 PCOD9191414
Probable space group: C 2/M
;
_chemical_formula_sum "Si O2"
_cell_formula_units_Z 56
_cell_length_a 28.076464
_cell_length_b 9.043086
_cell_length_c 14.168603
_cell_angle_alpha 90.000000
_cell_angle_beta 59.692332
_cell_angle_gamma 90.000000
_cell_volume 3105.717440
_symmetry_space_group_name_H-M "C 2/M"
_symmetry_group_IT_number 12
_symmetry_cell_setting 'monoclinic'
loop_
_space_group_symop_operation_xyz
x,y,z
-x,y,-z
-x,-y,-z
x,-y,z
1/2+x,1/2+y,z
1/2-x,1/2+y,-z
1/2-x,1/2-y,-z
1/2+x,1/2-y,z
loop_
_atom_site_type_symbol
_atom_site_label
_atom_site_fract_x
_atom_site_fract_y
_atom_site_fract_z
Si Si1 0.935019 0.824060 0.761789
Si Si2 0.258860 0.823145 0.635065
Si Si3 0.435019 0.675940 0.368173
Si Si4 0.836062 0.323596 0.948046
Si Si5 0.433258 0.832765 0.566742
Si Si6 0.163938 0.323596 0.620170
Si Si7 0.241140 0.323145 0.152784
O O1 0.895419 0.751337 0.878551
O O2 0.919497 0.752710 0.676135
O O3 1.000000 0.794085 0.712908
O O4 0.927363 0.000000 0.765827
O O5 0.202404 0.741492 0.663595
O O6 0.303199 0.786415 0.509998
O O7 0.276800 0.784906 0.723200
O O8 0.250169 0.000000 0.639299
O O9 0.427363 0.500000 0.379446
O O10 0.419497 0.747288 0.484872
O O11 0.395419 0.748665 0.330610
O O12 0.840656 0.500000 0.950536
O O13 0.803199 0.286416 0.883605
O O14 0.797596 0.258508 0.068404
O O15 0.500000 0.843025 0.500000
O O16 0.410224 0.000000 0.589775
O O17 0.159345 0.500000 0.631847
O O18 0.249831 0.500000 0.139637
#
# Coordination Sequence:
#
# PCOD9191414 Si02
#       7
#     8   8   8   8   8   8   8
#     4  10  20  33  49  72 104 140 175 211 255 309
#     4   9  19  36  55  75 103 138 173 213 260 310
#     4  10  20  33  49  72 104 140 175 211 255 309
#     4  10  20  33  53  80 106 135 174 216 258 306
#     4   9  17  29  45  67  97 133 171 209 250 297
#     4  10  20  33  53  80 106 135 174 216 258 306
#     4   9  19  36  55  75 103 138 173 213 260 310
#
# _framework density 18.03126
#
# number of rings (size 3 to 8) (size 9 to 14) (size 15 to 20)
#    0.000    2.429    0.000    2.143    2.000    5.143 
#    0.000    0.000    0.000    0.857    0.000    6.000 
#    0.000    0.000    0.000    0.000    0.000    0.000 
#
# Total GULP energy -156260.553031 kJ/mol
# GULP energy per Si atom -5580.734037 kJ/mol
# Density = 1.799022 g / cm^3
# Si number density = 18.031260 Si / 1000 Ang^3
#
#
#
# Elastic Constant Matrix: (Units=GPa)
#
#
# Indices 1 2 3 4 5 6 
#
# 1 55.7625 24.6105 0.5363 0.0000 -6.4517 0.0000
# 2 24.6105 41.6851 13.2068 0.0000 -11.4382 0.0000
# 3 0.5363 13.2068 43.5143 0.0000 -5.8333 0.0000
# 4 0.0000 0.0000 0.0000 24.6170 0.0000 -1.8734
# 5 -6.4517 -11.4382 -5.8333 0.0000 25.0175 0.0000
# 6 0.0000 0.0000 0.0000 -1.8734 0.0000 26.4847
#
#
#
# Elastic Compliance Matrix: (Units=1/GPa)
#
#
# Indices 1 2 3 4 5 6 
#
# 1 0.025068 -0.016234 0.004635 0.000000 0.000123 0.000000
# 2 -0.016234 0.040082 -0.010394 0.000000 0.011715 0.000000
# 3 0.004635 -0.010394 0.026428 0.000000 0.002605 0.000000
# 4 0.000000 0.000000 0.000000 0.040842 0.000000 0.002889
# 5 0.000123 0.011715 0.002605 0.000000 0.045967 0.000000
# 6 0.000000 0.000000 0.000000 0.002889 0.000000 0.037962
#
#
# Mechanical properties :
#
#
# Convention : Reuss Voigt Hill
#
# Bulk Modulus (GPa) = 21.01320 24.18547 22.59933
# Shear Modulus (GPa) = 18.10278 22.06439 20.08359
#
# Velocity S-wave (km/s) = 3.17198 3.50190 3.34102
# Velocity P-wave (km/s) = 5.00943 5.45832 5.23868
#
# Compressibility (1/GPa) = 0.04758913
#
# Stress axis : x y z
#
# Youngs Moduli (GPa) = 39.89175 24.94892 37.83897
#
# Poissons Ratio (x) = 0.40503 -0.17537
# Poissons Ratio (y) = 0.64762 0.39331
# Poissons Ratio (z) = -0.18489 0.25933
#
# Static dielectric constant tensor:
#      x y z
#    x 1.627800 0.000000 -0.010520 
#    y 0.000000 1.594520 0.000000 
#    z -0.010520 0.000000 1.617310 
# 
# From -- ./inp_files/243680.got.cif
#   From: 2010.05.17/outbox.cif.g08.bks.cpg/sg12_122_cif.got.tgz:243680.got - 2010.06.03 13:09:07.
