data_PCOD9191709
_publ_section_title
;
Structure prediction by ZEFSAII (Michael W. Deem and Ramdas Pophale) SiO2 
 PCOD9191709
Probable space group: C 2/M
;
_chemical_formula_sum "Si O2"
_cell_formula_units_Z 48
_cell_length_a 8.798223
_cell_length_b 18.059133
_cell_length_c 20.627818
_cell_angle_alpha 90.000000
_cell_angle_beta 141.176489
_cell_angle_gamma 90.000000
_cell_volume 2054.753556
_symmetry_space_group_name_H-M "C 2/M"
_symmetry_group_IT_number 12
_symmetry_cell_setting 'monoclinic'
loop_
_space_group_symop_operation_xyz
x,y,z
-x,y,-z
-x,-y,-z
x,-y,z
1/2+x,1/2+y,z
1/2-x,1/2+y,-z
1/2-x,1/2-y,-z
1/2+x,1/2-y,z
loop_
_atom_site_type_symbol
_atom_site_label
_atom_site_fract_x
_atom_site_fract_y
_atom_site_fract_z
Si Si1 0.221480 0.915228 0.429471
Si Si2 0.441084 0.417603 0.767850
Si Si3 0.596562 0.269890 0.187787
Si Si4 0.574613 0.702937 0.591303
Si Si5 0.241501 0.651447 0.885971
Si Si6 0.957882 0.578566 0.689883
O O1 0.500000 0.910238 0.500000
O O2 0.065215 0.909305 0.311333
O O3 0.131854 0.849371 0.445925
O O4 0.187795 0.000000 0.443485
O O5 0.537159 0.500000 0.816365
O O6 0.544600 0.344163 0.835721
O O7 0.162829 0.417204 0.702617
O O8 0.794798 0.250339 0.309355
O O9 0.718464 0.292524 0.161278
O O10 0.427199 0.198749 0.122896
O O11 0.500000 0.743464 0.500000
O O12 0.774359 0.645208 0.631832
O O13 0.101821 0.584604 0.805819
O O14 0.500000 0.631130 0.000000
O O15 0.831827 0.500000 0.642650
#
# Coordination Sequence:
#
# PCOD9191709 Si02
#       6
#     8   8   8   8   8   8
#     4  10  20  33  51  75 104 144 190 225 263 321
#     4   9  18  35  55  73 101 140 180 227 276 321
#     4  10  21  37  56  83 111 142 187 232 276 335
#     4  11  22  35  54  80 114 153 188 229 278 326
#     4  10  20  36  59  83 111 147 183 230 287 333
#     4   9  19  35  55  82 113 146 189 231 271 328
#
# _framework density 23.360465999999999
#
# number of rings (size 3 to 8) (size 9 to 14) (size 15 to 20)
#    0.000    2.167    0.000    3.000    0.000    3.667 
#    0.000    9.167    0.000    0.500    0.000    0.000 
#    0.000    0.000    0.000    0.000    0.000    0.000 
#
# Total GULP energy -134109.553513 kJ/mol
# GULP energy per Si atom -5587.898063 kJ/mol
# Density = 2.330730 g / cm^3
# Si number density = 23.360466 Si / 1000 Ang^3
#
#
#
# Elastic Constant Matrix: (Units=GPa)
#
#
# Indices 1 2 3 4 5 6 
#
# 1 44.3980 17.0225 -2.0639 -0.0001 -8.1800 0.0001
# 2 17.0225 91.6403 -7.5110 -0.0001 -4.1884 0.0000
# 3 -2.0639 -7.5110 46.9631 -0.0006 4.0397 -0.0001
# 4 -0.0001 -0.0001 -0.0006 6.9496 -0.0004 -0.0326
# 5 -8.1800 -4.1884 4.0397 -0.0004 17.8123 -0.0001
# 6 0.0001 0.0000 -0.0001 -0.0326 -0.0001 -10.0042
#
#
#
# Elastic Compliance Matrix: (Units=1/GPa)
#
#
# Indices 1 2 3 4 5 6 
#
# 1 0.026240 -0.004407 -0.000509 0.000001 0.011129 0.000000
# 2 -0.004407 0.011886 0.001674 0.000000 0.000391 0.000000
# 3 -0.000509 0.001674 0.021953 0.000002 -0.004819 0.000000
# 4 0.000001 0.000000 0.000002 0.143891 0.000003 -0.000469
# 5 0.011129 0.000391 -0.004819 0.000003 0.062437 0.000000
# 6 0.000000 0.000000 0.000000 -0.000469 0.000000 -0.099957
#
#
# Mechanical properties :
#
#
# Convention : Reuss Voigt Hill
#
# Bulk Modulus (GPa) = 18.65881 21.98849 20.32365
# Shear Modulus (GPa) = 26.20549 14.65514 20.43032
#
# Velocity S-wave (km/s) = 3.35294 2.50741 2.96052
# Velocity P-wave (km/s) = 4.79524 4.22089 4.51720
#
# Compressibility (1/GPa) = 0.05359399
#
# Stress axis : x y z
#
# Youngs Moduli (GPa) = 38.10952 84.13292 45.55157
#
# Poissons Ratio (x) = 0.37079 0.02319
# Poissons Ratio (y) = 0.16796 -0.07624
# Poissons Ratio (z) = 0.01940 -0.14081
#
# Static dielectric constant tensor:
#      x y z
#    x 1.880480 0.000000 -0.002550 
#    y 0.000000 1.916710 0.000000 
#    z -0.002550 0.000000 1.918110 
# 
# From -- ./inp_files/301818.got.cif
#   From: 2010.05.17/outbox.cif.g08.bks.cpg/sg12_151_cif.got.tgz:301818.got - 2010.06.03 13:09:07.
