data_PCOD9191790
_publ_section_title
;
Structure prediction by ZEFSAII (Michael W. Deem and Ramdas Pophale) SiO2 
 PCOD9191790
Probable space group: C 2/M
;
_chemical_formula_sum "Si O2"
_cell_formula_units_Z 40
_cell_length_a 28.005017
_cell_length_b 8.623543
_cell_length_c 23.166653
_cell_angle_alpha 90.000000
_cell_angle_beta 24.167966
_cell_angle_gamma 90.000000
_cell_volume 2290.585467
_symmetry_space_group_name_H-M "C 2/M"
_symmetry_group_IT_number 12
_symmetry_cell_setting 'monoclinic'
loop_
_space_group_symop_operation_xyz
x,y,z
-x,y,-z
-x,-y,-z
x,-y,z
1/2+x,1/2+y,z
1/2-x,1/2+y,-z
1/2-x,1/2-y,-z
1/2+x,1/2-y,z
loop_
_atom_site_type_symbol
_atom_site_label
_atom_site_fract_x
_atom_site_fract_y
_atom_site_fract_z
Si Si1 0.727114 0.687586 0.935239
Si Si2 0.302977 0.684364 0.500863
Si Si3 0.062338 0.685870 0.215730
Si Si4 0.359674 0.312258 0.219162
Si Si5 0.369050 0.688208 0.078839
O O1 0.718759 0.500000 0.946248
O O2 0.850139 0.730768 0.828611
O O3 0.706988 0.739565 0.891760
O O4 0.626079 0.755008 0.087541
O O5 0.302178 0.500000 0.498948
O O6 0.250000 0.750000 0.500000
O O7 0.434866 0.743739 0.362114
O O8 0.224295 0.741368 0.640798
O O9 0.054194 0.500000 0.223114
O O10 0.352255 0.500000 0.230415
O O11 0.331773 0.262534 0.184100
O O12 0.495236 0.269294 0.080098
O O13 0.366538 0.500000 0.082615
#
# Coordination Sequence:
#
# PCOD9191790 Si02
#       5
#     8   8   8   8   8
#     4   9  17  32  54  78 105 138 175 212 251 298
#     4  12  24  37  53  74 102 134 168 210 261 310
#     4  10  20  33  51  77 106 137 174 213 254 301
#     4   9  17  32  54  79 105 132 167 208 252 304
#     4   8  15  30  54  79 102 133 169 206 250 301
#
# _framework density 17.462783000000002
#
# number of rings (size 3 to 8) (size 9 to 14) (size 15 to 20)
#    0.000    2.400    0.000    4.800    0.000    2.400 
#    0.000    4.000    0.000    6.000    0.000    0.000 
#    0.000    0.000    0.000    0.000    0.000    0.000 
#
# Total GULP energy -111584.937918 kJ/mol
# GULP energy per Si atom -5579.246896 kJ/mol
# Density = 1.742304 g / cm^3
# Si number density = 17.462783 Si / 1000 Ang^3
#
#
#
# Elastic Constant Matrix: (Units=GPa)
#
#
# Indices 1 2 3 4 5 6 
#
# 1 176.6767 37.8751 93.8398 0.0004 14.3948 -0.0002
# 2 37.8751 43.2102 43.1340 -0.0007 1.8111 0.0001
# 3 93.8398 43.1340 148.1081 0.0002 9.8705 0.0000
# 4 0.0004 -0.0007 0.0002 30.5921 -0.0001 3.6996
# 5 14.3948 1.8111 9.8705 -0.0001 15.2475 0.0002
# 6 -0.0002 0.0001 0.0000 3.6996 0.0002 20.2947
#
#
#
# Elastic Compliance Matrix: (Units=1/GPa)
#
#
# Indices 1 2 3 4 5 6 
#
# 1 0.009206 -0.003355 -0.004497 0.000000 -0.005382 0.000000
# 2 -0.003355 0.033934 -0.008047 0.000001 0.004345 0.000000
# 3 -0.004497 -0.008047 0.012121 0.000000 -0.002645 0.000000
# 4 0.000000 0.000001 0.000000 0.033425 0.000001 -0.006093
# 5 -0.005382 0.004345 -0.002645 0.000001 0.071861 -0.000001
# 6 0.000000 0.000000 0.000000 -0.006093 -0.000001 0.050385
#
#
# Mechanical properties :
#
#
# Convention : Reuss Voigt Hill
#
# Bulk Modulus (GPa) = 42.61943 79.74363 61.18153
# Shear Modulus (GPa) = 19.95602 26.10327 23.02964
#
# Velocity S-wave (km/s) = 3.38416 3.87045 3.63545
# Velocity P-wave (km/s) = 6.30309 8.10789 7.26178
#
# Compressibility (1/GPa) = 0.02346348
#
# Stress axis : x y z
#
# Youngs Moduli (GPa) = 108.61928 29.46935 82.50054
#
# Poissons Ratio (x) = 0.09886 0.37105
# Poissons Ratio (y) = 0.36438 0.66386
# Poissons Ratio (z) = 0.48851 0.23713
#
# Static dielectric constant tensor:
#      x y z
#    x 1.612500 0.000000 -0.005250 
#    y 0.000000 1.592390 0.000000 
#    z -0.005250 0.000000 1.552560 
# 
# From -- ./inp_files/162649.got.cif
#   From: 2010.05.17/outbox.cif.g08.bks.cpg/sg12_82_cif.got.tgz:162649.got - 2010.06.03 13:09:07.
