data_PCOD9191618
_publ_section_title
;
Structure prediction by ZEFSAII (Michael W. Deem and Ramdas Pophale) SiO2 
 PCOD9191618
Probable space group: C 2/M
;
_chemical_formula_sum "Si O2"
_cell_formula_units_Z 64
_cell_length_a 9.698787
_cell_length_b 28.104911
_cell_length_c 19.684074
_cell_angle_alpha 90.000000
_cell_angle_beta 139.326859
_cell_angle_gamma 90.000000
_cell_volume 3496.962358
_symmetry_space_group_name_H-M "C 2/M"
_symmetry_group_IT_number 12
_symmetry_cell_setting 'monoclinic'
loop_
_space_group_symop_operation_xyz
x,y,z
-x,y,-z
-x,-y,-z
x,-y,z
1/2+x,1/2+y,z
1/2-x,1/2+y,-z
1/2-x,1/2-y,-z
1/2+x,1/2-y,z
loop_
_atom_site_type_symbol
_atom_site_label
_atom_site_fract_x
_atom_site_fract_y
_atom_site_fract_z
Si Si1 0.420505 0.056606 0.393147
Si Si2 0.760951 0.057477 0.406045
Si Si3 0.071566 0.120768 0.195635
Si Si4 0.871391 0.444924 0.794724
Si Si5 0.312365 0.693991 0.872126
Si Si6 0.134183 0.945258 0.986908
Si Si7 0.457063 0.776643 0.108339
Si Si8 0.330102 0.866376 0.883652
O O1 0.500000 0.061446 0.500000
O O2 0.608561 0.070011 0.411177
O O3 0.229095 0.091831 0.302833
O O4 0.367553 0.000000 0.362684
O O5 0.666483 0.069217 0.297242
O O6 0.000000 0.076078 0.500000
O O7 0.772173 0.000000 0.412334
O O8 0.189453 0.149741 0.180010
O O9 0.928060 0.082596 0.102747
O O10 0.889725 0.151425 0.165447
O O11 0.800650 0.500000 0.777971
O O12 0.769479 0.407108 0.807287
O O13 0.120831 0.442861 0.903211
O O14 0.365475 0.738001 0.842404
O O15 0.108212 0.706600 0.840937
O O16 0.500000 0.688189 0.000000
O O17 0.072363 0.000000 0.954533
O O18 0.000000 0.926153 0.000000
O O19 0.534391 0.823736 0.098411
O O20 0.250000 0.750000 0.000000
O O21 0.500000 0.887680 0.000000
#
# Coordination Sequence:
#
# PCOD9191618 Si02
#       8
#     8   8   8   8   8   8   8   8
#     4  10  23  41  60  85 118 160 212 262 306 355
#     4   9  19  37  60  80 108 153 208 259 301 348
#     4  12  23  35  57  85 118 158 197 249 304 359
#     4  10  22  35  52  81 119 160 201 246 294 353
#     4  10  20  35  57  83 114 149 189 236 295 360
#     4  10  20  33  50  76 115 157 195 235 292 362
#     4  10  21  37  58  82 118 159 195 240 289 357
#     4  12  23  36  54  85 124 161 201 240 290 360
#
# _framework density 18.301597000000001
#
# number of rings (size 3 to 8) (size 9 to 14) (size 15 to 20)
#    0.000    1.625    1.250    4.875    5.250    3.250 
#    0.000    0.000    0.000    0.000    0.000    4.375 
#    0.000    0.000    0.000    0.000    0.000    0.000 
#
# Total GULP energy -178462.083631 kJ/mol
# GULP energy per Si atom -5576.940113 kJ/mol
# Density = 1.825994 g / cm^3
# Si number density = 18.301597 Si / 1000 Ang^3
#
#
#
# Elastic Constant Matrix: (Units=GPa)
#
#
# Indices 1 2 3 4 5 6 
#
# 1 120.9960 39.1987 40.3471 0.0000 -3.1777 0.0002
# 2 39.1987 67.6975 33.1383 -0.0001 -10.4040 0.0002
# 3 40.3471 33.1383 79.8869 0.0002 -11.6915 0.0016
# 4 0.0000 -0.0001 0.0002 12.0787 0.0000 0.0909
# 5 -3.1777 -10.4040 -11.6915 0.0000 22.1972 0.0004
# 6 0.0002 0.0002 0.0016 0.0909 0.0004 28.7154
#
#
#
# Elastic Compliance Matrix: (Units=1/GPa)
#
#
# Indices 1 2 3 4 5 6 
#
# 1 0.011112 -0.004916 -0.003985 0.000000 -0.002812 0.000000
# 2 -0.004916 0.021242 -0.005390 0.000000 0.006414 0.000000
# 3 -0.003985 -0.005390 0.017675 0.000000 0.006213 -0.000001
# 4 0.000000 0.000000 0.000000 0.082792 0.000000 -0.000262
# 5 -0.002812 0.006414 0.006213 0.000000 0.050927 -0.000001
# 6 0.000000 0.000000 -0.000001 -0.000262 -0.000001 0.034825
#
#
# Mechanical properties :
#
#
# Convention : Reuss Voigt Hill
#
# Bulk Modulus (GPa) = 46.62363 54.88320 50.75342
# Shear Modulus (GPa) = 19.66144 22.99134 21.32639
#
# Velocity S-wave (km/s) = 3.28121 3.54820 3.41732
# Velocity P-wave (km/s) = 6.31550 6.84395 6.58503
#
# Compressibility (1/GPa) = 0.02144835
#
# Stress axis : x y z
#
# Youngs Moduli (GPa) = 89.99133 47.07601 56.57611
#
# Poissons Ratio (x) = 0.23142 0.22543
# Poissons Ratio (y) = 0.44239 0.30495
# Poissons Ratio (z) = 0.35858 0.25375
#
# Static dielectric constant tensor:
#      x y z
#    x 1.702600 0.000000 0.002310 
#    y 0.000000 1.659050 0.000000 
#    z 0.002310 0.000000 1.604350 
# 
# From -- ./inp_files/260371.got.cif
#   From: 2010.05.17/outbox.cif.g08.bks.cpg/sg12_131_cif.got.tgz:260371.got - 2010.06.03 13:09:07.
