data_PCOD9191575
_publ_section_title
;
Structure prediction by ZEFSAII (Michael W. Deem and Ramdas Pophale) SiO2 
 PCOD9191575
Probable space group: C 2/M
;
_chemical_formula_sum "Si O2"
_cell_formula_units_Z 42
_cell_length_a 19.016123
_cell_length_b 7.432313
_cell_length_c 15.676247
_cell_angle_alpha 90.000000
_cell_angle_beta 49.478748
_cell_angle_gamma 90.000000
_cell_volume 1684.208864
_symmetry_space_group_name_H-M "C 2/M"
_symmetry_group_IT_number 12
_symmetry_cell_setting 'monoclinic'
loop_
_space_group_symop_operation_xyz
x,y,z
-x,y,-z
-x,-y,-z
x,-y,z
1/2+x,1/2+y,z
1/2-x,1/2+y,-z
1/2-x,1/2-y,-z
1/2+x,1/2-y,z
loop_
_atom_site_type_symbol
_atom_site_label
_atom_site_fract_x
_atom_site_fract_y
_atom_site_fract_z
Si Si1 0.634072 0.218181 0.667034
Si Si2 0.500000 0.000000 0.000000
Si Si3 0.869152 0.705219 0.702790
Si Si4 0.661551 0.790681 0.453471
Si Si5 0.322664 0.200303 0.078692
Si Si6 0.931212 0.278159 0.836186
O O1 0.637526 0.282701 0.565697
O O2 0.726973 0.280907 0.638766
O O3 0.534970 0.269980 0.781817
O O4 0.638168 0.000000 0.664542
O O5 0.582452 0.154023 0.946458
O O6 0.903593 0.500000 0.670424
O O7 0.880034 0.788355 0.600478
O O8 0.914622 0.780655 0.752513
O O9 0.759402 0.701381 0.809101
O O10 0.634910 0.000000 0.476983
O O11 0.355210 0.283007 0.963485
O O12 0.282487 0.000000 0.093252
O O13 0.927647 0.500000 0.842151
#
# Coordination Sequence:
#
# PCOD9191575 Si02
#       6
#     8   2   8   8   8   8
#     4   9  18  33  55  73  94 130 169 203 246 289
#     4   8  20  32  54  76  96 124 176 216 228 278
#     4  10  20  33  50  74 105 132 159 199 253 297
#     4   9  19  33  49  75 102 127 160 207 250 292
#     4   9  19  33  52  74  99 126 168 205 237 285
#     4   9  18  32  52  74  98 131 167 205 241 292
#
# _framework density 24.937522999999999
#
# number of rings (size 3 to 8) (size 9 to 14) (size 15 to 20)
#    0.571    2.286    0.000    0.571    2.667    1.524 
#    0.000    6.190    0.000    0.000    0.000    6.667 
#    0.000    0.000    0.000    0.000    0.000    0.000 
#
# Total GULP energy -116933.083291 kJ/mol
# GULP energy per Si atom -5568.242061 kJ/mol
# Density = 2.488076 g / cm^3
# Si number density = 24.937523 Si / 1000 Ang^3
#
#
#
# Elastic Constant Matrix: (Units=GPa)
#
#
# Indices 1 2 3 4 5 6 
#
# 1 94.5975 0.0553 37.1281 -0.0001 -2.5385 0.0000
# 2 0.0553 78.2544 1.7198 0.0001 1.0843 0.0001
# 3 37.1281 1.7198 63.3418 -0.0001 6.9552 0.0001
# 4 -0.0001 0.0001 -0.0001 3.7152 0.0000 -3.5921
# 5 -2.5385 1.0843 6.9552 0.0000 48.5199 0.0000
# 6 0.0000 0.0001 0.0001 -3.5921 0.0000 3.5075
#
#
#
# Elastic Compliance Matrix: (Units=1/GPa)
#
#
# Indices 1 2 3 4 5 6 
#
# 1 0.013906 0.000147 -0.008366 0.000010 0.001924 0.000011
# 2 0.000147 0.012791 -0.000410 -0.000068 -0.000219 -0.000070
# 3 -0.008366 -0.000410 0.021081 0.000006 -0.003451 0.000006
# 4 0.000010 -0.000068 0.000006 27.369891 -0.000001 28.029642
# 5 0.001924 -0.000219 -0.003451 -0.000001 0.021210 -0.000001
# 6 0.000011 -0.000070 0.000006 28.029642 -0.000001 28.990399
#
#
# Mechanical properties :
#
#
# Convention : Reuss Voigt Hill
#
# Bulk Modulus (GPa) = 32.76414 34.88889 33.82651
# Shear Modulus (GPa) = 0.08856 24.30121 12.19489
#
# Velocity S-wave (km/s) = 0.18866 3.12506 2.21377
# Velocity P-wave (km/s) = 3.63517 5.20021 4.48646
#
# Compressibility (1/GPa) = 0.03052118
#
# Stress axis : x y z
#
# Youngs Moduli (GPa) = 71.90953 78.18140 47.43512
#
# Poissons Ratio (x) = -0.01152 0.39687
# Poissons Ratio (y) = -0.01060 0.01943
# Poissons Ratio (z) = 0.60163 0.03202
#
# Static dielectric constant tensor:
#      x y z
#    x 1.983410 0.000000 0.057270 
#    y 0.000000 1.989940 0.000000 
#    z 0.057270 0.000000 1.983960 
# 
# From -- ./inp_files/280021.got.cif
#   From: 2010.05.17/outbox.cif.g08.bks.cpg/sg12_141_cif.got.tgz:280021.got - 2010.06.03 13:09:07.
