data_PCOD9191248
_publ_section_title
;
Structure prediction by ZEFSAII (Michael W. Deem and Ramdas Pophale) SiO2 
 PCOD9191248
Probable space group: C 2/M
;
_chemical_formula_sum "Si O2"
_cell_formula_units_Z 58
_cell_length_a 23.345700
_cell_length_b 9.252233
_cell_length_c 13.655844
_cell_angle_alpha 90.000000
_cell_angle_beta 57.513004
_cell_angle_gamma 90.000000
_cell_volume 2488.077934
_symmetry_space_group_name_H-M "C 2/M"
_symmetry_group_IT_number 12
_symmetry_cell_setting 'monoclinic'
loop_
_space_group_symop_operation_xyz
x,y,z
-x,y,-z
-x,-y,-z
x,-y,z
1/2+x,1/2+y,z
1/2-x,1/2+y,-z
1/2-x,1/2-y,-z
1/2+x,1/2-y,z
loop_
_atom_site_type_symbol
_atom_site_label
_atom_site_fract_x
_atom_site_fract_y
_atom_site_fract_z
Si Si1 0.991839 0.326947 0.303993
Si Si2 0.239306 0.836502 0.884998
Si Si3 0.233406 0.334395 0.374988
Si Si4 0.873956 0.832157 0.792099
Si Si5 0.098354 0.831601 0.466992
Si Si6 0.500000 0.000000 0.000000
Si Si7 0.864715 0.667481 0.288726
Si Si8 0.884240 0.343931 0.035183
O O1 0.996788 0.500000 0.305087
O O2 0.962928 0.260450 0.431870
O O3 0.932086 0.285296 0.283214
O O4 0.065671 0.260532 0.215125
O O5 0.251758 0.835881 0.755741
O O6 0.298616 0.733971 0.871191
O O7 0.162147 0.780001 0.965905
O O8 0.247875 0.000000 0.911759
O O9 0.222124 0.500000 0.414320
O O10 0.166880 0.237497 0.448166
O O11 0.299082 0.264977 0.364547
O O12 0.891259 0.824118 0.659390
O O13 0.876649 0.000000 0.817319
O O14 0.089599 0.000000 0.501222
O O15 0.535570 0.876135 0.039194
O O16 0.852283 0.500000 0.326744
O O17 0.876402 0.664072 0.160967
O O18 0.853040 0.500000 0.032963
#
# Coordination Sequence:
#
# PCOD9191248 Si02
#       8
#     8   8   8   8   8   2   8   8
#     4  11  22  32  44  64  91 126 168 204 252 284
#     4   9  16  28  48  73 100 125 153 199 241 277
#     4   9  17  29  47  68  89 123 163 202 249 286
#     4  10  20  33  48  66  90 125 171 213 248 277
#     4  10  20  33  47  63  88 124 167 217 257 284
#     4   8  16  28  58  84 104 124 150 176 224 286
#     4   9  18  32  47  65  96 127 156 192 232 294
#     4   8  15  30  51  77 103 123 152 176 228 283
#
# _framework density 23.311167999999999
#
# number of rings (size 3 to 8) (size 9 to 14) (size 15 to 20)
#    0.414    2.207    0.000    2.483    0.000    8.276 
#    0.000    0.345    0.000    0.000    0.000    0.966 
#    0.000    0.000    0.000    0.000    0.000    0.000 
#
# Total GULP energy -161773.964087 kJ/mol
# GULP energy per Si atom -5578.412555 kJ/mol
# Density = 2.325811 g / cm^3
# Si number density = 23.311168 Si / 1000 Ang^3
#
#
#
# Elastic Constant Matrix: (Units=GPa)
#
#
# Indices 1 2 3 4 5 6 
#
# 1 179.7283 90.8758 21.6617 0.0000 -14.6254 0.0000
# 2 90.8758 132.1123 3.3017 0.0000 -16.6295 0.0000
# 3 21.6617 3.3017 79.6015 0.0000 -14.7772 0.0000
# 4 0.0000 0.0000 0.0000 2.1480 0.0000 5.3912
# 5 -14.6254 -16.6295 -14.7772 0.0000 41.3702 0.0000
# 6 0.0000 0.0000 0.0000 5.3912 0.0000 33.8410
#
#
#
# Elastic Compliance Matrix: (Units=1/GPa)
#
#
# Indices 1 2 3 4 5 6 
#
# 1 0.008890 -0.006070 -0.002182 0.000000 -0.000076 0.000000
# 2 -0.006070 0.012124 0.001773 0.000000 0.003361 0.000000
# 3 -0.002182 0.001773 0.014000 0.000000 0.004942 0.000000
# 4 0.000000 0.000000 0.000000 0.775700 0.000000 -0.123577
# 5 -0.000076 0.003361 0.004942 0.000000 0.027261 0.000000
# 6 0.000000 0.000000 0.000000 -0.123577 0.000000 0.049237
#
#
# Mechanical properties :
#
#
# Convention : Reuss Voigt Hill
#
# Bulk Modulus (GPa) = 45.33968 69.23560 57.28764
# Shear Modulus (GPa) = 5.50951 33.84537 19.67744
#
# Velocity S-wave (km/s) = 1.53902 3.81451 2.90853
# Velocity P-wave (km/s) = 4.75921 7.01183 5.99232
#
# Compressibility (1/GPa) = 0.02205574
#
# Stress axis : x y z
#
# Youngs Moduli (GPa) = 112.48659 82.48421 71.42764
#
# Poissons Ratio (x) = 0.50070 0.15583
# Poissons Ratio (y) = 0.68282 -0.12663
# Poissons Ratio (z) = 0.24540 -0.14623
#
# Static dielectric constant tensor:
#      x y z
#    x 1.853090 0.000000 0.003800 
#    y 0.000000 1.794990 0.000000 
#    z 0.003800 0.000000 2.069270 
# 
# From -- ./inp_files/281161.got.cif
#   From: 2010.05.17/outbox.cif.g08.bks.cpg/sg12_141_cif.got.tgz:281161.got - 2010.06.03 13:09:07.
