data_PCOD9191597
_publ_section_title
;
Structure prediction by ZEFSAII (Michael W. Deem and Ramdas Pophale) SiO2 
 PCOD9191597
Probable space group: C 2/M
;
_chemical_formula_sum "Si O2"
_cell_formula_units_Z 56
_cell_length_a 14.540548
_cell_length_b 9.158969
_cell_length_c 20.168893
_cell_angle_alpha 90.000000
_cell_angle_beta 92.056308
_cell_angle_gamma 90.000000
_cell_volume 2684.291462
_symmetry_space_group_name_H-M "C 2/M"
_symmetry_group_IT_number 12
_symmetry_cell_setting 'monoclinic'
loop_
_space_group_symop_operation_xyz
x,y,z
-x,y,-z
-x,-y,-z
x,-y,z
1/2+x,1/2+y,z
1/2-x,1/2+y,-z
1/2-x,1/2-y,-z
1/2+x,1/2-y,z
loop_
_atom_site_type_symbol
_atom_site_label
_atom_site_fract_x
_atom_site_fract_y
_atom_site_fract_z
Si Si1 0.607297 0.334343 0.187808
Si Si2 0.648159 0.824703 0.320783
Si Si3 0.722207 0.824900 0.567631
Si Si4 0.435708 0.827369 0.346128
Si Si5 0.108367 0.164620 0.782993
Si Si6 0.372254 0.835530 0.948053
Si Si7 0.653210 0.333889 0.926058
O O1 0.644211 0.500000 0.186091
O O2 0.655582 0.237459 0.245980
O O3 0.501025 0.342692 0.207130
O O4 0.606456 0.260240 0.115842
O O5 0.714951 0.742068 0.372684
O O6 0.543647 0.792850 0.343556
O O7 0.661429 0.000000 0.321896
O O8 0.750000 0.750000 0.500000
O O9 0.616962 0.792707 0.587263
O O10 0.733351 0.000000 0.563883
O O11 0.382554 0.750164 0.284553
O O12 0.427816 0.000000 0.335462
O O13 0.147106 0.230558 0.852001
O O14 0.145439 0.000000 0.777008
O O15 0.260836 0.845463 0.945267
O O16 0.408952 0.000000 0.943122
O O17 0.395547 0.759305 0.018395
O O18 0.615048 0.500000 0.923007
#
# Coordination Sequence:
#
# PCOD9191597 Si02
#       7
#     8   8   8   8   8   8   8
#     4  10  20  35  55  80 110 144 184 234 287 342
#     4  10  21  40  63  88 120 157 195 242 291 343
#     4  11  24  42  63  93 124 157 197 236 286 348
#     4   9  21  40  61  87 121 156 194 240 292 344
#     4   9  19  35  56  80 106 142 189 235 284 339
#     4  10  20  33  50  75 106 143 187 234 286 342
#     4   9  19  35  51  72 103 142 187 234 284 339
#
# _framework density 20.862116
#
# number of rings (size 3 to 8) (size 9 to 14) (size 15 to 20)
#    0.000    2.286    0.000    1.714    2.000    4.571 
#    0.000    5.714    0.000    0.000    0.000    0.000 
#    0.000    0.000    0.000    0.000    0.000    0.000 
#
# Total GULP energy -156357.673505 kJ/mol
# GULP energy per Si atom -5584.202625 kJ/mol
# Density = 2.081463 g / cm^3
# Si number density = 20.862116 Si / 1000 Ang^3
#
#
#
# Elastic Constant Matrix: (Units=GPa)
#
#
# Indices 1 2 3 4 5 6 
#
# 1 43.9141 25.8352 25.8759 0.0000 -12.1582 0.0000
# 2 25.8352 78.6304 37.9108 0.0000 -19.7097 0.0000
# 3 25.8759 37.9108 103.8404 0.0000 -25.8661 0.0000
# 4 0.0000 0.0000 0.0000 39.6058 0.0000 0.5280
# 5 -12.1582 -19.7097 -25.8661 0.0000 33.8013 0.0000
# 6 0.0000 0.0000 0.0000 0.5280 0.0000 15.5196
#
#
#
# Elastic Compliance Matrix: (Units=1/GPa)
#
#
# Indices 1 2 3 4 5 6 
#
# 1 0.030355 -0.007096 -0.004058 0.000000 0.003676 0.000000
# 2 -0.007096 0.018069 -0.003509 0.000000 0.005299 0.000000
# 3 -0.004058 -0.003509 0.013651 0.000000 0.006941 0.000000
# 4 0.000000 0.000000 0.000000 0.025260 0.000000 -0.000859
# 5 0.003676 0.005299 0.006941 0.000000 0.039308 0.000000
# 6 0.000000 0.000000 0.000000 -0.000859 0.000000 0.064464
#
#
# Mechanical properties :
#
#
# Convention : Reuss Voigt Hill
#
# Bulk Modulus (GPa) = 30.53380 45.06985 37.80183
# Shear Modulus (GPa) = 21.61234 26.90287 24.25760
#
# Velocity S-wave (km/s) = 3.22213 3.59493 3.41362
# Velocity P-wave (km/s) = 5.33953 6.23554 5.80485
#
# Compressibility (1/GPa) = 0.03275059
#
# Stress axis : x y z
#
# Youngs Moduli (GPa) = 32.94347 55.34335 73.25308
#
# Poissons Ratio (x) = 0.39270 0.29726
# Poissons Ratio (y) = 0.23376 0.25702
# Poissons Ratio (z) = 0.13368 0.19418
#
# Static dielectric constant tensor:
#      x y z
#    x 1.807530 0.000000 -0.008730 
#    y 0.000000 1.736000 0.000000 
#    z -0.008730 0.000000 1.727620 
# 
# From -- ./inp_files/309000.got.cif
#   From: 2010.05.17/outbox.cif.g08.bks.cpg/sg12_155_cif.got.tgz:309000.got - 2010.06.03 13:09:07.
