data_PCOD9191779
_publ_section_title
;
Structure prediction by ZEFSAII (Michael W. Deem and Ramdas Pophale) SiO2 
 PCOD9191779
Probable space group: C 2/M
;
_chemical_formula_sum "Si O2"
_cell_formula_units_Z 36
_cell_length_a 25.912448
_cell_length_b 7.542674
_cell_length_c 6.847724
_cell_angle_alpha 90.000000
_cell_angle_beta 94.293806
_cell_angle_gamma 90.000000
_cell_volume 1334.625295
_symmetry_space_group_name_H-M "C 2/M"
_symmetry_group_IT_number 12
_symmetry_cell_setting 'monoclinic'
loop_
_space_group_symop_operation_xyz
x,y,z
-x,y,-z
-x,-y,-z
x,-y,z
1/2+x,1/2+y,z
1/2-x,1/2+y,-z
1/2-x,1/2-y,-z
1/2+x,1/2-y,z
loop_
_atom_site_type_symbol
_atom_site_label
_atom_site_fract_x
_atom_site_fract_y
_atom_site_fract_z
Si Si1 0.400419 0.295692 0.224615
Si Si2 0.000000 0.735829 0.000000
Si Si3 0.429626 0.291939 0.657911
Si Si4 0.184846 0.285520 0.319100
Si Si5 0.290803 0.293639 0.219161
O O1 0.388125 0.500000 0.268098
O O2 0.421488 0.223137 0.436000
O O3 0.344608 0.214491 0.150581
O O4 0.446700 0.301669 0.084962
O O5 0.971132 0.682751 0.791878
O O6 0.447439 0.500000 0.662313
O O7 0.372476 0.284333 0.735527
O O8 0.183786 0.500000 0.318567
O O9 0.231888 0.221627 0.193279
O O10 0.197691 0.222808 0.543286
O O11 0.286338 0.500000 0.168090
#
# Coordination Sequence:
#
# PCOD9191779 Si02
#       5
#     8   4   8   8   8
#     4   9  17  30  50  77 103 126 162 213 256 290
#     4  12  21  32  53  76  99 134 177 214 249 292
#     4  10  20  33  51  77 104 130 167 213 252 291
#     4   9  16  29  51  76 103 135 165 199 252 308
#     4   8  15  29  51  78 104 129 163 208 251 295
#
# _framework density 26.973860999999999
#
# number of rings (size 3 to 8) (size 9 to 14) (size 15 to 20)
#    0.000    2.667    0.000    4.667    0.000    2.667 
#    0.000    1.667    0.000   16.000    0.000    0.000 
#    0.000    0.000    0.000    0.000    0.000    0.000 
#
# Total GULP energy -100308.555922 kJ/mol
# GULP energy per Si atom -5572.697551 kJ/mol
# Density = 2.691247 g / cm^3
# Si number density = 26.973861 Si / 1000 Ang^3
#
#
#
# Elastic Constant Matrix: (Units=GPa)
#
#
# Indices 1 2 3 4 5 6 
#
# 1 237.5605 19.6883 66.2074 0.0000 0.0886 0.0000
# 2 19.6883 121.9116 19.0202 0.0000 7.0740 0.0000
# 3 66.2074 19.0202 95.5921 0.0000 -3.2790 0.0000
# 4 0.0000 0.0000 0.0000 -16.2328 0.0000 2.4208
# 5 0.0886 7.0740 -3.2790 0.0000 76.1726 0.0000
# 6 0.0000 0.0000 0.0000 2.4208 0.0000 83.1166
#
#
#
# Elastic Compliance Matrix: (Units=1/GPa)
#
#
# Indices 1 2 3 4 5 6 
#
# 1 0.005227 -0.000280 -0.003570 0.000000 -0.000134 0.000000
# 2 -0.000280 0.008537 -0.001534 0.000000 -0.000859 0.000000
# 3 -0.003570 -0.001534 0.013263 0.000000 0.000718 0.000000
# 4 0.000000 0.000000 0.000000 -0.061337 0.000000 0.001787
# 5 -0.000134 -0.000859 0.000718 0.000000 0.013239 0.000000
# 6 0.000000 0.000000 0.000000 0.001787 0.000000 0.011979
#
#
# Mechanical properties :
#
#
# Convention : Reuss Voigt Hill
#
# Bulk Modulus (GPa) = 61.49787 73.87734 67.68760
# Shear Modulus (GPa) = 704.62367 51.95450 378.28909
#
# Velocity S-wave (km/s) = 16.17998 4.39350 11.85526
# Velocity P-wave (km/s) = 19.28482 7.29281 14.57891
#
# Compressibility (1/GPa) = 0.01626073
#
# Stress axis : x y z
#
# Youngs Moduli (GPa) = 191.29624 117.13676 75.39582
#
# Poissons Ratio (x) = 0.03275 0.26913
# Poissons Ratio (y) = 0.05348 0.11569
# Poissons Ratio (z) = 0.68284 0.17974
#
# Static dielectric constant tensor:
#      x y z
#    x 2.109270 0.000000 -0.000570 
#    y 0.000000 2.013520 0.000000 
#    z -0.000570 0.000000 2.127520 
# 
# From -- ./inp_files/161958.got.cif
#   From: 2010.05.17/outbox.cif.g08.bks.cpg/sg12_81_cif.got.tgz:161958.got - 2010.06.03 13:09:07.
