data_PCOD9191758
_publ_section_title
;
Structure prediction by ZEFSAII (Michael W. Deem and Ramdas Pophale) SiO2 
 PCOD9191758
Probable space group: C 2/M
;
_chemical_formula_sum "Si O2"
_cell_formula_units_Z 56
_cell_length_a 27.216968
_cell_length_b 7.498605
_cell_length_c 16.397916
_cell_angle_alpha 90.000000
_cell_angle_beta 133.321933
_cell_angle_gamma 90.000000
_cell_volume 2434.713964
_symmetry_space_group_name_H-M "C 2/M"
_symmetry_group_IT_number 12
_symmetry_cell_setting 'monoclinic'
loop_
_space_group_symop_operation_xyz
x,y,z
-x,y,-z
-x,-y,-z
x,-y,z
1/2+x,1/2+y,z
1/2-x,1/2+y,-z
1/2-x,1/2-y,-z
1/2+x,1/2-y,z
loop_
_atom_site_type_symbol
_atom_site_label
_atom_site_fract_x
_atom_site_fract_y
_atom_site_fract_z
Si Si1 0.851405 0.784039 0.977728
Si Si2 0.785919 0.712743 0.127920
Si Si3 0.453987 0.704707 0.522931
Si Si4 0.574940 0.210225 0.767749
Si Si5 0.676599 0.285170 0.344036
Si Si6 0.574485 0.718070 0.098800
Si Si7 0.823671 0.787949 0.469704
O O1 0.896168 0.732174 0.107595
O O2 0.848699 0.000000 0.978373
O O3 0.773937 0.718845 0.884523
O O4 0.885401 0.726011 0.934527
O O5 0.792584 0.500000 0.144932
O O6 0.861790 0.783134 0.213979
O O7 0.750000 0.750000 0.000000
O O8 0.500000 0.782080 0.500000
O O9 0.440501 0.500000 0.483305
O O10 0.504792 0.707525 0.658746
O O11 0.381483 0.781308 0.472646
O O12 0.567208 0.000000 0.744908
O O13 0.677060 0.500000 0.349648
O O14 0.611023 0.223246 0.221653
O O15 0.743253 0.238583 0.366693
O O16 0.672382 0.217261 0.432150
O O17 0.574007 0.500000 0.100108
O O18 0.500000 0.781467 0.000000
O O19 0.836019 0.000000 0.486551
#
# Coordination Sequence:
#
# PCOD9191758 Si02
#       7
#     8   8   8   8   8   8   8
#     4   9  17  31  52  74 101 141 180 212 258 317
#     4   8  15  28  45  68  96 128 168 207 244 299
#     4  10  22  38  55  78 106 138 181 225 271 326
#     4  10  20  33  51  76 107 138 173 219 270 321
#     4   9  18  34  57  83 108 140 183 228 270 318
#     4   9  18  30  50  81 110 136 175 220 262 313
#     4   9  19  36  58  80 106 142 184 227 272 322
#
# _framework density 23.000648000000002
#
# number of rings (size 3 to 8) (size 9 to 14) (size 15 to 20)
#    0.000    2.857    0.000    0.429    2.000    2.571 
#    0.000    2.143    0.000    0.857    0.000    0.000 
#    0.000    0.000    0.000    0.000    0.000    0.000 
#
# Total GULP energy -155985.608156 kJ/mol
# GULP energy per Si atom -5570.914577 kJ/mol
# Density = 2.294830 g / cm^3
# Si number density = 23.000648 Si / 1000 Ang^3
#
#
#
# Elastic Constant Matrix: (Units=GPa)
#
#
# Indices 1 2 3 4 5 6 
#
# 1 86.5436 8.3655 -8.0998 0.0000 13.5350 0.0000
# 2 8.3655 71.2570 -2.9384 0.0000 0.6447 0.0000
# 3 -8.0998 -2.9384 65.2317 0.0000 9.4273 0.0000
# 4 0.0000 0.0000 0.0000 43.7584 0.0000 8.1312
# 5 13.5350 0.6447 9.4273 0.0000 28.4796 0.0000
# 6 0.0000 0.0000 0.0000 8.1312 0.0000 8.4965
#
#
#
# Elastic Compliance Matrix: (Units=1/GPa)
#
#
# Indices 1 2 3 4 5 6 
#
# 1 0.013023 -0.001360 0.002569 0.000000 -0.007009 0.000000
# 2 -0.001360 0.014210 0.000446 0.000000 0.000177 0.000000
# 3 0.002569 0.000446 0.016643 0.000000 -0.006740 0.000000
# 4 0.000000 0.000000 0.000000 0.027796 0.000000 -0.026601
# 5 -0.007009 0.000177 -0.006740 0.000000 0.040671 0.000000
# 6 0.000000 0.000000 0.000000 -0.026601 0.000000 0.143152
#
#
# Mechanical properties :
#
#
# Convention : Reuss Voigt Hill
#
# Bulk Modulus (GPa) = 21.19281 24.18742 22.69011
# Shear Modulus (GPa) = 18.66275 31.19389 24.92832
#
# Velocity S-wave (km/s) = 2.85160 3.68668 3.29570
# Velocity P-wave (km/s) = 4.48064 5.35359 4.93645
#
# Compressibility (1/GPa) = 0.04718581
#
# Stress axis : x y z
#
# Youngs Moduli (GPa) = 76.78832 70.37248 60.08504
#
# Poissons Ratio (x) = 0.09567 -0.15434
# Poissons Ratio (y) = 0.10440 -0.02678
# Poissons Ratio (z) = -0.19725 -0.03137
#
# Static dielectric constant tensor:
#      x y z
#    x 1.930560 0.000000 0.036790 
#    y 0.000000 1.863280 0.000000 
#    z 0.036790 0.000000 1.903940 
# 
# From -- ./inp_files/292537.got.cif
#   From: 2010.05.17/outbox.cif.g08.bks.cpg/sg12_147_cif.got.tgz:292537.got - 2010.06.03 13:09:07.
