data_PCOD9191508
_publ_section_title
;
Structure prediction by ZEFSAII (Michael W. Deem and Ramdas Pophale) SiO2 
 PCOD9191508
Probable space group: C 2/M
;
_chemical_formula_sum "Si O2"
_cell_formula_units_Z 56
_cell_length_a 19.993754
_cell_length_b 7.825939
_cell_length_c 31.383292
_cell_angle_alpha 90.000000
_cell_angle_beta 36.849339
_cell_angle_gamma 90.000000
_cell_volume 2944.914547
_symmetry_space_group_name_H-M "C 2/M"
_symmetry_group_IT_number 12
_symmetry_cell_setting 'monoclinic'
loop_
_space_group_symop_operation_xyz
x,y,z
-x,y,-z
-x,-y,-z
x,-y,z
1/2+x,1/2+y,z
1/2-x,1/2+y,-z
1/2-x,1/2-y,-z
1/2+x,1/2-y,z
loop_
_atom_site_type_symbol
_atom_site_label
_atom_site_fract_x
_atom_site_fract_y
_atom_site_fract_z
Si Si1 0.476576 0.702062 0.159685
Si Si2 0.358213 0.289785 0.849469
Si Si3 0.665610 0.796558 0.004690
Si Si4 0.570754 0.297633 0.279278
Si Si5 0.773406 0.703656 0.722021
Si Si6 0.121181 0.794323 0.563575
Si Si7 0.528668 0.706662 0.438236
O O1 0.466116 0.500000 0.172668
O O2 0.551724 0.768008 0.160823
O O3 0.547413 0.725570 0.080245
O O4 0.351810 0.772360 0.219857
O O5 0.357674 0.500000 0.850339
O O6 0.391632 0.228746 0.785594
O O7 0.234363 0.237108 0.928203
O O8 0.654103 0.000000 0.008294
O O9 0.750000 0.750000 0.000000
O O10 0.554904 0.500000 0.280929
O O11 0.663500 0.274804 0.268606
O O12 0.455575 0.229004 0.358299
O O13 0.768259 0.500000 0.730146
O O14 0.851555 0.742197 0.641632
O O15 0.250000 0.750000 0.500000
O O16 0.062191 0.733751 0.550169
O O17 0.112354 0.000000 0.568291
O O18 0.500000 0.769169 0.500000
O O19 0.525831 0.500000 0.440456
#
# Coordination Sequence:
#
# PCOD9191508 Si02
#       7
#     8   8   8   8   8   8   8
#     4   9  18  32  49  71  99 128 161 200 240 286
#     4   8  15  30  51  71  91 121 162 201 234 278
#     4   9  16  28  48  72  97 125 159 201 246 287
#     4   9  18  34  52  68  93 129 162 193 236 288
#     4  10  20  33  50  73 100 128 158 197 243 285
#     4   9  18  31  49  71  94 123 155 191 235 280
#     4   9  19  36  54  71  95 128 163 197 236 285
#
# _framework density 19.015833000000001
#
# number of rings (size 3 to 8) (size 9 to 14) (size 15 to 20)
#    0.000    3.000    0.000    2.571    0.000    4.857 
#    0.000    5.714    0.000    4.286    0.000    0.000 
#    0.000    0.000    0.000    0.000    0.000    0.000 
#
# Total GULP energy -155978.520312 kJ/mol
# GULP energy per Si atom -5570.661440 kJ/mol
# Density = 1.897255 g / cm^3
# Si number density = 19.015833 Si / 1000 Ang^3
#
#
#
# Elastic Constant Matrix: (Units=GPa)
#
#
# Indices 1 2 3 4 5 6 
#
# 1 65.4030 -6.6158 97.9794 0.0037 2.6923 0.0331
# 2 -6.6158 10.8295 -9.9085 0.0121 2.7970 0.0035
# 3 97.9794 -9.9085 202.1233 0.0020 3.1589 0.0046
# 4 0.0037 0.0121 0.0020 21.8429 0.0004 -4.2429
# 5 2.6923 2.7970 3.1589 0.0004 39.6491 -0.0010
# 6 0.0331 0.0035 0.0046 -4.2429 -0.0010 14.7106
#
#
#
# Elastic Compliance Matrix: (Units=1/GPa)
#
#
# Indices 1 2 3 4 5 6 
#
# 1 0.057087 0.010709 -0.027109 -0.000039 -0.002472 -0.000134
# 2 0.010709 0.100787 -0.000128 -0.000071 -0.007827 -0.000069
# 3 -0.027109 -0.000128 0.018076 0.000015 0.000410 0.000060
# 4 -0.000039 -0.000071 0.000015 0.048499 0.000006 0.013988
# 5 -0.002472 -0.007827 0.000410 0.000006 0.025909 0.000011
# 6 -0.000134 -0.000069 0.000060 0.013988 0.000011 0.072013
#
#
# Mechanical properties :
#
#
# Convention : Reuss Voigt Hill
#
# Bulk Modulus (GPa) = 6.99821 49.02955 28.01388
# Shear Modulus (GPa) = 12.40515 28.36723 20.38619
#
# Velocity S-wave (km/s) = 2.55690 3.86653 3.27779
# Velocity P-wave (km/s) = 3.52210 6.76557 5.39343
#
# Compressibility (1/GPa) = 0.14289362
#
# Stress axis : x y z
#
# Youngs Moduli (GPa) = 17.51704 9.92193 55.32160
#
# Poissons Ratio (x) = -0.10626 1.49974
# Poissons Ratio (y) = -0.18760 0.00710
# Poissons Ratio (z) = 0.47488 0.00127
#
# Static dielectric constant tensor:
#      x y z
#    x 1.641240 0.000000 0.005940 
#    y 0.000000 1.693490 0.000000 
#    z 0.005940 0.000000 1.687650 
# 
# From -- ./inp_files/377652.got.cif
#   From: 2010.05.17/outbox.cif.g08.bks.cpg/sg12_189_cif.got.tgz:377652.got - 2010.06.03 13:09:07.
