data_PCOD9191081
_publ_section_title
;
Structure prediction by ZEFSAII (Michael W. Deem and Ramdas Pophale) SiO2 
 PCOD9191081
Probable space group: C 2/M
;
_chemical_formula_sum "Si O2"
_cell_formula_units_Z 58
_cell_length_a 30.403278
_cell_length_b 8.703687
_cell_length_c 12.912763
_cell_angle_alpha 90.000000
_cell_angle_beta 108.212706
_cell_angle_gamma 90.000000
_cell_volume 3245.801875
_symmetry_space_group_name_H-M "C 2/M"
_symmetry_group_IT_number 12
_symmetry_cell_setting 'monoclinic'
loop_
_space_group_symop_operation_xyz
x,y,z
-x,y,-z
-x,-y,-z
x,-y,z
1/2+x,1/2+y,z
1/2-x,1/2+y,-z
1/2-x,1/2-y,-z
1/2+x,1/2-y,z
loop_
_atom_site_type_symbol
_atom_site_label
_atom_site_fract_x
_atom_site_fract_y
_atom_site_fract_z
Si Si1 0.849192 0.684236 0.249430
Si Si2 0.400159 0.686522 0.706847
Si Si3 0.094022 0.685050 0.908352
Si Si4 0.002610 0.814857 0.121684
Si Si5 0.405174 0.329943 0.475827
Si Si6 0.844894 0.315377 0.851702
Si Si7 0.752155 0.185377 0.884584
Si Si8 0.500000 0.500000 0.500000
O O1 0.849306 0.500000 0.246562
O O2 0.873233 0.738560 0.160698
O O3 0.879798 0.737347 0.367960
O O4 0.795588 0.732075 0.207432
O O5 0.398956 0.500000 0.708267
O O6 0.449689 0.734921 0.791041
O O7 0.398725 0.735581 0.586223
O O8 0.360746 0.751575 0.752658
O O9 0.092100 0.500000 0.906076
O O10 0.042941 0.751003 0.857428
O O11 0.116442 0.732477 0.034355
O O12 0.001040 0.000000 0.123943
O O13 0.000000 0.765641 0.000000
O O14 0.382673 0.500000 0.459511
O O15 0.459269 0.368037 0.492685
O O16 0.843137 0.500000 0.848603
O O17 0.796522 0.250366 0.857583
O O18 0.754537 0.000000 0.890980
O O19 0.750000 0.250000 0.000000
#
# Coordination Sequence:
#
# PCOD9191081 Si02
#       8
#     8   8   8   8   8   8   8   2
#     4  10  22  40  59  85 120 152 195 253 300 356
#     4  10  21  38  57  83 120 156 197 249 296 359
#     4  10  21  35  52  80 118 153 186 240 297 352
#     4  10  20  32  52  82 112 149 195 234 285 358
#     4   9  21  38  62  85 118 158 200 244 297 345
#     4  11  22  38  58  85 120 156 199 243 302 367
#     4  11  22  39  62  89 122 156 199 254 311 363
#     4   8  20  40  62  88 118 160 202 260 288 336
#
# _framework density 17.869236999999998
#
# number of rings (size 3 to 8) (size 9 to 14) (size 15 to 20)
#    0.414    1.517    2.759    0.828    1.931    3.586 
#    0.000    1.034    0.000    0.000    0.000    0.000 
#    0.000    0.000    0.000    0.000    0.000    0.000 
#
# Total GULP energy -161469.481677 kJ/mol
# GULP energy per Si atom -5567.913161 kJ/mol
# Density = 1.782857 g / cm^3
# Si number density = 17.869237 Si / 1000 Ang^3
#
#
#
# Elastic Constant Matrix: (Units=GPa)
#
#
# Indices 1 2 3 4 5 6 
#
# 1 142.4263 21.6839 50.2066 0.0000 -8.7224 0.0000
# 2 21.6839 13.7094 18.3641 0.0000 -0.5759 0.0000
# 3 50.2066 18.3641 106.6745 0.0000 -6.5880 0.0000
# 4 0.0000 0.0000 0.0000 24.9523 0.0000 -2.1357
# 5 -8.7224 -0.5759 -6.5880 0.0000 17.2326 0.0000
# 6 0.0000 0.0000 0.0000 -2.1357 0.0000 31.8262
#
#
#
# Elastic Compliance Matrix: (Units=1/GPa)
#
#
# Indices 1 2 3 4 5 6 
#
# 1 0.009970 -0.012524 -0.002305 0.000000 0.003747 0.000000
# 2 -0.012524 0.110705 -0.013648 0.000000 -0.007857 0.000000
# 3 -0.002305 -0.013648 0.013016 0.000000 0.003353 0.000000
# 4 0.000000 0.000000 0.000000 0.040308 0.000000 0.002705
# 5 0.003747 -0.007857 0.003353 0.000000 0.060945 0.000000
# 6 0.000000 0.000000 0.000000 0.002705 0.000000 0.031602
#
#
# Mechanical properties :
#
#
# Convention : Reuss Voigt Hill
#
# Bulk Modulus (GPa) = 13.03191 49.25772 31.14482
# Shear Modulus (GPa) = 14.32339 26.30593 20.31466
#
# Velocity S-wave (km/s) = 2.83427 3.84100 3.37538
# Velocity P-wave (km/s) = 4.24494 6.87725 5.71472
#
# Compressibility (1/GPa) = 0.07673470
#
# Stress axis : x y z
#
# Youngs Moduli (GPa) = 100.30170 9.03305 76.82977
#
# Poissons Ratio (x) = 0.11313 0.17708
# Poissons Ratio (y) = 1.25622 1.04861
# Poissons Ratio (z) = 0.23118 0.12329
#
# Static dielectric constant tensor:
#      x y z
#    x 1.600020 0.000000 -0.006280 
#    y 0.000000 1.612950 0.000000 
#    z -0.006280 0.000000 1.615090 
# 
# From -- ./inp_files/186731.got.cif
#   From: 2010.05.17/outbox.cif.g08.bks.cpg/sg12_94_cif.got.tgz:186731.got - 2010.06.03 13:09:07.
