data_PCOD9191254
_publ_section_title
;
Structure prediction by ZEFSAII (Michael W. Deem and Ramdas Pophale) SiO2 
 PCOD9191254
Probable space group: C 2/M
;
_chemical_formula_sum "Si O2"
_cell_formula_units_Z 48
_cell_length_a 29.180719
_cell_length_b 7.711440
_cell_length_c 11.666079
_cell_angle_alpha 90.000000
_cell_angle_beta 78.834944
_cell_angle_gamma 90.000000
_cell_volume 2575.478337
_symmetry_space_group_name_H-M "C 2/M"
_symmetry_group_IT_number 12
_symmetry_cell_setting 'monoclinic'
loop_
_space_group_symop_operation_xyz
x,y,z
-x,y,-z
-x,-y,-z
x,-y,z
1/2+x,1/2+y,z
1/2-x,1/2+y,-z
1/2-x,1/2-y,-z
1/2+x,1/2-y,z
loop_
_atom_site_type_symbol
_atom_site_label
_atom_site_fract_x
_atom_site_fract_y
_atom_site_fract_z
Si Si1 0.224757 0.204170 0.352438
Si Si2 0.489544 0.201894 0.868082
Si Si3 0.677431 0.796360 0.599188
Si Si4 0.589904 0.212659 0.779462
Si Si5 0.889750 0.287361 0.968262
Si Si6 0.705841 0.206543 0.100403
O O1 0.276129 0.276605 0.360884
O O2 0.187255 0.279059 0.459683
O O3 0.213613 0.230619 0.225635
O O4 0.225833 0.000000 0.375859
O O5 0.536611 0.276247 0.789473
O O6 0.437345 0.274911 0.883275
O O7 0.486579 0.000000 0.834510
O O8 0.500000 0.203995 0.000000
O O9 0.628647 0.726412 0.670550
O O10 0.676279 0.000000 0.628807
O O11 0.587169 0.000000 0.778806
O O12 0.607021 0.260274 0.899194
O O13 0.890466 0.500000 0.965813
O O14 0.842183 0.227068 0.932713
O O15 0.702038 0.000000 0.107065
O O16 0.750000 0.250000 0.000000
#
# Coordination Sequence:
#
# PCOD9191254 Si02
#       6
#     8   8   8   8   8   8
#     4  10  20  33  47  65  91 120 151 185 222 265
#     4   7  10  18  35  61  90 115 139 173 221 267
#     4   9  17  30  48  68  90 116 148 188 229 266
#     4   8  12  21  41  67  91 113 141 180 225 267
#     4   8  14  24  39  63  94 121 142 174 221 266
#     4  11  21  32  47  67  93 122 151 181 217 264
#
# _framework density 18.637314
#
# number of rings (size 3 to 8) (size 9 to 14) (size 15 to 20)
#    0.000    3.167    0.000    4.000    0.000    3.333 
#    0.000    0.000    0.000    1.000    0.000    9.333 
#    0.000   11.333    0.000    0.000    0.000    0.000 
#
# Total GULP energy -133669.088358 kJ/mol
# GULP energy per Si atom -5569.545348 kJ/mol
# Density = 1.859489 g / cm^3
# Si number density = 18.637314 Si / 1000 Ang^3
#
#
#
# Elastic Constant Matrix: (Units=GPa)
#
#
# Indices 1 2 3 4 5 6 
#
# 1 164.9394 -0.4604 81.1001 0.0000 -35.0270 0.0000
# 2 -0.4604 27.2783 -12.1906 0.0000 -4.1312 0.0000
# 3 81.1001 -12.1906 99.1239 0.0000 -28.2435 0.0000
# 4 0.0000 0.0000 0.0000 15.4060 0.0000 -0.5740
# 5 -35.0270 -4.1312 -28.2435 0.0000 38.4520 0.0000
# 6 0.0000 0.0000 0.0000 -0.5740 0.0000 9.8999
#
#
#
# Elastic Compliance Matrix: (Units=1/GPa)
#
#
# Indices 1 2 3 4 5 6 
#
# 1 0.010855 -0.002970 -0.008245 0.000000 0.003512 0.000000
# 2 -0.002970 0.042694 0.010391 0.000000 0.009514 0.000000
# 3 -0.008245 0.010391 0.020602 0.000000 0.008738 0.000000
# 4 0.000000 0.000000 0.000000 0.065050 0.000000 0.003772
# 5 0.003512 0.009514 0.008738 0.000000 0.036646 0.000000
# 6 0.000000 0.000000 0.000000 0.003772 0.000000 0.101230
#
#
# Mechanical properties :
#
#
# Convention : Reuss Voigt Hill
#
# Bulk Modulus (GPa) = 13.79253 47.58220 30.68737
# Shear Modulus (GPa) = 16.50752 27.61108 22.05930
#
# Velocity S-wave (km/s) = 2.97934 3.85319 3.44409
# Velocity P-wave (km/s) = 4.38769 6.73663 5.68481
#
# Compressibility (1/GPa) = 0.07250300
#
# Stress axis : x y z
#
# Youngs Moduli (GPa) = 92.12627 23.42260 48.53858
#
# Poissons Ratio (x) = 0.06956 0.40022
# Poissons Ratio (y) = 0.27358 -0.50437
# Poissons Ratio (z) = 0.75961 -0.24339
#
# Static dielectric constant tensor:
#      x y z
#    x 1.691080 0.000000 -0.034400 
#    y 0.000000 1.725380 0.000000 
#    z -0.034400 0.000000 1.593840 
# 
# From -- ./inp_files/179192.got.cif
#   From: 2010.05.17/outbox.cif.g08.bks.cpg/sg12_90_cif.got.tgz:179192.got - 2010.06.03 13:09:07.
