data_PCOD9191668
_publ_section_title
;
Structure prediction by ZEFSAII (Michael W. Deem and Ramdas Pophale) SiO2 
 PCOD9191668
Probable space group: C 2/M
;
_chemical_formula_sum "Si O2"
_cell_formula_units_Z 64
_cell_length_a 22.941812
_cell_length_b 9.071204
_cell_length_c 15.383611
_cell_angle_alpha 90.000000
_cell_angle_beta 107.620738
_cell_angle_gamma 90.000000
_cell_volume 3051.271315
_symmetry_space_group_name_H-M "C 2/M"
_symmetry_group_IT_number 12
_symmetry_cell_setting 'monoclinic'
loop_
_space_group_symop_operation_xyz
x,y,z
-x,y,-z
-x,-y,-z
x,-y,z
1/2+x,1/2+y,z
1/2-x,1/2+y,-z
1/2-x,1/2-y,-z
1/2+x,1/2-y,z
loop_
_atom_site_type_symbol
_atom_site_label
_atom_site_fract_x
_atom_site_fract_y
_atom_site_fract_z
Si Si1 0.568293 0.670912 0.169017
Si Si2 0.195340 0.336128 0.757348
Si Si3 0.809071 0.177173 0.568941
Si Si4 0.933767 0.823320 0.109897
Si Si5 0.563206 0.823946 0.698364
Si Si6 0.312501 0.826705 0.757985
Si Si7 0.813266 0.664664 0.040174
Si Si8 0.943325 0.828893 0.623969
O O1 0.579821 0.500000 0.151367
O O2 0.501243 0.714436 0.104646
O O3 0.625786 0.769055 0.168790
O O4 0.562787 0.678179 0.272611
O O5 0.214739 0.500000 0.735033
O O6 0.129785 0.296406 0.685703
O O7 0.249423 0.220183 0.773928
O O8 0.181703 0.349308 0.853349
O O9 0.750000 0.250000 0.500000
O O10 0.809776 0.239044 0.666436
O O11 0.876056 0.216268 0.560085
O O12 0.804873 0.000000 0.565975
O O13 0.935408 0.764893 0.209998
O O14 0.874289 0.751097 0.039812
O O15 0.928240 0.000000 0.106981
O O16 0.501725 0.767646 0.624373
O O17 0.559085 0.000000 0.711950
O O18 0.315955 0.000000 0.745576
O O19 0.810719 0.500000 0.000779
O O20 0.750000 0.750000 0.000000
O O21 0.954335 0.000000 0.607119
#
# Coordination Sequence:
#
# PCOD9191668 Si02
#       8
#     8   8   8   8   8   8   8   8
#     4   8  15  28  45  66  94 126 157 195 241 285
#     4   9  19  34  49  69  99 132 162 195 239 288
#     4  10  20  34  51  72 100 131 162 198 241 289
#     4   9  16  27  45  68  94 124 158 196 239 283
#     4   9  16  26  44  69  94 122 158 199 240 281
#     4  11  21  31  49  75  99 128 164 201 242 285
#     4  10  20  33  51  74 100 130 162 199 243 289
#     4   8  15  27  44  67  94 123 154 193 240 284
#
# _framework density 20.974864
#
# number of rings (size 3 to 8) (size 9 to 14) (size 15 to 20)
#    0.000    2.750    0.000    4.875    0.000    8.500 
#    0.000    0.000    0.000    1.500    0.000   10.500 
#    0.000    0.000    0.000    0.000    0.000    0.000 
#
# Total GULP energy -178366.465544 kJ/mol
# GULP energy per Si atom -5573.952048 kJ/mol
# Density = 2.092712 g / cm^3
# Si number density = 20.974864 Si / 1000 Ang^3
#
#
#
# Elastic Constant Matrix: (Units=GPa)
#
#
# Indices 1 2 3 4 5 6 
#
# 1 124.5796 74.0937 49.2227 0.0000 64.2572 0.0000
# 2 74.0937 101.2793 32.7422 0.0000 44.2580 0.0000
# 3 49.2227 32.7422 49.9835 0.0000 37.7369 0.0000
# 4 0.0000 0.0000 0.0000 19.9078 0.0000 15.0168
# 5 64.2572 44.2580 37.7369 0.0000 46.5658 0.0000
# 6 0.0000 0.0000 0.0000 15.0168 0.0000 35.4552
#
#
#
# Elastic Compliance Matrix: (Units=1/GPa)
#
#
# Indices 1 2 3 4 5 6 
#
# 1 0.030485 -0.006523 0.003430 0.000000 -0.038647 0.000000
# 2 -0.006523 0.018428 0.002009 0.000000 -0.010142 0.000000
# 3 0.003430 0.002009 0.052370 0.000000 -0.049082 0.000000
# 4 0.000000 0.000000 0.000000 0.073814 0.000000 -0.031263
# 5 -0.038647 -0.010142 -0.049082 0.000000 0.124221 0.000000
# 6 0.000000 0.000000 0.000000 -0.031263 0.000000 0.041446
#
#
# Mechanical properties :
#
#
# Convention : Reuss Voigt Hill
#
# Bulk Modulus (GPa) = 10.08928 65.32885 37.70906
# Shear Modulus (GPa) = 13.29894 28.37134 20.83514
#
# Velocity S-wave (km/s) = 2.52075 3.68181 3.15515
# Velocity P-wave (km/s) = 3.64594 7.02055 5.59379
#
# Compressibility (1/GPa) = 0.09911511
#
# Stress axis : x y z
#
# Youngs Moduli (GPa) = 32.80289 54.26519 19.09500
#
# Poissons Ratio (x) = 0.35395 -0.06549
# Poissons Ratio (y) = 0.21396 -0.03836
# Poissons Ratio (z) = -0.11250 -0.10902
#
# Static dielectric constant tensor:
#      x y z
#    x 1.809520 0.000000 0.020450 
#    y 0.000000 1.716630 0.000000 
#    z 0.020450 0.000000 1.863380 
# 
# From -- ./inp_files/323716.got.cif
#   From: 2010.05.17/outbox.cif.g08.bks.cpg/sg12_162_cif.got.tgz:323716.got - 2010.06.03 13:09:07.
