data_PCOD9191366
_publ_section_title
;
Structure prediction by ZEFSAII (Michael W. Deem and Ramdas Pophale) SiO2 
 PCOD9191366
Probable space group: C 2/M
;
_chemical_formula_sum "Si O2"
_cell_formula_units_Z 56
_cell_length_a 28.480413
_cell_length_b 7.630366
_cell_length_c 12.892974
_cell_angle_alpha 90.000000
_cell_angle_beta 73.758997
_cell_angle_gamma 90.000000
_cell_volume 2690.038014
_symmetry_space_group_name_H-M "C 2/M"
_symmetry_group_IT_number 12
_symmetry_cell_setting 'monoclinic'
loop_
_space_group_symop_operation_xyz
x,y,z
-x,y,-z
-x,-y,-z
x,-y,z
1/2+x,1/2+y,z
1/2-x,1/2+y,-z
1/2-x,1/2-y,-z
1/2+x,1/2-y,z
loop_
_atom_site_type_symbol
_atom_site_label
_atom_site_fract_x
_atom_site_fract_y
_atom_site_fract_z
Si Si1 0.025582 0.787523 0.378045
Si Si2 0.364459 0.285356 0.745507
Si Si3 0.504678 0.796776 0.162930
Si Si4 0.290070 0.290885 0.620604
Si Si5 0.113347 0.800061 0.043653
Si Si6 0.099661 0.296463 0.826050
Si Si7 0.317030 0.212013 0.375201
O O1 0.082676 0.736375 0.334390
O O2 0.000076 0.716330 0.290162
O O3 0.000000 0.730944 0.500000
O O4 0.023333 0.000000 0.374764
O O5 0.363944 0.500000 0.748659
O O6 0.320931 0.223491 0.698730
O O7 0.363021 0.224892 0.865909
O O8 0.555112 0.704284 0.102366
O O9 0.455201 0.721849 0.144158
O O10 0.511453 0.000000 0.127163
O O11 0.286186 0.500000 0.636313
O O12 0.318319 0.258447 0.495364
O O13 0.235048 0.222647 0.637499
O O14 0.129502 0.000000 0.022529
O O15 0.120908 0.711972 0.928453
O O16 0.092684 0.500000 0.801946
O O17 0.137619 0.220803 0.719940
O O18 0.316461 0.000000 0.368327
#
# Coordination Sequence:
#
# PCOD9191366 Si02
#       7
#     8   8   8   8   8   8   8
#     4   9  18  31  47  71 103 132 165 208 245 288
#     4   8  16  31  50  72  97 128 162 201 251 292
#     4  10  20  33  49  70 100 137 169 200 246 299
#     4   9  17  33  56  75  97 130 165 201 249 301
#     4  10  20  35  53  74 100 129 169 212 246 292
#     4  10  21  35  50  71 104 136 165 204 251 296
#     4   9  19  34  51  75 103 129 161 205 249 293
#
# _framework density 20.817550000000001
#
# number of rings (size 3 to 8) (size 9 to 14) (size 15 to 20)
#    0.000    2.714    0.000    2.143    2.000    3.714 
#    0.000    4.286    0.000    0.000    0.000    0.000 
#    0.000    0.000    0.000    0.000    0.000    0.000 
#
# Total GULP energy -156238.697883 kJ/mol
# GULP energy per Si atom -5579.953496 kJ/mol
# Density = 2.077017 g / cm^3
# Si number density = 20.817550 Si / 1000 Ang^3
#
#
#
# Elastic Constant Matrix: (Units=GPa)
#
#
# Indices 1 2 3 4 5 6 
#
# 1 80.4518 -0.7672 27.2761 0.0000 34.2585 0.0000
# 2 -0.7672 42.0752 -12.1127 0.0000 -0.0042 0.0000
# 3 27.2761 -12.1127 55.6574 0.0000 18.6600 0.0000
# 4 0.0000 0.0000 0.0000 19.9148 0.0000 3.5965
# 5 34.2585 -0.0042 18.6600 0.0000 28.6387 0.0000
# 6 0.0000 0.0000 0.0000 3.5965 0.0000 5.4428
#
#
#
# Elastic Compliance Matrix: (Units=1/GPa)
#
#
# Indices 1 2 3 4 5 6 
#
# 1 0.025709 -0.000410 -0.003042 0.000000 -0.028772 0.000000
# 2 -0.000410 0.025844 0.007241 0.000000 -0.004224 0.000000
# 3 -0.003042 0.007241 0.025351 0.000000 -0.012878 0.000000
# 4 0.000000 0.000000 0.000000 0.057018 0.000000 -0.037676
# 5 -0.028772 -0.004224 -0.012878 0.000000 0.077726 0.000000
# 6 0.000000 0.000000 0.000000 -0.037676 0.000000 0.208625
#
#
# Mechanical properties :
#
#
# Convention : Reuss Voigt Hill
#
# Bulk Modulus (GPa) = 11.83674 22.99742 17.41708
# Shear Modulus (GPa) = 11.34159 21.71848 16.53003
#
# Velocity S-wave (km/s) = 2.33665 3.23348 2.82093
# Velocity P-wave (km/s) = 3.60252 5.00117 4.35832
#
# Compressibility (1/GPa) = 0.08448276
#
# Stress axis : x y z
#
# Youngs Moduli (GPa) = 38.89663 38.69403 39.44547
#
# Poissons Ratio (x) = 0.01586 0.12001
# Poissons Ratio (y) = 0.01595 -0.28564
# Poissons Ratio (z) = 0.11834 -0.28020
#
# Static dielectric constant tensor:
#      x y z
#    x 1.752720 0.000000 0.007420 
#    y 0.000000 1.740490 0.000000 
#    z 0.007420 0.000000 1.731860 
# 
# From -- ./inp_files/186423.got.cif
#   From: 2010.05.17/outbox.cif.g08.bks.cpg/sg12_94_cif.got.tgz:186423.got - 2010.06.03 13:09:07.
