data_PCOD9191520
_publ_section_title
;
Structure prediction by ZEFSAII (Michael W. Deem and Ramdas Pophale) SiO2 
 PCOD9191520
Probable space group: C 2/M
;
_chemical_formula_sum "Si O2"
_cell_formula_units_Z 64
_cell_length_a 9.224975
_cell_length_b 14.713368
_cell_length_c 25.518720
_cell_angle_alpha 90.000000
_cell_angle_beta 57.163250
_cell_angle_gamma 90.000000
_cell_volume 2910.239070
_symmetry_space_group_name_H-M "C 2/M"
_symmetry_group_IT_number 12
_symmetry_cell_setting 'monoclinic'
loop_
_space_group_symop_operation_xyz
x,y,z
-x,y,-z
-x,-y,-z
x,-y,z
1/2+x,1/2+y,z
1/2-x,1/2+y,-z
1/2-x,1/2-y,-z
1/2+x,1/2-y,z
loop_
_atom_site_type_symbol
_atom_site_label
_atom_site_fract_x
_atom_site_fract_y
_atom_site_fract_z
Si Si1 0.135158 0.611467 0.187152
Si Si2 0.009336 0.111097 0.937740
Si Si3 0.803385 0.611467 0.187152
Si Si4 0.570644 0.347756 0.568531
Si Si5 0.950419 0.106080 0.307588
Si Si6 0.776237 0.652244 0.431469
Si Si7 0.373184 0.106080 0.692412
Si Si8 0.822555 0.611097 0.062260
O O1 0.130780 0.500000 0.187739
O O2 0.313248 0.638383 0.124775
O O3 0.125504 0.643365 0.249064
O O4 0.970073 0.642645 0.186618
O O5 0.843461 0.142425 0.937693
O O6 0.006408 0.000000 0.937985
O O7 0.000000 0.139259 0.000000
O O8 0.806003 0.500000 0.187739
O O9 0.627305 0.643365 0.249064
O O10 0.812428 0.638383 0.124775
O O11 0.554130 0.390392 0.628812
O O12 0.385353 0.341351 0.576431
O O13 0.699285 0.390854 0.500000
O O14 0.651198 0.250000 0.565868
O O15 0.777589 0.146420 0.314940
O O16 0.046037 0.000000 0.706766
O O17 0.940566 0.609608 0.371188
O O18 0.333666 0.000000 0.706766
O O19 0.820363 0.500000 0.062015
O O20 0.000000 0.639259 0.000000
#
# Coordination Sequence:
#
# PCOD9191520 Si02
#       8
#     8   8   8   8   8   8   8   8
#     4   9  16  26  40  59  86 120 157 197 241 287
#     4   9  15  22  33  51  78 114 155 195 236 284
#     4   9  16  26  40  59  86 120 157 197 241 287
#     4  10  21  37  56  76  99 128 162 201 245 293
#     4  10  20  33  50  73 101 132 165 202 245 293
#     4  10  21  37  56  76  99 128 162 201 245 293
#     4  10  20  33  50  73 101 132 165 202 245 293
#     4   9  15  22  33  51  78 114 155 195 236 284
#
# _framework density 21.991320999999999
#
# number of rings (size 3 to 8) (size 9 to 14) (size 15 to 20)
#    0.000    2.500    0.000    3.000    0.000    9.500 
#    0.000    2.500    0.000    0.000    0.000    0.000 
#    0.000    1.000    0.000   10.000    0.000   15.500 
#
# Total GULP energy -178715.023872 kJ/mol
# GULP energy per Si atom -5584.844496 kJ/mol
# Density = 2.194127 g / cm^3
# Si number density = 21.991321 Si / 1000 Ang^3
#
#
#
# Elastic Constant Matrix: (Units=GPa)
#
#
# Indices 1 2 3 4 5 6 
#
# 1 241.9294 10.3070 153.2064 0.0000 0.8025 0.0000
# 2 10.3070 43.9897 6.4654 0.0000 0.2965 0.0000
# 3 153.2064 6.4654 239.8594 0.0000 -0.6427 0.0000
# 4 0.0000 0.0000 0.0000 -19.0627 0.0000 2.3409
# 5 0.8025 0.2965 -0.6427 0.0000 39.2736 0.0000
# 6 0.0000 0.0000 0.0000 2.3409 0.0000 11.2719
#
#
#
# Elastic Compliance Matrix: (Units=1/GPa)
#
#
# Indices 1 2 3 4 5 6 
#
# 1 0.006985 -0.000983 -0.004436 0.000000 -0.000208 0.000000
# 2 -0.000983 0.022963 0.000009 0.000000 -0.000153 0.000000
# 3 -0.004436 0.000009 0.007003 0.000000 0.000205 0.000000
# 4 0.000000 0.000000 0.000000 -0.051154 0.000000 0.010623
# 5 -0.000208 -0.000153 0.000205 0.000000 0.025471 0.000000
# 6 0.000000 0.000000 0.000000 0.010623 0.000000 0.086510
#
#
# Mechanical properties :
#
#
# Convention : Reuss Voigt Hill
#
# Bulk Modulus (GPa) = 38.27031 96.19288 67.23160
# Shear Modulus (GPa) = 42.62284 30.01654 36.31969
#
# Velocity S-wave (km/s) = 4.40724 3.69850 4.06833
# Velocity P-wave (km/s) = 6.58320 7.87876 7.25994
#
# Compressibility (1/GPa) = 0.02612991
#
# Stress axis : x y z
#
# Youngs Moduli (GPa) = 143.16555 43.54883 142.80473
#
# Poissons Ratio (x) = 0.04282 0.63342
# Poissons Ratio (y) = 0.14077 -0.00124
# Poissons Ratio (z) = 0.63502 -0.00038
#
# Static dielectric constant tensor:
#      x y z
#    x 1.774060 0.000000 -0.000330 
#    y 0.000000 1.929040 0.000000 
#    z -0.000330 0.000000 1.778280 
# 
# From -- ./inp_files/301682.got.cif
#   From: 2010.05.17/outbox.cif.g08.bks.cpg/sg12_151_cif.got.tgz:301682.got - 2010.06.03 13:09:07.
