data_PCOD9191280
_publ_section_title
;
Structure prediction by ZEFSAII (Michael W. Deem and Ramdas Pophale) SiO2 
 PCOD9191280
Probable space group: C 2/M
;
_chemical_formula_sum "Si O2"
_cell_formula_units_Z 48
_cell_length_a 15.761387
_cell_length_b 7.474091
_cell_length_c 14.676189
_cell_angle_alpha 90.000000
_cell_angle_beta 95.018532
_cell_angle_gamma 90.000000
_cell_volume 1722.257257
_symmetry_space_group_name_H-M "C 2/M"
_symmetry_group_IT_number 12
_symmetry_cell_setting 'monoclinic'
loop_
_space_group_symop_operation_xyz
x,y,z
-x,y,-z
-x,-y,-z
x,-y,z
1/2+x,1/2+y,z
1/2-x,1/2+y,-z
1/2-x,1/2-y,-z
1/2+x,1/2-y,z
loop_
_atom_site_type_symbol
_atom_site_label
_atom_site_fract_x
_atom_site_fract_y
_atom_site_fract_z
Si Si1 0.091711 0.719501 0.114235
Si Si2 0.717552 0.792486 0.270596
Si Si3 0.329066 0.285566 0.438208
Si Si4 0.063131 0.714096 0.767951
Si Si5 0.162944 0.713291 0.939487
Si Si6 0.436435 0.711414 0.608028
O O1 0.093098 0.500000 0.114656
O O2 0.176473 0.786355 0.175345
O O3 0.012339 0.770191 0.168912
O O4 0.095709 0.775916 0.010016
O O5 0.794617 0.711159 0.337935
O O6 0.634643 0.788709 0.330279
O O7 0.735553 0.000000 0.256812
O O8 0.336052 0.500000 0.426451
O O9 0.250000 0.250000 0.500000
O O10 0.409411 0.219726 0.505389
O O11 0.064230 0.500000 0.762845
O O12 0.143967 0.779550 0.835289
O O13 0.027812 0.771554 0.666125
O O14 0.154156 0.500000 0.932129
O O15 0.250000 0.750000 0.000000
O O16 0.421569 0.500000 0.601520
#
# Coordination Sequence:
#
# PCOD9191280 Si02
#       6
#     8   8   8   8   8   8
#     4   8  14  27  48  68  84 109 146 180 207 245
#     4   8  13  23  39  58  82 113 145 172 203 249
#     4   8  13  20  32  54  84 113 137 166 206 248
#     4   9  17  30  47  64  84 114 149 178 206 249
#     4  10  20  33  48  66  87 111 141 178 219 260
#     4   9  15  22  35  59  89 114 137 171 213 250
#
# _framework density 27.870398000000002
#
# number of rings (size 3 to 8) (size 9 to 14) (size 15 to 20)
#    0.000    3.333    0.000    2.000    0.000    3.333 
#    0.000    3.333    0.000    5.000    0.000    1.167 
#    0.000    9.333    0.000    0.000    0.000    0.000 
#
# Total GULP energy -134091.019175 kJ/mol
# GULP energy per Si atom -5587.125799 kJ/mol
# Density = 2.780696 g / cm^3
# Si number density = 27.870398 Si / 1000 Ang^3
#
#
#
# Elastic Constant Matrix: (Units=GPa)
#
#
# Indices 1 2 3 4 5 6 
#
# 1 103.3650 9.0448 45.1871 0.0000 32.1145 0.0000
# 2 9.0448 104.5690 20.5835 0.0000 1.7992 0.0000
# 3 45.1871 20.5835 297.7455 0.0000 15.4608 0.0000
# 4 0.0000 0.0000 0.0000 14.8048 0.0000 5.0452
# 5 32.1145 1.7992 15.4608 0.0000 60.1136 0.0000
# 6 0.0000 0.0000 0.0000 5.0452 0.0000 -25.9899
#
#
#
# Elastic Compliance Matrix: (Units=1/GPa)
#
#
# Indices 1 2 3 4 5 6 
#
# 1 0.012305 -0.000663 -0.001501 0.000000 -0.006168 0.000000
# 2 -0.000663 0.009732 -0.000583 0.000000 0.000213 0.000000
# 3 -0.001501 -0.000583 0.003633 0.000000 -0.000115 0.000000
# 4 0.000000 0.000000 0.000000 0.063355 0.000000 0.012298
# 5 -0.006168 0.000213 -0.000115 0.000000 0.019953 0.000000
# 6 0.000000 0.000000 0.000000 0.012298 0.000000 -0.036089
#
#
# Mechanical properties :
#
#
# Convention : Reuss Voigt Hill
#
# Bulk Modulus (GPa) = 49.56703 72.81224 61.18964
# Shear Modulus (GPa) = 58.74908 38.50997 48.62953
#
# Velocity S-wave (km/s) = 4.59621 3.72122 4.18167
# Velocity P-wave (km/s) = 6.78161 6.68172 6.73185
#
# Compressibility (1/GPa) = 0.02017470
#
# Stress axis : x y z
#
# Youngs Moduli (GPa) = 81.26746 102.75883 275.27674
#
# Poissons Ratio (x) = 0.06810 0.41330
# Poissons Ratio (y) = 0.05385 0.16055
# Poissons Ratio (z) = 0.12201 0.05993
#
# Static dielectric constant tensor:
#      x y z
#    x 2.336820 0.000000 0.046510 
#    y 0.000000 2.022590 0.000000 
#    z 0.046510 0.000000 2.097620 
# 
# From -- ./inp_files/274086.got.cif
#   From: 2010.05.17/outbox.cif.g08.bks.cpg/sg12_138_cif.got.tgz:274086.got - 2010.06.03 13:09:07.
