data_PCOD9191571
_publ_section_title
;
Structure prediction by ZEFSAII (Michael W. Deem and Ramdas Pophale) SiO2 
 PCOD9191571
Probable space group: C 2/M
;
_chemical_formula_sum "Si O2"
_cell_formula_units_Z 48
_cell_length_a 19.092604
_cell_length_b 16.109617
_cell_length_c 7.216026
_cell_angle_alpha 90.000000
_cell_angle_beta 120.214579
_cell_angle_gamma 90.000000
_cell_volume 1917.944278
_symmetry_space_group_name_H-M "C 2/M"
_symmetry_group_IT_number 12
_symmetry_cell_setting 'monoclinic'
loop_
_space_group_symop_operation_xyz
x,y,z
-x,y,-z
-x,-y,-z
x,-y,z
1/2+x,1/2+y,z
1/2-x,1/2+y,-z
1/2-x,1/2-y,-z
1/2+x,1/2-y,z
loop_
_atom_site_type_symbol
_atom_site_label
_atom_site_fract_x
_atom_site_fract_y
_atom_site_fract_z
Si Si1 0.344600 0.353477 0.541547
Si Si2 0.164469 0.406378 0.038902
Si Si3 0.318534 0.839898 0.556444
Si Si4 0.009763 0.632867 0.295448
Si Si5 0.319581 0.595290 0.082863
Si Si6 0.484442 0.678116 0.254989
O O1 0.332745 0.252926 0.500038
O O2 0.272381 0.374795 0.589135
O O3 0.332696 0.395374 0.325117
O O4 0.437387 0.369197 0.723256
O O5 0.189879 0.500000 0.127692
O O6 0.177877 0.338646 0.214774
O O7 0.223147 0.382800 0.943899
O O8 0.068946 0.412024 0.882954
O O9 0.398076 0.893187 0.617666
O O10 0.996325 0.727183 0.211618
O O11 0.000000 0.632295 0.500000
O O12 0.330662 0.500000 0.043008
O O13 0.393269 0.648474 0.099444
O O14 0.500000 0.674801 0.500000
#
# Coordination Sequence:
#
# PCOD9191571 Si02
#       6
#     8   8   8   8   8   8
#     4   8  15  28  48  72 100 134 171 207 249 300
#     4  10  21  35  52  76 103 136 178 218 259 306
#     4   9  17  32  51  71 102 137 171 212 252 304
#     4  10  20  33  50  74 104 136 174 217 261 308
#     4   9  17  30  50  78 109 137 170 213 257 306
#     4   8  15  28  46  72 103 131 165 207 252 302
#
# _framework density 25.026796999999998
#
# number of rings (size 3 to 8) (size 9 to 14) (size 15 to 20)
#    0.000    3.000    0.000    1.500    0.000    5.333 
#    0.000    0.000    0.000    0.000    0.000    1.167 
#    0.000   21.333    0.000    0.000    0.000    0.000 
#
# Total GULP energy -133791.135510 kJ/mol
# GULP energy per Si atom -5574.630646 kJ/mol
# Density = 2.496984 g / cm^3
# Si number density = 25.026797 Si / 1000 Ang^3
#
#
#
# Elastic Constant Matrix: (Units=GPa)
#
#
# Indices 1 2 3 4 5 6 
#
# 1 221.6862 20.4937 25.0850 0.0000 51.6791 0.0000
# 2 20.4937 57.0411 15.1439 0.0000 17.7128 0.0000
# 3 25.0850 15.1439 45.5771 0.0000 17.1305 0.0000
# 4 0.0000 0.0000 0.0000 13.2910 0.0000 6.7236
# 5 51.6791 17.7128 17.1305 0.0000 54.8669 0.0000
# 6 0.0000 0.0000 0.0000 6.7236 0.0000 5.6223
#
#
#
# Elastic Compliance Matrix: (Units=1/GPa)
#
#
# Indices 1 2 3 4 5 6 
#
# 1 0.005849 -0.000199 -0.001254 0.000000 -0.005054 0.000000
# 2 -0.000199 0.020404 -0.004832 0.000000 -0.004891 0.000000
# 3 -0.001254 -0.004832 0.026292 0.000000 -0.005468 0.000000
# 4 0.000000 0.000000 0.000000 0.190465 0.000000 -0.227773
# 5 -0.005054 -0.004891 -0.005468 0.000000 0.026272 0.000000
# 6 0.000000 0.000000 0.000000 -0.227773 0.000000 0.450251
#
#
# Mechanical properties :
#
#
# Convention : Reuss Voigt Hill
#
# Bulk Modulus (GPa) = 25.01534 49.52775 37.27154
# Shear Modulus (GPa) = 6.70755 32.32816 19.51786
#
# Velocity S-wave (km/s) = 1.63889 3.59798 2.79566
# Velocity P-wave (km/s) = 3.68760 6.09044 5.03447
#
# Compressibility (1/GPa) = 0.03997547
#
# Stress axis : x y z
#
# Youngs Moduli (GPa) = 170.96168 49.00910 38.03510
#
# Poissons Ratio (x) = 0.00977 0.04768
# Poissons Ratio (y) = 0.03409 0.18378
# Poissons Ratio (z) = 0.21433 0.23680
#
# Static dielectric constant tensor:
#      x y z
#    x 2.121680 0.000000 0.102610 
#    y 0.000000 1.927620 0.000000 
#    z 0.102610 0.000000 2.094010 
# 
# From -- ./inp_files/87426.got.cif
#   From: 2010.05.17/outbox.cif.g08.bks.cpg/sg12_44_cif.got.tgz:87426.got - 2010.06.03 13:09:07.
