data_PCOD9191021
_publ_section_title
;
Structure prediction by ZEFSAII (Michael W. Deem and Ramdas Pophale) SiO2 
 PCOD9191021
Probable space group: C 2/M
;
_chemical_formula_sum "Si O2"
_cell_formula_units_Z 56
_cell_length_a 25.175087
_cell_length_b 22.631730
_cell_length_c 14.856063
_cell_angle_alpha 90.000000
_cell_angle_beta 19.529612
_cell_angle_gamma 90.000000
_cell_volume 2829.573919
_symmetry_space_group_name_H-M "C 2/M"
_symmetry_group_IT_number 12
_symmetry_cell_setting 'monoclinic'
loop_
_space_group_symop_operation_xyz
x,y,z
-x,y,-z
-x,-y,-z
x,-y,z
1/2+x,1/2+y,z
1/2-x,1/2+y,-z
1/2-x,1/2-y,-z
1/2+x,1/2-y,z
loop_
_atom_site_type_symbol
_atom_site_label
_atom_site_fract_x
_atom_site_fract_y
_atom_site_fract_z
Si Si1 0.908660 0.568931 0.516514
Si Si2 0.821859 0.879009 0.987893
Si Si3 0.772657 0.374499 0.057992
Si Si4 0.881364 0.071647 0.379516
Si Si5 0.371702 0.069620 0.073382
Si Si6 0.689850 0.753428 0.197831
Si Si7 0.721409 0.928666 0.461774
O O1 0.957990 0.500000 0.427733
O O2 0.821593 0.579064 0.749545
O O3 0.779974 0.582181 0.642628
O O4 0.054747 0.612511 0.262495
O O5 0.768267 0.813761 0.106236
O O6 0.839062 0.880510 0.851657
O O7 0.977147 0.899679 0.791156
O O8 0.767410 0.418423 0.150479
O O9 0.746511 0.309911 0.143446
O O10 0.721167 0.088537 0.689716
O O11 0.856040 0.090764 0.316510
O O12 0.901030 0.000000 0.351452
O O13 0.392597 0.000000 0.049875
O O14 0.548249 0.093619 0.772422
O O15 0.500000 0.757871 0.500000
O O16 0.750000 0.750000 0.000000
O O17 0.722426 0.000000 0.467880
#
# Coordination Sequence:
#
# PCOD9191021 Si02
#       7
#     8   8   8   8   8   8   8
#     4  10  20  36  58  83 113 152 187 225 283 345
#     4  11  22  34  51  81 112 144 185 231 278 333
#     4  10  21  35  57  79 108 143 187 229 273 333
#     4  10  20  32  51  82 114 143 177 228 281 326
#     4   9  18  32  53  80 108 143 179 219 277 336
#     4  10  22  39  59  78 108 152 199 234 272 334
#     4   8  16  33  54  77 107 145 188 221 265 337
#
# _framework density 19.790966000000001
#
# number of rings (size 3 to 8) (size 9 to 14) (size 15 to 20)
#    0.000    2.286    0.000    4.286    4.000    5.143 
#    0.000    3.571    0.000    3.429    7.429    0.000 
#    0.000    0.000    0.000    0.000    0.000    0.000 
#
# Total GULP energy -155995.506782 kJ/mol
# GULP energy per Si atom -5571.268099 kJ/mol
# Density = 1.974592 g / cm^3
# Si number density = 19.790966 Si / 1000 Ang^3
#
#
#
# Elastic Constant Matrix: (Units=GPa)
#
#
# Indices 1 2 3 4 5 6 
#
# 1 103.6701 8.0032 13.2905 -0.0012 -14.4154 0.0004
# 2 8.0032 32.3977 13.9697 -0.0001 -8.1883 -0.0163
# 3 13.2905 13.9697 34.4884 0.0053 -4.1222 -0.0307
# 4 -0.0012 -0.0001 0.0053 27.2912 -0.0072 1.8024
# 5 -14.4154 -8.1883 -4.1222 -0.0072 31.2436 0.0069
# 6 0.0004 -0.0163 -0.0307 1.8024 0.0069 -0.6455
#
#
#
# Elastic Compliance Matrix: (Units=1/GPa)
#
#
# Indices 1 2 3 4 5 6 
#
# 1 0.010730 0.000042 -0.003616 -0.000011 0.004485 0.000196
# 2 0.000042 0.039436 -0.014989 0.000015 0.008377 -0.000152
# 3 -0.003616 -0.014989 0.036364 0.000070 -0.000799 -0.001168
# 4 -0.000011 0.000015 0.000070 0.030937 -0.000004 0.086379
# 5 0.004485 0.008377 -0.000799 -0.000004 0.036166 0.000206
# 6 0.000196 -0.000152 -0.001168 0.086379 0.000206 -1.307884
#
#
# Mechanical properties :
#
#
# Convention : Reuss Voigt Hill
#
# Bulk Modulus (GPa) = 20.24111 26.78699 23.51405
# Shear Modulus (GPa) = -4.54274 20.59737 8.02732
#
# Velocity S-wave (km/s) = -1.51669 3.22956 2.01615
# Velocity P-wave (km/s) = 2.68002 5.24129 4.16255
#
# Compressibility (1/GPa) = 0.04940440
#
# Stress axis : x y z
#
# Youngs Moduli (GPa) = 93.19793 25.35726 27.50008
#
# Poissons Ratio (x) = -0.00107 0.09943
# Poissons Ratio (y) = -0.00391 0.41220
# Poissons Ratio (z) = 0.33697 0.38008
#
# Static dielectric constant tensor:
#      x y z
#    x 1.759480 0.000000 -0.001050 
#    y 0.000000 1.762620 0.000010 
#    z -0.001050 0.000010 1.744060 
# 
# From -- ./inp_files/242105.got.cif
#   From: 2010.05.17/outbox.cif.g08.bks.cpg/sg12_122_cif.got.tgz:242105.got - 2010.06.03 13:09:07.
