data_PCOD9191189
_publ_section_title
;
Structure prediction by ZEFSAII (Michael W. Deem and Ramdas Pophale) SiO2 
 PCOD9191189
Probable space group: C 2/M
;
_chemical_formula_sum "Si O2"
_cell_formula_units_Z 40
_cell_length_a 8.514710
_cell_length_b 23.459446
_cell_length_c 9.654603
_cell_angle_alpha 90.000000
_cell_angle_beta 112.757596
_cell_angle_gamma 90.000000
_cell_volume 1778.375474
_symmetry_space_group_name_H-M "C 2/M"
_symmetry_group_IT_number 12
_symmetry_cell_setting 'monoclinic'
loop_
_space_group_symop_operation_xyz
x,y,z
-x,y,-z
-x,-y,-z
x,-y,z
1/2+x,1/2+y,z
1/2-x,1/2+y,-z
1/2-x,1/2-y,-z
1/2+x,1/2-y,z
loop_
_atom_site_type_symbol
_atom_site_label
_atom_site_fract_x
_atom_site_fract_y
_atom_site_fract_z
Si Si1 0.251433 0.204731 0.873324
Si Si2 0.168316 0.500000 0.459067
Si Si3 0.658619 0.125421 0.448530
Si Si4 0.858155 0.196533 0.714321
Si Si5 0.425327 0.000000 0.126380
Si Si6 0.861641 0.375522 0.141787
O O1 0.328878 0.241098 0.772412
O O2 0.058886 0.188875 0.770885
O O3 0.250000 0.250000 0.000000
O O4 0.333512 0.151828 0.982260
O O5 0.000000 0.500000 0.500000
O O6 0.248988 0.563294 0.499173
O O7 0.089057 0.500000 0.280449
O O8 0.500000 0.124722 0.500000
O O9 0.773075 0.177731 0.540133
O O10 0.554945 0.130278 0.268992
O O11 0.767250 0.155096 0.795480
O O12 0.325299 0.057533 0.123721
O O13 0.500000 0.000000 0.000000
#
# Coordination Sequence:
#
# PCOD9191189 Si02
#       6
#     8   4   8   8   4   8
#     4  10  20  36  54  78 113 153 191 239 294 345
#     4   8  14  30  55  82 114 150 188 238 292 350
#     4   8  15  30  52  81 108 141 189 237 281 341
#     4  10  20  35  56  82 112 153 198 244 293 346
#     4  10  20  32  56  90 118 150 196 240 292 354
#     4   9  18  34  53  80 113 148 188 236 287 345
#
# _framework density 22.492438
#
# number of rings (size 3 to 8) (size 9 to 14) (size 15 to 20)
#    0.000    2.800    0.000    3.600    0.000    3.200 
#    0.000   21.000    0.000    0.000    0.000    5.600 
#    0.000    0.000    0.000    0.000    0.000    0.000 
#
# Total GULP energy -111490.472042 kJ/mol
# GULP energy per Si atom -5574.523602 kJ/mol
# Density = 2.244124 g / cm^3
# Si number density = 22.492438 Si / 1000 Ang^3
#
#
#
# Elastic Constant Matrix: (Units=GPa)
#
#
# Indices 1 2 3 4 5 6 
#
# 1 52.9100 16.3540 28.2625 0.0000 25.1357 0.0000
# 2 16.3540 176.1533 48.4235 0.0000 19.2472 0.0000
# 3 28.2625 48.4235 149.4285 0.0000 11.6275 0.0000
# 4 0.0000 0.0000 0.0000 34.7586 0.0000 6.5233
# 5 25.1357 19.2472 11.6275 0.0000 32.0170 0.0000
# 6 0.0000 0.0000 0.0000 6.5233 0.0000 13.0965
#
#
#
# Elastic Compliance Matrix: (Units=1/GPa)
#
#
# Indices 1 2 3 4 5 6 
#
# 1 0.032745 0.000904 -0.004573 0.000000 -0.024590 0.000000
# 2 0.000904 0.006571 -0.001994 0.000000 -0.003936 0.000000
# 3 -0.004573 -0.001994 0.008058 0.000000 0.001862 0.000000
# 4 0.000000 0.000000 0.000000 0.031737 0.000000 -0.015808
# 5 -0.024590 -0.003936 0.001862 0.000000 0.052228 0.000000
# 6 0.000000 0.000000 0.000000 -0.015808 0.000000 0.084230
#
#
# Mechanical properties :
#
#
# Convention : Reuss Voigt Hill
#
# Bulk Modulus (GPa) = 27.74053 62.73020 45.23537
# Shear Modulus (GPa) = 20.92823 35.00453 27.96638
#
# Velocity S-wave (km/s) = 3.05365 3.94925 3.52997
# Velocity P-wave (km/s) = 4.97926 6.98179 6.06377
#
# Compressibility (1/GPa) = 0.03604834
#
# Stress axis : x y z
#
# Youngs Moduli (GPa) = 30.53894 152.17999 124.09476
#
# Poissons Ratio (x) = -0.13754 0.56746
# Poissons Ratio (y) = -0.02760 0.24746
# Poissons Ratio (z) = 0.13965 0.30347
#
# Static dielectric constant tensor:
#      x y z
#    x 1.875710 0.000000 -0.058920 
#    y 0.000000 1.898580 0.000000 
#    z -0.058920 0.000000 1.922510 
# 
# From -- ./inp_files/120356.got.cif
#   From: 2010.05.17/outbox.cif.g08.bks.cpg/sg12_61_cif.got.tgz:120356.got - 2010.06.03 13:09:07.
