data_PCOD9191283
_publ_section_title
;
Structure prediction by ZEFSAII (Michael W. Deem and Ramdas Pophale) SiO2 
 PCOD9191283
Probable space group: C 2/M
;
_chemical_formula_sum "Si O2"
_cell_formula_units_Z 48
_cell_length_a 31.368784
_cell_length_b 9.094491
_cell_length_c 12.545095
_cell_angle_alpha 90.000000
_cell_angle_beta 61.047198
_cell_angle_gamma 90.000000
_cell_volume 3131.608106
_symmetry_space_group_name_H-M "C 2/M"
_symmetry_group_IT_number 12
_symmetry_cell_setting 'monoclinic'
loop_
_space_group_symop_operation_xyz
x,y,z
-x,y,-z
-x,-y,-z
x,-y,z
1/2+x,1/2+y,z
1/2-x,1/2+y,-z
1/2-x,1/2-y,-z
1/2+x,1/2-y,z
loop_
_atom_site_type_symbol
_atom_site_label
_atom_site_fract_x
_atom_site_fract_y
_atom_site_fract_z
Si Si1 0.474524 0.323019 0.641074
Si Si2 0.267661 0.823635 0.868296
Si Si3 0.137865 0.823663 0.192526
Si Si4 0.165906 0.824689 0.913694
Si Si5 0.579270 0.176478 0.908810
Si Si6 0.505187 0.177105 0.820243
O O1 0.500000 0.279512 0.500000
O O2 0.477441 0.500000 0.647453
O O3 0.417228 0.283882 0.711545
O O4 0.499647 0.250986 0.713035
O O5 0.321141 0.757513 0.787251
O O6 0.223515 0.788987 0.840742
O O7 0.269722 0.000000 0.877435
O O8 0.250000 0.750000 0.000000
O O9 0.144116 0.000000 0.194794
O O10 0.147432 0.786221 0.056141
O O11 0.131020 0.746210 0.872416
O O12 0.160753 0.000000 0.909247
O O13 0.552873 0.220140 0.830736
O O14 0.583035 0.000000 0.904682
O O15 0.541311 0.216948 0.049330
O O16 0.505201 0.000000 0.810145
#
# Coordination Sequence:
#
# PCOD9191283 Si02
#       6
#     8   8   8   8   8   8
#     4  10  20  33  48  66  90 121 156 191 225 262
#     4   9  17  27  40  61  89 118 147 180 220 267
#     4   9  17  29  42  61  89 118 150 185 220 264
#     4   9  16  26  41  64  90 116 147 179 217 268
#     4   9  17  28  44  65  91 120 147 180 223 269
#     4   9  18  31  44  64  91 118 151 186 221 266
#
# _framework density 15.327588
#
# number of rings (size 3 to 8) (size 9 to 14) (size 15 to 20)
#    0.000    2.833    1.667    2.500    0.000    5.000 
#    0.000    1.667    0.000    0.000    0.000    1.167 
#    0.000    0.000    0.000    0.000    0.000    0.000 
#
# Total GULP energy -133629.486344 kJ/mol
# GULP energy per Si atom -5567.895264 kJ/mol
# Density = 1.529270 g / cm^3
# Si number density = 15.327588 Si / 1000 Ang^3
#
#
#
# Elastic Constant Matrix: (Units=GPa)
#
#
# Indices 1 2 3 4 5 6 
#
# 1 173.1117 50.1255 54.3706 0.0000 12.4518 0.0000
# 2 50.1255 22.1636 22.4818 0.0000 5.2759 0.0000
# 3 54.3706 22.4818 67.8454 0.0000 8.1832 0.0000
# 4 0.0000 0.0000 0.0000 15.0028 0.0000 3.0486
# 5 12.4518 5.2759 8.1832 0.0000 15.4358 0.0000
# 6 0.0000 0.0000 0.0000 3.0486 0.0000 33.0495
#
#
#
# Elastic Compliance Matrix: (Units=1/GPa)
#
#
# Indices 1 2 3 4 5 6 
#
# 1 0.016817 -0.036635 -0.001294 0.000000 -0.000358 0.000000
# 2 -0.036635 0.149942 -0.018920 0.000000 -0.011667 0.000000
# 3 -0.001294 -0.018920 0.022584 0.000000 -0.004462 0.000000
# 4 0.000000 0.000000 0.000000 0.067927 0.000000 -0.006266
# 5 -0.000358 -0.011667 -0.004462 0.000000 0.071427 0.000000
# 6 0.000000 0.000000 0.000000 -0.006266 0.000000 0.030836
#
#
# Mechanical properties :
#
#
# Convention : Reuss Voigt Hill
#
# Bulk Modulus (GPa) = 13.21961 57.45297 35.33629
# Shear Modulus (GPa) = 10.03120 21.77379 15.90250
#
# Velocity S-wave (km/s) = 2.56100 3.77312 3.22453
# Velocity P-wave (km/s) = 4.16994 7.51975 6.08010
#
# Compressibility (1/GPa) = 0.07564521
#
# Stress axis : x y z
#
# Youngs Moduli (GPa) = 59.46478 6.66924 44.27950
#
# Poissons Ratio (x) = 0.24433 0.05729
# Poissons Ratio (y) = 2.17850 0.83775
# Poissons Ratio (z) = 0.07694 0.12618
#
# Static dielectric constant tensor:
#      x y z
#    x 1.540750 0.000000 -0.011250 
#    y 0.000000 1.510250 0.000000 
#    z -0.011250 0.000000 1.481160 
# 
# From -- ./inp_files/185725.got.cif
#   From: 2010.05.17/outbox.cif.g08.bks.cpg/sg12_93_cif.got.tgz:185725.got - 2010.06.03 13:09:07.
