data_PCOD9191952
_publ_section_title
;
Structure prediction by ZEFSAII (Michael W. Deem and Ramdas Pophale) SiO2 
 PCOD9191952
Probable space group: C 2/M
;
_chemical_formula_sum "Si O2"
_cell_formula_units_Z 58
_cell_length_a 14.522171
_cell_length_b 11.667629
_cell_length_c 14.853535
_cell_angle_alpha 90.000000
_cell_angle_beta 93.221200
_cell_angle_gamma 90.000000
_cell_volume 2512.796228
_symmetry_space_group_name_H-M "C 2/M"
_symmetry_group_IT_number 12
_symmetry_cell_setting 'monoclinic'
loop_
_space_group_symop_operation_xyz
x,y,z
-x,y,-z
-x,-y,-z
x,-y,z
1/2+x,1/2+y,z
1/2-x,1/2+y,-z
1/2-x,1/2-y,-z
1/2+x,1/2-y,z
loop_
_atom_site_type_symbol
_atom_site_label
_atom_site_fract_x
_atom_site_fract_y
_atom_site_fract_z
Si Si1 0.681339 0.373477 0.444252
Si Si2 0.328981 0.372757 0.916003
Si Si3 0.470049 0.126446 0.193972
Si Si4 0.125588 0.633201 0.997334
Si Si5 0.329591 0.631372 0.359314
Si Si6 0.500000 0.000000 0.500000
Si Si7 0.729881 0.833214 0.734037
Si Si8 0.484877 0.221692 0.628579
O O1 0.637147 0.500000 0.443750
O O2 0.721299 0.359238 0.546720
O O3 0.753523 0.373272 0.366863
O O4 0.603175 0.283635 0.416905
O O5 0.370527 0.500000 0.939685
O O6 0.228829 0.369795 0.959750
O O7 0.306077 0.370520 0.808595
O O8 0.375056 0.250902 0.944635
O O9 0.446092 0.150998 0.089173
O O10 0.368409 0.126754 0.234602
O O11 0.526567 0.206118 0.264299
O O12 0.510060 0.000000 0.201752
O O13 0.112738 0.500000 0.030100
O O14 0.344345 0.500000 0.338840
O O15 0.276209 0.696190 0.277557
O O16 0.425814 0.697419 0.378075
O O17 0.501000 0.898181 0.421467
#
# Coordination Sequence:
#
# PCOD9191952 Si02
#       8
#     8   8   8   8   8   2   8   8
#     4  11  21  36  53  76 106 142 175 215 263 314
#     4   9  16  29  48  76 103 133 167 214 263 315
#     4   9  17  32  53  77 103 135 176 219 255 307
#     4   8  15  28  49  73 100 131 167 212 265 311
#     4  10  21  37  52  75 105 140 178 218 259 305
#     4  12  20  36  54  84 100 142 184 224 256 298
#     4  10  20  33  52  78 107 137 173 210 266 315
#     4  11  21  35  55  79 103 140 180 220 257 304
#
# _framework density 23.081855999999998
#
# number of rings (size 3 to 8) (size 9 to 14) (size 15 to 20)
#    0.000    2.207    2.069    2.897    0.000    1.655 
#    1.241    7.586    0.000    0.828    0.000    3.862 
#    0.000    0.000    0.000    0.000    0.000    0.000 
#
# Total GULP energy -161614.164193 kJ/mol
# GULP energy per Si atom -5572.902214 kJ/mol
# Density = 2.302932 g / cm^3
# Si number density = 23.081856 Si / 1000 Ang^3
#
#
#
# Elastic Constant Matrix: (Units=GPa)
#
#
# Indices 1 2 3 4 5 6 
#
# 1 42.8964 36.8480 11.3955 0.0000 -6.3700 0.0000
# 2 36.8480 217.2599 56.5149 0.0000 12.7254 0.0000
# 3 11.3955 56.5149 94.9587 0.0000 0.1128 0.0000
# 4 0.0000 0.0000 0.0000 30.2118 0.0000 2.9976
# 5 -6.3700 12.7254 0.1128 0.0000 28.6073 0.0000
# 6 0.0000 0.0000 0.0000 2.9976 0.0000 10.0905
#
#
#
# Elastic Compliance Matrix: (Units=1/GPa)
#
#
# Indices 1 2 3 4 5 6 
#
# 1 0.029388 -0.005429 -0.000306 0.000000 0.008960 0.000000
# 2 -0.005429 0.006620 -0.003284 0.000000 -0.004141 0.000000
# 3 -0.000306 -0.003284 0.012520 0.000000 0.001343 0.000000
# 4 0.000000 0.000000 0.000000 0.034105 0.000000 -0.010132
# 5 0.008960 -0.004141 0.001343 0.000000 0.038788 0.000000
# 6 0.000000 0.000000 0.000000 -0.010132 0.000000 0.102113
#
#
# Mechanical properties :
#
#
# Convention : Reuss Voigt Hill
#
# Bulk Modulus (GPa) = 32.79740 62.73688 47.76714
# Shear Modulus (GPa) = 19.86213 30.47237 25.16725
#
# Velocity S-wave (km/s) = 2.93662 3.63738 3.30562
# Velocity P-wave (km/s) = 5.07330 6.69925 5.94215
#
# Compressibility (1/GPa) = 0.03049022
#
# Stress axis : x y z
#
# Youngs Moduli (GPa) = 34.02780 151.04963 79.87051
#
# Poissons Ratio (x) = 0.82012 0.02444
# Poissons Ratio (y) = 0.18475 0.26226
# Poissons Ratio (z) = 0.01041 0.49599
#
# Static dielectric constant tensor:
#      x y z
#    x 1.890360 0.000000 -0.054990 
#    y 0.000000 1.902350 0.000000 
#    z -0.054990 0.000000 1.906270 
# 
# From -- ./inp_files/223316.got.cif
#   From: 2010.05.17/outbox.cif.g08.bks.cpg/sg12_112_cif.got.tgz:223316.got - 2010.06.03 13:09:07.
