data_PCOD9191474
_publ_section_title
;
Structure prediction by ZEFSAII (Michael W. Deem and Ramdas Pophale) SiO2 
 PCOD9191474
Probable space group: C 2/M
;
_chemical_formula_sum "Si O2"
_cell_formula_units_Z 64
_cell_length_a 28.979951
_cell_length_b 7.549716
_cell_length_c 14.555104
_cell_angle_alpha 90.000000
_cell_angle_beta 74.590013
_cell_angle_gamma 90.000000
_cell_volume 3070.030774
_symmetry_space_group_name_H-M "C 2/M"
_symmetry_group_IT_number 12
_symmetry_cell_setting 'monoclinic'
loop_
_space_group_symop_operation_xyz
x,y,z
-x,y,-z
-x,-y,-z
x,-y,z
1/2+x,1/2+y,z
1/2-x,1/2+y,-z
1/2-x,1/2-y,-z
1/2+x,1/2-y,z
loop_
_atom_site_type_symbol
_atom_site_label
_atom_site_fract_x
_atom_site_fract_y
_atom_site_fract_z
Si Si1 0.110406 0.210187 0.244269
Si Si2 0.009637 0.286156 0.391577
Si Si3 0.306755 0.711658 0.467448
Si Si4 0.389479 0.297086 0.118252
Si Si5 0.803224 0.213927 0.269358
Si Si6 0.809179 0.212938 0.665897
Si Si7 0.539898 0.794927 0.764554
Si Si8 0.939604 0.783917 0.910202
O O1 0.062949 0.239250 0.330344
O O2 0.156305 0.283313 0.273088
O O3 0.097523 0.274275 0.149307
O O4 0.117437 0.000000 0.230980
O O5 0.006125 0.500000 0.393628
O O6 0.000000 0.222471 0.500000
O O7 0.973689 0.223285 0.329606
O O8 0.314211 0.500000 0.462918
O O9 0.250000 0.750000 0.500000
O O10 0.321450 0.780453 0.359740
O O11 0.324727 0.780427 0.556156
O O12 0.380757 0.500000 0.094332
O O13 0.338114 0.217450 0.171502
O O14 0.419812 0.296299 0.196040
O O15 0.421112 0.221167 0.018828
O O16 0.747033 0.252601 0.289316
O O17 0.807336 0.000000 0.268624
O O18 0.814399 0.000000 0.660219
O O19 0.491082 0.782672 0.849849
O O20 0.553469 0.000000 0.747916
O O21 0.943842 0.000000 0.907960
#
# Coordination Sequence:
#
# PCOD9191474 Si02
#       8
#     8   8   8   8   8   8   8   8
#     4   9  18  32  51  73  95 125 165 201 234 279
#     4   9  19  35  51  71 102 132 156 189 236 287
#     4   8  14  26  43  62  86 115 147 185 227 270
#     4  10  20  33  50  71  96 127 160 197 242 287
#     4   9  18  31  46  67  94 123 157 194 232 281
#     4   9  17  30  48  69  93 122 156 195 237 278
#     4  10  20  33  51  74  97 123 158 197 236 283
#     4   9  18  34  52  69  94 127 160 195 239 289
#
# _framework density 20.846695
#
# number of rings (size 3 to 8) (size 9 to 14) (size 15 to 20)
#    0.000    2.875    0.000    0.750    0.000    4.750 
#    0.000    1.875    0.000    4.500    0.000    0.000 
#    0.000    0.000    0.000    0.000    0.000    0.000 
#
# Total GULP energy -178367.884475 kJ/mol
# GULP energy per Si atom -5573.996390 kJ/mol
# Density = 2.079925 g / cm^3
# Si number density = 20.846695 Si / 1000 Ang^3
#
#
#
# Elastic Constant Matrix: (Units=GPa)
#
#
# Indices 1 2 3 4 5 6 
#
# 1 75.3790 -9.1760 27.1636 0.0000 19.8882 0.0000
# 2 -9.1760 51.1998 -11.7148 0.0000 2.9899 0.0000
# 3 27.1636 -11.7148 89.3120 0.0000 7.3599 0.0000
# 4 0.0000 0.0000 0.0000 11.0956 0.0000 -2.5814
# 5 19.8882 2.9899 7.3599 0.0000 17.0470 0.0000
# 6 0.0000 0.0000 0.0000 -2.5814 0.0000 14.0277
#
#
#
# Elastic Compliance Matrix: (Units=1/GPa)
#
#
# Indices 1 2 3 4 5 6 
#
# 1 0.021657 0.004383 -0.004009 0.000000 -0.024305 0.000000
# 2 0.004383 0.021416 0.002288 0.000000 -0.009858 0.000000
# 3 -0.004009 0.002288 0.012820 0.000000 -0.001259 0.000000
# 4 0.000000 0.000000 0.000000 0.094156 0.000000 0.017327
# 5 -0.024305 -0.009858 -0.001259 0.000000 0.089289 0.000000
# 6 0.000000 0.000000 0.000000 0.017327 0.000000 0.074476
#
#
# Mechanical properties :
#
#
# Convention : Reuss Voigt Hill
#
# Bulk Modulus (GPa) = 16.33492 25.38184 20.85838
# Shear Modulus (GPa) = 15.20236 22.40860 18.80548
#
# Velocity S-wave (km/s) = 2.70338 3.28216 3.00673
# Velocity P-wave (km/s) = 4.19489 5.15416 4.69907
#
# Compressibility (1/GPa) = 0.06121852
#
# Stress axis : x y z
#
# Youngs Moduli (GPa) = 46.17395 46.69373 78.00359
#
# Poissons Ratio (x) = -0.20468 0.31272
# Poissons Ratio (y) = -0.20240 -0.17849
# Poissons Ratio (z) = 0.18511 -0.10685
#
# Static dielectric constant tensor:
#      x y z
#    x 1.731300 0.000000 0.024090 
#    y 0.000000 1.739960 0.000000 
#    z 0.024090 0.000000 1.781440 
# 
# From -- ./inp_files/243793.got.cif
#   From: 2010.05.17/outbox.cif.g08.bks.cpg/sg12_122_cif.got.tgz:243793.got - 2010.06.03 13:09:07.
