data_PCOD9191878
_publ_section_title
;
Structure prediction by ZEFSAII (Michael W. Deem and Ramdas Pophale) SiO2 
 PCOD9191878
Probable space group: C 2/M
;
_chemical_formula_sum "Si O2"
_cell_formula_units_Z 64
_cell_length_a 20.765764
_cell_length_b 8.819075
_cell_length_c 22.015524
_cell_angle_alpha 90.000000
_cell_angle_beta 130.316705
_cell_angle_gamma 90.000000
_cell_volume 3074.172791
_symmetry_space_group_name_H-M "C 2/M"
_symmetry_group_IT_number 12
_symmetry_cell_setting 'monoclinic'
loop_
_space_group_symop_operation_xyz
x,y,z
-x,y,-z
-x,-y,-z
x,-y,z
1/2+x,1/2+y,z
1/2-x,1/2+y,-z
1/2-x,1/2-y,-z
1/2+x,1/2-y,z
loop_
_atom_site_type_symbol
_atom_site_label
_atom_site_fract_x
_atom_site_fract_y
_atom_site_fract_z
Si Si1 0.574840 0.685052 0.351775
Si Si2 0.597939 0.317921 0.556811
Si Si3 0.329817 0.328840 0.771990
Si Si4 0.171451 0.318638 0.987586
Si Si5 0.751183 0.178387 0.589014
Si Si6 0.742254 0.180205 0.156155
Si Si7 0.989994 0.175168 0.171693
Si Si8 0.591099 0.315371 0.687760
O O1 0.581101 0.500000 0.357677
O O2 0.672563 0.738965 0.407754
O O3 0.527551 0.724912 0.259669
O O4 0.505191 0.734124 0.358641
O O5 0.500000 0.271162 0.500000
O O6 0.599632 0.500000 0.551863
O O7 0.660386 0.255203 0.543545
O O8 0.625328 0.273713 0.642023
O O9 0.306438 0.500000 0.776514
O O10 0.292015 0.306230 0.681584
O O11 0.299717 0.216929 0.805302
O O12 0.430165 0.320134 0.824370
O O13 0.174270 0.500000 0.988125
O O14 0.086489 0.265505 0.903405
O O15 0.250000 0.250000 0.000000
O O16 0.186248 0.263805 0.066003
O O17 0.739159 0.000000 0.569088
O O18 0.839559 0.236472 0.220750
O O19 0.748683 0.000000 0.153125
O O20 0.963209 0.000000 0.163628
O O21 0.587945 0.500000 0.686971
#
# Coordination Sequence:
#
# PCOD9191878 Si02
#       8
#     8   8   8   8   8   8   8   8
#     4   8  15  30  54  77  98 133 179 214 246 302
#     4  10  20  33  52  78 106 136 168 206 256 311
#     4   9  18  32  52  77 101 130 167 210 259 308
#     4  11  23  36  50  71  99 133 174 217 263 310
#     4   9  17  32  54  78 102 132 170 211 254 302
#     4  10  20  33  52  74  97 133 176 213 251 302
#     4   9  18  34  53  73 101 134 170 212 260 310
#     4   9  16  30  52  75  98 130 173 213 249 297
#
# _framework density 20.818607
#
# number of rings (size 3 to 8) (size 9 to 14) (size 15 to 20)
#    0.000    2.625    1.250    2.625    0.000    4.250 
#    0.000    5.000    0.000    1.500    0.000    0.000 
#    0.000    0.000    0.000    0.000    0.000    0.000 
#
# Total GULP energy -178375.870624 kJ/mol
# GULP energy per Si atom -5574.245957 kJ/mol
# Density = 2.077122 g / cm^3
# Si number density = 20.818607 Si / 1000 Ang^3
#
#
#
# Elastic Constant Matrix: (Units=GPa)
#
#
# Indices 1 2 3 4 5 6 
#
# 1 117.3569 16.2420 19.9686 0.0000 16.5739 0.0000
# 2 16.2420 8.6110 15.9405 0.0000 10.5744 0.0000
# 3 19.9686 15.9405 65.0918 0.0000 16.3054 0.0000
# 4 0.0000 0.0000 0.0000 16.1740 0.0000 8.5347
# 5 16.5739 10.5744 16.3054 0.0000 30.5026 0.0000
# 6 0.0000 0.0000 0.0000 8.5347 0.0000 29.6714
#
#
#
# Elastic Compliance Matrix: (Units=1/GPa)
#
#
# Indices 1 2 3 4 5 6 
#
# 1 0.012080 -0.033349 0.003705 0.000000 0.003017 0.000000
# 2 -0.033349 0.418038 -0.069715 0.000000 -0.089535 0.000000
# 3 0.003705 -0.069715 0.029730 0.000000 0.006263 0.000000
# 4 0.000000 0.000000 0.000000 0.072891 0.000000 -0.020967
# 5 0.003017 -0.089535 0.006263 0.000000 0.058837 0.000000
# 6 0.000000 0.000000 0.000000 -0.020967 0.000000 0.039733
#
#
# Mechanical properties :
#
#
# Convention : Reuss Voigt Hill
#
# Bulk Modulus (GPa) = 3.82950 32.81798 18.32374
# Shear Modulus (GPa) = 5.45214 24.53018 14.99116
#
# Velocity S-wave (km/s) = 1.62005 3.43633 2.68635
# Velocity P-wave (km/s) = 2.31146 5.61627 4.29450
#
# Compressibility (1/GPa) = 0.26113090
#
# Stress axis : x y z
#
# Youngs Moduli (GPa) = 82.78185 2.39212 33.63584
#
# Poissons Ratio (x) = 0.07977 -0.12463
# Poissons Ratio (y) = 2.76068 2.34494
# Poissons Ratio (z) = -0.30674 0.16677
#
# Static dielectric constant tensor:
#      x y z
#    x 1.771940 0.000000 0.012930 
#    y 0.000000 1.729560 0.000000 
#    z 0.012930 0.000000 1.819660 
# 
# From -- ./inp_files/346216.got.cif
#   From: 2010.05.17/outbox.cif.g08.bks.cpg/sg12_174_cif.got.tgz:346216.got - 2010.06.03 13:09:07.
