data_PCOD9191484
_publ_section_title
;
Structure prediction by ZEFSAII (Michael W. Deem and Ramdas Pophale) SiO2 
 PCOD9191484
Probable space group: C 2/M
;
_chemical_formula_sum "Si O2"
_cell_formula_units_Z 56
_cell_length_a 15.815295
_cell_length_b 7.637159
_cell_length_c 24.965685
_cell_angle_alpha 90.000000
_cell_angle_beta 117.816181
_cell_angle_gamma 90.000000
_cell_volume 2667.015396
_symmetry_space_group_name_H-M "C 2/M"
_symmetry_group_IT_number 12
_symmetry_cell_setting 'monoclinic'
loop_
_space_group_symop_operation_xyz
x,y,z
-x,y,-z
-x,-y,-z
x,-y,z
1/2+x,1/2+y,z
1/2-x,1/2+y,-z
1/2-x,1/2-y,-z
1/2+x,1/2-y,z
loop_
_atom_site_type_symbol
_atom_site_label
_atom_site_fract_x
_atom_site_fract_y
_atom_site_fract_z
Si Si1 0.118071 0.706423 0.697031
Si Si2 0.564990 0.789405 0.308434
Si Si3 0.921724 0.788029 0.433742
Si Si4 0.729572 0.209879 0.432448
Si Si5 0.168557 0.210712 0.228907
Si Si6 0.066816 0.214062 0.090752
Si Si7 0.351921 0.290072 0.000074
O O1 0.128890 0.500000 0.710324
O O2 0.070495 0.726695 0.624588
O O3 0.224070 0.781760 0.731349
O O4 0.041654 0.780211 0.715936
O O5 0.633693 0.721978 0.376393
O O6 0.609972 0.751344 0.264774
O O7 0.561011 0.000000 0.312953
O O8 0.819079 0.726923 0.424364
O O9 0.000000 0.728633 0.500000
O O10 0.924295 0.000000 0.433933
O O11 0.750000 0.250000 0.500000
O O12 0.727724 0.000000 0.427674
O O13 0.118048 0.274308 0.159991
O O14 0.172590 0.000000 0.225974
O O15 0.128557 0.267461 0.056232
O O16 0.065752 0.000000 0.089545
O O17 0.954282 0.268041 0.056370
O O18 0.353998 0.500000 0.000083
O O19 0.250000 0.250000 0.000000
#
# Coordination Sequence:
#
# PCOD9191484 Si02
#       7
#     8   8   8   8   8   8   8
#     4  10  21  35  53  76 102 134 173 217 265 317
#     4  10  21  37  53  75 107 138 170 220 278 319
#     4  10  20  34  52  74 100 131 170 216 266 320
#     4  10  20  33  50  72 100 132 167 214 268 322
#     4  10  20  36  56  78 105 142 186 220 255 320
#     4   8  17  34  54  77 110 149 181 213 262 318
#     4   9  17  33  57  82 111 146 181 220 262 307
#
# _framework density 20.997254999999999
#
# number of rings (size 3 to 8) (size 9 to 14) (size 15 to 20)
#    0.000    2.429    1.429    1.714    0.000    3.143 
#    0.000    4.286    0.000    0.000    0.000    0.000 
#    0.000    0.000    0.000    0.000    0.000    0.000 
#
# Total GULP energy -156141.648926 kJ/mol
# GULP energy per Si atom -5576.487462 kJ/mol
# Density = 2.094946 g / cm^3
# Si number density = 20.997255 Si / 1000 Ang^3
#
#
#
# Elastic Constant Matrix: (Units=GPa)
#
#
# Indices 1 2 3 4 5 6 
#
# 1 218.1794 5.4604 94.5915 0.0000 3.8434 0.0000
# 2 5.4604 35.5728 -9.5537 0.0000 3.6241 0.0000
# 3 94.5915 -9.5537 134.2764 0.0000 -5.4451 0.0000
# 4 0.0000 0.0000 0.0000 -2.9177 0.0000 -9.1648
# 5 3.8434 3.6241 -5.4451 0.0000 19.7871 0.0000
# 6 0.0000 0.0000 0.0000 -9.1648 0.0000 18.9459
#
#
#
# Elastic Compliance Matrix: (Units=1/GPa)
#
#
# Indices 1 2 3 4 5 6 
#
# 1 0.006894 -0.002191 -0.005107 0.000000 -0.002343 0.000000
# 2 -0.002191 0.029802 0.003499 0.000000 -0.004070 0.000000
# 3 -0.005107 0.003499 0.011436 0.000000 0.003498 0.000000
# 4 0.000000 0.000000 0.000000 -0.136036 0.000000 -0.065805
# 5 -0.002343 -0.004070 0.003498 0.000000 0.052701 0.000000
# 6 0.000000 0.000000 0.000000 -0.065805 0.000000 0.020950
#
#
# Mechanical properties :
#
#
# Convention : Reuss Voigt Hill
#
# Bulk Modulus (GPa) = 24.67140 63.22499 43.94819
# Shear Modulus (GPa) = 729.23846 26.99841 378.11844
#
# Velocity S-wave (km/s) = 18.65625 3.58970 13.43394
# Velocity P-wave (km/s) = 21.81398 6.88170 16.17417
#
# Compressibility (1/GPa) = 0.04053277
#
# Stress axis : x y z
#
# Youngs Moduli (GPa) = 145.05940 33.55479 87.44380
#
# Poissons Ratio (x) = 0.07352 0.44659
# Poissons Ratio (y) = 0.31784 -0.30595
# Poissons Ratio (z) = 0.74085 -0.11740
#
# Static dielectric constant tensor:
#      x y z
#    x 1.775360 0.000000 0.020790 
#    y 0.000000 1.778040 0.000000 
#    z 0.020790 0.000000 1.759830 
# 
# From -- ./inp_files/360029.got.cif
#   From: 2010.05.17/outbox.cif.g08.bks.cpg/sg12_181_cif.got.tgz:360029.got - 2010.06.03 13:09:07.
