data_PCOD9191239
_publ_section_title
;
Structure prediction by ZEFSAII (Michael W. Deem and Ramdas Pophale) SiO2 
 PCOD9191239
Probable space group: C 2/M
;
_chemical_formula_sum "Si O2"
_cell_formula_units_Z 64
_cell_length_a 30.819064
_cell_length_b 8.932406
_cell_length_c 15.337272
_cell_angle_alpha 90.000000
_cell_angle_beta 78.831634
_cell_angle_gamma 90.000000
_cell_volume 4142.214477
_symmetry_space_group_name_H-M "C 2/M"
_symmetry_group_IT_number 12
_symmetry_cell_setting 'monoclinic'
loop_
_space_group_symop_operation_xyz
x,y,z
-x,y,-z
-x,-y,-z
x,-y,z
1/2+x,1/2+y,z
1/2-x,1/2+y,-z
1/2-x,1/2-y,-z
1/2+x,1/2-y,z
loop_
_atom_site_type_symbol
_atom_site_label
_atom_site_fract_x
_atom_site_fract_y
_atom_site_fract_z
Si Si1 0.875592 0.321336 0.754725
Si Si2 0.692768 0.819973 0.375172
Si Si3 0.187873 0.821688 0.088413
Si Si4 0.287312 0.179616 0.293510
Si Si5 0.647749 0.819916 0.575543
Si Si6 0.957184 0.180337 0.631970
Si Si7 0.720300 0.321719 0.885276
Si Si8 0.443340 0.320169 0.434590
O O1 0.876757 0.500000 0.763232
O O2 0.842123 0.284507 0.687735
O O3 0.854619 0.246701 0.848243
O O4 0.923241 0.258225 0.709899
O O5 0.739147 0.740668 0.339303
O O6 0.672397 0.775157 0.476261
O O7 0.699392 0.000000 0.372501
O O8 0.231225 0.746445 0.114453
O O9 0.189861 0.000000 0.101393
O O10 0.191797 0.792875 0.983440
O O11 0.322756 0.224221 0.353188
O O12 0.297905 0.247668 0.194982
O O13 0.285891 0.000000 0.289170
O O14 0.598883 0.752326 0.593622
O O15 0.644519 0.000000 0.575729
O O16 0.944175 0.220267 0.537205
O O17 0.008693 0.222483 0.622220
O O18 0.953852 0.000000 0.640710
O O19 0.724668 0.500000 0.872100
O O20 0.440195 0.500000 0.431460
#
# Coordination Sequence:
#
# PCOD9191239 Si02
#       8
#     8   8   8   8   8   8   8   8
#     4  11  20  30  49  75 100 130 163 197 240 288
#     4  10  20  33  46  66  99 133 168 204 233 276
#     4  10  20  33  51  71  95 126 159 199 246 290
#     4  11  22  33  49  70  95 132 170 203 242 283
#     4  10  21  35  48  68  98 131 169 206 239 282
#     4   9  18  32  49  71  99 126 161 202 242 290
#     4  10  20  34  50  70  95 125 161 202 244 288
#     4   9  18  32  50  71  94 127 165 203 243 283
#
# _framework density 15.450672000000001
#
# number of rings (size 3 to 8) (size 9 to 14) (size 15 to 20)
#    0.000    2.000    2.500    2.625    0.000    4.000 
#    0.000    1.250    0.000    0.000    0.000    0.875 
#    0.000    7.000    0.000    0.000    0.000    0.000 
#
# Total GULP energy -178590.411340 kJ/mol
# GULP energy per Si atom -5580.950354 kJ/mol
# Density = 1.541551 g / cm^3
# Si number density = 15.450672 Si / 1000 Ang^3
#
#
#
# Elastic Constant Matrix: (Units=GPa)
#
#
# Indices 1 2 3 4 5 6 
#
# 1 100.5032 40.4356 64.7514 0.0000 -13.2838 0.0000
# 2 40.4356 37.2592 43.9383 0.0000 -6.9915 0.0000
# 3 64.7514 43.9383 108.5493 0.0000 -14.2858 0.0000
# 4 0.0000 0.0000 0.0000 25.0916 0.0000 -2.9014
# 5 -13.2838 -6.9915 -14.2858 0.0000 26.8575 0.0000
# 6 0.0000 0.0000 0.0000 -2.9014 0.0000 26.9080
#
#
#
# Elastic Compliance Matrix: (Units=1/GPa)
#
#
# Indices 1 2 3 4 5 6 
#
# 1 0.019653 -0.014167 -0.005586 0.000000 0.003061 0.000000
# 2 -0.014167 0.061717 -0.016493 0.000000 0.000286 0.000000
# 3 -0.005586 -0.016493 0.019669 0.000000 0.003406 0.000000
# 4 0.000000 0.000000 0.000000 0.040357 0.000000 0.004352
# 5 0.003061 0.000286 0.003406 0.000000 0.040634 0.000000
# 6 0.000000 0.000000 0.000000 0.004352 0.000000 0.037633
#
#
# Mechanical properties :
#
#
# Convention : Reuss Voigt Hill
#
# Bulk Modulus (GPa) = 35.03010 60.50693 47.76851
# Shear Modulus (GPa) = 16.57429 22.25052 19.41241
#
# Velocity S-wave (km/s) = 3.27880 3.79898 3.54844
# Velocity P-wave (km/s) = 6.08732 7.64784 6.91176
#
# Compressibility (1/GPa) = 0.02854688
#
# Stress axis : x y z
#
# Youngs Moduli (GPa) = 50.88184 16.20290 50.84124
#
# Poissons Ratio (x) = 0.22954 0.28401
# Poissons Ratio (y) = 0.72083 0.83854
# Poissons Ratio (z) = 0.28424 0.26724
#
# Static dielectric constant tensor:
#      x y z
#    x 1.488950 0.000000 -0.005190 
#    y 0.000000 1.513520 0.000000 
#    z -0.005190 0.000000 1.515810 
# 
# From -- ./inp_files/243925.got.cif
#   From: 2010.05.17/outbox.cif.g08.bks.cpg/sg12_122_cif.got.tgz:243925.got - 2010.06.03 13:09:07.
