data_PCOD9191608
_publ_section_title
;
Structure prediction by ZEFSAII (Michael W. Deem and Ramdas Pophale) SiO2 
 PCOD9191608
Probable space group: C 2/M
;
_chemical_formula_sum "Si O2"
_cell_formula_units_Z 64
_cell_length_a 18.907707
_cell_length_b 10.528816
_cell_length_c 24.487654
_cell_angle_alpha 90.000000
_cell_angle_beta 44.754646
_cell_angle_gamma 90.000000
_cell_volume 3432.281065
_symmetry_space_group_name_H-M "C 2/M"
_symmetry_group_IT_number 12
_symmetry_cell_setting 'monoclinic'
loop_
_space_group_symop_operation_xyz
x,y,z
-x,y,-z
-x,-y,-z
x,-y,z
1/2+x,1/2+y,z
1/2-x,1/2+y,-z
1/2-x,1/2-y,-z
1/2+x,1/2-y,z
loop_
_atom_site_type_symbol
_atom_site_label
_atom_site_fract_x
_atom_site_fract_y
_atom_site_fract_z
Si Si1 0.344023 0.643638 0.542053
Si Si2 0.619025 0.850370 0.654745
Si Si3 0.877696 0.650749 0.222177
Si Si4 0.514535 0.272003 0.364119
Si Si5 0.773352 0.144645 0.784324
Si Si6 0.393728 0.853944 0.913714
Si Si7 0.396341 0.865568 0.590393
Si Si8 0.218328 0.849609 0.097162
O O1 0.351306 0.500000 0.559480
O O2 0.235823 0.657715 0.572832
O O3 0.435359 0.668089 0.450355
O O4 0.346573 0.743125 0.590257
O O5 0.616830 0.802068 0.718425
O O6 0.546916 0.774697 0.654257
O O7 0.591095 0.000000 0.669220
O O8 0.854868 0.500000 0.241520
O O9 0.794664 0.704757 0.226223
O O10 0.989315 0.663620 0.136882
O O11 0.609684 0.355787 0.295773
O O12 0.568512 0.158024 0.367416
O O13 0.765635 0.197048 0.849737
O O14 0.736451 0.000000 0.809629
O O15 0.358160 0.746048 0.890902
O O16 0.383354 0.000000 0.897911
O O17 0.320752 0.844040 0.005855
O O18 0.500000 0.874024 0.500000
O O19 0.341505 0.000000 0.613878
O O20 0.186651 0.000000 0.115041
#
# Coordination Sequence:
#
# PCOD9191608 Si02
#       8
#     8   8   8   8   8   8   8   8
#     4  10  21  36  55  77 101 133 173 214 258 309
#     4  10  20  34  51  73 100 132 172 217 262 305
#     4   9  18  32  51  74 102 136 173 213 255 302
#     4  11  20  32  52  74 102 137 173 211 255 309
#     4  10  20  33  50  76 108 138 171 213 258 301
#     4   9  17  32  55  80 105 136 173 209 251 305
#     4   9  19  34  52  74 100 131 166 207 256 305
#     4   9  18  32  53  81 109 136 168 210 257 303
#
# _framework density 18.646493
#
# number of rings (size 3 to 8) (size 9 to 14) (size 15 to 20)
#    0.000    2.375    0.000    2.625    0.000    4.750 
#    0.000    4.375    0.000    6.000    0.000    3.500 
#    0.000    0.000    0.000    0.000    0.000    0.000 
#
# Total GULP energy -178253.475045 kJ/mol
# GULP energy per Si atom -5570.421095 kJ/mol
# Density = 1.860405 g / cm^3
# Si number density = 18.646493 Si / 1000 Ang^3
#
#
#
# Elastic Constant Matrix: (Units=GPa)
#
#
# Indices 1 2 3 4 5 6 
#
# 1 138.7750 53.8020 51.1876 0.0000 10.1009 0.0000
# 2 53.8020 81.6491 20.3098 0.0002 4.1005 0.0000
# 3 51.1876 20.3098 68.3695 0.0000 3.6852 0.0000
# 4 0.0000 0.0002 0.0000 5681.6811 0.0000 957.5640
# 5 10.1009 4.1005 3.6852 0.0000 31.4673 0.0000
# 6 0.0000 0.0000 0.0000 957.5640 0.0000 181.0185
#
#
#
# Elastic Compliance Matrix: (Units=1/GPa)
#
#
# Indices 1 2 3 4 5 6 
#
# 1 0.012552 -0.006314 -0.007396 0.000000 -0.002340 0.000000
# 2 -0.006314 0.016451 -0.000155 0.000000 -0.000099 0.000000
# 3 -0.007396 -0.000155 0.020208 0.000000 0.000028 0.000000
# 4 0.000000 0.000000 0.000000 0.001623 0.000000 -0.008583
# 5 -0.002340 -0.000099 0.000028 0.000000 0.032540 0.000000
# 6 0.000000 0.000000 0.000000 -0.008583 0.000000 0.050929
#
#
# Mechanical properties :
#
#
# Convention : Reuss Voigt Hill
#
# Bulk Modulus (GPa) = 46.54866 59.93249 53.24057
# Shear Modulus (GPa) = 29.55205 1189.73298 609.64252
#
# Velocity S-wave (km/s) = 3.98535 25.28699 18.10131
# Velocity P-wave (km/s) = 6.79671 29.74537 21.57524
#
# Compressibility (1/GPa) = 0.02148290
#
# Stress axis : x y z
#
# Youngs Moduli (GPa) = 79.66806 60.78497 49.48519
#
# Poissons Ratio (x) = 0.38379 0.36599
# Poissons Ratio (y) = 0.50301 0.00765
# Poissons Ratio (z) = 0.58922 0.00940
#
# Static dielectric constant tensor:
#      x y z
#    x 1.648790 0.000000 0.006610 
#    y 0.000000 1.673260 0.000000 
#    z 0.006610 0.000000 1.666230 
# 
# From -- ./inp_files/343054.got.cif
#   From: 2010.05.17/outbox.cif.g08.bks.cpg/sg12_172_cif.got.tgz:343054.got - 2010.06.03 13:09:07.
