data_PCOD9191910
_publ_section_title
;
Structure prediction by ZEFSAII (Michael W. Deem and Ramdas Pophale) SiO2 
 PCOD9191910
Probable space group: C 2/M
;
_chemical_formula_sum "Si O2"
_cell_formula_units_Z 56
_cell_length_a 20.112123
_cell_length_b 7.550436
_cell_length_c 25.261288
_cell_angle_alpha 90.000000
_cell_angle_beta 137.226705
_cell_angle_gamma 90.000000
_cell_volume 2605.065730
_symmetry_space_group_name_H-M "C 2/M"
_symmetry_group_IT_number 12
_symmetry_cell_setting 'monoclinic'
loop_
_space_group_symop_operation_xyz
x,y,z
-x,y,-z
-x,-y,-z
x,-y,z
1/2+x,1/2+y,z
1/2-x,1/2+y,-z
1/2-x,1/2-y,-z
1/2+x,1/2-y,z
loop_
_atom_site_type_symbol
_atom_site_label
_atom_site_fract_x
_atom_site_fract_y
_atom_site_fract_z
Si Si1 0.017743 0.784264 0.071339
Si Si2 0.810218 0.212540 0.982773
Si Si3 0.852086 0.289744 0.529860
Si Si4 0.458687 0.297540 0.693819
Si Si5 0.228437 0.216510 0.238952
Si Si6 0.177101 0.293377 0.810725
Si Si7 0.259964 0.717408 0.634251
O O1 0.120540 0.727741 0.156103
O O2 0.021437 0.000000 0.073461
O O3 0.000000 0.731178 0.000000
O O4 0.922207 0.725054 0.047825
O O5 0.750480 0.283738 0.897261
O O6 0.815308 0.000000 0.980672
O O7 0.750000 0.250000 0.000000
O O8 0.869530 0.500000 0.539081
O O9 0.750000 0.250000 0.500000
O O10 0.932299 0.210670 0.615923
O O11 0.828244 0.227716 0.456489
O O12 0.467289 0.500000 0.715841
O O13 0.565219 0.217338 0.763407
O O14 0.364623 0.223204 0.670479
O O15 0.302991 0.276413 0.236665
O O16 0.249427 0.275515 0.310884
O O17 0.229573 0.000000 0.242493
O O18 0.202907 0.500000 0.822317
O O19 0.261118 0.500000 0.632747
#
# Coordination Sequence:
#
# PCOD9191910 Si02
#       7
#     8   8   8   8   8   8   8
#     4   9  15  28  50  74  98 130 171 210 247 292
#     4  10  21  34  51  77 105 134 169 208 254 306
#     4   9  16  30  51  76 106 135 169 211 256 304
#     4  10  20  33  52  77 104 135 171 208 254 310
#     4   9  16  29  50  74 100 128 168 217 254 292
#     4  10  20  34  51  74 104 134 166 210 261 304
#     4   8  16  29  49  77  99 124 168 214 250 292
#
# _framework density 21.496579000000001
#
# number of rings (size 3 to 8) (size 9 to 14) (size 15 to 20)
#    0.000    2.714    1.429    1.714    2.000    0.571 
#    0.000    0.714    0.000   10.714    0.000    0.000 
#    0.000    0.000    0.000    0.000    0.000    0.000 
#
# Total GULP energy -156150.401286 kJ/mol
# GULP energy per Si atom -5576.800046 kJ/mol
# Density = 2.144765 g / cm^3
# Si number density = 21.496579 Si / 1000 Ang^3
#
#
#
# Elastic Constant Matrix: (Units=GPa)
#
#
# Indices 1 2 3 4 5 6 
#
# 1 71.1099 -0.8476 -8.3407 0.0000 -15.9712 -0.0001
# 2 -0.8476 46.1771 -5.7332 0.0000 -1.9742 -0.0002
# 3 -8.3407 -5.7332 30.5529 0.0000 -17.9428 0.0000
# 4 0.0000 0.0000 0.0000 3.1253 0.0000 2.4902
# 5 -15.9712 -1.9742 -17.9428 0.0000 38.4129 0.0000
# 6 -0.0001 -0.0002 0.0000 2.4902 0.0000 14.2955
#
#
#
# Elastic Compliance Matrix: (Units=1/GPa)
#
#
# Indices 1 2 3 4 5 6 
#
# 1 0.019129 0.002782 0.014468 0.000000 0.014854 0.000000
# 2 0.002782 0.023092 0.008915 -0.000001 0.006508 0.000001
# 3 0.014468 0.008915 0.058089 -0.000001 0.033607 0.000000
# 4 0.000000 -0.000001 -0.000001 0.371541 0.000000 -0.064719
# 5 0.014854 0.006508 0.033607 0.000000 0.048242 0.000000
# 6 0.000000 0.000001 0.000000 -0.064719 0.000000 0.081226
#
#
# Mechanical properties :
#
#
# Convention : Reuss Voigt Hill
#
# Bulk Modulus (GPa) = 6.55138 13.11076 9.83107
# Shear Modulus (GPa) = 8.33516 22.01747 15.17632
#
# Velocity S-wave (km/s) = 1.97126 3.20383 2.65993
# Velocity P-wave (km/s) = 2.86974 4.44953 3.74391
#
# Compressibility (1/GPa) = 0.15263962
#
# Stress axis : x y z
#
# Youngs Moduli (GPa) = 52.27625 43.30527 17.21495
#
# Poissons Ratio (x) = -0.12050 -0.24906
# Poissons Ratio (y) = -0.14546 -0.15346
# Poissons Ratio (z) = -0.75632 -0.38605
#
# Static dielectric constant tensor:
#      x y z
#    x 1.766390 0.000000 -0.023610 
#    y 0.000000 1.872820 0.000000 
#    z -0.023610 0.000000 1.773830 
# 
# From -- ./inp_files/342538.got.cif
#   From: 2010.05.17/outbox.cif.g08.bks.cpg/sg12_172_cif.got.tgz:342538.got - 2010.06.03 13:09:07.
