data_PCOD9191361
_publ_section_title
;
Structure prediction by ZEFSAII (Michael W. Deem and Ramdas Pophale) SiO2 
 PCOD9191361
Probable space group: C 2/M
;
_chemical_formula_sum "Si O2"
_cell_formula_units_Z 60
_cell_length_a 22.335227
_cell_length_b 12.895250
_cell_length_c 25.800555
_cell_angle_alpha 90.000000
_cell_angle_beta 149.961332
_cell_angle_gamma 90.000000
_cell_volume 3719.858803
_symmetry_space_group_name_H-M "C 2/M"
_symmetry_group_IT_number 12
_symmetry_cell_setting 'monoclinic'
loop_
_space_group_symop_operation_xyz
x,y,z
-x,y,-z
-x,-y,-z
x,-y,z
1/2+x,1/2+y,z
1/2-x,1/2+y,-z
1/2-x,1/2-y,-z
1/2+x,1/2-y,z
loop_
_atom_site_type_symbol
_atom_site_label
_atom_site_fract_x
_atom_site_fract_y
_atom_site_fract_z
Si Si1 0.742335 0.877412 0.120143
Si Si2 0.000000 0.245988 0.500000
Si Si3 0.877006 0.877006 0.500000
Si Si4 0.516015 0.377459 0.305379
Si Si5 0.361210 0.254683 0.694621
Si Si6 0.761331 0.377225 0.305379
Si Si7 0.120340 0.744583 0.120143
Si Si8 0.502247 0.878005 0.879857
O O1 0.874805 0.853001 0.200007
O O2 0.705658 0.810790 0.142588
O O3 0.739306 0.000000 0.131624
O O4 0.639143 0.860857 1.000000
O O5 0.041190 0.174911 0.482886
O O6 0.112213 0.317678 0.599223
O O7 0.748433 0.821677 0.400777
O O8 0.933890 0.860645 0.599223
O O9 0.866279 0.000000 0.482886
O O10 0.529751 0.500000 0.303735
O O11 0.585823 0.309653 0.315939
O O12 0.309272 0.339023 0.696264
O O13 0.460891 0.188698 0.799993
O O14 0.776171 0.500000 0.315939
O O15 0.686108 0.335696 0.200007
O O16 0.077783 0.661523 0.131624
O O17 0.000000 0.778286 0.000000
O O18 0.483551 0.000000 0.857411
#
# Coordination Sequence:
#
# PCOD9191361 Si02
#       8
#     8   4   8   8   8   8   8   8
#     4   9  17  30  50  75 100 126 158 200 249 294
#     4  10  20  34  54  78 100 122 152 196 248 294
#     4  10  20  34  54  78 100 122 152 196 248 294
#     4  10  20  33  49  69  96 131 167 199 233 279
#     4  10  20  33  49  69  96 131 167 199 233 279
#     4  10  20  33  49  69  96 131 167 199 233 279
#     4   9  17  30  50  75 100 126 158 200 249 294
#     4   9  17  30  50  75 100 126 158 200 249 294
#
# _framework density 16.129643999999999
#
# number of rings (size 3 to 8) (size 9 to 14) (size 15 to 20)
#    0.000    2.400    0.000    2.800    0.000    2.400 
#    0.000    4.000    0.000    8.800    0.000    0.000 
#    0.000    0.000    0.000    0.000    0.000    0.000 
#
# Total GULP energy -167356.446437 kJ/mol
# GULP energy per Si atom -5578.548215 kJ/mol
# Density = 1.609293 g / cm^3
# Si number density = 16.129644 Si / 1000 Ang^3
#
#
#
# Elastic Constant Matrix: (Units=GPa)
#
#
# Indices 1 2 3 4 5 6 
#
# 1 123.6921 87.8065 76.2970 0.0000 1.0196 0.0000
# 2 87.8065 123.6536 76.3385 0.0000 -1.2337 0.0000
# 3 76.2970 76.3385 95.2574 0.0001 -0.1412 0.0001
# 4 0.0000 0.0000 0.0001 17.4354 0.0001 -1.1356
# 5 1.0196 -1.2337 -0.1412 0.0001 17.3947 0.0001
# 6 0.0000 0.0000 0.0001 -1.1356 0.0001 17.8929
#
#
#
# Elastic Compliance Matrix: (Units=1/GPa)
#
#
# Indices 1 2 3 4 5 6 
#
# 1 0.019587 -0.008392 -0.008966 0.000000 -0.001816 0.000000
# 2 -0.008392 0.019620 -0.008999 0.000000 0.001810 0.000000
# 3 -0.008966 -0.008999 0.024891 0.000000 0.000089 0.000000
# 4 0.000000 0.000000 0.000000 0.057593 0.000000 0.003655
# 5 -0.001816 0.001810 0.000089 0.000000 0.057724 0.000000
# 6 0.000000 0.000000 0.000000 0.003655 0.000000 0.056120
#
#
# Mechanical properties :
#
#
# Convention : Reuss Voigt Hill
#
# Bulk Modulus (GPa) = 87.83921 91.49856 89.66889
# Shear Modulus (GPa) = 17.12073 17.35537 17.23805
#
# Velocity S-wave (km/s) = 3.26152 3.28379 3.27267
# Velocity P-wave (km/s) = 8.29215 8.43966 8.36623
#
# Compressibility (1/GPa) = 0.01138444
#
# Stress axis : x y z
#
# Youngs Moduli (GPa) = 51.05362 50.96907 40.17474
#
# Poissons Ratio (x) = 0.42772 0.36021
# Poissons Ratio (y) = 0.42843 0.36153
# Poissons Ratio (z) = 0.45776 0.45867
#
# Static dielectric constant tensor:
#      x y z
#    x 1.509070 0.000000 0.000310 
#    y 0.000000 1.509070 0.000000 
#    z 0.000310 0.000000 1.544360 
# 
# From -- ./inp_files/347183.got.cif
#   From: 2010.05.17/outbox.cif.g08.bks.cpg/sg12_174_cif.got.tgz:347183.got - 2010.06.03 13:09:07.
