data_PCOD9191609
_publ_section_title
;
Structure prediction by ZEFSAII (Michael W. Deem and Ramdas Pophale) SiO2 
 PCOD9191609
Probable space group: C 2/M
;
_chemical_formula_sum "Si O2"
_cell_formula_units_Z 56
_cell_length_a 18.643690
_cell_length_b 25.166802
_cell_length_c 8.877936
_cell_angle_alpha 90.000000
_cell_angle_beta 126.343975
_cell_angle_gamma 90.000000
_cell_volume 3355.237473
_symmetry_space_group_name_H-M "C 2/M"
_symmetry_group_IT_number 12
_symmetry_cell_setting 'monoclinic'
loop_
_space_group_symop_operation_xyz
x,y,z
-x,y,-z
-x,-y,-z
x,-y,z
1/2+x,1/2+y,z
1/2-x,1/2+y,-z
1/2-x,1/2-y,-z
1/2+x,1/2-y,z
loop_
_atom_site_type_symbol
_atom_site_label
_atom_site_fract_x
_atom_site_fract_y
_atom_site_fract_z
Si Si1 0.107053 0.058130 0.099807
Si Si2 0.047498 0.135571 0.796403
Si Si3 0.198632 0.854250 0.756841
Si Si4 0.507169 0.246073 0.832692
Si Si5 0.682258 0.245396 0.555208
Si Si6 0.374457 0.562572 0.540906
Si Si7 0.318143 0.797511 0.121817
O O1 0.153116 0.066284 0.317601
O O2 0.130480 0.000000 0.068043
O O3 0.114592 0.104328 0.990226
O O4 0.000000 0.057145 0.000000
O O5 0.104416 0.149890 0.723544
O O6 0.018532 0.189880 0.838816
O O7 0.966386 0.096475 0.653338
O O8 0.196455 0.803391 0.646310
O O9 0.193645 0.908275 0.654875
O O10 0.276702 0.846743 0.976863
O O11 0.414500 0.236073 0.634883
O O12 0.587889 0.219244 0.838216
O O13 0.500000 0.230256 0.000000
O O14 0.750000 0.250000 0.500000
O O15 0.687070 0.203667 0.702071
O O16 0.389001 0.500000 0.525658
O O17 0.250000 0.750000 0.000000
#
# Coordination Sequence:
#
# PCOD9191609 Si02
#       7
#     8   8   8   8   8   8   8
#     4   8  16  30  44  65  99 139 188 227 256 310
#     4  11  19  29  48  73 104 145 189 217 265 316
#     4  11  22  33  49  73 108 141 182 232 264 319
#     4  12  21  33  55  77 103 143 180 221 278 327
#     4  11  23  37  54  75 105 140 185 231 282 331
#     4  10  20  33  50  76 108 148 191 224 265 327
#     4  10  21  37  49  72 106 139 184 229 260 322
#
# _framework density 16.690324
#
# number of rings (size 3 to 8) (size 9 to 14) (size 15 to 20)
#    0.000    1.571    4.286    5.143    0.000    1.714 
#    0.000    0.000    0.000    0.000    0.000    0.000 
#    0.000    7.429    0.000    0.143    0.000    3.857 
#
# Total GULP energy -155881.710300 kJ/mol
# GULP energy per Si atom -5567.203939 kJ/mol
# Density = 1.665234 g / cm^3
# Si number density = 16.690324 Si / 1000 Ang^3
#
#
#
# Elastic Constant Matrix: (Units=GPa)
#
#
# Indices 1 2 3 4 5 6 
#
# 1 90.0615 24.0892 47.6965 0.0000 -9.8293 0.0000
# 2 24.0892 66.5874 41.0754 0.0000 -9.0958 0.0000
# 3 47.6965 41.0754 120.6796 0.0000 -11.6826 0.0000
# 4 0.0000 0.0000 0.0000 18.3666 0.0000 8.8588
# 5 -9.8293 -9.0958 -11.6826 0.0000 29.1210 0.0000
# 6 0.0000 0.0000 0.0000 8.8588 0.0000 2.6913
#
#
#
# Elastic Compliance Matrix: (Units=1/GPa)
#
#
# Indices 1 2 3 4 5 6 
#
# 1 0.014426 -0.001927 -0.004820 0.000000 0.002334 0.000000
# 2 -0.001927 0.019611 -0.005601 0.000000 0.003228 0.000000
# 3 -0.004820 -0.005601 0.012246 0.000000 0.001537 0.000000
# 4 0.000000 0.000000 0.000000 -0.092648 0.000000 0.304964
# 5 0.002334 0.003228 0.001537 0.000000 0.036752 0.000000
# 6 0.000000 0.000000 0.000000 0.304964 0.000000 -0.632269
#
#
# Mechanical properties :
#
#
# Convention : Reuss Voigt Hill
#
# Bulk Modulus (GPa) = 46.32143 55.89451 51.10797
# Shear Modulus (GPa) = -8.19687 21.00028 6.40171
#
# Velocity S-wave (km/s) = -2.21852 3.55100 1.96059
# Velocity P-wave (km/s) = 4.60991 7.09751 5.98440
#
# Compressibility (1/GPa) = 0.02158828
#
# Stress axis : x y z
#
# Youngs Moduli (GPa) = 69.31795 50.99221 81.65603
#
# Poissons Ratio (x) = 0.09826 0.39358
# Poissons Ratio (y) = 0.13357 0.45734
# Poissons Ratio (z) = 0.33411 0.28560
#
# Static dielectric constant tensor:
#      x y z
#    x 1.637610 0.000000 -0.051660 
#    y 0.000000 1.575870 0.000000 
#    z -0.051660 0.000000 1.640900 
# 
# From -- ./inp_files/79655.got.cif
#   From: 2010.05.17/outbox.cif.g08.bks.cpg/sg12_40_cif.got.tgz:79655.got - 2010.06.03 13:09:07.
