data_PCOD9191662
_publ_section_title
;
Structure prediction by ZEFSAII (Michael W. Deem and Ramdas Pophale) SiO2 
 PCOD9191662
Probable space group: C 2/M
;
_chemical_formula_sum "Si O2"
_cell_formula_units_Z 64
_cell_length_a 18.662385
_cell_length_b 7.690902
_cell_length_c 23.933485
_cell_angle_alpha 90.000000
_cell_angle_beta 113.257435
_cell_angle_gamma 90.000000
_cell_volume 3156.043486
_symmetry_space_group_name_H-M "C 2/M"
_symmetry_group_IT_number 12
_symmetry_cell_setting 'monoclinic'
loop_
_space_group_symop_operation_xyz
x,y,z
-x,y,-z
-x,-y,-z
x,-y,z
1/2+x,1/2+y,z
1/2-x,1/2+y,-z
1/2-x,1/2-y,-z
1/2+x,1/2-y,z
loop_
_atom_site_type_symbol
_atom_site_label
_atom_site_fract_x
_atom_site_fract_y
_atom_site_fract_z
Si Si1 0.421582 0.208424 0.004391
Si Si2 0.223958 0.789680 0.119088
Si Si3 0.883962 0.705573 0.115821
Si Si4 0.901175 0.207092 0.630972
Si Si5 0.766185 0.287684 0.369065
Si Si6 0.528831 0.289679 0.237167
Si Si7 0.665384 0.205608 0.500880
Si Si8 0.804270 0.212239 0.763816
O O1 0.348513 0.242737 0.942126
O O2 0.431282 0.000000 0.012408
O O3 0.500000 0.278574 0.000000
O O4 0.406503 0.278570 0.062045
O O5 0.303853 0.722703 0.116403
O O6 0.212331 0.726519 0.178921
O O7 0.227765 0.000000 0.123193
O O8 0.870633 0.500000 0.103636
O O9 0.954306 0.726388 0.180808
O O10 0.817288 0.264523 0.629808
O O11 0.963847 0.270284 0.695781
O O12 0.899503 0.244178 0.564588
O O13 0.901267 0.000000 0.635356
O O14 0.768929 0.500000 0.369221
O O15 0.830245 0.226107 0.433933
O O16 0.758825 0.231749 0.302537
O O17 0.526368 0.500000 0.235656
O O18 0.609226 0.237317 0.230719
O O19 0.750000 0.250000 0.500000
O O20 0.661113 0.000000 0.503473
O O21 0.803812 0.000000 0.763940
#
# Coordination Sequence:
#
# PCOD9191662 Si02
#       8
#     8   8   8   8   8   8   8   8
#     4  10  21  36  52  70  96 127 152 181 226 274
#     4  10  20  33  51  73  94 119 153 192 228 265
#     4  10  21  34  47  69  98 122 149 188 231 271
#     4   8  14  24  37  57  85 113 145 185 226 268
#     4   7  11  20  35  56  83 112 141 178 223 267
#     4   9  17  30  49  69  89 120 158 191 227 274
#     4   9  14  20  33  55  84 117 148 180 224 272
#     4   8  14  27  46  67  90 116 151 193 231 266
#
# _framework density 20.278552999999999
#
# number of rings (size 3 to 8) (size 9 to 14) (size 15 to 20)
#    0.000    3.125    0.000    3.750    0.000    1.750 
#    0.000    0.000    0.000    3.750    0.000    0.875 
#    0.000    7.000    0.000    0.000    0.000    0.000 
#
# Total GULP energy -178210.573871 kJ/mol
# GULP energy per Si atom -5569.080433 kJ/mol
# Density = 2.023240 g / cm^3
# Si number density = 20.278553 Si / 1000 Ang^3
#
#
#
# Elastic Constant Matrix: (Units=GPa)
#
#
# Indices 1 2 3 4 5 6 
#
# 1 88.5667 -0.2878 77.6793 0.0000 7.8231 0.0000
# 2 -0.2878 22.5287 -13.7061 0.0000 1.4631 0.0000
# 3 77.6793 -13.7061 221.6100 0.0000 10.8608 0.0000
# 4 0.0000 0.0000 0.0000 23.3964 0.0000 6.7008
# 5 7.8231 1.4631 10.8608 0.0000 -11.9181 0.0000
# 6 0.0000 0.0000 0.0000 6.7008 0.0000 -3.2866
#
#
#
# Elastic Compliance Matrix: (Units=1/GPa)
#
#
# Indices 1 2 3 4 5 6 
#
# 1 0.016285 -0.003845 -0.006171 0.000000 0.004594 0.000000
# 2 -0.003845 0.046265 0.003881 0.000000 0.006693 0.000000
# 3 -0.006171 0.003881 0.006788 0.000000 0.002611 0.000000
# 4 0.000000 0.000000 0.000000 0.026985 0.000000 0.055017
# 5 0.004594 0.006693 0.002611 0.000000 -0.077689 0.000000
# 6 0.000000 0.000000 0.000000 0.055017 0.000000 -0.192097
#
#
# Mechanical properties :
#
#
# Convention : Reuss Voigt Hill
#
# Bulk Modulus (GPa) = 17.52286 51.11958 34.32122
# Shear Modulus (GPa) = -35.16896 19.57302 -7.79797
#
# Velocity S-wave (km/s) = -4.16900 3.11015 -1.96310
# Velocity P-wave (km/s) = 3.80976 6.17744 3.43850
#
# Compressibility (1/GPa) = 0.05706831
#
# Stress axis : x y z
#
# Youngs Moduli (GPa) = 61.40495 21.61446 147.32564
#
# Poissons Ratio (x) = 0.08310 0.90919
# Poissons Ratio (y) = 0.23609 -0.57179
# Poissons Ratio (z) = 0.37895 -0.08389
#
# Static dielectric constant tensor:
#      x y z
#    x 1.684380 0.000000 -0.025470 
#    y 0.000000 1.680930 0.000000 
#    z -0.025470 0.000000 1.773890 
# 
# From -- ./inp_files/345591.got.cif
#   From: 2010.05.17/outbox.cif.g08.bks.cpg/sg12_173_cif.got.tgz:345591.got - 2010.06.03 13:09:07.
