data_PCOD9191689
_publ_section_title
;
Structure prediction by ZEFSAII (Michael W. Deem and Ramdas Pophale) SiO2 
 PCOD9191689
Probable space group: C 2/M
;
_chemical_formula_sum "Si O2"
_cell_formula_units_Z 64
_cell_length_a 25.691268
_cell_length_b 8.829657
_cell_length_c 24.192038
_cell_angle_alpha 90.000000
_cell_angle_beta 46.779096
_cell_angle_gamma 90.000000
_cell_volume 3999.095894
_symmetry_space_group_name_H-M "C 2/M"
_symmetry_group_IT_number 12
_symmetry_cell_setting 'monoclinic'
loop_
_space_group_symop_operation_xyz
x,y,z
-x,y,-z
-x,-y,-z
x,-y,z
1/2+x,1/2+y,z
1/2-x,1/2+y,-z
1/2-x,1/2-y,-z
1/2+x,1/2-y,z
loop_
_atom_site_type_symbol
_atom_site_label
_atom_site_fract_x
_atom_site_fract_y
_atom_site_fract_z
Si Si1 0.803897 0.182004 0.835508
Si Si2 0.166964 0.681348 0.419156
Si Si3 0.129521 0.818442 0.330148
Si Si4 0.021844 0.317722 0.591115
Si Si5 0.279341 0.817687 0.421357
Si Si6 0.556329 0.818058 0.692301
Si Si7 0.421040 0.318263 0.843130
Si Si8 0.801826 0.181450 0.009223
O O1 0.827276 0.223562 0.756888
O O2 0.867588 0.227486 0.831657
O O3 0.730518 0.254331 0.910777
O O4 0.797863 0.000000 0.843537
O O5 0.174697 0.500000 0.414033
O O6 0.161987 0.743341 0.360919
O O7 0.092103 0.717823 0.504381
O O8 0.230441 0.756012 0.407762
O O9 0.048522 0.761671 0.380763
O O10 0.130194 0.000000 0.334719
O O11 0.988384 0.500000 0.403162
O O12 0.035912 0.271781 0.644437
O O13 0.250000 0.750000 0.500000
O O14 0.362324 0.772606 0.354827
O O15 0.275778 0.000000 0.426561
O O16 0.497495 0.753009 0.776357
O O17 0.553396 0.000000 0.695928
O O18 0.426987 0.500000 0.836671
O O19 0.380649 0.277624 0.929603
O O20 0.796244 0.000000 0.012862
O O21 0.750000 0.250000 0.000000
#
# Coordination Sequence:
#
# PCOD9191689 Si02
#       8
#     8   8   8   8   8   8   8   8
#     4   9  18  31  46  69 102 134 167 203 244 297
#     4  11  23  39  54  73 100 135 176 217 258 303
#     4  11  22  35  51  76 105 136 174 213 252 302
#     4  10  20  35  51  72 103 136 171 211 253 302
#     4  11  22  38  56  76 100 131 172 217 260 303
#     4  10  20  33  51  75 101 132 170 208 253 302
#     4   9  17  30  46  71 102 131 165 206 246 296
#     4   9  17  28  44  68  99 132 166 201 243 296
#
# _framework density 16.003617999999999
#
# number of rings (size 3 to 8) (size 9 to 14) (size 15 to 20)
#    0.000    2.000    2.500    2.625    0.000    7.000 
#    0.000    0.000    0.000    0.000    0.000    0.875 
#    0.000    7.000    0.000    0.000    0.000    0.000 
#
# Total GULP energy -178520.629574 kJ/mol
# GULP energy per Si atom -5578.769674 kJ/mol
# Density = 1.596719 g / cm^3
# Si number density = 16.003618 Si / 1000 Ang^3
#
#
#
# Elastic Constant Matrix: (Units=GPa)
#
#
# Indices 1 2 3 4 5 6 
#
# 1 109.5786 36.6699 69.1191 0.0003 -5.3032 -0.0001
# 2 36.6699 33.1356 42.9104 0.0009 -6.1356 0.0016
# 3 69.1191 42.9104 132.0283 0.0001 -24.5795 -0.0001
# 4 0.0003 0.0009 0.0001 30.7879 -0.0002 -1.7521
# 5 -5.3032 -6.1356 -24.5795 -0.0002 17.1998 0.0002
# 6 -0.0001 0.0016 -0.0001 -1.7521 0.0002 24.3326
#
#
#
# Elastic Compliance Matrix: (Units=1/GPa)
#
#
# Indices 1 2 3 4 5 6 
#
# 1 0.016724 -0.011577 -0.006542 0.000000 -0.008322 0.000001
# 2 -0.011577 0.060875 -0.014097 -0.000002 -0.001999 -0.000004
# 3 -0.006542 -0.014097 0.019441 0.000001 0.020737 0.000001
# 4 0.000000 -0.000002 0.000001 0.032614 0.000000 0.002348
# 5 -0.008322 -0.001999 0.020737 0.000000 0.084496 0.000000
# 6 0.000001 -0.000004 0.000001 0.002348 0.000000 0.041266
#
#
# Mechanical properties :
#
#
# Convention : Reuss Voigt Hill
#
# Bulk Modulus (GPa) = 30.66564 63.57125 47.11845
# Shear Modulus (GPa) = 15.11871 22.86693 18.99282
#
# Velocity S-wave (km/s) = 3.07694 3.78413 3.44871
# Velocity P-wave (km/s) = 5.64152 7.67477 6.73531
#
# Compressibility (1/GPa) = 0.03260978
#
# Stress axis : x y z
#
# Youngs Moduli (GPa) = 59.79558 16.42699 51.43775
#
# Poissons Ratio (x) = 0.19017 0.33650
# Poissons Ratio (y) = 0.69223 0.72509
# Poissons Ratio (z) = 0.39118 0.23156
#
# Static dielectric constant tensor:
#      x y z
#    x 1.506210 0.000000 -0.002160 
#    y 0.000000 1.534570 0.000000 
#    z -0.002160 0.000000 1.553650 
# 
# From -- ./inp_files/324145.got.cif
#   From: 2010.05.17/outbox.cif.g08.bks.cpg/sg12_163_cif.got.tgz:324145.got - 2010.06.03 13:09:07.
