data_PCOD9191638
_publ_section_title
;
Structure prediction by ZEFSAII (Michael W. Deem and Ramdas Pophale) SiO2 
 PCOD9191638
Probable space group: C 2/M
;
_chemical_formula_sum "Si O2"
_cell_formula_units_Z 64
_cell_length_a 13.793130
_cell_length_b 22.597218
_cell_length_c 9.753798
_cell_angle_alpha 90.000000
_cell_angle_beta 90.761503
_cell_angle_gamma 90.000000
_cell_volume 3039.857343
_symmetry_space_group_name_H-M "C 2/M"
_symmetry_group_IT_number 12
_symmetry_cell_setting 'monoclinic'
loop_
_space_group_symop_operation_xyz
x,y,z
-x,y,-z
-x,-y,-z
x,-y,z
1/2+x,1/2+y,z
1/2-x,1/2+y,-z
1/2-x,1/2-y,-z
1/2+x,1/2-y,z
loop_
_atom_site_type_symbol
_atom_site_label
_atom_site_fract_x
_atom_site_fract_y
_atom_site_fract_z
Si Si1 0.849545 0.716408 0.963737
Si Si2 0.606981 0.731828 0.325301
Si Si3 0.410714 0.567821 0.307497
Si Si4 0.105905 0.931163 0.154818
Si Si5 0.401644 0.256553 0.242394
Si Si6 0.693159 0.610255 0.425603
Si Si7 0.201971 0.870151 0.895008
Si Si8 0.385574 0.836917 0.475150
O O1 0.881515 0.752382 0.832704
O O2 0.810907 0.650542 0.931436
O O3 0.750000 0.750000 0.000000
O O4 0.916865 0.724327 0.096456
O O5 0.492434 0.721275 0.332424
O O6 0.664091 0.676448 0.380705
O O7 0.637280 0.790628 0.404993
O O8 0.435219 0.500000 0.332928
O O9 0.502415 0.589796 0.217025
O O10 0.379653 0.593596 0.453153
O O11 0.317718 0.576058 0.207475
O O12 0.175631 0.927580 0.288385
O O13 0.097751 0.000000 0.107669
O O14 0.145241 0.888553 0.034130
O O15 0.342152 0.314970 0.196464
O O16 0.367444 0.202590 0.337832
O O17 0.805299 0.612001 0.473206
O O18 0.500000 0.852527 0.500000
#
# Coordination Sequence:
#
# PCOD9191638 Si02
#       8
#     8   8   8   8   8   8   8   8
#     4  10  20  33  50  79 112 144 185 226 264 323
#     4  11  21  34  54  82 115 148 182 224 273 334
#     4  11  24  39  56  82 114 147 190 241 285 330
#     4  11  24  39  56  81 112 147 191 240 284 330
#     4  10  20  35  53  81 115 148 184 224 271 329
#     4  12  21  37  60  82 111 151 190 228 285 340
#     4  11  20  35  57  79 110 154 190 224 277 334
#     4  10  22  38  57  84 116 145 182 230 278 335
#
# _framework density 21.053619999999999
#
# number of rings (size 3 to 8) (size 9 to 14) (size 15 to 20)
#    0.000    1.250    0.000    8.250    0.000    6.000 
#    0.000    0.000    0.000    1.500    0.000    0.000 
#    0.000   10.000    0.000    0.000    0.000    0.000 
#
# Total GULP energy -178435.819616 kJ/mol
# GULP energy per Si atom -5576.119363 kJ/mol
# Density = 2.100570 g / cm^3
# Si number density = 21.053620 Si / 1000 Ang^3
#
#
#
# Elastic Constant Matrix: (Units=GPa)
#
#
# Indices 1 2 3 4 5 6 
#
# 1 54.9960 16.5578 3.0687 0.0000 8.2518 0.0000
# 2 16.5578 26.3996 -2.0331 0.0000 3.5034 0.0000
# 3 3.0687 -2.0331 112.0091 0.0000 3.6602 0.0000
# 4 0.0000 0.0000 0.0000 28.8700 0.0000 -3.4404
# 5 8.2518 3.5034 3.6602 0.0000 28.7281 0.0000
# 6 0.0000 0.0000 0.0000 -3.4404 0.0000 8.6321
#
#
#
# Elastic Compliance Matrix: (Units=1/GPa)
#
#
# Indices 1 2 3 4 5 6 
#
# 1 0.023146 -0.013929 -0.000728 0.000000 -0.004857 0.000000
# 2 -0.013929 0.046966 0.001296 0.000000 -0.001892 0.000000
# 3 -0.000728 0.001296 0.009007 0.000000 -0.001096 0.000000
# 4 0.000000 0.000000 0.000000 0.036365 0.000000 0.014494
# 5 -0.004857 -0.001892 -0.001096 0.000000 0.036575 0.000000
# 6 0.000000 0.000000 0.000000 0.014494 0.000000 0.121624
#
#
# Mechanical properties :
#
#
# Convention : Reuss Voigt Hill
#
# Bulk Modulus (GPa) = 19.08489 25.39906 22.24198
# Shear Modulus (GPa) = 15.72965 24.96678 20.34821
#
# Velocity S-wave (km/s) = 2.73632 3.44738 3.11222
# Velocity P-wave (km/s) = 4.36667 5.28546 4.84788
#
# Compressibility (1/GPa) = 0.05239746
#
# Stress axis : x y z
#
# Youngs Moduli (GPa) = 43.20388 21.29190 111.02291
#
# Poissons Ratio (x) = 0.29657 0.08085
# Poissons Ratio (y) = 0.60177 -0.14388
# Poissons Ratio (z) = 0.03146 -0.02759
#
# Static dielectric constant tensor:
#      x y z
#    x 2.241020 0.000000 -0.067780 
#    y 0.000000 1.778870 0.000000 
#    z -0.067780 0.000000 1.829270 
# 
# From -- ./inp_files/65864.got.cif
#   From: 2010.05.17/outbox.cif.g08.bks.cpg/sg12_33_cif.got.tgz:65864.got - 2010.06.03 13:09:07.
