data_PCOD9191793
_publ_section_title
;
Structure prediction by ZEFSAII (Michael W. Deem and Ramdas Pophale) SiO2 
 PCOD9191793
Probable space group: C 2/M
;
_chemical_formula_sum "Si O2"
_cell_formula_units_Z 48
_cell_length_a 13.863120
_cell_length_b 8.983948
_cell_length_c 25.784238
_cell_angle_alpha 90.000000
_cell_angle_beta 38.003690
_cell_angle_gamma 90.000000
_cell_volume 1977.244104
_symmetry_space_group_name_H-M "C 2/M"
_symmetry_group_IT_number 12
_symmetry_cell_setting 'monoclinic'
loop_
_space_group_symop_operation_xyz
x,y,z
-x,y,-z
-x,-y,-z
x,-y,z
1/2+x,1/2+y,z
1/2-x,1/2+y,-z
1/2-x,1/2-y,-z
1/2+x,1/2-y,z
loop_
_atom_site_type_symbol
_atom_site_label
_atom_site_fract_x
_atom_site_fract_y
_atom_site_fract_z
Si Si1 0.078695 0.164351 0.234776
Si Si2 0.302137 0.169413 0.396836
Si Si3 0.021504 0.669015 0.565187
Si Si4 0.751174 0.833907 0.727956
Si Si5 0.290125 0.672206 0.066506
Si Si6 0.539250 0.676185 0.102249
O O1 0.142009 0.152012 0.265961
O O2 0.222251 0.226761 0.140610
O O3 0.927777 0.270063 0.301999
O O4 0.033858 0.000000 0.235083
O O5 0.152200 0.272031 0.470405
O O6 0.393102 0.168660 0.414215
O O7 0.256434 0.000000 0.405593
O O8 0.975003 0.500000 0.574002
O O9 0.870732 0.773896 0.634460
O O10 0.621728 0.715841 0.801235
O O11 0.687822 0.000000 0.743885
O O12 0.289158 0.500000 0.082694
O O13 0.157723 0.708279 0.079090
O O14 0.446881 0.701495 0.966015
O O15 0.577890 0.500000 0.092672
#
# Coordination Sequence:
#
# PCOD9191793 Si02
#       6
#     8   8   8   8   8   8
#     4  10  20  33  51  77 107 137 171 212 256 300
#     4   9  16  27  45  70 101 135 170 208 251 299
#     4   9  16  27  45  70 101 135 170 208 251 299
#     4  10  20  33  51  77 107 137 171 212 256 300
#     4  10  21  37  56  76 100 133 172 212 256 308
#     4  10  21  37  56  76 100 133 172 212 256 308
#
# _framework density 24.276214
#
# number of rings (size 3 to 8) (size 9 to 14) (size 15 to 20)
#    0.000    2.333    0.000    3.000    0.000    8.667 
#    0.000    3.333    0.000    1.000    0.000    7.000 
#    0.000    0.000    0.000    0.000    0.000    0.000 
#
# Total GULP energy -134165.460585 kJ/mol
# GULP energy per Si atom -5590.227524 kJ/mol
# Density = 2.422096 g / cm^3
# Si number density = 24.276214 Si / 1000 Ang^3
#
#
#
# Elastic Constant Matrix: (Units=GPa)
#
#
# Indices 1 2 3 4 5 6 
#
# 1 33.3262 -4.8090 10.1426 0.0000 13.2490 0.0000
# 2 -4.8090 141.9847 59.6524 0.0000 1.8330 0.0000
# 3 10.1426 59.6524 154.1865 0.0000 10.9932 0.0000
# 4 0.0000 0.0000 0.0000 40.5716 0.0000 -8.1780
# 5 13.2490 1.8330 10.9932 0.0000 44.1492 0.0000
# 6 0.0000 0.0000 0.0000 -8.1780 0.0000 20.4902
#
#
#
# Elastic Compliance Matrix: (Units=1/GPa)
#
#
# Indices 1 2 3 4 5 6 
#
# 1 0.035091 0.002374 -0.002513 0.000000 -0.010003 0.000000
# 2 0.002374 0.008580 -0.003461 0.000000 -0.000207 0.000000
# 3 -0.002513 -0.003461 0.008069 0.000000 -0.001111 0.000000
# 4 0.000000 0.000000 0.000000 0.026804 0.000000 0.010698
# 5 -0.010003 -0.000207 -0.001111 0.000000 0.025938 0.000000
# 6 0.000000 0.000000 0.000000 0.010698 0.000000 0.053073
#
#
# Mechanical properties :
#
#
# Convention : Reuss Voigt Hill
#
# Bulk Modulus (GPa) = 22.45242 51.05216 36.75229
# Shear Modulus (GPa) = 27.83916 38.67630 33.25773
#
# Velocity S-wave (km/s) = 3.39007 3.99579 3.70533
# Velocity P-wave (km/s) = 4.95906 6.50875 5.78602
#
# Compressibility (1/GPa) = 0.04453863
#
# Stress axis : x y z
#
# Youngs Moduli (GPa) = 28.49754 116.54856 123.92811
#
# Poissons Ratio (x) = -0.27664 0.31148
# Poissons Ratio (y) = -0.06764 0.42890
# Poissons Ratio (z) = 0.07163 0.40336
#
# Static dielectric constant tensor:
#      x y z
#    x 2.049350 0.000000 0.039130 
#    y 0.000000 1.916240 0.000000 
#    z 0.039130 0.000000 1.930750 
# 
# From -- ./inp_files/80846.got.cif
#   From: 2010.05.17/outbox.cif.g08.bks.cpg/sg12_41_cif.got.tgz:80846.got - 2010.06.03 13:09:07.
