data_PCOD9191412
_publ_section_title
;
Structure prediction by ZEFSAII (Michael W. Deem and Ramdas Pophale) SiO2 
 PCOD9191412
Probable space group: C 2/M
;
_chemical_formula_sum "Si O2"
_cell_formula_units_Z 56
_cell_length_a 19.478502
_cell_length_b 8.842137
_cell_length_c 20.076825
_cell_angle_alpha 90.000000
_cell_angle_beta 58.720906
_cell_angle_gamma 90.000000
_cell_volume 2955.257159
_symmetry_space_group_name_H-M "C 2/M"
_symmetry_group_IT_number 12
_symmetry_cell_setting 'monoclinic'
loop_
_space_group_symop_operation_xyz
x,y,z
-x,y,-z
-x,-y,-z
x,-y,z
1/2+x,1/2+y,z
1/2-x,1/2+y,-z
1/2-x,1/2-y,-z
1/2+x,1/2-y,z
loop_
_atom_site_type_symbol
_atom_site_label
_atom_site_fract_x
_atom_site_fract_y
_atom_site_fract_z
Si Si1 0.182358 0.819154 0.581000
Si Si2 0.013308 0.320164 0.671197
Si Si3 0.163861 0.684840 0.246307
Si Si4 0.307477 0.318137 0.269417
Si Si5 0.920747 0.320788 0.995508
Si Si6 0.024437 0.678829 0.823473
Si Si7 0.755774 0.179787 0.070475
O O1 0.250000 0.750000 0.500000
O O2 0.093223 0.762710 0.606733
O O3 0.197239 0.771451 0.650578
O O4 0.185284 0.000000 0.576824
O O5 0.022110 0.500000 0.654546
O O6 0.009657 0.297449 0.752998
O O7 0.926308 0.267548 0.689687
O O8 0.162811 0.500000 0.246393
O O9 0.231982 0.734238 0.263954
O O10 0.191139 0.731370 0.158249
O O11 0.308574 0.500000 0.267003
O O12 0.392555 0.259105 0.199782
O O13 0.900502 0.500000 0.007070
O O14 0.949846 0.275953 0.906766
O O15 0.843367 0.225815 0.054024
O O16 0.000000 0.298939 0.000000
O O17 0.035392 0.500000 0.829397
O O18 0.748436 0.000000 0.067973
O O19 0.750000 0.250000 0.000000
#
# Coordination Sequence:
#
# PCOD9191412 Si02
#       7
#     8   8   8   8   8   8   8
#     4  10  20  35  56  81 106 130 160 199 244 299
#     4   9  17  32  54  74  96 130 167 202 245 297
#     4   9  18  34  54  75 101 134 172 214 258 302
#     4   9  18  33  54  78 101 129 170 214 251 296
#     4  10  20  33  49  72 103 137 176 223 271 316
#     4   9  17  30  48  70  98 133 170 208 255 307
#     4  11  22  35  52  74 104 142 182 223 267 314
#
# _framework density 18.949280999999999
#
# number of rings (size 3 to 8) (size 9 to 14) (size 15 to 20)
#    0.000    2.429    0.000    2.571    0.000    3.714 
#    0.000    6.429    0.000    4.286    0.000    0.000 
#    0.000    0.000    0.000    0.000    0.000    0.000 
#
# Total GULP energy -156241.064205 kJ/mol
# GULP energy per Si atom -5580.038007 kJ/mol
# Density = 1.890615 g / cm^3
# Si number density = 18.949281 Si / 1000 Ang^3
#
#
#
# Elastic Constant Matrix: (Units=GPa)
#
#
# Indices 1 2 3 4 5 6 
#
# 1 100.0738 17.9483 23.6571 -0.0001 -21.3261 0.0000
# 2 17.9483 8.9177 13.0190 -0.0002 -7.6862 -0.0002
# 3 23.6571 13.0190 78.7833 0.0000 -27.0256 0.0000
# 4 -0.0001 -0.0002 0.0000 22.2783 0.0000 -5.3829
# 5 -21.3261 -7.6862 -27.0256 0.0000 27.8585 0.0000
# 6 0.0000 -0.0002 0.0000 -5.3829 0.0000 27.4967
#
#
#
# Elastic Compliance Matrix: (Units=1/GPa)
#
#
# Indices 1 2 3 4 5 6 
#
# 1 0.016302 -0.030854 0.002344 0.000000 0.006241 0.000000
# 2 -0.030854 0.219467 -0.021482 0.000002 0.016092 0.000002
# 3 0.002344 -0.021482 0.021165 0.000000 0.016400 0.000000
# 4 0.000000 0.000002 0.000000 0.047115 0.000000 0.009224
# 5 0.006241 0.016092 0.016400 0.000000 0.061023 0.000000
# 6 0.000000 0.000002 0.000000 0.009224 0.000000 0.038174
#
#
# Mechanical properties :
#
#
# Convention : Reuss Voigt Hill
#
# Bulk Modulus (GPa) = 6.37145 33.00265 19.68705
# Shear Modulus (GPa) = 9.00015 24.40340 16.70177
#
# Velocity S-wave (km/s) = 2.18172 3.59252 2.97205
# Velocity P-wave (km/s) = 3.11708 5.88748 4.71055
#
# Compressibility (1/GPa) = 0.15695022
#
# Stress axis : x y z
#
# Youngs Moduli (GPa) = 61.34157 4.55649 47.24845
#
# Poissons Ratio (x) = 0.14059 -0.11077
# Poissons Ratio (y) = 1.89264 1.01501
# Poissons Ratio (z) = -0.14381 0.09788
#
# Static dielectric constant tensor:
#      x y z
#    x 1.692050 0.000000 0.016320 
#    y 0.000000 1.639220 0.000000 
#    z 0.016320 0.000000 1.656220 
# 
# From -- ./inp_files/341915.got.cif
#   From: 2010.05.17/outbox.cif.g08.bks.cpg/sg12_171_cif.got.tgz:341915.got - 2010.06.03 13:09:07.
