data_PCOD9191727
_publ_section_title
;
Structure prediction by ZEFSAII (Michael W. Deem and Ramdas Pophale) SiO2 
 PCOD9191727
Probable space group: C 2/M
;
_chemical_formula_sum "Si O2"
_cell_formula_units_Z 64
_cell_length_a 29.653499
_cell_length_b 7.532329
_cell_length_c 10.962165
_cell_angle_alpha 90.000000
_cell_angle_beta 103.604929
_cell_angle_gamma 90.000000
_cell_volume 2379.804934
_symmetry_space_group_name_H-M "C 2/M"
_symmetry_group_IT_number 12
_symmetry_cell_setting 'monoclinic'
loop_
_space_group_symop_operation_xyz
x,y,z
-x,y,-z
-x,-y,-z
x,-y,z
1/2+x,1/2+y,z
1/2-x,1/2+y,-z
1/2-x,1/2-y,-z
1/2+x,1/2-y,z
loop_
_atom_site_type_symbol
_atom_site_label
_atom_site_fract_x
_atom_site_fract_y
_atom_site_fract_z
Si Si1 0.072802 0.290263 0.723469
Si Si2 0.563658 0.783077 0.455167
Si Si3 0.689713 0.210008 0.044141
Si Si4 0.842114 0.704516 0.587022
Si Si5 0.676949 0.214195 0.775507
Si Si6 0.760437 0.712104 0.681688
Si Si7 0.490096 0.701316 0.825085
Si Si8 0.397673 0.285300 0.870120
O O1 0.077856 0.500000 0.711396
O O2 0.049045 0.229782 0.581617
O O3 0.124661 0.217128 0.753511
O O4 0.040716 0.267519 0.820298
O O5 0.617552 0.725353 0.474422
O O6 0.536618 0.710357 0.322123
O O7 0.560705 0.000000 0.442334
O O8 0.716350 0.286003 0.178138
O O9 0.634767 0.234172 0.037600
O O10 0.698537 0.000000 0.049165
O O11 0.700499 0.280797 0.916520
O O12 0.835040 0.500000 0.545408
O O13 0.792143 0.785834 0.591550
O O14 0.869512 0.709846 0.735300
O O15 0.706371 0.258762 0.674027
O O16 0.675966 0.000000 0.779872
O O17 0.767405 0.500000 0.681945
O O18 0.497375 0.500000 0.865856
O O19 0.451163 0.778474 0.892130
O O20 0.398319 0.500000 0.861123
#
# Coordination Sequence:
#
# PCOD9191727 Si02
#       8
#     8   8   8   8   8   8   8   8
#     4  10  21  35  50  70  97 132 170 201 235 283
#     4   9  17  32  54  75  97 128 164 200 237 282
#     4   9  18  33  52  73  97 127 162 199 241 288
#     4   8  15  29  49  73  99 125 156 196 239 285
#     4  10  21  35  49  69  99 131 165 204 240 280
#     4   9  17  30  50  74  96 123 161 200 243 292
#     4  10  20  33  51  76 102 126 156 199 248 291
#     4   9  17  29  48  75 100 121 153 198 244 289
#
# _framework density 26.892961
#
# number of rings (size 3 to 8) (size 9 to 14) (size 15 to 20)
#    0.000    2.750    0.000    2.250    0.000    6.500 
#    0.000    1.250    0.000    3.750    0.000    0.000 
#    0.000    0.000    0.000    0.000    0.000    0.000 
#
# Total GULP energy -178807.692160 kJ/mol
# GULP energy per Si atom -5587.740380 kJ/mol
# Density = 2.683175 g / cm^3
# Si number density = 26.892961 Si / 1000 Ang^3
#
#
#
# Elastic Constant Matrix: (Units=GPa)
#
#
# Indices 1 2 3 4 5 6 
#
# 1 186.6426 -9.7296 36.0758 0.0000 -21.1004 0.0000
# 2 -9.7296 84.6145 4.9757 0.0000 2.3452 0.0000
# 3 36.0758 4.9757 104.1789 0.0000 -26.3118 0.0000
# 4 0.0000 0.0000 0.0000 6.0944 0.0000 -7.2645
# 5 -21.1004 2.3452 -26.3118 0.0000 53.9252 0.0000
# 6 0.0000 0.0000 0.0000 -7.2645 0.0000 31.1675
#
#
#
# Elastic Compliance Matrix: (Units=1/GPa)
#
#
# Indices 1 2 3 4 5 6 
#
# 1 0.005890 0.000738 -0.001712 0.000000 0.001437 0.000000
# 2 0.000738 0.011983 -0.001011 0.000000 -0.000726 0.000000
# 3 -0.001712 -0.001011 0.011499 0.000000 0.004985 0.000000
# 4 0.000000 0.000000 0.000000 0.227210 0.000000 0.052958
# 5 0.001437 -0.000726 0.004985 0.000000 0.021570 0.000000
# 6 0.000000 0.000000 0.000000 0.052958 0.000000 0.044428
#
#
# Mechanical properties :
#
#
# Convention : Reuss Voigt Hill
#
# Bulk Modulus (GPa) = 39.36765 48.67553 44.02159
# Shear Modulus (GPa) = 14.92464 41.17837 28.05150
#
# Velocity S-wave (km/s) = 2.35832 3.91729 3.23318
# Velocity P-wave (km/s) = 4.69958 6.21283 5.50842
#
# Compressibility (1/GPa) = 0.02540156
#
# Stress axis : x y z
#
# Youngs Moduli (GPa) = 169.78916 83.45332 86.96463
#
# Poissons Ratio (x) = -0.06159 0.14886
# Poissons Ratio (y) = -0.12531 0.08794
# Poissons Ratio (z) = 0.29064 0.08439
#
# Static dielectric constant tensor:
#      x y z
#    x 2.196950 0.000000 0.052360 
#    y 0.000000 2.037580 0.000000 
#    z 0.052360 0.000000 2.132530 
# 
# From -- ./inp_files/244071.got.cif
#   From: 2010.05.17/outbox.cif.g08.bks.cpg/sg12_123_cif.got.tgz:244071.got - 2010.06.03 13:09:07.
