data_PCOD9191070
_publ_section_title
;
Structure prediction by ZEFSAII (Michael W. Deem and Ramdas Pophale) SiO2 
 PCOD9191070
Probable space group: C 2/M
;
_chemical_formula_sum "Si O2"
_cell_formula_units_Z 56
_cell_length_a 30.087064
_cell_length_b 7.581316
_cell_length_c 19.579031
_cell_angle_alpha 90.000000
_cell_angle_beta 141.088072
_cell_angle_gamma 90.000000
_cell_volume 2805.186396
_symmetry_space_group_name_H-M "C 2/M"
_symmetry_group_IT_number 12
_symmetry_cell_setting 'monoclinic'
loop_
_space_group_symop_operation_xyz
x,y,z
-x,y,-z
-x,-y,-z
x,-y,z
1/2+x,1/2+y,z
1/2-x,1/2+y,-z
1/2-x,1/2-y,-z
1/2+x,1/2-y,z
loop_
_atom_site_type_symbol
_atom_site_label
_atom_site_fract_x
_atom_site_fract_y
_atom_site_fract_z
Si Si1 0.400941 0.210084 0.146592
Si Si2 0.187483 0.714248 0.087495
Si Si3 0.558276 0.787487 0.278860
Si Si4 0.658329 0.296093 0.684904
Si Si5 0.607148 0.800106 0.482400
Si Si6 0.399266 0.500000 0.935231
Si Si7 0.955219 0.798673 0.351454
Si Si8 0.564198 0.500000 0.174564
O O1 0.475720 0.249539 0.198383
O O2 0.403964 0.296866 0.224214
O O3 0.399234 0.000000 0.155728
O O4 0.338429 0.256718 0.020160
O O5 0.180835 0.500000 0.088751
O O6 0.267458 0.772079 0.198811
O O7 0.137587 0.826308 0.077717
O O8 0.601700 0.730897 0.398686
O O9 0.578456 0.671893 0.238023
O O10 0.565018 0.000000 0.278040
O O11 0.656319 0.500000 0.703643
O O12 0.651912 0.287332 0.595799
O O13 0.588710 0.219565 0.638326
O O14 0.526106 0.797130 0.412447
O O15 0.632087 0.000000 0.507644
O O16 0.395350 0.500000 0.848678
O O17 0.481032 0.500000 0.055806
O O18 0.978020 0.000000 0.393482
#
# Coordination Sequence:
#
# PCOD9191070 Si02
#       8
#     8   8   8   8   8   4   8   4
#     4   9  18  33  53  77 111 151 186 225 281 328
#     4  10  22  40  57  78 117 154 188 229 278 341
#     4   9  19  35  56  86 116 145 181 227 285 337
#     4  10  22  37  52  78 109 154 197 230 279 329
#     4  10  21  34  53  82 110 147 192 237 280 325
#     4  11  24  38  60  96 112 142 185 223 286 349
#     4  10  20  32  52  80 113 146 191 244 278 318
#     4  11  22  36  64  94 116 135 182 230 281 353
#
# _framework density 19.963021000000001
#
# number of rings (size 3 to 8) (size 9 to 14) (size 15 to 20)
#    0.000    2.143    1.429    2.143    7.000    4.000 
#    0.000    1.429    0.000    0.857    0.000    0.000 
#    0.000    0.000    0.000    0.000    0.000    0.000 
#
# Total GULP energy -156222.529129 kJ/mol
# GULP energy per Si atom -5579.376040 kJ/mol
# Density = 1.991758 g / cm^3
# Si number density = 19.963021 Si / 1000 Ang^3
#
#
#
# Elastic Constant Matrix: (Units=GPa)
#
#
# Indices 1 2 3 4 5 6 
#
# 1 41.2471 13.2274 11.8550 0.0000 -31.0920 0.0000
# 2 13.2274 55.8646 3.7250 0.0000 -13.2446 0.0000
# 3 11.8550 3.7250 97.9252 0.0000 -29.7483 0.0000
# 4 0.0000 0.0000 0.0000 33.7171 0.0000 -24.1491
# 5 -31.0920 -13.2446 -29.7483 0.0000 33.7475 0.0000
# 6 0.0000 0.0000 0.0000 -24.1491 0.0000 57.1562
#
#
#
# Elastic Compliance Matrix: (Units=1/GPa)
#
#
# Indices 1 2 3 4 5 6 
#
# 1 0.108478 0.001524 0.023698 0.000000 0.121430 0.000000
# 2 0.001524 0.020108 0.002560 0.000000 0.011552 0.000000
# 3 0.023698 0.002560 0.019371 0.000000 0.039913 0.000000
# 4 0.000000 0.000000 0.000000 0.042528 0.000000 0.017969
# 5 0.121430 0.011552 0.039913 0.000000 0.181224 0.000000
# 6 0.000000 0.000000 0.000000 0.017969 0.000000 0.025088
#
#
# Mechanical properties :
#
#
# Convention : Reuss Voigt Hill
#
# Bulk Modulus (GPa) = 4.91350 28.07240 16.49295
# Shear Modulus (GPa) = 12.22277 36.00614 24.11446
#
# Velocity S-wave (km/s) = 2.47709 4.25154 3.47934
# Velocity P-wave (km/s) = 3.26312 6.18009 4.94173
#
# Compressibility (1/GPa) = 0.20352075
#
# Stress axis : x y z
#
# Youngs Moduli (GPa) = 9.21844 49.73215 51.62456
#
# Poissons Ratio (x) = -0.07579 -1.22341
# Poissons Ratio (y) = -0.01405 -0.13216
# Poissons Ratio (z) = -0.21846 -0.12731
#
# Static dielectric constant tensor:
#      x y z
#    x 1.682760 0.000000 -0.006900 
#    y 0.000000 1.709670 0.000000 
#    z -0.006900 0.000000 1.734620 
# 
# From -- ./inp_files/292634.got.cif
#   From: 2010.05.17/outbox.cif.g08.bks.cpg/sg12_147_cif.got.tgz:292634.got - 2010.06.03 13:09:07.
