data_PCOD9191543
_publ_section_title
;
Structure prediction by ZEFSAII (Michael W. Deem and Ramdas Pophale) SiO2 
 PCOD9191543
Probable space group: C 2/M
;
_chemical_formula_sum "Si O2"
_cell_formula_units_Z 56
_cell_length_a 14.324613
_cell_length_b 9.557628
_cell_length_c 28.753842
_cell_angle_alpha 90.000000
_cell_angle_beta 55.291133
_cell_angle_gamma 90.000000
_cell_volume 3236.162115
_symmetry_space_group_name_H-M "C 2/M"
_symmetry_group_IT_number 12
_symmetry_cell_setting 'monoclinic'
loop_
_space_group_symop_operation_xyz
x,y,z
-x,y,-z
-x,-y,-z
x,-y,z
1/2+x,1/2+y,z
1/2-x,1/2+y,-z
1/2-x,1/2-y,-z
1/2+x,1/2-y,z
loop_
_atom_site_type_symbol
_atom_site_label
_atom_site_fract_x
_atom_site_fract_y
_atom_site_fract_z
Si Si1 0.317128 0.665500 0.140392
Si Si2 0.765927 0.336531 0.068817
Si Si3 0.510251 0.833977 0.637706
Si Si4 0.746946 0.334302 0.736845
Si Si5 0.042461 0.166361 0.436955
Si Si6 0.694963 0.166391 0.662043
Si Si7 0.919711 0.838735 0.958346
O O1 0.291282 0.500000 0.142843
O O2 0.250495 0.755565 0.121352
O O3 0.291421 0.706354 0.200633
O O4 0.450105 0.685467 0.091269
O O5 0.788628 0.500000 0.070013
O O6 0.657313 0.323447 0.065848
O O7 0.868386 0.263508 0.011446
O O8 0.382444 0.812589 0.693061
O O9 0.517568 0.749627 0.587617
O O10 0.602086 0.790952 0.650212
O O11 0.524817 0.000000 0.624924
O O12 0.724705 0.500000 0.737319
O O13 0.687361 0.248882 0.712580
O O14 0.177715 0.190329 0.393489
O O15 0.000000 0.208302 0.500000
O O16 0.022420 0.000000 0.437201
O O17 0.682131 0.000000 0.673882
O O18 0.907080 0.000000 0.978380
#
# Coordination Sequence:
#
# PCOD9191543 Si02
#       7
#     8   8   8   8   8   8   8
#     4  10  20  34  51  70  95 127 158 191 237 287
#     4  10  20  33  50  73  97 121 155 197 236 279
#     4   9  18  33  51  71  97 128 160 196 239 281
#     4   9  19  34  50  70  95 124 161 199 233 279
#     4   9  18  32  49  72 101 129 160 197 234 278
#     4   9  18  33  51  70  96 129 160 195 240 281
#     4   9  19  35  51  68  95 128 156 187 235 290
#
# _framework density 17.304448000000001
#
# number of rings (size 3 to 8) (size 9 to 14) (size 15 to 20)
#    0.000    2.714    0.000    0.857    0.000    6.000 
#    0.000    0.000    0.000    0.000    0.000    0.000 
#    0.000    0.000    0.000    0.000    0.000    0.000 
#
# Total GULP energy -156190.719438 kJ/mol
# GULP energy per Si atom -5578.239980 kJ/mol
# Density = 1.726506 g / cm^3
# Si number density = 17.304448 Si / 1000 Ang^3
#
#
#
# Elastic Constant Matrix: (Units=GPa)
#
#
# Indices 1 2 3 4 5 6 
#
# 1 103.8274 53.5518 49.9104 0.0000 36.6644 0.0000
# 2 53.5518 52.8462 55.2630 0.0000 23.1364 0.0000
# 3 49.9104 55.2630 106.0134 0.0000 40.3682 0.0000
# 4 0.0000 0.0000 0.0000 30.5365 0.0000 11.7243
# 5 36.6644 23.1364 40.3682 0.0000 24.6795 0.0000
# 6 0.0000 0.0000 0.0000 11.7243 0.0000 25.8989
#
#
#
# Elastic Compliance Matrix: (Units=1/GPa)
#
#
# Indices 1 2 3 4 5 6 
#
# 1 0.042978 -0.042970 0.029535 0.000000 -0.071877 0.000000
# 2 -0.042970 0.085392 -0.048015 0.000000 0.062321 0.000000
# 3 0.029535 -0.048015 0.053360 0.000000 -0.086147 0.000000
# 4 0.000000 0.000000 0.000000 0.039637 0.000000 -0.017943
# 5 -0.071877 0.062321 -0.086147 0.000000 0.229787 0.000000
# 6 0.000000 0.000000 0.000000 -0.017943 0.000000 0.046735
#
#
# Mechanical properties :
#
#
# Convention : Reuss Voigt Hill
#
# Bulk Modulus (GPa) = 16.99746 64.45971 40.72859
# Shear Modulus (GPa) = 7.80763 23.15379 15.48071
#
# Velocity S-wave (km/s) = 2.12643 3.66187 2.99425
# Velocity P-wave (km/s) = 3.98408 7.43036 5.96168
#
# Compressibility (1/GPa) = 0.05883232
#
# Stress axis : x y z
#
# Youngs Moduli (GPa) = 23.26754 11.71066 18.74047
#
# Poissons Ratio (x) = 0.50321 -0.55350
# Poissons Ratio (y) = 0.99981 0.89982
# Poissons Ratio (z) = -0.68721 0.56228
#
# Static dielectric constant tensor:
#      x y z
#    x 1.582980 0.000000 -0.001630 
#    y 0.000000 1.580610 0.000000 
#    z -0.001630 0.000000 1.564750 
# 
# From -- ./inp_files/337840.got.cif
#   From: 2010.05.17/outbox.cif.g08.bks.cpg/sg12_169_cif.got.tgz:337840.got - 2010.06.03 13:09:07.
