data_PCOD9191531
_publ_section_title
;
Structure prediction by ZEFSAII (Michael W. Deem and Ramdas Pophale) SiO2 
 PCOD9191531
Probable space group: C 2/M
;
_chemical_formula_sum "Si O2"
_cell_formula_units_Z 56
_cell_length_a 14.226942
_cell_length_b 9.198335
_cell_length_c 20.613018
_cell_angle_alpha 90.000000
_cell_angle_beta 115.497183
_cell_angle_gamma 90.000000
_cell_volume 2434.786014
_symmetry_space_group_name_H-M "C 2/M"
_symmetry_group_IT_number 12
_symmetry_cell_setting 'monoclinic'
loop_
_space_group_symop_operation_xyz
x,y,z
-x,y,-z
-x,-y,-z
x,-y,z
1/2+x,1/2+y,z
1/2-x,1/2+y,-z
1/2-x,1/2-y,-z
1/2+x,1/2-y,z
loop_
_atom_site_type_symbol
_atom_site_label
_atom_site_fract_x
_atom_site_fract_y
_atom_site_fract_z
Si Si1 0.123132 0.834569 0.016690
Si Si2 0.018560 0.170746 0.737216
Si Si3 0.695399 0.827248 0.302024
Si Si4 0.428087 0.166819 0.123441
Si Si5 0.325028 0.165575 0.844667
Si Si6 0.019966 0.664082 0.402606
Si Si7 0.171822 0.333484 0.555581
O O1 0.130092 0.737132 0.954707
O O2 0.152085 0.000000 0.011286
O O3 0.182109 0.771627 0.096663
O O4 0.000000 0.833710 0.000000
O O5 0.901723 0.219094 0.721686
O O6 0.022051 0.234729 0.666277
O O7 0.084661 0.245172 0.813763
O O8 0.033755 0.000000 0.742215
O O9 0.736736 0.802534 0.240632
O O10 0.761312 0.781642 0.384271
O O11 0.670243 0.000000 0.296158
O O12 0.551940 0.168665 0.140392
O O13 0.399962 0.000000 0.124912
O O14 0.302099 0.000000 0.858002
O O15 0.038396 0.500000 0.382971
O O16 0.124867 0.711888 0.471740
O O17 0.929300 0.654320 0.428386
O O18 0.215385 0.500000 0.563881
#
# Coordination Sequence:
#
# PCOD9191531 Si02
#       7
#     8   8   8   8   8   8   8
#     4   9  15  22  36  60  89 122 159 198 237 280
#     4  11  21  32  49  74 102 131 166 206 246 291
#     4  10  20  33  50  73 103 134 164 203 249 294
#     4   9  16  27  42  61  91 128 161 197 242 289
#     4   8  15  26  39  59  89 126 161 193 236 286
#     4   9  19  37  56  74  98 128 162 201 248 297
#     4   9  19  36  57  76  96 126 164 204 244 294
#
# _framework density 22.999967999999999
#
# number of rings (size 3 to 8) (size 9 to 14) (size 15 to 20)
#    0.000    2.714    0.000    4.286    0.000    7.429 
#    0.000    1.429    0.000    0.000    0.000    1.000 
#    0.000    0.000    0.000    0.000    0.000    0.000 
#
# Total GULP energy -156373.163488 kJ/mol
# GULP energy per Si atom -5584.755839 kJ/mol
# Density = 2.294762 g / cm^3
# Si number density = 22.999968 Si / 1000 Ang^3
#
#
#
# Elastic Constant Matrix: (Units=GPa)
#
#
# Indices 1 2 3 4 5 6 
#
# 1 22.6406 13.9937 38.4440 0.0000 0.5371 0.0000
# 2 13.9937 162.6377 114.5277 0.0000 -12.3674 0.0000
# 3 38.4440 114.5277 198.7996 0.0000 -11.3405 0.0000
# 4 0.0000 0.0000 0.0000 48.7528 0.0000 -4.5075
# 5 0.5371 -12.3674 -11.3405 0.0000 38.4226 0.0000
# 6 0.0000 0.0000 0.0000 -4.5075 0.0000 10.4089
#
#
#
# Elastic Compliance Matrix: (Units=1/GPa)
#
#
# Indices 1 2 3 4 5 6 
#
# 1 0.069518 0.005613 -0.016914 0.000000 -0.004157 0.000000
# 2 0.005613 0.010896 -0.007290 0.000000 0.001277 0.000000
# 3 -0.016914 -0.007290 0.012592 0.000000 0.001607 0.000000
# 4 0.000000 0.000000 0.000000 0.021367 0.000000 0.009253
# 5 -0.004157 0.001277 0.001607 0.000000 0.026970 0.000000
# 6 0.000000 0.000000 0.000000 0.009253 0.000000 0.100079
#
#
# Mechanical properties :
#
#
# Convention : Reuss Voigt Hill
#
# Bulk Modulus (GPa) = 17.91313 79.77874 48.84593
# Shear Modulus (GPa) = 16.82293 33.99104 25.40699
#
# Velocity S-wave (km/s) = 2.70744 3.84848 3.32724
# Velocity P-wave (km/s) = 4.19271 7.38306 6.00368
#
# Compressibility (1/GPa) = 0.05582498
#
# Stress axis : x y z
#
# Youngs Moduli (GPa) = 14.38468 91.77448 79.41243
#
# Poissons Ratio (x) = -0.51516 1.34322
# Poissons Ratio (y) = -0.08075 0.57891
# Poissons Ratio (z) = 0.24331 0.66903
#
# Static dielectric constant tensor:
#      x y z
#    x 1.952190 0.000000 0.029180 
#    y 0.000000 1.771290 0.000000 
#    z 0.029180 0.000000 1.883550 
# 
# From -- ./inp_files/314456.got.cif
#   From: 2010.05.17/outbox.cif.g08.bks.cpg/sg12_158_cif.got.tgz:314456.got - 2010.06.03 13:09:07.
