data_PCOD9191152
_publ_section_title
;
Structure prediction by ZEFSAII (Michael W. Deem and Ramdas Pophale) SiO2 
 PCOD9191152
Probable space group: C 2/M
;
_chemical_formula_sum "Si O2"
_cell_formula_units_Z 48
_cell_length_a 11.043488
_cell_length_b 19.356572
_cell_length_c 25.514152
_cell_angle_alpha 90.000000
_cell_angle_beta 157.746543
_cell_angle_gamma 90.000000
_cell_volume 2065.457530
_symmetry_space_group_name_H-M "C 2/M"
_symmetry_group_IT_number 12
_symmetry_cell_setting 'monoclinic'
loop_
_space_group_symop_operation_xyz
x,y,z
-x,y,-z
-x,-y,-z
x,-y,z
1/2+x,1/2+y,z
1/2-x,1/2+y,-z
1/2-x,1/2-y,-z
1/2+x,1/2-y,z
loop_
_atom_site_type_symbol
_atom_site_label
_atom_site_fract_x
_atom_site_fract_y
_atom_site_fract_z
Si Si1 0.425576 0.890611 0.409660
Si Si2 0.286319 0.385346 0.459497
Si Si3 0.765000 0.798374 0.803423
Si Si4 0.704649 0.920823 0.129778
Si Si5 0.459801 0.832264 0.126247
Si Si6 0.229255 0.732500 0.313691
O O1 0.500000 0.902510 0.500000
O O2 0.693089 0.919412 0.477300
O O3 0.400240 0.809316 0.387174
O O4 0.070417 0.919399 0.259104
O O5 0.500000 0.419848 0.500000
O O6 0.473621 0.314480 0.547590
O O7 0.941011 0.362028 0.298023
O O8 0.559395 0.751764 0.759834
O O9 0.848954 0.744157 0.787862
O O10 0.108684 0.816713 0.964988
O O11 0.634418 0.879351 0.154813
O O12 0.599444 0.000000 0.095375
O O13 0.500000 0.889165 0.000000
O O14 0.511499 0.844274 0.206773
#
# Coordination Sequence:
#
# PCOD9191152 Si02
#       6
#     8   8   8   8   8   8
#     4  12  22  37  63  92 130 170 206 262 315 381
#     4  10  21  35  53  88 131 167 196 240 328 387
#     4  10  20  32  54  90 124 158 194 253 316 378
#     4  11  26  44  62  86 122 170 218 262 308 367
#     4  11  21  35  59  86 124 161 200 256 312 382
#     4  11  21  33  55  92 127 159 197 250 324 378
#
# _framework density 23.239402999999999
#
# number of rings (size 3 to 8) (size 9 to 14) (size 15 to 20)
#    0.000    1.167    3.333    4.500    2.333    0.333 
#    0.000    0.000    0.000    2.500    0.000    9.333 
#    0.000    4.667    0.000    0.000    0.000    0.000 
#
# Total GULP energy -133625.965051 kJ/mol
# GULP energy per Si atom -5567.748544 kJ/mol
# Density = 2.318651 g / cm^3
# Si number density = 23.239403 Si / 1000 Ang^3
#
#
#
# Elastic Constant Matrix: (Units=GPa)
#
#
# Indices 1 2 3 4 5 6 
#
# 1 173.2731 12.7911 34.6074 -0.0125 13.7581 0.0029
# 2 12.7911 57.1987 6.7754 -0.0063 0.6771 0.0124
# 3 34.6074 6.7754 100.9758 -0.0479 -1.5904 0.0216
# 4 -0.0125 -0.0063 -0.0479 38.7419 0.0320 -5.1090
# 5 13.7581 0.6771 -1.5904 0.0320 44.5585 -0.0010
# 6 0.0029 0.0124 0.0216 -5.1090 -0.0010 -1.6253
#
#
#
# Elastic Compliance Matrix: (Units=1/GPa)
#
#
# Indices 1 2 3 4 5 6 
#
# 1 0.006453 -0.001162 -0.002166 -0.000002 -0.002052 -0.000020
# 2 -0.001162 0.017837 -0.000798 0.000013 0.000059 0.000084
# 3 -0.002166 -0.000798 0.010716 0.000020 0.001063 0.000068
# 4 -0.000002 0.000013 0.000020 0.018248 -0.000013 -0.057361
# 5 -0.002052 0.000059 0.001063 -0.000013 0.023113 0.000039
# 6 -0.000020 0.000084 0.000068 -0.057361 0.000039 -0.434970
#
#
# Mechanical properties :
#
#
# Convention : Reuss Voigt Hill
#
# Bulk Modulus (GPa) = 37.37765 48.86612 43.12188
# Shear Modulus (GPa) = -14.64404 34.81996 10.08796
#
# Velocity S-wave (km/s) = -2.51298 3.87501 2.08574
# Velocity P-wave (km/s) = 2.77463 6.41045 4.93925
#
# Compressibility (1/GPa) = 0.02675396
#
# Stress axis : x y z
#
# Youngs Moduli (GPa) = 154.97812 56.06463 93.31920
#
# Poissons Ratio (x) = 0.06515 0.20211
# Poissons Ratio (y) = 0.18010 0.07443
# Poissons Ratio (z) = 0.33565 0.04472
#
# Static dielectric constant tensor:
#      x y z
#    x 2.107770 -0.000010 0.020660 
#    y -0.000010 1.910280 -0.000020 
#    z 0.020660 -0.000020 1.897680 
# 
# From -- ./inp_files/359066.got.cif
#   From: 2010.05.17/outbox.cif.g08.bks.cpg/sg12_180_cif.got.tgz:359066.got - 2010.06.03 13:09:07.
