data_PCOD9191893
_publ_section_title
;
Structure prediction by ZEFSAII (Michael W. Deem and Ramdas Pophale) SiO2 
 PCOD9191893
Probable space group: C 2/M
;
_chemical_formula_sum "Si O2"
_cell_formula_units_Z 64
_cell_length_a 29.754315
_cell_length_b 7.647213
_cell_length_c 15.680203
_cell_angle_alpha 90.000000
_cell_angle_beta 59.508491
_cell_angle_gamma 90.000000
_cell_volume 3074.419440
_symmetry_space_group_name_H-M "C 2/M"
_symmetry_group_IT_number 12
_symmetry_cell_setting 'monoclinic'
loop_
_space_group_symop_operation_xyz
x,y,z
-x,y,-z
-x,-y,-z
x,-y,z
1/2+x,1/2+y,z
1/2-x,1/2+y,-z
1/2-x,1/2-y,-z
1/2+x,1/2-y,z
loop_
_atom_site_type_symbol
_atom_site_label
_atom_site_fract_x
_atom_site_fract_y
_atom_site_fract_z
Si Si1 0.395510 0.289426 0.442749
Si Si2 0.970066 0.786728 0.946023
Si Si3 0.841902 0.797156 0.662958
Si Si4 0.004580 0.786867 0.265964
Si Si5 0.352445 0.713622 0.021970
Si Si6 0.303842 0.794453 0.399030
Si Si7 0.774852 0.797086 0.241468
Si Si8 0.122617 0.213712 0.189344
O O1 0.398668 0.500000 0.446311
O O2 0.374042 0.218866 0.553302
O O3 0.453109 0.224527 0.363580
O O4 0.352923 0.254391 0.410397
O O5 0.996824 0.734154 0.831794
O O6 0.970415 0.000000 0.947264
O O7 0.909713 0.734227 0.999871
O O8 0.000000 0.723367 0.000000
O O9 0.781235 0.791188 0.697963
O O10 0.851828 0.723286 0.747629
O O11 0.857995 0.000000 0.653367
O O12 0.061552 0.734724 0.245340
O O13 0.004194 0.000000 0.268769
O O14 0.351120 0.500000 0.024095
O O15 0.308934 0.774433 0.130254
O O16 0.349987 0.770113 0.925441
O O17 0.250000 0.750000 0.500000
O O18 0.303480 0.713353 0.305006
O O19 0.304483 0.000000 0.385503
O O20 0.764185 0.000000 0.233960
O O21 0.124124 0.000000 0.185435
#
# Coordination Sequence:
#
# PCOD9191893 Si02
#       8
#     8   8   8   8   8   8   8   8
#     4  10  20  33  52  81 110 140 177 216 265 320
#     4   8  13  22  39  66 100 133 170 218 266 306
#     4  10  20  33  52  76 108 144 179 223 271 316
#     4   8  15  27  46  74 107 138 174 219 264 312
#     4   8  16  29  46  73 106 138 175 220 268 310
#     4  12  24  39  57  77 106 143 176 215 265 316
#     4  11  22  35  54  79 107 139 179 223 265 318
#     4   8  15  31  51  75 108 142 178 226 270 306
#
# _framework density 20.816939000000001
#
# number of rings (size 3 to 8) (size 9 to 14) (size 15 to 20)
#    0.000    2.625    1.250    3.000    1.750    1.000 
#    0.000    2.500    0.000    1.500    0.000   10.500 
#    0.000    0.000    0.000    0.000    0.000    0.000 
#
# Total GULP energy -178565.227437 kJ/mol
# GULP energy per Si atom -5580.163357 kJ/mol
# Density = 2.076956 g / cm^3
# Si number density = 20.816939 Si / 1000 Ang^3
#
#
#
# Elastic Constant Matrix: (Units=GPa)
#
#
# Indices 1 2 3 4 5 6 
#
# 1 24.8437 -3.5893 44.7442 0.0000 27.0942 0.0000
# 2 -3.5893 42.6775 -0.1670 0.0000 -2.0504 0.0001
# 3 44.7442 -0.1670 159.4619 0.0000 -1.8013 0.0000
# 4 0.0000 0.0000 0.0000 1.6579 0.0000 -1.3878
# 5 27.0942 -2.0504 -1.8013 0.0000 38.9717 0.0000
# 6 0.0000 0.0001 0.0000 -1.3878 0.0000 9.9195
#
#
#
# Elastic Compliance Matrix: (Units=1/GPa)
#
#
# Indices 1 2 3 4 5 6 
#
# 1 -0.135687 -0.006656 0.039148 0.000001 0.095793 0.000000
# 2 -0.006656 0.023165 0.001959 0.000000 0.005937 0.000000
# 3 0.039148 0.001959 -0.005021 0.000000 -0.027346 0.000000
# 4 0.000001 0.000000 0.000000 0.683174 -0.000001 0.095581
# 5 0.095793 0.005937 -0.027346 -0.000001 -0.041890 0.000000
# 6 0.000000 0.000000 0.000000 0.095581 0.000000 0.114183
#
#
# Mechanical properties :
#
#
# Convention : Reuss Voigt Hill
#
# Bulk Modulus (GPa) = -20.55877 34.32878 6.88500
# Shear Modulus (GPa) = 9.04472 22.50952 15.77712
#
# Velocity S-wave (km/s) = 2.08670 3.29189 2.75598
# Velocity P-wave (km/s) = 2.02279 5.56555 3.66631
#
# Compressibility (1/GPa) = -0.04864104
#
# Stress axis : x y z
#
# Youngs Moduli (GPa) = -7.36989 43.16928 -199.17994
#
# Poissons Ratio (x) = 0.28735 7.79756
# Poissons Ratio (y) = -0.04906 0.39020
# Poissons Ratio (z) = 0.28852 -0.08457
#
# Static dielectric constant tensor:
#      x y z
#    x 1.709440 0.000000 0.010790 
#    y 0.000000 1.804490 0.000000 
#    z 0.010790 0.000000 1.748460 
# 
# From -- ./inp_files/249014.got.cif
#   From: 2010.05.17/outbox.cif.g08.bks.cpg/sg12_125_cif.got.tgz:249014.got - 2010.06.03 13:09:07.
