data_PCOD9191338
_publ_section_title
;
Structure prediction by ZEFSAII (Michael W. Deem and Ramdas Pophale) SiO2 
 PCOD9191338
Probable space group: C 2/M
;
_chemical_formula_sum "Si O2"
_cell_formula_units_Z 48
_cell_length_a 22.486996
_cell_length_b 12.982760
_cell_length_c 24.758512
_cell_angle_alpha 90.000000
_cell_angle_beta 155.265615
_cell_angle_gamma 90.000000
_cell_volume 3024.317441
_symmetry_space_group_name_H-M "C 2/M"
_symmetry_group_IT_number 12
_symmetry_cell_setting 'monoclinic'
loop_
_space_group_symop_operation_xyz
x,y,z
-x,y,-z
-x,-y,-z
x,-y,z
1/2+x,1/2+y,z
1/2-x,1/2+y,-z
1/2-x,1/2-y,-z
1/2+x,1/2-y,z
loop_
_atom_site_type_symbol
_atom_site_label
_atom_site_fract_x
_atom_site_fract_y
_atom_site_fract_z
Si Si1 0.527003 0.378559 0.148280
Si Si2 0.230360 0.621195 0.851718
Si Si3 0.924696 0.877792 0.380444
Si Si4 0.330581 0.622519 0.619559
Si Si5 0.351800 0.742630 0.851719
Si Si6 0.952785 0.244721 0.619555
O O1 0.551165 0.500000 0.156428
O O2 0.578856 0.358330 0.251488
O O3 0.612282 0.310583 0.175421
O O4 0.359717 0.359717 0.999998
O O5 0.198296 0.500000 0.824578
O O6 0.290944 0.657885 0.843573
O O7 0.091362 0.688117 0.748509
O O8 0.766974 0.829776 0.251490
O O9 0.000000 0.858585 0.500000
O O10 0.008814 0.820814 0.401876
O O11 0.920824 0.000000 0.367810
O O12 0.312003 0.500000 0.598132
O O13 0.179296 0.679297 0.500001
O O14 0.408700 0.670472 0.632191
O O15 0.500000 0.780559 0.000000
#
# Coordination Sequence:
#
# PCOD9191338 Si02
#       6
#     8   8   8   8   8   8
#     4   9  17  30  49  72  96 121 150 186 228 272
#     4   9  17  30  49  72  96 121 150 186 228 272
#     4  10  20  33  49  68  92 122 155 191 229 271
#     4  10  20  33  49  68  92 122 155 191 229 271
#     4   9  17  30  49  72  96 121 150 186 228 272
#     4  10  20  33  49  68  92 122 155 191 229 271
#
# _framework density 15.87135
#
# number of rings (size 3 to 8) (size 9 to 14) (size 15 to 20)
#    0.000    2.500    0.000    2.500    0.000    3.000 
#    0.000    0.000    0.000    9.000    0.000    0.000 
#    0.000    0.000    0.000    0.000    0.000    0.000 
#
# Total GULP energy -133824.959863 kJ/mol
# GULP energy per Si atom -5576.039994 kJ/mol
# Density = 1.583523 g / cm^3
# Si number density = 15.871350 Si / 1000 Ang^3
#
#
#
# Elastic Constant Matrix: (Units=GPa)
#
#
# Indices 1 2 3 4 5 6 
#
# 1 114.4730 80.0175 89.7202 -0.0005 0.4083 0.0001
# 2 80.0175 114.7847 89.2485 -0.0035 -2.8101 -0.0001
# 3 89.7202 89.2485 127.9672 -0.0055 0.8373 -0.0009
# 4 -0.0005 -0.0035 -0.0055 24.9467 -0.0012 -2.6593
# 5 0.4083 -2.8101 0.8373 -0.0012 25.3956 0.0000
# 6 0.0001 -0.0001 -0.0009 -2.6593 0.0000 17.8853
#
#
#
# Elastic Compliance Matrix: (Units=1/GPa)
#
#
# Indices 1 2 3 4 5 6 
#
# 1 0.021862 -0.007312 -0.010223 -0.000003 -0.000823 -0.000001
# 2 -0.007312 0.021644 -0.009988 0.000001 0.002842 0.000000
# 3 -0.010223 -0.009988 0.021959 0.000003 -0.001665 0.000002
# 4 -0.000003 0.000001 0.000003 0.040731 0.000002 0.006056
# 5 -0.000823 0.002842 -0.001665 0.000002 0.039759 0.000000
# 6 -0.000001 0.000000 0.000002 0.006056 0.000000 0.056812
#
#
# Mechanical properties :
#
#
# Convention : Reuss Voigt Hill
#
# Bulk Modulus (GPa) = 95.96762 97.24412 96.60587
# Shear Modulus (GPa) = 19.13611 20.19479 19.66545
#
# Velocity S-wave (km/s) = 3.47609 3.57095 3.52384
# Velocity P-wave (km/s) = 8.75832 8.85469 8.80663
#
# Compressibility (1/GPa) = 0.01042018
#
# Stress axis : x y z
#
# Youngs Moduli (GPa) = 45.74138 46.20164 45.53985
#
# Poissons Ratio (x) = 0.33781 0.46556
# Poissons Ratio (y) = 0.33444 0.45484
# Poissons Ratio (z) = 0.46762 0.46145
#
# Static dielectric constant tensor:
#      x y z
#    x 1.502720 0.000000 -0.001310 
#    y 0.000000 1.502620 0.000000 
#    z -0.001310 0.000000 1.522060 
# 
# From -- ./inp_files/85158.got.cif
#   From: 2010.05.17/outbox.cif.g08.bks.cpg/sg12_43_cif.got.tgz:85158.got - 2010.06.03 13:09:07.
