data_PCOD9191209
_publ_section_title
;
Structure prediction by ZEFSAII (Michael W. Deem and Ramdas Pophale) SiO2 
 PCOD9191209
Probable space group: C 2/M
;
_chemical_formula_sum "Si O2"
_cell_formula_units_Z 64
_cell_length_a 12.306790
_cell_length_b 17.055524
_cell_length_c 17.562305
_cell_angle_alpha 90.000000
_cell_angle_beta 98.870946
_cell_angle_gamma 90.000000
_cell_volume 3642.211016
_symmetry_space_group_name_H-M "C 2/M"
_symmetry_group_IT_number 12
_symmetry_cell_setting 'monoclinic'
loop_
_space_group_symop_operation_xyz
x,y,z
-x,y,-z
-x,-y,-z
x,-y,z
1/2+x,1/2+y,z
1/2-x,1/2+y,-z
1/2-x,1/2-y,-z
1/2+x,1/2-y,z
loop_
_atom_site_type_symbol
_atom_site_label
_atom_site_fract_x
_atom_site_fract_y
_atom_site_fract_z
Si Si1 0.776378 0.130880 0.293829
Si Si2 0.477387 0.090273 0.752532
Si Si3 0.907383 0.913475 0.158700
Si Si4 0.686283 0.194860 0.757266
Si Si5 0.022198 0.906720 0.586405
Si Si6 0.729573 0.716231 0.915091
Si Si7 0.419474 0.911122 0.919736
Si Si8 0.382153 0.407797 0.715161
O O1 0.647217 0.112717 0.285182
O O2 0.824500 0.089919 0.222550
O O3 0.802051 0.222157 0.283600
O O4 0.853064 0.104301 0.371471
O O5 0.568428 0.152930 0.737063
O O6 0.479402 0.091386 0.844987
O O7 0.500176 0.000000 0.731158
O O8 0.874874 0.841979 0.101451
O O9 0.025654 0.901411 0.209336
O O10 0.901627 0.000000 0.123271
O O11 0.713167 0.218248 0.848135
O O12 0.776612 0.138300 0.731019
O O13 0.000000 0.874082 0.500000
O O14 0.940409 0.877038 0.644111
O O15 0.002769 0.000000 0.581697
O O16 0.830635 0.657735 0.908498
O O17 0.750000 0.750000 0.000000
O O18 0.371808 0.000000 0.921550
O O19 0.500000 0.900225 0.000000
O O20 0.357598 0.500000 0.702859
#
# Coordination Sequence:
#
# PCOD9191209 Si02
#       8
#     8   8   8   8   8   8   8   8
#     4  10  20  32  59  85 110 142 187 235 279 329
#     4  11  21  36  56  80 110 149 194 231 276 343
#     4   9  17  34  57  76  99 137 187 233 278 333
#     4  11  23  34  55  80 116 150 185 235 283 338
#     4   9  18  35  62  91 114 142 185 234 281 338
#     4  11  22  33  50  77 107 141 184 240 293 331
#     4  10  20  34  52  73 103 142 187 237 287 338
#     4   9  19  36  58  80 110 148 184 225 281 347
#
# _framework density 17.571743999999999
#
# number of rings (size 3 to 8) (size 9 to 14) (size 15 to 20)
#    0.000    2.000    2.500    3.375    5.250    1.000 
#    0.000    2.500    0.000    1.500    0.000    3.500 
#    0.000    0.000    0.000    0.000    0.000    0.000 
#
# Total GULP energy -178422.563134 kJ/mol
# GULP energy per Si atom -5575.705098 kJ/mol
# Density = 1.753175 g / cm^3
# Si number density = 17.571744 Si / 1000 Ang^3
#
#
#
# Elastic Constant Matrix: (Units=GPa)
#
#
# Indices 1 2 3 4 5 6 
#
# 1 83.7434 27.7961 11.4197 0.0000 4.7279 0.0000
# 2 27.7961 74.0178 12.5104 0.0000 -4.2569 0.0000
# 3 11.4197 12.5104 78.0739 0.0000 13.1261 0.0000
# 4 0.0000 0.0000 0.0000 12.6539 0.0000 5.7611
# 5 4.7279 -4.2569 13.1261 0.0000 13.5868 0.0000
# 6 0.0000 0.0000 0.0000 5.7611 0.0000 24.8284
#
#
#
# Elastic Compliance Matrix: (Units=1/GPa)
#
#
# Indices 1 2 3 4 5 6 
#
# 1 0.014224 -0.005721 -0.000036 0.000000 -0.006707 0.000000
# 2 -0.005721 0.016909 -0.003699 0.000000 0.010862 0.000000
# 3 -0.000036 -0.003699 0.016236 0.000000 -0.016832 0.000000
# 4 0.000000 0.000000 0.000000 0.088361 0.000000 -0.020503
# 5 -0.006707 0.010862 -0.016832 0.000000 0.095599 0.000000
# 6 0.000000 0.000000 0.000000 -0.020503 0.000000 0.045034
#
#
# Mechanical properties :
#
#
# Convention : Reuss Voigt Hill
#
# Bulk Modulus (GPa) = 35.14114 37.69861 36.41987
# Shear Modulus (GPa) = 16.40633 22.48775 19.44704
#
# Velocity S-wave (km/s) = 3.05893 3.58127 3.33035
# Velocity P-wave (km/s) = 5.70247 6.21299 5.96320
#
# Compressibility (1/GPa) = 0.02845668
#
# Stress axis : x y z
#
# Youngs Moduli (GPa) = 70.30462 59.14154 61.59080
#
# Poissons Ratio (x) = 0.33836 0.00222
# Poissons Ratio (y) = 0.40222 0.22781
# Poissons Ratio (z) = 0.00254 0.21875
#
# Static dielectric constant tensor:
#      x y z
#    x 1.605030 0.000000 0.010410 
#    y 0.000000 1.582550 0.000000 
#    z 0.010410 0.000000 1.604010 
# 
# From -- ./inp_files/263943.got.cif
#   From: 2010.05.17/outbox.cif.g08.bks.cpg/sg12_132_cif.got.tgz:263943.got - 2010.06.03 13:09:07.
