data_PCOD9191974
_publ_section_title
;
Structure prediction by ZEFSAII (Michael W. Deem and Ramdas Pophale) SiO2 
 PCOD9191974
Probable space group: C 2/M
;
_chemical_formula_sum "Si O2"
_cell_formula_units_Z 48
_cell_length_a 13.029826
_cell_length_b 14.229397
_cell_length_c 28.719619
_cell_angle_alpha 90.000000
_cell_angle_beta 28.233738
_cell_angle_gamma 90.000000
_cell_volume 2519.003982
_symmetry_space_group_name_H-M "C 2/M"
_symmetry_group_IT_number 12
_symmetry_cell_setting 'monoclinic'
loop_
_space_group_symop_operation_xyz
x,y,z
-x,y,-z
-x,-y,-z
x,-y,z
1/2+x,1/2+y,z
1/2-x,1/2+y,-z
1/2-x,1/2-y,-z
1/2+x,1/2-y,z
loop_
_atom_site_type_symbol
_atom_site_label
_atom_site_fract_x
_atom_site_fract_y
_atom_site_fract_z
Si Si1 0.450664 0.396967 0.069312
Si Si2 0.411664 0.258589 0.243798
Si Si3 0.755090 0.108114 0.615704
Si Si4 0.808842 0.609275 0.114195
Si Si5 0.670859 0.889082 0.268344
Si Si6 0.615089 0.837451 0.074600
O O1 0.355664 0.500000 0.095962
O O2 0.295516 0.355862 0.171049
O O3 0.500000 0.347986 0.000000
O O4 0.685504 0.406820 0.998190
O O5 0.300481 0.190084 0.325540
O O6 0.604822 0.323209 0.187078
O O7 0.250532 0.327411 0.279613
O O8 0.516535 0.191523 0.163024
O O9 0.581904 0.117906 0.642943
O O10 0.000000 0.116365 0.500000
O O11 0.725167 0.000000 0.645851
O O12 0.741662 0.500000 0.137701
O O13 0.928214 0.628653 0.115172
O O14 0.000000 0.624510 0.000000
O O15 0.726565 0.000000 0.252437
O O16 0.750000 0.750000 0.000000
#
# Coordination Sequence:
#
# PCOD9191974 Si02
#       6
#     8   8   8   8   8   8
#     4  10  20  33  52  78 115 159 200 239 285 344
#     4  12  23  37  64  88 118 160 205 251 304 363
#     4  10  24  45  66  88 117 154 202 263 324 373
#     4  11  23  39  57  86 130 172 204 239 289 352
#     4  10  20  38  60  87 117 155 201 248 302 367
#     4  12  22  32  53  85 124 159 196 241 279 350
#
# _framework density 19.055150999999999
#
# number of rings (size 3 to 8) (size 9 to 14) (size 15 to 20)
#    0.000    1.167    3.333    3.000    2.333    6.000 
#    0.000    0.000    0.000    2.500    0.000    0.000 
#    0.000    0.000    0.000    0.000    0.000    0.000 
#
# Total GULP energy -133970.567381 kJ/mol
# GULP energy per Si atom -5582.106974 kJ/mol
# Density = 1.901178 g / cm^3
# Si number density = 19.055151 Si / 1000 Ang^3
#
#
#
# Elastic Constant Matrix: (Units=GPa)
#
#
# Indices 1 2 3 4 5 6 
#
# 1 115.3864 50.6206 59.4793 0.0002 -22.0819 0.0006
# 2 50.6206 129.0490 59.5189 0.0007 -3.3324 -0.0002
# 3 59.4793 59.5189 102.1421 0.0211 -22.1247 0.0362
# 4 0.0002 0.0007 0.0211 34.8073 0.0009 7.3653
# 5 -22.0819 -3.3324 -22.1247 0.0009 27.8944 -0.0035
# 6 0.0006 -0.0002 0.0362 7.3653 -0.0035 51.2232
#
#
#
# Elastic Compliance Matrix: (Units=1/GPa)
#
#
# Indices 1 2 3 4 5 6 
#
# 1 0.013743 -0.003005 -0.004797 0.000002 0.006715 0.000003
# 2 -0.003005 0.011718 -0.006388 0.000003 -0.006045 0.000004
# 3 -0.004797 -0.006388 0.018496 -0.000009 0.010109 -0.000011
# 4 0.000002 0.000003 -0.000009 0.029631 -0.000007 -0.004261
# 5 0.006715 -0.006045 0.010109 -0.000007 0.048461 -0.000003
# 6 0.000003 0.000004 -0.000011 -0.004261 -0.000003 0.020135
#
#
# Mechanical properties :
#
#
# Convention : Reuss Voigt Hill
#
# Bulk Modulus (GPa) = 64.19815 76.20167 70.19991
# Shear Modulus (GPa) = 28.44871 34.58222 31.51547
#
# Velocity S-wave (km/s) = 3.86808 4.26473 4.07124
# Velocity P-wave (km/s) = 7.32894 8.02044 7.68247
#
# Compressibility (1/GPa) = 0.01557677
#
# Stress axis : x y z
#
# Youngs Moduli (GPa) = 72.76595 85.34192 54.06680
#
# Poissons Ratio (x) = 0.25643 0.25937
# Poissons Ratio (y) = 0.21864 0.34536
# Poissons Ratio (z) = 0.34907 0.54513
#
# Static dielectric constant tensor:
#      x y z
#    x 1.690790 0.000000 -0.001130 
#    y 0.000000 1.780570 0.000000 
#    z -0.001130 0.000000 1.637940 
# 
# From -- ./inp_files/358343.got.cif
#   From: 2010.05.17/outbox.cif.g08.bks.cpg/sg12_180_cif.got.tgz:358343.got - 2010.06.03 13:09:07.
