data_PCOD9191120
_publ_section_title
;
Structure prediction by ZEFSAII (Michael W. Deem and Ramdas Pophale) SiO2 
 PCOD9191120
Probable space group: C 2/M
;
_chemical_formula_sum "Si O2"
_cell_formula_units_Z 56
_cell_length_a 27.993829
_cell_length_b 19.286042
_cell_length_c 11.331191
_cell_angle_alpha 90.000000
_cell_angle_beta 150.037880
_cell_angle_gamma 90.000000
_cell_volume 3055.295935
_symmetry_space_group_name_H-M "C 2/M"
_symmetry_group_IT_number 12
_symmetry_cell_setting 'monoclinic'
loop_
_space_group_symop_operation_xyz
x,y,z
-x,y,-z
-x,-y,-z
x,-y,z
1/2+x,1/2+y,z
1/2-x,1/2+y,-z
1/2-x,1/2-y,-z
1/2+x,1/2-y,z
loop_
_atom_site_type_symbol
_atom_site_label
_atom_site_fract_x
_atom_site_fract_y
_atom_site_fract_z
Si Si1 0.613643 0.916811 0.247384
Si Si2 0.720760 0.920728 0.717650
Si Si3 0.335409 0.289193 0.349627
Si Si4 0.324092 0.683957 0.073282
Si Si5 0.710280 0.799030 0.311295
Si Si6 0.476064 0.923828 0.585924
Si Si7 0.457843 0.227775 0.209299
O O1 0.662841 0.896618 0.477592
O O2 0.672052 0.871744 0.279115
O O3 0.621602 0.000000 0.249831
O O4 0.500000 0.900006 0.000000
O O5 0.637746 0.918143 0.639118
O O6 0.747205 0.000000 0.753257
O O7 0.812447 0.878928 0.957445
O O8 0.332655 0.338239 0.227919
O O9 0.283814 0.310078 0.360130
O O10 0.442044 0.264008 0.600553
O O11 0.273844 0.225085 0.165626
O O12 0.408205 0.737015 0.217389
O O13 0.750000 0.750000 0.500000
O O14 0.618617 0.761720 0.057352
O O15 0.500000 0.925538 0.500000
O O16 0.525278 0.854708 0.740607
O O17 0.503211 0.000000 0.697488
#
# Coordination Sequence:
#
# PCOD9191120 Si02
#       7
#     8   8   8   8   8   8   8
#     4  10  21  38  59  83 117 158 194 231 287 353
#     4  10  20  36  57  81 116 151 187 237 285 344
#     4  10  21  36  54  83 114 147 193 239 290 338
#     4  10  20  35  58  85 112 149 195 233 288 353
#     4  11  25  36  55  86 114 154 198 244 280 337
#     4  10  20  32  53  87 120 147 179 226 295 359
#     4  11  21  36  60  80 120 155 187 239 290 348
#
# _framework density 18.32883
#
# number of rings (size 3 to 8) (size 9 to 14) (size 15 to 20)
#    0.000    1.714    1.429    3.857    6.000    1.714 
#    0.000    0.714    0.000    2.571    0.000    3.000 
#    0.000    0.000    0.000    0.000    0.000    0.000 
#
# Total GULP energy -156094.379923 kJ/mol
# GULP energy per Si atom -5574.799283 kJ/mol
# Density = 1.828711 g / cm^3
# Si number density = 18.328830 Si / 1000 Ang^3
#
#
#
# Elastic Constant Matrix: (Units=GPa)
#
#
# Indices 1 2 3 4 5 6 
#
# 1 111.4198 43.8879 46.7359 0.0000 4.0356 0.0000
# 2 43.8879 70.2542 43.4808 0.0000 -3.9809 0.0000
# 3 46.7359 43.4808 107.9874 0.0000 3.0345 0.0000
# 4 0.0000 0.0000 0.0000 26.8443 0.0000 5.0905
# 5 4.0356 -3.9809 3.0345 0.0000 28.1134 0.0000
# 6 0.0000 0.0000 0.0000 5.0905 0.0000 24.8160
#
#
#
# Elastic Compliance Matrix: (Units=1/GPa)
#
#
# Indices 1 2 3 4 5 6 
#
# 1 0.012772 -0.006308 -0.002920 0.000000 -0.002411 0.000000
# 2 -0.006308 0.022428 -0.006435 0.000000 0.004776 0.000000
# 3 -0.002920 -0.006435 0.013169 0.000000 -0.001913 0.000000
# 4 0.000000 0.000000 0.000000 0.038759 0.000000 -0.007951
# 5 -0.002411 0.004776 -0.001913 0.000000 0.036799 0.000000
# 6 0.000000 0.000000 0.000000 -0.007951 0.000000 0.041927
#
#
# Mechanical properties :
#
#
# Convention : Reuss Voigt Hill
#
# Bulk Modulus (GPa) = 58.67448 61.98563 60.33006
# Shear Modulus (GPa) = 24.64746 26.32521 25.48634
#
# Velocity S-wave (km/s) = 3.67104 3.79393 3.73299
# Velocity P-wave (km/s) = 7.07463 7.28587 7.18103
#
# Compressibility (1/GPa) = 0.01704318
#
# Stress axis : x y z
#
# Youngs Moduli (GPa) = 78.29664 44.58756 75.93803
#
# Poissons Ratio (x) = 0.28127 0.22173
# Poissons Ratio (y) = 0.49391 0.48863
# Poissons Ratio (z) = 0.22861 0.28690
#
# Static dielectric constant tensor:
#      x y z
#    x 1.700090 0.000000 -0.039460 
#    y 0.000000 1.690570 0.000000 
#    z -0.039460 0.000000 1.641510 
# 
# From -- ./inp_files/184596.got.cif
#   From: 2010.05.17/outbox.cif.g08.bks.cpg/sg12_93_cif.got.tgz:184596.got - 2010.06.03 13:09:07.
