data_PCOD9191293
_publ_section_title
;
Structure prediction by ZEFSAII (Michael W. Deem and Ramdas Pophale) SiO2 
 PCOD9191293
Probable space group: C 2/M
;
_chemical_formula_sum "Si O2"
_cell_formula_units_Z 44
_cell_length_a 19.628446
_cell_length_b 7.914303
_cell_length_c 17.979956
_cell_angle_alpha 90.000000
_cell_angle_beta 142.806087
_cell_angle_gamma 90.000000
_cell_volume 1688.472261
_symmetry_space_group_name_H-M "C 2/M"
_symmetry_group_IT_number 12
_symmetry_cell_setting 'monoclinic'
loop_
_space_group_symop_operation_xyz
x,y,z
-x,y,-z
-x,-y,-z
x,-y,z
1/2+x,1/2+y,z
1/2-x,1/2+y,-z
1/2-x,1/2-y,-z
1/2+x,1/2-y,z
loop_
_atom_site_type_symbol
_atom_site_label
_atom_site_fract_x
_atom_site_fract_y
_atom_site_fract_z
Si Si1 0.125881 0.818772 0.468153
Si Si2 0.592689 0.805657 0.139971
Si Si3 0.156605 0.306258 0.653338
Si Si4 0.424176 0.304629 0.105189
Si Si5 0.308288 0.301293 0.155181
Si Si6 0.157068 0.500000 0.395913
O O1 0.107137 0.788400 0.539158
O O2 0.103009 0.651801 0.401146
O O3 0.072370 0.000000 0.397001
O O4 0.259718 0.857528 0.573594
O O5 0.707418 0.704722 0.239092
O O6 0.525333 0.802282 0.159062
O O7 0.620756 0.000000 0.144952
O O8 0.500000 0.742953 0.000000
O O9 0.123166 0.500000 0.622834
O O10 0.137259 0.232245 0.718231
O O11 0.458916 0.500000 0.136919
O O12 0.381165 0.245535 0.147922
O O13 0.313204 0.286749 0.957331
O O14 0.286840 0.500000 0.126848
#
# Coordination Sequence:
#
# PCOD9191293 Si02
#       6
#     8   8   8   8   8   4
#     4   9  16  30  49  72 104 131 159 202 253 308
#     4  11  22  34  48  67  97 135 171 209 253 296
#     4  12  22  31  49  77 103 130 172 211 250 294
#     4  10  20  34  50  65  90 132 174 210 251 297
#     4  10  20  33  48  68  94 128 170 213 253 293
#     4   8  16  30  50  72 100 134 156 192 262 320
#
# _framework density 26.059058
#
# number of rings (size 3 to 8) (size 9 to 14) (size 15 to 20)
#    0.545    1.273    2.727    3.273    0.000    2.909 
#    0.000    0.000    0.000    0.000    0.000    0.000 
#    0.000    8.727    0.000    0.000    0.000    0.000 
#
# Total GULP energy -122759.509729 kJ/mol
# GULP energy per Si atom -5579.977715 kJ/mol
# Density = 2.599975 g / cm^3
# Si number density = 26.059058 Si / 1000 Ang^3
#
#
#
# Elastic Constant Matrix: (Units=GPa)
#
#
# Indices 1 2 3 4 5 6 
#
# 1 107.6088 5.2527 48.5082 0.0000 -9.8275 0.0000
# 2 5.2527 119.7426 18.3318 0.0000 4.5600 0.0000
# 3 48.5082 18.3318 110.7164 0.0000 -3.8243 0.0000
# 4 0.0000 0.0000 0.0000 20.7106 0.0000 -22.5850
# 5 -9.8275 4.5600 -3.8243 0.0000 58.0494 0.0000
# 6 0.0000 0.0000 0.0000 -22.5850 0.0000 19.3942
#
#
#
# Elastic Compliance Matrix: (Units=1/GPa)
#
#
# Indices 1 2 3 4 5 6 
#
# 1 0.011741 0.000207 -0.005122 0.000000 0.001634 0.000000
# 2 0.000207 0.008606 -0.001541 0.000000 -0.000743 0.000000
# 3 -0.005122 -0.001541 0.011532 0.000000 0.000014 0.000000
# 4 0.000000 0.000000 0.000000 -0.178886 0.000000 -0.208317
# 5 0.001634 -0.000743 0.000014 0.000000 0.017563 0.000000
# 6 0.000000 0.000000 0.000000 -0.208317 0.000000 -0.191029
#
#
# Mechanical properties :
#
#
# Convention : Reuss Voigt Hill
#
# Bulk Modulus (GPa) = 52.72439 53.58369 53.15404
# Shear Modulus (GPa) = -16.59815 37.36252 10.38218
#
# Velocity S-wave (km/s) = -2.52651 3.79061 1.99819
# Velocity P-wave (km/s) = 3.43010 6.30598 5.07597
#
# Compressibility (1/GPa) = 0.01896655
#
# Stress axis : x y z
#
# Youngs Moduli (GPa) = 85.17234 116.19245 86.71675
#
# Poissons Ratio (x) = -0.02404 0.44415
# Poissons Ratio (y) = -0.01762 0.13365
# Poissons Ratio (z) = 0.43624 0.17909
#
# Static dielectric constant tensor:
#      x y z
#    x 2.058670 0.000000 0.017430 
#    y 0.000000 1.954510 0.000000 
#    z 0.017430 0.000000 2.109760 
# 
# From -- ./inp_files/229449.got.cif
#   From: 2010.05.17/outbox.cif.g08.bks.cpg/sg12_115_cif.got.tgz:229449.got - 2010.06.03 13:09:07.
