data_PCOD9191595
_publ_section_title
;
Structure prediction by ZEFSAII (Michael W. Deem and Ramdas Pophale) SiO2 
 PCOD9191595
Probable space group: C 2/M
;
_chemical_formula_sum "Si O2"
_cell_formula_units_Z 56
_cell_length_a 29.321037
_cell_length_b 7.590941
_cell_length_c 11.531168
_cell_angle_alpha 90.000000
_cell_angle_beta 103.514505
_cell_angle_gamma 90.000000
_cell_volume 2495.475709
_symmetry_space_group_name_H-M "C 2/M"
_symmetry_group_IT_number 12
_symmetry_cell_setting 'monoclinic'
loop_
_space_group_symop_operation_xyz
x,y,z
-x,y,-z
-x,-y,-z
x,-y,z
1/2+x,1/2+y,z
1/2-x,1/2+y,-z
1/2-x,1/2-y,-z
1/2+x,1/2-y,z
loop_
_atom_site_type_symbol
_atom_site_label
_atom_site_fract_x
_atom_site_fract_y
_atom_site_fract_z
Si Si1 0.849821 0.289126 0.043610
Si Si2 0.893744 0.213221 0.423932
Si Si3 0.444704 0.791982 0.223634
Si Si4 0.201084 0.788868 0.754189
Si Si5 0.471796 0.298948 0.876385
Si Si6 0.389884 0.710100 0.680211
Si Si7 0.694468 0.212597 0.221624
O O1 0.854160 0.500000 0.038088
O O2 0.899972 0.224257 0.121878
O O3 0.811508 0.250280 0.119879
O O4 0.832579 0.221398 0.909627
O O5 0.931479 0.264909 0.349670
O O6 0.843137 0.276892 0.346523
O O7 0.901194 0.277713 0.558787
O O8 0.892617 0.000000 0.425538
O O9 0.491800 0.701935 0.208321
O O10 0.449821 0.000000 0.205843
O O11 0.252116 0.722109 0.748449
O O12 0.201726 0.000000 0.741777
O O13 0.460876 0.500000 0.906355
O O14 0.424205 0.215556 0.800107
O O15 0.500000 0.214867 0.000000
O O16 0.398199 0.500000 0.682691
O O17 0.336540 0.739640 0.686130
O O18 0.696060 0.000000 0.215505
#
# Coordination Sequence:
#
# PCOD9191595 Si02
#       7
#     8   8   8   8   8   8   8
#     4   9  18  32  50  76 107 134 164 206 254 302
#     4   9  19  37  55  73 102 136 171 209 248 295
#     4  10  20  34  55  80 104 133 168 207 254 302
#     4   9  18  32  52  76 101 134 172 207 247 298
#     4  10  21  37  56  78 103 132 168 208 252 303
#     4  10  22  37  53  74 100 134 174 211 249 299
#     4  10  20  33  50  75 106 136 167 208 256 298
#
# _framework density 22.440611000000001
#
# number of rings (size 3 to 8) (size 9 to 14) (size 15 to 20)
#    0.000    2.429    0.000    1.714    0.000    4.286 
#    0.000    2.857    0.000    0.000    0.000    0.000 
#    0.000    0.000    0.000    0.000    0.000    0.000 
#
# Total GULP energy -156419.467725 kJ/mol
# GULP energy per Si atom -5586.409562 kJ/mol
# Density = 2.238954 g / cm^3
# Si number density = 22.440611 Si / 1000 Ang^3
#
#
#
# Elastic Constant Matrix: (Units=GPa)
#
#
# Indices 1 2 3 4 5 6 
#
# 1 94.0224 -10.0026 3.4382 0.0000 -9.3186 0.0000
# 2 -10.0026 55.3353 2.0783 0.0000 3.9549 0.0000
# 3 3.4382 2.0783 73.4108 0.0000 -13.3867 0.0000
# 4 0.0000 0.0000 0.0000 5.3398 0.0000 -8.9478
# 5 -9.3186 3.9549 -13.3867 0.0000 16.2370 0.0000
# 6 0.0000 0.0000 0.0000 -8.9478 0.0000 13.6158
#
#
#
# Elastic Compliance Matrix: (Units=1/GPa)
#
#
# Indices 1 2 3 4 5 6 
#
# 1 0.011445 0.001564 0.000645 0.000000 0.006719 0.000000
# 2 0.001564 0.018762 -0.001499 0.000000 -0.004908 0.000000
# 3 0.000645 -0.001499 0.016205 0.000000 0.014095 0.000000
# 4 0.000000 0.000000 0.000000 -1.850751 0.000000 -1.216243
# 5 0.006719 -0.004908 0.014095 0.000000 0.078260 0.000000
# 6 0.000000 0.000000 0.000000 -1.216243 0.000000 -0.725825
#
#
# Mechanical properties :
#
#
# Convention : Reuss Voigt Hill
#
# Bulk Modulus (GPa) = 20.90730 23.75513 22.33121
# Shear Modulus (GPa) = -2.05138 22.18882 10.06872
#
# Velocity S-wave (km/s) = -0.95714 3.14790 2.12051
# Velocity P-wave (km/s) = 2.84876 4.88069 3.99603
#
# Compressibility (1/GPa) = 0.04783019
#
# Stress axis : x y z
#
# Youngs Moduli (GPa) = 87.37820 53.30055 61.71098
#
# Poissons Ratio (x) = -0.08338 -0.03980
# Poissons Ratio (y) = -0.13669 0.09253
# Poissons Ratio (z) = -0.05635 0.07992
#
# Static dielectric constant tensor:
#      x y z
#    x 1.802800 0.000000 0.026610 
#    y 0.000000 1.832400 0.000000 
#    z 0.026610 0.000000 1.840870 
# 
# From -- ./inp_files/181040.got.cif
#   From: 2010.05.17/outbox.cif.g08.bks.cpg/sg12_91_cif.got.tgz:181040.got - 2010.06.03 13:09:07.
