data_PCOD9191998
_publ_section_title
;
Structure prediction by ZEFSAII (Michael W. Deem and Ramdas Pophale) SiO2 
 PCOD9191998
Probable space group: C 2/M
;
_chemical_formula_sum "Si O2"
_cell_formula_units_Z 64
_cell_length_a 18.254176
_cell_length_b 9.427154
_cell_length_c 33.803799
_cell_angle_alpha 90.000000
_cell_angle_beta 147.921784
_cell_angle_gamma 90.000000
_cell_volume 3089.337814
_symmetry_space_group_name_H-M "C 2/M"
_symmetry_group_IT_number 12
_symmetry_cell_setting 'monoclinic'
loop_
_space_group_symop_operation_xyz
x,y,z
-x,y,-z
-x,-y,-z
x,-y,z
1/2+x,1/2+y,z
1/2-x,1/2+y,-z
1/2-x,1/2-y,-z
1/2+x,1/2-y,z
loop_
_atom_site_type_symbol
_atom_site_label
_atom_site_fract_x
_atom_site_fract_y
_atom_site_fract_z
Si Si1 0.860328 0.665665 0.221799
Si Si2 0.329589 0.665736 0.738456
Si Si3 0.412867 0.338673 0.523125
Si Si4 0.083530 0.334508 0.077319
Si Si5 0.199060 0.335063 0.014267
Si Si6 0.789989 0.164169 0.385765
Si Si7 0.038097 0.332898 0.649246
Si Si8 0.913194 0.335520 0.156505
O O1 0.827793 0.500000 0.214902
O O2 0.717552 0.749251 0.151389
O O3 0.951674 0.715961 0.300629
O O4 0.934615 0.671336 0.213495
O O5 0.365878 0.500000 0.755668
O O6 0.287976 0.719953 0.675758
O O7 0.194273 0.686642 0.703572
O O8 0.459940 0.763389 0.808239
O O9 0.380504 0.500000 0.519708
O O10 0.559872 0.340106 0.567073
O O11 0.308105 0.296953 0.440112
O O12 0.435454 0.245933 0.572375
O O13 0.120141 0.500000 0.086905
O O14 0.000000 0.284178 0.000000
O O15 0.964757 0.327263 0.055969
O O16 0.238127 0.500000 0.031063
O O17 0.277925 0.256589 0.085870
O O18 0.250000 0.250000 0.000000
O O19 0.737293 0.000000 0.358950
O O20 0.006373 0.500000 0.633630
O O21 0.895267 0.500000 0.137046
#
# Coordination Sequence:
#
# PCOD9191998 Si02
#       8
#     8   8   8   8   8   8   8   8
#     4  10  22  38  57  79 106 144 183 219 265 319
#     4  10  20  33  52  79 110 142 178 221 271 321
#     4   8  14  26  47  75 105 138 174 215 263 314
#     4  10  21  39  60  82 107 137 177 223 266 312
#     4  11  24  41  60  84 112 140 175 220 270 320
#     4   8  14  27  47  73 106 140 175 215 262 317
#     4   9  19  34  51  78 109 138 174 219 268 316
#     4  11  23  39  57  78 107 145 184 220 265 320
#
# _framework density 20.716412999999999
#
# number of rings (size 3 to 8) (size 9 to 14) (size 15 to 20)
#    0.000    2.375    1.250    1.875    1.750    3.250 
#    0.000    2.500    0.000    0.750    0.000    0.000 
#    0.000    0.000    0.000    0.000    0.000    0.000 
#
# Total GULP energy -178557.466711 kJ/mol
# GULP energy per Si atom -5579.920835 kJ/mol
# Density = 2.066926 g / cm^3
# Si number density = 20.716413 Si / 1000 Ang^3
#
#
#
# Elastic Constant Matrix: (Units=GPa)
#
#
# Indices 1 2 3 4 5 6 
#
# 1 34.3971 28.2784 20.6779 0.0000 -11.7763 0.0000
# 2 28.2784 72.9055 15.1325 -0.0001 -4.5640 0.0001
# 3 20.6779 15.1325 49.6735 -0.0001 -23.0737 0.0000
# 4 0.0000 -0.0001 -0.0001 38.0216 0.0000 -3.0688
# 5 -11.7763 -4.5640 -23.0737 0.0000 38.1563 0.0000
# 6 0.0000 0.0001 0.0000 -3.0688 0.0000 17.9808
#
#
#
# Elastic Compliance Matrix: (Units=1/GPa)
#
#
# Indices 1 2 3 4 5 6 
#
# 1 0.054364 -0.017708 -0.014498 0.000000 0.005893 0.000000
# 2 -0.017708 0.020458 -0.000366 0.000000 -0.003239 0.000000
# 3 -0.014498 -0.000366 0.033624 0.000000 0.015815 0.000000
# 4 0.000000 0.000000 0.000000 0.026668 0.000000 0.004552
# 5 0.005893 -0.003239 0.015815 0.000000 0.037203 0.000000
# 6 0.000000 0.000000 0.000000 0.004552 0.000000 0.056392
#
#
# Mechanical properties :
#
#
# Convention : Reuss Voigt Hill
#
# Bulk Modulus (GPa) = 23.09377 31.68375 27.38876
# Shear Modulus (GPa) = 16.21868 25.02422 20.62145
#
# Velocity S-wave (km/s) = 2.80105 3.47932 3.15844
# Velocity P-wave (km/s) = 4.65113 5.60964 5.15272
#
# Compressibility (1/GPa) = 0.04330172
#
# Stress axis : x y z
#
# Youngs Moduli (GPa) = 18.39468 48.88050 29.74052
#
# Poissons Ratio (x) = 0.86558 0.43119
# Poissons Ratio (y) = 0.32574 0.01087
# Poissons Ratio (z) = 0.26669 0.01787
#
# Static dielectric constant tensor:
#      x y z
#    x 1.783860 0.000000 -0.022780 
#    y 0.000000 1.693860 0.000000 
#    z -0.022780 0.000000 1.823680 
# 
# From -- ./inp_files/378480.got.cif
#   From: 2010.05.17/outbox.cif.g08.bks.cpg/sg12_190_cif.got.tgz:378480.got - 2010.06.03 13:09:07.
