data_PCOD9191625
_publ_section_title
;
Structure prediction by ZEFSAII (Michael W. Deem and Ramdas Pophale) SiO2 
 PCOD9191625
Probable space group: C 2/M
;
_chemical_formula_sum "Si O2"
_cell_formula_units_Z 56
_cell_length_a 18.632506
_cell_length_b 14.769492
_cell_length_c 19.117224
_cell_angle_alpha 90.000000
_cell_angle_beta 142.536211
_cell_angle_gamma 90.000000
_cell_volume 3200.006407
_symmetry_space_group_name_H-M "C 2/M"
_symmetry_group_IT_number 12
_symmetry_cell_setting 'monoclinic'
loop_
_space_group_symop_operation_xyz
x,y,z
-x,y,-z
-x,-y,-z
x,-y,z
1/2+x,1/2+y,z
1/2-x,1/2+y,-z
1/2-x,1/2-y,-z
1/2+x,1/2-y,z
loop_
_atom_site_type_symbol
_atom_site_label
_atom_site_fract_x
_atom_site_fract_y
_atom_site_fract_z
Si Si1 0.168060 0.748326 0.004697
Si Si2 0.011635 0.105841 0.091095
Si Si3 0.133281 0.682309 0.756569
Si Si4 0.963721 0.603335 0.173024
Si Si5 0.212494 0.396476 0.675917
Si Si6 0.220442 0.607655 0.432944
Si Si7 0.123390 0.273838 0.486457
O O1 0.256999 0.753349 0.138671
O O2 0.250000 0.750000 0.000000
O O3 0.083927 0.663437 0.927068
O O4 0.082463 0.834496 0.941080
O O5 0.146513 0.118868 0.219329
O O6 0.983450 0.000000 0.076264
O O7 0.000000 0.129451 0.000000
O O8 0.097510 0.631797 0.800750
O O9 0.174666 0.615902 0.727168
O O10 0.014400 0.730443 0.638824
O O11 0.935918 0.500000 0.138191
O O12 0.103025 0.613860 0.294546
O O13 0.186433 0.500000 0.633454
O O14 0.146818 0.322124 0.578441
O O15 0.249216 0.500000 0.463238
O O16 0.184075 0.655859 0.478052
O O17 0.318377 0.675048 0.476978
#
# Coordination Sequence:
#
# PCOD9191625 Si02
#       7
#     8   8   8   8   8   8   8
#     4  10  20  34  53  78 108 145 184 224 270 327
#     4  10  20  35  55  80 109 143 179 223 280 333
#     4  10  20  33  50  77 114 147 175 219 281 333
#     4   9  18  33  55  78 103 140 188 230 271 321
#     4  11  21  33  54  82 112 143 177 221 279 335
#     4   9  18  35  56  76 104 141 181 228 275 320
#     4  10  20  33  52  81 110 140 181 223 268 330
#
# _framework density 17.499963999999999
#
# number of rings (size 3 to 8) (size 9 to 14) (size 15 to 20)
#    0.000    2.143    1.429    2.143    0.000    5.714 
#    0.000    0.714    0.000    3.000    0.000    0.000 
#    0.000    0.000    0.000    0.000    0.000    0.000 
#
# Total GULP energy -156075.894625 kJ/mol
# GULP energy per Si atom -5574.139094 kJ/mol
# Density = 1.746013 g / cm^3
# Si number density = 17.499964 Si / 1000 Ang^3
#
#
#
# Elastic Constant Matrix: (Units=GPa)
#
#
# Indices 1 2 3 4 5 6 
#
# 1 53.5768 32.6693 15.1840 0.0000 16.7000 0.0000
# 2 32.6693 105.9020 50.6001 0.0000 11.9908 0.0000
# 3 15.1840 50.6001 69.1801 0.0000 6.3945 0.0000
# 4 0.0000 0.0000 0.0000 15.2911 0.0000 -9.7691
# 5 16.7000 11.9908 6.3945 0.0000 21.6086 0.0000
# 6 0.0000 0.0000 0.0000 -9.7691 0.0000 21.6503
#
#
#
# Elastic Compliance Matrix: (Units=1/GPa)
#
#
# Indices 1 2 3 4 5 6 
#
# 1 0.028461 -0.006967 0.000539 0.000000 -0.018290 0.000000
# 2 -0.006967 0.016778 -0.010671 0.000000 -0.000768 0.000000
# 3 0.000539 -0.010671 0.022242 0.000000 -0.001077 0.000000
# 4 0.000000 0.000000 0.000000 0.091886 0.000000 0.041461
# 5 -0.018290 -0.000768 -0.001077 0.000000 0.061158 0.000000
# 6 0.000000 0.000000 0.000000 0.041461 0.000000 0.064897
#
#
# Mechanical properties :
#
#
# Convention : Reuss Voigt Hill
#
# Bulk Modulus (GPa) = 30.04581 47.28508 38.66544
# Shear Modulus (GPa) = 15.11887 20.39036 17.75462
#
# Velocity S-wave (km/s) = 2.94247 3.41716 3.18866
# Velocity P-wave (km/s) = 5.36195 6.53055 5.97489
#
# Compressibility (1/GPa) = 0.03328252
#
# Stress axis : x y z
#
# Youngs Moduli (GPa) = 35.13597 59.60325 44.96085
#
# Poissons Ratio (x) = 0.41524 -0.02425
# Poissons Ratio (y) = 0.24478 0.47980
# Poissons Ratio (z) = -0.01895 0.63606
#
# Static dielectric constant tensor:
#      x y z
#    x 1.606010 0.000000 0.009610 
#    y 0.000000 1.581790 0.000000 
#    z 0.009610 0.000000 1.615730 
# 
# From -- ./inp_files/155990.got.cif
#   From: 2010.05.17/outbox.cif.g08.bks.cpg/sg12_78_cif.got.tgz:155990.got - 2010.06.03 13:09:07.
