data_PCOD9191078
_publ_section_title
;
Structure prediction by ZEFSAII (Michael W. Deem and Ramdas Pophale) SiO2 
 PCOD9191078
Probable space group: C 2/M
;
_chemical_formula_sum "Si O2"
_cell_formula_units_Z 40
_cell_length_a 19.176130
_cell_length_b 7.459637
_cell_length_c 24.775521
_cell_angle_alpha 90.000000
_cell_angle_beta 150.396772
_cell_angle_gamma 90.000000
_cell_volume 1750.734792
_symmetry_space_group_name_H-M "C 2/M"
_symmetry_group_IT_number 12
_symmetry_cell_setting 'monoclinic'
loop_
_space_group_symop_operation_xyz
x,y,z
-x,y,-z
-x,-y,-z
x,-y,z
1/2+x,1/2+y,z
1/2-x,1/2+y,-z
1/2-x,1/2-y,-z
1/2+x,1/2-y,z
loop_
_atom_site_type_symbol
_atom_site_label
_atom_site_fract_x
_atom_site_fract_y
_atom_site_fract_z
Si Si1 0.609367 0.214940 0.840907
Si Si2 0.915667 0.713797 0.609766
Si Si3 0.353409 0.795611 0.733626
Si Si4 0.933252 0.704265 0.506677
Si Si5 0.684638 0.000000 0.064182
Si Si6 0.654703 0.000000 0.169949
O O1 0.505051 0.268426 0.721230
O O2 0.512485 0.264777 0.827565
O O3 0.747085 0.330277 0.920651
O O4 0.637574 0.000000 0.860299
O O5 0.931066 0.500000 0.617937
O O6 0.750000 0.750000 0.500000
O O7 0.964296 0.789242 0.584962
O O8 0.232767 0.697598 0.619117
O O9 0.350220 0.000000 0.709011
O O10 0.314116 0.827659 0.770095
O O11 0.988179 0.500000 0.545889
O O12 0.000000 0.797133 0.500000
O O13 0.713419 0.000000 0.148751
O O14 0.515989 0.000000 0.947112
#
# Coordination Sequence:
#
# PCOD9191078 Si02
#       6
#     8   8   8   8   4   4
#     4  10  22  40  63  95 121 162 211 255 301 378
#     4  10  20  32  52  81 122 153 196 245 286 352
#     4   9  20  39  58  83 126 154 200 258 304 357
#     4  10  21  34  53  85 122 164 204 240 295 370
#     4  11  24  44  71  86 125 161 209 261 330 367
#     4   9  24  46  60  93 123 154 202 281 312 371
#
# _framework density 22.847548
#
# number of rings (size 3 to 8) (size 9 to 14) (size 15 to 20)
#    0.600    1.600    2.000    0.000    5.600    1.200 
#    0.000    3.000    0.000    0.000    0.000    0.000 
#    0.000    0.000    0.000    0.000    0.000    0.000 
#
# Total GULP energy -111492.735372 kJ/mol
# GULP energy per Si atom -5574.636769 kJ/mol
# Density = 2.279555 g / cm^3
# Si number density = 22.847548 Si / 1000 Ang^3
#
#
#
# Elastic Constant Matrix: (Units=GPa)
#
#
# Indices 1 2 3 4 5 6 
#
# 1 104.9544 2.8229 -2.6179 -0.0002 3.8931 0.0001
# 2 2.8229 75.7112 -1.8618 -0.0007 9.3288 0.0005
# 3 -2.6179 -1.8618 60.3796 -0.0005 -1.6324 0.0002
# 4 -0.0002 -0.0007 -0.0005 96.9486 -0.0001 -54.2648
# 5 3.8931 9.3288 -1.6324 -0.0001 41.1682 0.0001
# 6 0.0001 0.0005 0.0002 -54.2648 0.0001 60.8262
#
#
#
# Elastic Compliance Matrix: (Units=1/GPa)
#
#
# Indices 1 2 3 4 5 6 
#
# 1 0.009575 -0.000245 0.000385 0.000000 -0.000835 0.000000
# 2 -0.000245 0.013601 0.000326 0.000000 -0.003046 0.000000
# 3 0.000385 0.000326 0.016603 0.000000 0.000548 0.000000
# 4 0.000000 0.000000 0.000000 0.020603 0.000000 0.018380
# 5 -0.000835 -0.003046 0.000548 0.000000 0.025081 0.000000
# 6 0.000000 0.000000 0.000000 0.018380 0.000000 0.032838
#
#
# Mechanical properties :
#
#
# Convention : Reuss Voigt Hill
#
# Bulk Modulus (GPa) = 24.56242 26.41464 25.48853
# Shear Modulus (GPa) = 38.18591 55.96873 47.07732
#
# Velocity S-wave (km/s) = 4.09263 4.95477 4.54419
# Velocity P-wave (km/s) = 5.75385 6.65728 6.22198
#
# Compressibility (1/GPa) = 0.04071260
#
# Stress axis : x y z
#
# Youngs Moduli (GPa) = 104.43761 73.52656 60.22844
#
# Poissons Ratio (x) = 0.01799 -0.02319
# Poissons Ratio (y) = 0.02555 -0.01966
# Poissons Ratio (z) = -0.04021 -0.02400
#
# Static dielectric constant tensor:
#      x y z
#    x 1.941670 0.000000 0.004110 
#    y 0.000000 1.852250 0.000000 
#    z 0.004110 0.000000 1.858030 
# 
# From -- ./inp_files/362848.got.cif
#   From: 2010.05.17/outbox.cif.g08.bks.cpg/sg12_182_cif.got.tgz:362848.got - 2010.06.03 13:09:07.
