data_PCOD9191408
_publ_section_title
;
Structure prediction by ZEFSAII (Michael W. Deem and Ramdas Pophale) SiO2 
 PCOD9191408
Probable space group: C 2/M
;
_chemical_formula_sum "Si O2"
_cell_formula_units_Z 64
_cell_length_a 8.791275
_cell_length_b 29.187978
_cell_length_c 15.879715
_cell_angle_alpha 90.000000
_cell_angle_beta 90.000036
_cell_angle_gamma 90.000000
_cell_volume 4074.727585
_symmetry_space_group_name_H-M "C 2/M"
_symmetry_group_IT_number 12
_symmetry_cell_setting 'monoclinic'
loop_
_space_group_symop_operation_xyz
x,y,z
-x,y,-z
-x,-y,-z
x,-y,z
1/2+x,1/2+y,z
1/2-x,1/2+y,-z
1/2-x,1/2-y,-z
1/2+x,1/2-y,z
loop_
_atom_site_type_symbol
_atom_site_label
_atom_site_fract_x
_atom_site_fract_y
_atom_site_fract_z
Si Si1 0.682038 0.299431 0.599062
Si Si2 0.818006 0.053940 0.177856
Si Si3 0.817962 0.799431 0.599062
Si Si4 0.317118 0.891321 0.665914
Si Si5 0.318006 0.553940 0.822144
Si Si6 0.682882 0.891321 0.665914
Si Si7 0.815030 0.552455 0.500000
Si Si8 0.174981 0.555550 0.000000
O O1 0.750000 0.250000 0.621978
O O2 0.500000 0.298752 0.606587
O O3 0.720630 0.307398 0.500000
O O4 0.752080 0.340591 0.652525
O O5 0.744522 0.083864 0.251256
O O6 0.758198 0.068998 0.086108
O O7 1.000000 0.057316 0.180531
O O8 0.777027 0.000000 0.189495
O O9 0.747920 0.840591 0.652525
O O10 0.500000 0.889966 0.667672
O O11 0.267935 0.920875 0.584037
O O12 0.277027 0.500000 0.810505
O O13 0.244522 0.583864 0.748744
O O14 0.258198 0.568998 0.913892
O O15 0.732065 0.920875 0.584037
O O16 0.761810 0.500000 0.500000
O O17 0.000000 0.551748 0.500000
O O18 0.175828 0.500000 0.000000
O O19 0.000000 0.570824 0.000000
#
# Coordination Sequence:
#
# PCOD9191408 Si02
#       8
#     8   8   8   8   8   8   8   8
#     4  10  20  34  52  72  97 127 165 210 257 302
#     4  10  20  33  49  72 103 136 169 208 253 299
#     4  10  20  34  52  72  97 127 165 210 257 302
#     4  11  20  32  50  72 100 133 171 209 250 298
#     4  10  20  33  49  72 103 136 169 208 253 299
#     4  11  20  32  50  72 100 133 171 209 250 298
#     4   9  18  30  44  65  96 133 170 205 240 283
#     4   9  17  31  51  73  96 127 168 211 253 297
#
# _framework density 15.706572
#
# number of rings (size 3 to 8) (size 9 to 14) (size 15 to 20)
#    0.000    2.000    1.250    3.375    0.000    5.000 
#    0.000    0.000    0.000    3.000    0.000    0.875 
#    0.000    0.000    0.000    0.000    0.000    0.000 
#
# Total GULP energy -178606.480706 kJ/mol
# GULP energy per Si atom -5581.452522 kJ/mol
# Density = 1.567082 g / cm^3
# Si number density = 15.706572 Si / 1000 Ang^3
#
#
#
# Elastic Constant Matrix: (Units=GPa)
#
#
# Indices 1 2 3 4 5 6 
#
# 1 66.2810 49.5678 52.2225 0.0000 3.2585 0.0000
# 2 49.5678 120.8594 77.6302 0.0000 2.3724 0.0000
# 3 52.2225 77.6302 141.5681 0.0000 3.1062 0.0000
# 4 0.0000 0.0000 0.0000 6.5696 0.0000 -1.4582
# 5 3.2585 2.3724 3.1062 0.0000 26.2886 0.0000
# 6 0.0000 0.0000 0.0000 -1.4582 0.0000 23.8181
#
#
#
# Elastic Compliance Matrix: (Units=1/GPa)
#
#
# Indices 1 2 3 4 5 6 
#
# 1 0.024226 -0.006462 -0.005354 0.000000 -0.001787 0.000000
# 2 -0.006462 0.014499 -0.005571 0.000000 0.000151 0.000000
# 3 -0.005354 -0.005571 0.012099 0.000000 -0.000263 0.000000
# 4 0.000000 0.000000 0.000000 0.154314 0.000000 0.009448
# 5 -0.001787 0.000151 -0.000263 0.000000 0.038278 0.000000
# 6 0.000000 0.000000 0.000000 0.009448 0.000000 0.042563
#
#
# Mechanical properties :
#
#
# Convention : Reuss Voigt Hill
#
# Bulk Modulus (GPa) = 62.29783 76.39438 69.34611
# Shear Modulus (GPa) = 15.33258 21.28778 18.31018
#
# Velocity S-wave (km/s) = 3.12779 3.68549 3.41803
# Velocity P-wave (km/s) = 7.26593 8.17646 7.73461
#
# Compressibility (1/GPa) = 0.01605192
#
# Stress axis : x y z
#
# Youngs Moduli (GPa) = 41.27815 68.96916 82.65003
#
# Poissons Ratio (x) = 0.44565 0.44252
# Poissons Ratio (y) = 0.26672 0.46040
# Poissons Ratio (z) = 0.22101 0.38419
#
# Static dielectric constant tensor:
#      x y z
#    x 1.520610 0.000000 -0.001360 
#    y 0.000000 1.503920 0.000000 
#    z -0.001360 0.000000 1.504510 
# 
# From -- ./inp_files/199812.got.cif
#   From: 2010.05.17/outbox.cif.g08.bks.cpg/sg12_100_cif.got.tgz:199812.got - 2010.06.03 13:09:07.
