data_PCOD9191175
_publ_section_title
;
Structure prediction by ZEFSAII (Michael W. Deem and Ramdas Pophale) SiO2 
 PCOD9191175
Probable space group: C 2/M
;
_chemical_formula_sum "Si O2"
_cell_formula_units_Z 44
_cell_length_a 30.511639
_cell_length_b 14.839046
_cell_length_c 9.959635
_cell_angle_alpha 90.000000
_cell_angle_beta 155.444366
_cell_angle_gamma 90.000000
_cell_volume 1873.984713
_symmetry_space_group_name_H-M "C 2/M"
_symmetry_group_IT_number 12
_symmetry_cell_setting 'monoclinic'
loop_
_space_group_symop_operation_xyz
x,y,z
-x,y,-z
-x,-y,-z
x,-y,z
1/2+x,1/2+y,z
1/2-x,1/2+y,-z
1/2-x,1/2-y,-z
1/2+x,1/2-y,z
loop_
_atom_site_type_symbol
_atom_site_label
_atom_site_fract_x
_atom_site_fract_y
_atom_site_fract_z
Si Si1 0.169201 0.635437 0.550404
Si Si2 0.953544 0.190172 0.730595
Si Si3 0.120655 0.356802 0.830999
Si Si4 0.650777 0.816015 0.211358
Si Si5 0.604231 0.354680 0.710762
Si Si6 0.362238 0.000000 0.330944
O O1 0.140144 0.740240 0.492474
O O2 0.152872 0.621122 0.347689
O O3 0.098387 0.577911 0.452273
O O4 0.287178 0.608371 0.925490
O O5 0.915384 0.129440 0.501349
O O6 0.000000 0.151757 0.000000
O O7 0.047487 0.252475 0.931489
O O8 0.116677 0.253527 0.769856
O O9 0.175631 0.420761 0.879181
O O10 0.000000 0.391128 0.500000
O O11 0.158696 0.361429 0.089148
O O12 0.750000 0.750000 0.500000
O O13 0.500000 0.383835 0.500000
#
# Coordination Sequence:
#
# PCOD9191175 Si02
#       6
#     8   8   8   8   8   4
#     4  11  23  37  58  88 120 152 196 238 297 344
#     4  10  20  32  55  89 117 145 190 247 291 328
#     4  11  21  38  60  87 119 154 198 234 295 351
#     4  11  20  37  61  89 114 151 199 249 284 338
#     4  11  19  38  63  84 113 150 203 249 283 333
#     4  12  25  36  54  86 125 166 178 231 302 360
#
# _framework density 23.479379000000002
#
# number of rings (size 3 to 8) (size 9 to 14) (size 15 to 20)
#    0.000    1.091    7.273    0.818    0.000    0.727 
#    0.000    9.091    0.000    0.000    0.000    5.727 
#    0.000    0.000    0.000    0.000    0.000    0.000 
#
# Total GULP energy -122499.278409 kJ/mol
# GULP energy per Si atom -5568.149019 kJ/mol
# Density = 2.342594 g / cm^3
# Si number density = 23.479379 Si / 1000 Ang^3
#
#
#
# Elastic Constant Matrix: (Units=GPa)
#
#
# Indices 1 2 3 4 5 6 
#
# 1 110.2132 13.0116 54.7865 0.0000 -51.7412 0.0000
# 2 13.0116 36.2156 5.4912 0.0000 -14.6852 0.0000
# 3 54.7865 5.4912 155.5433 0.0000 -28.8431 0.0000
# 4 0.0000 0.0000 0.0000 -0.6052 0.0000 -27.6084
# 5 -51.7412 -14.6852 -28.8431 0.0000 83.6886 0.0000
# 6 0.0000 0.0000 0.0000 -27.6084 0.0000 -54.7069
#
#
#
# Elastic Compliance Matrix: (Units=1/GPa)
#
#
# Indices 1 2 3 4 5 6 
#
# 1 0.014618 -0.001661 -0.003705 0.000000 0.007469 0.000000
# 2 -0.001661 0.029918 0.000333 0.000000 0.004337 0.000000
# 3 -0.003705 0.000333 0.007807 0.000000 0.000459 0.000000
# 4 0.000000 0.000000 0.000000 0.075032 0.000000 -0.037866
# 5 0.007469 0.004337 0.000459 0.000000 0.017486 0.000000
# 6 0.000000 0.000000 0.000000 -0.037866 0.000000 0.000830
#
#
# Mechanical properties :
#
#
# Convention : Reuss Voigt Hill
#
# Bulk Modulus (GPa) = 23.65390 49.83897 36.74644
# Shear Modulus (GPa) = 29.43794 20.92081 25.17937
#
# Velocity S-wave (km/s) = 3.54471 2.98825 3.27831
# Velocity P-wave (km/s) = 5.18165 5.76012 5.47853
#
# Compressibility (1/GPa) = 0.04227632
#
# Stress axis : x y z
#
# Youngs Moduli (GPa) = 68.41021 33.42515 128.08400
#
# Poissons Ratio (x) = 0.05553 0.47456
# Poissons Ratio (y) = 0.11366 -0.04269
# Poissons Ratio (z) = 0.25346 -0.01114
#
# Static dielectric constant tensor:
#      x y z
#    x 2.058190 0.000000 0.074150 
#    y 0.000000 1.776300 0.000000 
#    z 0.074150 0.000000 1.934660 
# 
# From -- ./inp_files/112681.got.cif
#   From: 2010.05.17/outbox.cif.g08.bks.cpg/sg12_57_cif.got.tgz:112681.got - 2010.06.03 13:09:07.
