data_PCOD9191455
_publ_section_title
;
Structure prediction by ZEFSAII (Michael W. Deem and Ramdas Pophale) SiO2 
 PCOD9191455
Probable space group: C 2/M
;
_chemical_formula_sum "Si O2"
_cell_formula_units_Z 56
_cell_length_a 14.716470
_cell_length_b 9.365042
_cell_length_c 20.480761
_cell_angle_alpha 90.000000
_cell_angle_beta 70.511376
_cell_angle_gamma 90.000000
_cell_volume 2660.948968
_symmetry_space_group_name_H-M "C 2/M"
_symmetry_group_IT_number 12
_symmetry_cell_setting 'monoclinic'
loop_
_space_group_symop_operation_xyz
x,y,z
-x,y,-z
-x,-y,-z
x,-y,z
1/2+x,1/2+y,z
1/2-x,1/2+y,-z
1/2-x,1/2-y,-z
1/2+x,1/2-y,z
loop_
_atom_site_type_symbol
_atom_site_label
_atom_site_fract_x
_atom_site_fract_y
_atom_site_fract_z
Si Si1 0.426199 0.329146 0.348673
Si Si2 0.230624 0.828183 0.351491
Si Si3 0.674427 0.658356 0.933786
Si Si4 0.847433 0.829570 0.498591
Si Si5 0.389086 0.839588 0.937488
Si Si6 0.788547 0.339907 0.202542
Si Si7 0.498567 0.836786 0.785554
O O1 0.432454 0.500000 0.339596
O O2 0.321127 0.268534 0.351870
O O3 0.428211 0.292288 0.425557
O O4 0.498399 0.252642 0.281481
O O5 0.147274 0.802837 0.425003
O O6 0.215689 0.799372 0.278478
O O7 0.254186 0.000000 0.349597
O O8 0.635842 0.500000 0.931705
O O9 0.776886 0.646977 0.945976
O O10 0.698903 0.735260 0.860400
O O11 0.606924 0.749360 0.997740
O O12 0.750000 0.750000 0.500000
O O13 0.833803 0.000000 0.494597
O O14 0.438841 0.775750 0.860980
O O15 0.429323 0.000000 0.937165
O O16 0.765762 0.500000 0.184364
O O17 0.892186 0.344063 0.213686
O O18 0.465219 0.000000 0.781564
#
# Coordination Sequence:
#
# PCOD9191455 Si02
#       7
#     8   8   8   8   8   8   8
#     4   9  15  22  36  61  90 115 141 182 228 257
#     4   8  14  25  39  56  83 121 156 178 205 255
#     4  10  20  33  50  70  90 112 141 183 227 262
#     4   8  13  21  34  54  82 115 148 179 212 252
#     4   9  19  36  53  66  84 115 152 182 212 260
#     4   9  17  29  46  67  91 119 148 179 215 258
#     4   9  18  32  48  65  88 120 153 180 211 260
#
# _framework density 21.045124000000001
#
# number of rings (size 3 to 8) (size 9 to 14) (size 15 to 20)
#    0.000    3.143    0.000    1.714    0.000    4.571 
#    0.000    2.857    0.000    0.000    0.000    1.000 
#    0.000    8.000    0.000    0.000    0.000    0.000 
#
# Total GULP energy -155911.094378 kJ/mol
# GULP energy per Si atom -5568.253371 kJ/mol
# Density = 2.099722 g / cm^3
# Si number density = 21.045124 Si / 1000 Ang^3
#
#
#
# Elastic Constant Matrix: (Units=GPa)
#
#
# Indices 1 2 3 4 5 6 
#
# 1 39.8027 2.8078 1.5513 0.0000 -6.3892 0.0000
# 2 2.8078 79.2701 93.9668 0.0000 16.0284 0.0000
# 3 1.5513 93.9668 259.4765 0.0000 -11.6767 0.0000
# 4 0.0000 0.0000 0.0000 30.6635 0.0000 -1.1997
# 5 -6.3892 16.0284 -11.6767 0.0000 40.8486 0.0000
# 6 0.0000 0.0000 0.0000 -1.1997 0.0000 3.2928
#
#
#
# Elastic Compliance Matrix: (Units=1/GPa)
#
#
# Indices 1 2 3 4 5 6 
#
# 1 0.026340 -0.004072 0.001595 0.000000 0.006174 0.000000
# 2 -0.004072 0.029148 -0.011219 0.000000 -0.015281 0.000000
# 3 0.001595 -0.011219 0.008222 0.000000 0.007002 0.000000
# 4 0.000000 0.000000 0.000000 0.033084 0.000000 0.012054
# 5 0.006174 -0.015281 0.007002 0.000000 0.033444 0.000000
# 6 0.000000 0.000000 0.000000 0.012054 0.000000 0.308086
#
#
# Mechanical properties :
#
#
# Convention : Reuss Voigt Hill
#
# Bulk Modulus (GPa) = 27.53415 63.91123 45.72269
# Shear Modulus (GPa) = 10.46413 33.64254 22.05334
#
# Velocity S-wave (km/s) = 2.23227 4.00258 3.24065
# Velocity P-wave (km/s) = 4.44475 7.19690 5.98127
#
# Compressibility (1/GPa) = 0.03631853
#
# Stress axis : x y z
#
# Youngs Moduli (GPa) = 37.96507 34.30734 121.61965
#
# Poissons Ratio (x) = 0.13970 -0.19398
# Poissons Ratio (y) = 0.15459 1.36446
# Poissons Ratio (z) = -0.06055 0.38490
#
# Static dielectric constant tensor:
#      x y z
#    x 1.786710 0.000000 -0.016730 
#    y 0.000000 1.740100 0.000000 
#    z -0.016730 0.000000 1.828690 
# 
# From -- ./inp_files/319007.got.cif
#   From: 2010.05.17/outbox.cif.g08.bks.cpg/sg12_160_cif.got.tgz:319007.got - 2010.06.03 13:09:07.
