data_PCOD9191286
_publ_section_title
;
Structure prediction by ZEFSAII (Michael W. Deem and Ramdas Pophale) SiO2 
 PCOD9191286
Probable space group: C 2/M
;
_chemical_formula_sum "Si O2"
_cell_formula_units_Z 56
_cell_length_a 32.872791
_cell_length_b 7.357272
_cell_length_c 13.071393
_cell_angle_alpha 90.000000
_cell_angle_beta 51.868172
_cell_angle_gamma 90.000000
_cell_volume 2486.708408
_symmetry_space_group_name_H-M "C 2/M"
_symmetry_group_IT_number 12
_symmetry_cell_setting 'monoclinic'
loop_
_space_group_symop_operation_xyz
x,y,z
-x,y,-z
-x,-y,-z
x,-y,z
1/2+x,1/2+y,z
1/2-x,1/2+y,-z
1/2-x,1/2-y,-z
1/2+x,1/2-y,z
loop_
_atom_site_type_symbol
_atom_site_label
_atom_site_fract_x
_atom_site_fract_y
_atom_site_fract_z
Si Si1 0.916758 0.278918 0.678320
Si Si2 0.348564 0.222795 0.097655
Si Si3 0.980340 0.279369 0.376688
Si Si4 0.307994 0.217376 0.379261
Si Si5 0.449326 0.794396 0.034582
Si Si6 0.403222 0.204481 0.330677
Si Si7 0.690503 0.217172 0.060886
O O1 0.915685 0.500000 0.681205
O O2 0.942128 0.229038 0.529848
O O3 0.858271 0.217456 0.793878
O O4 0.961123 0.219279 0.690413
O O5 0.319804 0.282737 0.245769
O O6 0.408696 0.279937 0.016555
O O7 0.349849 0.000000 0.095646
O O8 0.321731 0.282160 0.035286
O O9 0.984286 0.500000 0.368583
O O10 0.950862 0.216939 0.320430
O O11 0.250000 0.250000 0.500000
O O12 0.347058 0.291918 0.405734
O O13 0.315920 0.000000 0.365359
O O14 0.417691 0.809920 0.189102
O O15 0.464514 0.000000 0.975198
O O16 0.500000 0.700547 0.000000
O O17 0.396625 0.000000 0.383947
O O18 0.685548 0.000000 0.067213
O O19 0.750000 0.250000 0.000000
#
# Coordination Sequence:
#
# PCOD9191286 Si02
#       7
#     8   8   8   8   8   8   8
#     4   8  15  25  39  60  88 118 147 183 234 282
#     4   8  16  29  42  61  93 121 145 185 233 270
#     4   8  13  23  38  61  90 114 140 186 240 278
#     4   9  17  30  45  64  90 121 151 183 224 270
#     4   8  13  20  34  58  84 111 139 168 215 279
#     4   8  14  22  35  57  84 107 135 177 221 262
#     4  10  20  33  48  67  93 127 163 197 232 278
#
# _framework density 22.519729000000002
#
# number of rings (size 3 to 8) (size 9 to 14) (size 15 to 20)
#    0.000    3.571    0.000    2.571    2.000    1.143 
#    0.000    2.143    0.000    0.000    0.000    3.000 
#    0.000    3.429    0.000    0.000    0.000    0.000 
#
# Total GULP energy -155883.880231 kJ/mol
# GULP energy per Si atom -5567.281437 kJ/mol
# Density = 2.246847 g / cm^3
# Si number density = 22.519729 Si / 1000 Ang^3
#
#
#
# Elastic Constant Matrix: (Units=GPa)
#
#
# Indices 1 2 3 4 5 6 
#
# 1 197.0342 2.7529 55.3449 0.0000 -24.4876 0.0000
# 2 2.7529 79.9602 1.0692 0.0000 -1.7470 0.0000
# 3 55.3449 1.0692 85.3191 0.0000 -26.9453 0.0000
# 4 0.0000 0.0000 0.0000 -0.9934 0.0000 -8.4960
# 5 -24.4876 -1.7470 -26.9453 0.0000 42.4397 0.0000
# 6 0.0000 0.0000 0.0000 -8.4960 0.0000 -5.0776
#
#
#
# Elastic Compliance Matrix: (Units=1/GPa)
#
#
# Indices 1 2 3 4 5 6 
#
# 1 0.006264 -0.000139 -0.003655 0.000000 0.001288 0.000000
# 2 -0.000139 0.012521 0.000088 0.000000 0.000491 0.000000
# 3 -0.003655 0.000088 0.016793 0.000000 0.008557 0.000000
# 4 0.000000 0.000000 0.000000 0.075630 0.000000 -0.126546
# 5 0.001288 0.000491 0.008557 0.000000 0.029759 0.000000
# 6 0.000000 0.000000 0.000000 -0.126546 0.000000 0.014796
#
#
# Mechanical properties :
#
#
# Convention : Reuss Voigt Hill
#
# Bulk Modulus (GPa) = 35.50270 53.40528 44.45399
# Shear Modulus (GPa) = 28.97515 27.48350 28.22933
#
# Velocity S-wave (km/s) = 3.59089 3.49724 3.54437
# Velocity P-wave (km/s) = 5.74387 6.33040 6.04425
#
# Compressibility (1/GPa) = 0.02816687
#
# Stress axis : x y z
#
# Youngs Moduli (GPa) = 159.64612 79.86864 59.54977
#
# Poissons Ratio (x) = 0.01107 0.21764
# Poissons Ratio (y) = 0.02213 -0.00525
# Poissons Ratio (z) = 0.58346 -0.00705
#
# Static dielectric constant tensor:
#      x y z
#    x 1.899300 0.000000 -0.047530 
#    y 0.000000 1.917680 0.000000 
#    z -0.047530 0.000000 1.857070 
# 
# From -- ./inp_files/248873.got.cif
#   From: 2010.05.17/outbox.cif.g08.bks.cpg/sg12_125_cif.got.tgz:248873.got - 2010.06.03 13:09:07.
