data_PCOD9191895
_publ_section_title
;
Structure prediction by ZEFSAII (Michael W. Deem and Ramdas Pophale) SiO2 
 PCOD9191895
Probable space group: C 2/M
;
_chemical_formula_sum "Si O2"
_cell_formula_units_Z 64
_cell_length_a 14.504122
_cell_length_b 8.995592
_cell_length_c 29.587915
_cell_angle_alpha 90.000000
_cell_angle_beta 102.213373
_cell_angle_gamma 90.000000
_cell_volume 3773.054033
_symmetry_space_group_name_H-M "C 2/M"
_symmetry_group_IT_number 12
_symmetry_cell_setting 'monoclinic'
loop_
_space_group_symop_operation_xyz
x,y,z
-x,y,-z
-x,-y,-z
x,-y,z
1/2+x,1/2+y,z
1/2-x,1/2+y,-z
1/2-x,1/2-y,-z
1/2+x,1/2-y,z
loop_
_atom_site_type_symbol
_atom_site_label
_atom_site_fract_x
_atom_site_fract_y
_atom_site_fract_z
Si Si1 0.024841 0.681044 0.052716
Si Si2 0.823477 0.178224 0.370295
Si Si3 0.712066 0.177438 0.450463
Si Si4 0.458789 0.678665 0.617216
Si Si5 0.207292 0.321065 0.126411
Si Si6 0.592185 0.820872 0.872246
Si Si7 0.909446 0.321335 0.796748
Si Si8 0.652522 0.677266 0.302985
O O1 0.024615 0.500000 0.052081
O O2 0.949448 0.725253 0.083208
O O3 0.127886 0.725485 0.081654
O O4 0.000000 0.733636 0.000000
O O5 0.782527 0.211428 0.415912
O O6 0.753561 0.256282 0.327825
O O7 0.932332 0.222828 0.376678
O O8 0.817706 0.000000 0.363144
O O9 0.750000 0.250000 0.500000
O O10 0.610964 0.242835 0.425267
O O11 0.706605 0.000000 0.454620
O O12 0.452479 0.500000 0.610358
O O13 0.418360 0.713699 0.662896
O O14 0.214909 0.500000 0.125255
O O15 0.307594 0.249257 0.127746
O O16 0.164688 0.283073 0.171195
O O17 0.512360 0.780552 0.827080
O O18 0.599337 0.000000 0.873049
O O19 0.907458 0.500000 0.791086
O O20 0.883968 0.244701 0.747403
O O21 0.658828 0.500000 0.300340
#
# Coordination Sequence:
#
# PCOD9191895 Si02
#       8
#     8   8   8   8   8   8   8   8
#     4   8  15  30  50  70  96 131 165 195 238 299
#     4   9  19  36  55  73  99 136 168 195 240 300
#     4  10  20  34  53  76 102 133 167 203 243 287
#     4   9  19  36  54  73  99 129 163 202 242 289
#     4   9  18  32  50  71  95 127 164 200 240 288
#     4   9  18  32  50  72  97 127 163 203 244 287
#     4   9  19  35  50  66  96 134 164 191 236 300
#     4  10  20  33  52  77 100 123 159 208 249 280
#
# _framework density 16.962385999999999
#
# number of rings (size 3 to 8) (size 9 to 14) (size 15 to 20)
#    0.000    2.875    0.000    2.250    0.000    4.500 
#    0.000    8.125    0.000    0.750    0.000    0.000 
#    0.000    0.000    0.000    0.000    0.000    0.000 
#
# Total GULP energy -178423.583706 kJ/mol
# GULP energy per Si atom -5575.736991 kJ/mol
# Density = 1.692378 g / cm^3
# Si number density = 16.962386 Si / 1000 Ang^3
#
#
#
# Elastic Constant Matrix: (Units=GPa)
#
#
# Indices 1 2 3 4 5 6 
#
# 1 172.4620 45.4624 80.9549 0.0000 12.9843 0.0000
# 2 45.4624 23.3415 49.6742 0.0000 5.3427 0.0000
# 3 80.9549 49.6742 160.6412 0.0000 19.7461 0.0000
# 4 0.0000 0.0000 0.0000 24.3732 0.0000 1.6212
# 5 12.9843 5.3427 19.7461 0.0000 8.7016 0.0000
# 6 0.0000 0.0000 0.0000 1.6212 0.0000 32.0460
#
#
#
# Elastic Compliance Matrix: (Units=1/GPa)
#
#
# Indices 1 2 3 4 5 6 
#
# 1 0.013269 -0.034987 0.005443 0.000000 -0.010671 0.000000
# 2 -0.034987 0.219020 -0.055449 0.000000 0.043558 0.000000
# 3 0.005443 -0.055449 0.024189 0.000000 -0.028968 0.000000
# 4 0.000000 0.000000 0.000000 0.041167 0.000000 -0.002083
# 5 -0.010671 0.043558 -0.028968 0.000000 0.169835 0.000000
# 6 0.000000 0.000000 0.000000 -0.002083 0.000000 0.031310
#
#
# Mechanical properties :
#
#
# Convention : Reuss Voigt Hill
#
# Bulk Modulus (GPa) = 11.56156 78.73640 45.14898
# Shear Modulus (GPa) = 7.16736 25.04772 16.10754
#
# Velocity S-wave (km/s) = 2.05782 3.84691 3.08491
# Velocity P-wave (km/s) = 3.53227 8.13945 6.27406
#
# Compressibility (1/GPa) = 0.08649353
#
# Stress axis : x y z
#
# Youngs Moduli (GPa) = 75.36116 4.56579 41.34149
#
# Poissons Ratio (x) = 0.15974 -0.22504
# Poissons Ratio (y) = 2.63664 2.29234
# Poissons Ratio (z) = -0.41022 0.25317
#
# Static dielectric constant tensor:
#      x y z
#    x 1.553850 0.000000 -0.007070 
#    y 0.000000 1.564940 0.000000 
#    z -0.007070 0.000000 1.556390 
# 
# From -- ./inp_files/359908.got.cif
#   From: 2010.05.17/outbox.cif.g08.bks.cpg/sg12_180_cif.got.tgz:359908.got - 2010.06.03 13:09:07.
