data_PCOD9191781
_publ_section_title
;
Structure prediction by ZEFSAII (Michael W. Deem and Ramdas Pophale) SiO2 
 PCOD9191781
Probable space group: C 2/M
;
_chemical_formula_sum "Si O2"
_cell_formula_units_Z 64
_cell_length_a 16.234962
_cell_length_b 7.569180
_cell_length_c 31.341919
_cell_angle_alpha 90.000000
_cell_angle_beta 129.180523
_cell_angle_gamma 90.000000
_cell_volume 2985.497091
_symmetry_space_group_name_H-M "C 2/M"
_symmetry_group_IT_number 12
_symmetry_cell_setting 'monoclinic'
loop_
_space_group_symop_operation_xyz
x,y,z
-x,y,-z
-x,-y,-z
x,-y,z
1/2+x,1/2+y,z
1/2-x,1/2+y,-z
1/2-x,1/2-y,-z
1/2+x,1/2-y,z
loop_
_atom_site_type_symbol
_atom_site_label
_atom_site_fract_x
_atom_site_fract_y
_atom_site_fract_z
Si Si1 0.207334 0.788428 0.939187
Si Si2 0.087821 0.709659 0.365325
Si Si3 0.073176 0.286756 0.759110
Si Si4 0.670926 0.715981 0.563369
Si Si5 0.986093 0.212736 0.563584
Si Si6 0.895541 0.285871 0.940115
Si Si7 0.004904 0.788283 0.171558
Si Si8 0.810234 0.206871 0.821558
O O1 0.292549 0.724013 0.932568
O O2 0.090808 0.719314 0.889631
O O3 0.203725 0.000000 0.933728
O O4 0.250000 0.750000 0.000000
O O5 0.095572 0.500000 0.360408
O O6 0.207956 0.779459 0.399116
O O7 0.005154 0.780186 0.303422
O O8 0.042919 0.733531 0.398233
O O9 0.077027 0.500000 0.757845
O O10 0.193472 0.217447 0.792433
O O11 0.027345 0.244420 0.790528
O O12 0.672330 0.500000 0.563738
O O13 0.599242 0.770769 0.580581
O O14 0.604948 0.770430 0.499683
O O15 0.986975 0.000000 0.563110
O O16 0.896854 0.500000 0.939616
O O17 0.881768 0.222854 0.887457
O O18 0.000000 0.228155 0.000000
O O19 0.118578 0.717415 0.193377
O O20 0.009156 0.000000 0.167143
O O21 0.792803 0.000000 0.807023
#
# Coordination Sequence:
#
# PCOD9191781 Si02
#       8
#     8   8   8   8   8   8   8   8
#     4  10  20  33  51  77 105 132 164 206 255 310
#     4  10  20  34  52  76 108 141 176 220 269 312
#     4  10  22  38  54  76 106 142 180 218 262 316
#     4   8  16  32  53  76 108 144 175 216 266 317
#     4   9  17  32  54  79 105 139 182 219 260 315
#     4  10  20  34  53  79 108 133 165 211 259 311
#     4  10  21  38  57  76 102 136 175 217 261 309
#     4  10  21  37  56  77 103 136 173 214 261 310
#
# _framework density 21.436966000000002
#
# number of rings (size 3 to 8) (size 9 to 14) (size 15 to 20)
#    0.000    2.375    1.250    1.875    0.000    3.250 
#    0.000    1.875    0.000    0.000    0.000    0.000 
#    0.000    0.000    0.000    0.000    0.000    0.000 
#
# Total GULP energy -178684.323138 kJ/mol
# GULP energy per Si atom -5583.885098 kJ/mol
# Density = 2.138817 g / cm^3
# Si number density = 21.436966 Si / 1000 Ang^3
#
#
#
# Elastic Constant Matrix: (Units=GPa)
#
#
# Indices 1 2 3 4 5 6 
#
# 1 211.8613 -0.1181 102.3081 0.0000 6.5051 0.0000
# 2 -0.1181 45.3561 -7.8224 0.0000 3.9577 0.0000
# 3 102.3081 -7.8224 130.3580 0.0000 2.2503 0.0000
# 4 0.0000 0.0000 0.0000 0.9820 0.0000 -13.4545
# 5 6.5051 3.9577 2.2503 0.0000 12.9417 0.0000
# 6 0.0000 0.0000 0.0000 -13.4545 0.0000 15.5140
#
#
#
# Elastic Compliance Matrix: (Units=1/GPa)
#
#
# Indices 1 2 3 4 5 6 
#
# 1 0.007730 -0.000801 -0.006071 0.000000 -0.002585 0.000000
# 2 -0.000801 0.023025 0.002132 0.000000 -0.007009 0.000000
# 3 -0.006071 0.002132 0.012560 0.000000 0.000216 0.000000
# 4 0.000000 0.000000 0.000000 -0.093576 0.000000 -0.081154
# 5 -0.002585 -0.007009 0.000216 0.000000 0.080675 0.000000
# 6 0.000000 0.000000 0.000000 -0.081154 0.000000 -0.005923
#
#
# Mechanical properties :
#
#
# Convention : Reuss Voigt Hill
#
# Bulk Modulus (GPa) = 29.55564 64.03450 46.79507
# Shear Modulus (GPa) = 110.49892 25.43471 67.96682
#
# Velocity S-wave (km/s) = 7.18734 3.44828 5.63687
# Velocity P-wave (km/s) = 9.09364 6.76684 8.01512
#
# Compressibility (1/GPa) = 0.03383449
#
# Stress axis : x y z
#
# Youngs Moduli (GPa) = 129.35853 43.43125 79.62006
#
# Poissons Ratio (x) = 0.03480 0.48333
# Poissons Ratio (y) = 0.10365 -0.16971
# Poissons Ratio (z) = 0.78527 -0.09257
#
# Static dielectric constant tensor:
#      x y z
#    x 1.780740 0.000000 0.033830 
#    y 0.000000 1.813390 0.000000 
#    z 0.033830 0.000000 1.748680 
# 
# From -- ./inp_files/375612.got.cif
#   From: 2010.05.17/outbox.cif.g08.bks.cpg/sg12_188_cif.got.tgz:375612.got - 2010.06.03 13:09:07.
