data_PCOD9191311
_publ_section_title
;
Structure prediction by ZEFSAII (Michael W. Deem and Ramdas Pophale) SiO2 
 PCOD9191311
Probable space group: C 2/M
;
_chemical_formula_sum "Si O2"
_cell_formula_units_Z 64
_cell_length_a 24.020399
_cell_length_b 8.984162
_cell_length_c 17.460000
_cell_angle_alpha 90.000000
_cell_angle_beta 83.675196
_cell_angle_gamma 90.000000
_cell_volume 3744.989100
_symmetry_space_group_name_H-M "C 2/M"
_symmetry_group_IT_number 12
_symmetry_cell_setting 'monoclinic'
loop_
_space_group_symop_operation_xyz
x,y,z
-x,y,-z
-x,-y,-z
x,-y,z
1/2+x,1/2+y,z
1/2-x,1/2+y,-z
1/2-x,1/2-y,-z
1/2+x,1/2-y,z
loop_
_atom_site_type_symbol
_atom_site_label
_atom_site_fract_x
_atom_site_fract_y
_atom_site_fract_z
Si Si1 0.432563 0.178520 0.228629
Si Si2 0.797345 0.824173 0.737460
Si Si3 0.317916 0.677121 0.283854
Si Si4 0.808250 0.179274 0.463905
Si Si5 0.491511 0.322220 0.914492
Si Si6 0.100184 0.824081 0.185528
Si Si7 0.525434 0.823568 0.326899
Si Si8 0.613490 0.322406 0.412775
O O1 0.370461 0.242212 0.238063
O O2 0.467603 0.243587 0.152151
O O3 0.464871 0.223548 0.302945
O O4 0.432930 0.000000 0.225146
O O5 0.741276 0.730811 0.740232
O O6 0.834840 0.796045 0.807402
O O7 0.838973 0.791192 0.659437
O O8 0.783975 0.000000 0.735343
O O9 0.323606 0.500000 0.275720
O O10 0.317932 0.716420 0.374115
O O11 0.750000 0.250000 0.500000
O O12 0.859013 0.227451 0.511662
O O13 0.803619 0.000000 0.471609
O O14 0.502388 0.500000 0.910195
O O15 0.428335 0.299435 0.892040
O O16 0.500000 0.271025 0.000000
O O17 0.065787 0.724642 0.250551
O O18 0.091055 0.000000 0.206803
O O19 0.555076 0.749483 0.395405
O O20 0.525502 0.000000 0.336940
O O21 0.605797 0.500000 0.415352
#
# Coordination Sequence:
#
# PCOD9191311 Si02
#       8
#     8   8   8   8   8   8   8   8
#     4  10  21  36  52  72 102 136 167 201 246 300
#     4   9  16  28  47  69  97 132 165 200 244 294
#     4  11  22  33  49  72  98 131 171 212 251 294
#     4  10  20  33  48  70  98 129 168 212 257 301
#     4   9  17  32  57  85 108 130 159 198 242 290
#     4   8  15  28  47  73 103 131 158 193 241 293
#     4   9  17  29  47  70  93 123 165 208 246 287
#     4   9  17  30  48  69  95 127 163 206 258 304
#
# _framework density 17.089500999999998
#
# number of rings (size 3 to 8) (size 9 to 14) (size 15 to 20)
#    0.000    2.625    1.250    1.875    0.000    4.750 
#    0.000    0.625    0.000    4.500    0.000    0.000 
#    0.000    0.000    0.000    0.000    0.000    0.000 
#
# Total GULP energy -178271.681143 kJ/mol
# GULP energy per Si atom -5570.990036 kJ/mol
# Density = 1.705060 g / cm^3
# Si number density = 17.089501 Si / 1000 Ang^3
#
#
#
# Elastic Constant Matrix: (Units=GPa)
#
#
# Indices 1 2 3 4 5 6 
#
# 1 89.8015 33.2577 41.8654 0.0000 16.8876 0.0000
# 2 33.2577 23.7427 21.5756 0.0000 3.2302 0.0000
# 3 41.8654 21.5756 68.6099 0.0000 21.0742 0.0000
# 4 0.0000 0.0000 0.0000 14.0350 0.0000 5.7107
# 5 16.8876 3.2302 21.0742 0.0000 25.7216 0.0000
# 6 0.0000 0.0000 0.0000 5.7107 0.0000 25.4155
#
#
#
# Elastic Compliance Matrix: (Units=1/GPa)
#
#
# Indices 1 2 3 4 5 6 
#
# 1 0.027059 -0.034412 -0.002085 0.000000 -0.011736 0.000000
# 2 -0.034412 0.104893 -0.019886 0.000000 0.025713 0.000000
# 3 -0.002085 -0.019886 0.027946 0.000000 -0.019031 0.000000
# 4 0.000000 0.000000 0.000000 0.078420 0.000000 -0.017621
# 5 -0.011736 0.025713 -0.019031 0.000000 0.058946 0.000000
# 6 0.000000 0.000000 0.000000 -0.017621 0.000000 0.043305
#
#
# Mechanical properties :
#
#
# Convention : Reuss Voigt Hill
#
# Bulk Modulus (GPa) = 21.21637 41.72795 31.47216
# Shear Modulus (GPa) = 10.65993 18.73145 14.69569
#
# Velocity S-wave (km/s) = 2.50025 3.31430 2.93563
# Velocity P-wave (km/s) = 4.55816 6.25431 5.47235
#
# Compressibility (1/GPa) = 0.04713342
#
# Stress axis : x y z
#
# Youngs Moduli (GPa) = 36.95640 9.53351 35.78279
#
# Poissons Ratio (x) = 0.32806 0.07461
# Poissons Ratio (y) = 1.27173 0.71157
# Poissons Ratio (z) = 0.07706 0.18958
#
# Static dielectric constant tensor:
#      x y z
#    x 1.593160 0.000000 0.040710 
#    y 0.000000 1.571270 0.000000 
#    z 0.040710 0.000000 1.577030 
# 
# From -- ./inp_files/287505.got.cif
#   From: 2010.05.17/outbox.cif.g08.bks.cpg/sg12_144_cif.got.tgz:287505.got - 2010.06.03 13:09:07.
