data_PCOD9191752
_publ_section_title
;
Structure prediction by ZEFSAII (Michael W. Deem and Ramdas Pophale) SiO2 
 PCOD9191752
Probable space group: C 2/M
;
_chemical_formula_sum "Si O2"
_cell_formula_units_Z 56
_cell_length_a 26.263856
_cell_length_b 11.809883
_cell_length_c 15.140090
_cell_angle_alpha 90.000000
_cell_angle_beta 141.523279
_cell_angle_gamma 90.000000
_cell_volume 2921.865260
_symmetry_space_group_name_H-M "C 2/M"
_symmetry_group_IT_number 12
_symmetry_cell_setting 'monoclinic'
loop_
_space_group_symop_operation_xyz
x,y,z
-x,y,-z
-x,-y,-z
x,-y,z
1/2+x,1/2+y,z
1/2-x,1/2+y,-z
1/2-x,1/2-y,-z
1/2+x,1/2-y,z
loop_
_atom_site_type_symbol
_atom_site_label
_atom_site_fract_x
_atom_site_fract_y
_atom_site_fract_z
Si Si1 0.061113 0.781688 0.242544
Si Si2 0.391520 0.864305 0.209927
Si Si3 0.380949 0.748535 0.007230
Si Si4 0.425000 0.865663 0.566188
Si Si5 0.625455 0.874499 0.176737
Si Si6 0.227247 0.124019 0.505145
Si Si7 0.791555 0.636258 0.247319
O O1 0.070429 0.686194 0.330733
O O2 0.083917 0.721641 0.181052
O O3 0.129520 0.871689 0.363895
O O4 0.966823 0.818325 0.116915
O O5 0.372430 0.800181 0.093231
O O6 0.487422 0.842462 0.360583
O O7 0.334475 0.829282 0.213619
O O8 0.382866 0.000000 0.185378
O O9 0.387296 0.846545 0.942369
O O10 0.300690 0.678479 0.874108
O O11 0.348835 0.822823 0.405469
O O12 0.417586 0.000000 0.563490
O O13 0.721726 0.875198 0.334479
O O14 0.593989 0.000000 0.156121
O O15 0.250000 0.250000 0.500000
O O16 0.252294 0.000000 0.497837
O O17 0.792597 0.500000 0.250951
#
# Coordination Sequence:
#
# PCOD9191752 Si02
#       7
#     8   8   8   8   8   8   8
#     4  10  20  33  51  76 106 138 170 210 262 316
#     4   9  18  33  53  75  98 129 170 217 264 304
#     4  11  21  32  49  76 107 137 169 207 260 321
#     4   9  17  31  53  78 101 129 171 218 261 307
#     4  10  20  35  55  77 103 137 178 222 264 310
#     4   9  19  36  56  76 101 139 185 227 265 308
#     4  10  20  34  51  72 101 134 169 212 261 313
#
# _framework density 19.165839999999999
#
# number of rings (size 3 to 8) (size 9 to 14) (size 15 to 20)
#    0.000    2.286    0.000    3.000    0.000    5.143 
#    0.000    5.714    0.000    4.286    0.000    0.000 
#    0.000   20.571    0.000    0.000    0.000    0.000 
#
# Total GULP energy -155984.243437 kJ/mol
# GULP energy per Si atom -5570.865837 kJ/mol
# Density = 1.912222 g / cm^3
# Si number density = 19.165840 Si / 1000 Ang^3
#
#
#
# Elastic Constant Matrix: (Units=GPa)
#
#
# Indices 1 2 3 4 5 6 
#
# 1 62.9030 10.1716 31.6154 0.0000 10.7900 0.0000
# 2 10.1716 46.4017 12.1718 0.0000 9.1217 0.0000
# 3 31.6154 12.1718 117.7904 0.0000 17.5642 0.0000
# 4 0.0000 0.0000 0.0000 18.9088 0.0000 3.2665
# 5 10.7900 9.1217 17.5642 0.0000 33.0635 0.0000
# 6 0.0000 0.0000 0.0000 3.2665 0.0000 16.7365
#
#
#
# Elastic Compliance Matrix: (Units=1/GPa)
#
#
# Indices 1 2 3 4 5 6 
#
# 1 0.019040 -0.002390 -0.004382 0.000000 -0.003226 0.000000
# 2 -0.002390 0.023347 -0.001007 0.000000 -0.005126 0.000000
# 3 -0.004382 -0.001007 0.010334 0.000000 -0.003782 0.000000
# 4 0.000000 0.000000 0.000000 0.054731 0.000000 -0.010682
# 5 -0.003226 -0.005126 -0.003782 0.000000 0.034721 0.000000
# 6 0.000000 0.000000 0.000000 -0.010682 0.000000 0.061835
#
#
# Mechanical properties :
#
#
# Convention : Reuss Voigt Hill
#
# Bulk Modulus (GPa) = 26.90885 37.22363 32.06624
# Shear Modulus (GPa) = 21.55621 25.28419 23.42020
#
# Velocity S-wave (km/s) = 3.35732 3.63606 3.49947
# Velocity P-wave (km/s) = 5.39438 6.09032 5.75288
#
# Compressibility (1/GPa) = 0.03716250
#
# Stress axis : x y z
#
# Youngs Moduli (GPa) = 52.52116 42.83280 96.76961
#
# Poissons Ratio (x) = 0.10237 0.42408
# Poissons Ratio (y) = 0.12552 0.09741
# Poissons Ratio (z) = 0.23017 0.04312
#
# Static dielectric constant tensor:
#      x y z
#    x 1.695390 0.000000 0.041930 
#    y 0.000000 1.662870 0.000000 
#    z 0.041930 0.000000 1.693900 
# 
# From -- ./inp_files/245631.got.cif
#   From: 2010.05.17/outbox.cif.g08.bks.cpg/sg12_123_cif.got.tgz:245631.got - 2010.06.03 13:09:07.
