data_PCOD9191138
_publ_section_title
;
Structure prediction by ZEFSAII (Michael W. Deem and Ramdas Pophale) SiO2 
 PCOD9191138
Probable space group: C 2/M
;
_chemical_formula_sum "Si O2"
_cell_formula_units_Z 46
_cell_length_a 12.057183
_cell_length_b 21.177115
_cell_length_c 19.291322
_cell_angle_alpha 90.000000
_cell_angle_beta 151.260361
_cell_angle_gamma 90.000000
_cell_volume 2368.461842
_symmetry_space_group_name_H-M "C 2/M"
_symmetry_group_IT_number 12
_symmetry_cell_setting 'monoclinic'
loop_
_space_group_symop_operation_xyz
x,y,z
-x,y,-z
-x,-y,-z
x,-y,z
1/2+x,1/2+y,z
1/2-x,1/2+y,-z
1/2-x,1/2-y,-z
1/2+x,1/2-y,z
loop_
_atom_site_type_symbol
_atom_site_label
_atom_site_fract_x
_atom_site_fract_y
_atom_site_fract_z
Si Si1 0.424013 0.368638 0.056810
Si Si2 0.821451 0.137529 0.515538
Si Si3 0.000000 0.232255 0.500000
Si Si4 0.038211 0.813671 0.262624
Si Si5 0.000000 0.500000 0.500000
Si Si6 0.173194 0.000000 0.191212
Si Si7 0.182426 0.500000 0.443602
Si Si8 0.337105 0.187242 0.201567
O O1 0.425672 0.351536 0.138111
O O2 0.521819 0.438133 0.097766
O O3 0.618053 0.323238 0.129630
O O4 0.199020 0.353627 0.888369
O O5 0.898042 0.143867 0.636757
O O6 0.805390 0.064103 0.487017
O O7 0.561151 0.164041 0.365476
O O8 0.967350 0.185083 0.547315
O O9 0.224789 0.276897 0.628789
O O10 0.871254 0.758589 0.197291
O O11 0.226517 0.500000 0.675446
O O12 0.160167 0.500000 0.515703
O O13 0.407908 0.000000 0.273804
#
# Coordination Sequence:
#
# PCOD9191138 Si02
#       8
#     8   8   4   8   2   4   4   8
#     4  11  21  34  55  81 113 144 175 223 282 327
#     4  11  21  37  56  80 109 146 185 230 274 329
#     4  10  22  34  56  77 106 143 190 226 276 318
#     4  11  21  36  57  79 107 143 189 230 270 323
#     4   8  16  30  50  82 112 136 174 220 272 306
#     4  10  20  32  54  82 116 141 176 223 276 328
#     4  10  20  32  56  82 114 140 181 225 274 325
#     4  10  21  35  51  80 112 143 178 222 277 328
#
# _framework density 19.421889
#
# number of rings (size 3 to 8) (size 9 to 14) (size 15 to 20)
#    0.522    1.043    1.739    5.739    0.000    2.435 
#    0.000    0.000    0.000    0.000    0.000    0.000 
#    0.000   26.435    0.000    0.000    0.000    0.000 
#
# Total GULP energy -128079.255134 kJ/mol
# GULP energy per Si atom -5568.663267 kJ/mol
# Density = 1.937768 g / cm^3
# Si number density = 19.421889 Si / 1000 Ang^3
#
#
#
# Elastic Constant Matrix: (Units=GPa)
#
#
# Indices 1 2 3 4 5 6 
#
# 1 27.2876 -7.1912 0.0869 0.0001 -11.9394 -0.0002
# 2 -7.1912 96.1871 8.1723 0.0023 1.7174 0.0005
# 3 0.0869 8.1723 63.2166 -0.0026 -33.0515 -0.0012
# 4 0.0001 0.0023 -0.0026 22.1321 -0.0017 -0.2045
# 5 -11.9394 1.7174 -33.0515 -0.0017 33.8043 -0.0011
# 6 -0.0002 0.0005 -0.0012 -0.2045 -0.0011 7.0036
#
#
#
# Elastic Compliance Matrix: (Units=1/GPa)
#
#
# Indices 1 2 3 4 5 6 
#
# 1 0.053659 0.001669 0.019588 0.000005 0.038019 0.000011
# 2 0.001669 0.010809 -0.002820 -0.000002 -0.002717 -0.000002
# 3 0.019588 -0.002820 0.040605 0.000009 0.046762 0.000015
# 4 0.000005 -0.000002 0.000009 0.045196 0.000013 0.001320
# 5 0.038019 -0.002717 0.046762 0.000013 0.088869 0.000024
# 6 0.000011 -0.000002 0.000015 0.001320 0.000024 0.142822
#
#
# Mechanical properties :
#
#
# Convention : Reuss Voigt Hill
#
# Bulk Modulus (GPa) = 7.04499 20.98082 14.01291
# Shear Modulus (GPa) = 12.74204 24.96288 18.85246
#
# Velocity S-wave (km/s) = 2.56416 3.58899 3.11896
# Velocity P-wave (km/s) = 3.52161 5.29156 4.49457
#
# Compressibility (1/GPa) = 0.14194483
#
# Stress axis : x y z
#
# Youngs Moduli (GPa) = 18.63633 92.51286 24.62755
#
# Poissons Ratio (x) = -0.15437 -0.48240
# Poissons Ratio (y) = -0.03110 0.06946
# Poissons Ratio (z) = -0.36504 0.26092
#
# Static dielectric constant tensor:
#      x y z
#    x 1.688270 0.000000 -0.021100 
#    y 0.000000 1.687220 0.000000 
#    z -0.021100 0.000000 1.700140 
# 
# From -- ./inp_files/265745.got.cif
#   From: 2010.05.17/outbox.cif.g08.bks.cpg/sg12_133_cif.got.tgz:265745.got - 2010.06.03 13:09:07.
