data_PCOD9191788
_publ_section_title
;
Structure prediction by ZEFSAII (Michael W. Deem and Ramdas Pophale) SiO2 
 PCOD9191788
Probable space group: C 2/M
;
_chemical_formula_sum "Si O2"
_cell_formula_units_Z 64
_cell_length_a 31.688166
_cell_length_b 7.742059
_cell_length_c 23.934968
_cell_angle_alpha 90.000000
_cell_angle_beta 28.475762
_cell_angle_gamma 90.000000
_cell_volume 2799.695449
_symmetry_space_group_name_H-M "C 2/M"
_symmetry_group_IT_number 12
_symmetry_cell_setting 'monoclinic'
loop_
_space_group_symop_operation_xyz
x,y,z
-x,y,-z
-x,-y,-z
x,-y,z
1/2+x,1/2+y,z
1/2-x,1/2+y,-z
1/2-x,1/2-y,-z
1/2+x,1/2-y,z
loop_
_atom_site_type_symbol
_atom_site_label
_atom_site_fract_x
_atom_site_fract_y
_atom_site_fract_z
Si Si1 0.597031 0.791635 0.406475
Si Si2 0.335015 0.801749 0.980392
Si Si3 0.708895 0.204389 0.851531
Si Si4 0.150599 0.202556 0.569732
Si Si5 0.548407 0.207784 0.581015
Si Si6 0.346982 0.300625 0.313366
Si Si7 0.358880 0.210238 0.830669
Si Si8 0.401736 0.707936 0.128993
O O1 0.500000 0.729566 0.500000
O O2 0.686625 0.745355 0.270494
O O3 0.604283 0.734150 0.462697
O O4 0.592857 0.000000 0.410102
O O5 0.340358 0.720760 0.035926
O O6 0.229980 0.794159 0.088714
O O7 0.365882 0.000000 0.947376
O O8 0.374841 0.730104 0.876334
O O9 0.664686 0.255453 0.844583
O O10 0.701017 0.000000 0.865624
O O11 0.082059 0.221763 0.600040
O O12 0.241070 0.291892 0.444604
O O13 0.119175 0.272537 0.666630
O O14 0.171617 0.000000 0.552714
O O15 0.445160 0.250303 0.694370
O O16 0.554448 0.000000 0.577035
O O17 0.376335 0.500000 0.277391
O O18 0.372450 0.223285 0.223933
O O19 0.346684 0.000000 0.845162
O O20 0.404732 0.500000 0.129345
O O21 0.500000 0.771333 0.000000
#
# Coordination Sequence:
#
# PCOD9191788 Si02
#       8
#     8   8   8   8   8   8   8   8
#     4  10  21  37  57  81 110 147 189 227 263 313
#     4   9  19  35  53  76 106 137 172 216 264 311
#     4  11  23  37  55  82 115 147 179 221 275 329
#     4  10  20  33  53  79 104 133 168 210 264 322
#     4  10  20  33  51  77 106 134 170 216 262 308
#     4   9  19  37  56  75 102 133 170 217 265 313
#     4   9  18  34  55  76 101 137 177 215 257 309
#     4  10  22  40  60  80 105 142 187 230 269 316
#
# _framework density 22.859629000000002
#
# number of rings (size 3 to 8) (size 9 to 14) (size 15 to 20)
#    0.000    2.250    0.000    2.250    0.000    8.500 
#    0.000    0.000    0.000    0.000    0.000    0.000 
#    0.000    0.000    0.000    0.000    0.000    0.000 
#
# Total GULP energy -178599.697191 kJ/mol
# GULP energy per Si atom -5581.240537 kJ/mol
# Density = 2.280760 g / cm^3
# Si number density = 22.859629 Si / 1000 Ang^3
#
#
#
# Elastic Constant Matrix: (Units=GPa)
#
#
# Indices 1 2 3 4 5 6 
#
# 1 115.2819 -0.4291 28.4353 -0.0367 27.7292 0.0155
# 2 -0.4291 37.6298 2.4206 -0.0372 5.1515 -0.0285
# 3 28.4353 2.4206 63.7911 -0.0558 27.6009 0.0093
# 4 -0.0367 -0.0372 -0.0558 11.8275 0.0248 7.6375
# 5 27.7292 5.1515 27.6009 0.0248 43.8684 -0.0065
# 6 0.0155 -0.0285 0.0093 7.6375 -0.0065 -5.3535
#
#
#
# Elastic Compliance Matrix: (Units=1/GPa)
#
#
# Indices 1 2 3 4 5 6 
#
# 1 0.010546 0.000995 -0.002479 0.000009 -0.005223 0.000040
# 2 0.000995 0.027113 0.000244 0.000097 -0.003966 0.000002
# 3 -0.002479 0.000244 0.022131 0.000049 -0.012386 0.000115
# 4 0.000009 0.000097 0.000049 0.044008 -0.000064 0.062783
# 5 -0.005223 -0.003966 -0.012386 -0.000064 0.034356 -0.000148
# 6 0.000040 0.000002 0.000115 0.062783 -0.000148 -0.097225
#
#
# Mechanical properties :
#
#
# Convention : Reuss Voigt Hill
#
# Bulk Modulus (GPa) = 17.44877 30.83960 24.14418
# Shear Modulus (GPa) = 79.98353 22.48689 51.23521
#
# Velocity S-wave (km/s) = 5.92157 3.13979 4.73937
# Velocity P-wave (km/s) = 7.37583 5.16377 6.36661
#
# Compressibility (1/GPa) = 0.05731064
#
# Stress axis : x y z
#
# Youngs Moduli (GPa) = 94.82399 36.88207 45.18549
#
# Poissons Ratio (x) = -0.03669 0.11200
# Poissons Ratio (y) = -0.09433 -0.01102
# Poissons Ratio (z) = 0.23503 -0.00900
#
# Static dielectric constant tensor:
#      x y z
#    x 1.903220 -0.000010 0.041960 
#    y -0.000010 1.871790 0.000010 
#    z 0.041960 0.000010 1.828080 
# 
# From -- ./inp_files/353314.got.cif
#   From: 2010.05.17/outbox.cif.g08.bks.cpg/sg12_177_cif.got.tgz:353314.got - 2010.06.03 13:09:07.
