data_PCOD9191787
_publ_section_title
;
Structure prediction by ZEFSAII (Michael W. Deem and Ramdas Pophale) SiO2 
 PCOD9191787
Probable space group: C 2/M
;
_chemical_formula_sum "Si O2"
_cell_formula_units_Z 48
_cell_length_a 20.299750
_cell_length_b 8.635735
_cell_length_c 16.444340
_cell_angle_alpha 90.000000
_cell_angle_beta 108.244828
_cell_angle_gamma 90.000000
_cell_volume 2737.823252
_symmetry_space_group_name_H-M "C 2/M"
_symmetry_group_IT_number 12
_symmetry_cell_setting 'monoclinic'
loop_
_space_group_symop_operation_xyz
x,y,z
-x,y,-z
-x,-y,-z
x,-y,z
1/2+x,1/2+y,z
1/2-x,1/2+y,-z
1/2-x,1/2-y,-z
1/2+x,1/2-y,z
loop_
_atom_site_type_symbol
_atom_site_label
_atom_site_fract_x
_atom_site_fract_y
_atom_site_fract_z
Si Si1 0.534820 0.185851 0.928378
Si Si2 0.804407 0.187302 0.409737
Si Si3 0.149940 0.314701 0.403231
Si Si4 0.367212 0.688005 0.263271
Si Si5 0.482595 0.685793 0.740981
Si Si6 0.681487 0.685946 0.931477
O O1 0.490998 0.246061 0.834532
O O2 0.611867 0.254102 0.948102
O O3 0.538609 0.000000 0.926657
O O4 0.500000 0.231612 0.000000
O O5 0.845305 0.255141 0.502448
O O6 0.723568 0.229547 0.390437
O O7 0.834708 0.241647 0.335332
O O8 0.808901 0.000000 0.414901
O O9 0.144928 0.500000 0.400574
O O10 0.085470 0.243935 0.330631
O O11 0.365668 0.500000 0.264439
O O12 0.447258 0.733390 0.280151
O O13 0.325779 0.735430 0.166052
O O14 0.482341 0.500000 0.745943
O O15 0.681969 0.500000 0.933860
O O16 0.750000 0.750000 0.000000
#
# Coordination Sequence:
#
# PCOD9191787 Si02
#       6
#     8   8   8   8   8   8
#     4  10  21  37  56  78 106 140 177 218 265 316
#     4   9  18  35  55  72  97 135 175 212 252 304
#     4  10  20  33  51  77 106 134 167 211 260 308
#     4   8  17  34  54  74  97 132 175 213 252 302
#     4  10  20  35  55  77 103 135 172 214 258 310
#     4  10  20  35  55  80 109 140 177 220 266 316
#
# _framework density 17.532176
#
# number of rings (size 3 to 8) (size 9 to 14) (size 15 to 20)
#    0.000    2.500    0.000    3.000    0.000    4.000 
#    0.000   11.667    0.000    0.000    0.000    0.000 
#    0.000    0.000    0.000    0.000    0.000    0.000 
#
# Total GULP energy -133901.877986 kJ/mol
# GULP energy per Si atom -5579.244916 kJ/mol
# Density = 1.749227 g / cm^3
# Si number density = 17.532176 Si / 1000 Ang^3
#
#
#
# Elastic Constant Matrix: (Units=GPa)
#
#
# Indices 1 2 3 4 5 6 
#
# 1 118.8840 40.3942 136.0668 0.0000 -1.1276 0.0000
# 2 40.3942 42.7611 48.9113 0.0000 0.4604 0.0000
# 3 136.0668 48.9113 183.9989 0.0000 -2.1072 0.0000
# 4 0.0000 0.0000 0.0000 33.1958 0.0000 5.4035
# 5 -1.1276 0.4604 -2.1072 0.0000 44.2913 0.0000
# 6 0.0000 0.0000 0.0000 5.4035 0.0000 28.2819
#
#
#
# Elastic Compliance Matrix: (Units=1/GPa)
#
#
# Indices 1 2 3 4 5 6 
#
# 1 0.056621 -0.008025 -0.039742 0.000000 -0.000366 0.000000
# 2 -0.008025 0.034767 -0.003316 0.000000 -0.000723 0.000000
# 3 -0.039742 -0.003316 0.035714 0.000000 0.000722 0.000000
# 4 0.000000 0.000000 0.000000 0.031091 0.000000 -0.005940
# 5 -0.000366 -0.000723 0.000722 0.000000 0.022610 0.000000
# 6 0.000000 0.000000 0.000000 -0.005940 0.000000 0.036493
#
#
# Mechanical properties :
#
#
# Convention : Reuss Voigt Hill
#
# Bulk Modulus (GPa) = 40.10257 88.48763 64.29510
# Shear Modulus (GPa) = 15.25447 29.17192 22.21320
#
# Velocity S-wave (km/s) = 2.95292 4.08353 3.56335
# Velocity P-wave (km/s) = 5.87790 8.53315 7.32681
#
# Compressibility (1/GPa) = 0.02493606
#
# Stress axis : x y z
#
# Youngs Moduli (GPa) = 17.66139 28.76303 28.00060
#
# Poissons Ratio (x) = 0.23082 1.11280
# Poissons Ratio (y) = 0.14173 0.09284
# Poissons Ratio (z) = 0.70190 0.09537
#
# Static dielectric constant tensor:
#      x y z
#    x 1.581250 0.000000 -0.014070 
#    y 0.000000 1.594540 0.000000 
#    z -0.014070 0.000000 1.573470 
# 
# From -- ./inp_files/229880.got.cif
#   From: 2010.05.17/outbox.cif.g08.bks.cpg/sg12_115_cif.got.tgz:229880.got - 2010.06.03 13:09:07.
