data_PCOD9191829
_publ_section_title
;
Structure prediction by ZEFSAII (Michael W. Deem and Ramdas Pophale) SiO2 
 PCOD9191829
Probable space group: C 2/M
;
_chemical_formula_sum "Si O2"
_cell_formula_units_Z 40
_cell_length_a 16.421924
_cell_length_b 7.571665
_cell_length_c 32.050547
_cell_angle_alpha 90.000000
_cell_angle_beta 152.912994
_cell_angle_gamma 90.000000
_cell_volume 1814.636093
_symmetry_space_group_name_H-M "C 2/M"
_symmetry_group_IT_number 12
_symmetry_cell_setting 'monoclinic'
loop_
_space_group_symop_operation_xyz
x,y,z
-x,y,-z
-x,-y,-z
x,-y,z
1/2+x,1/2+y,z
1/2-x,1/2+y,-z
1/2-x,1/2-y,-z
1/2+x,1/2-y,z
loop_
_atom_site_type_symbol
_atom_site_label
_atom_site_fract_x
_atom_site_fract_y
_atom_site_fract_z
Si Si1 0.790251 0.210428 0.283596
Si Si2 0.892923 0.288401 0.100853
Si Si3 0.013618 0.794426 0.704306
Si Si4 0.294979 0.285760 0.900466
Si Si5 0.679288 0.786549 0.605144
O O1 0.591520 0.281497 0.182942
O O2 0.938915 0.282305 0.319452
O O3 0.822061 0.235897 0.347019
O O4 0.785775 0.000000 0.273997
O O5 0.906330 0.500000 0.110388
O O6 0.818432 0.224694 0.111240
O O7 0.750000 0.250000 0.000000
O O8 0.195504 0.781076 0.814075
O O9 0.853585 0.718546 0.659559
O O10 0.965773 0.000000 0.676810
O O11 0.293070 0.500000 0.898090
O O12 0.500000 0.230140 0.000000
O O13 0.500000 0.727980 0.500000
O O14 0.683341 0.000000 0.606557
#
# Coordination Sequence:
#
# PCOD9191829 Si02
#       5
#     8   8   8   8   8
#     4  10  21  38  58  83 114 147 188 235 281 335
#     4  10  20  33  51  78 112 147 184 227 272 328
#     4  10  21  37  58  83 113 148 187 233 281 334
#     4  10  20  34  53  80 114 149 187 231 277 330
#     4  10  22  40  60  84 114 148 189 237 287 338
#
# _framework density 22.042987
#
# number of rings (size 3 to 8) (size 9 to 14) (size 15 to 20)
#    0.000    2.000    2.000    1.200    0.000    4.000 
#    0.000    0.000    0.000    0.000    0.000    0.000 
#    0.000    0.000    0.000    0.000    0.000    0.000 
#
# Total GULP energy -111736.569456 kJ/mol
# GULP energy per Si atom -5586.828473 kJ/mol
# Density = 2.199282 g / cm^3
# Si number density = 22.042987 Si / 1000 Ang^3
#
#
#
# Elastic Constant Matrix: (Units=GPa)
#
#
# Indices 1 2 3 4 5 6 
#
# 1 208.1271 1.3927 60.3856 0.0001 -2.0357 0.0000
# 2 1.3927 48.5620 -16.2169 0.0002 6.9533 -0.0002
# 3 60.3856 -16.2169 100.7572 0.0004 -4.4335 -0.0001
# 4 0.0001 0.0002 0.0004 -7.6127 -0.0001 -16.8557
# 5 -2.0357 6.9533 -4.4335 -0.0001 27.5418 0.0001
# 6 0.0000 -0.0002 -0.0001 -16.8557 0.0001 9.7936
#
#
#
# Elastic Compliance Matrix: (Units=1/GPa)
#
#
# Indices 1 2 3 4 5 6 
#
# 1 0.005909 -0.001456 -0.003767 0.000000 0.000198 0.000000
# 2 -0.001456 0.022816 0.004317 0.000000 -0.005173 0.000000
# 3 -0.003767 0.004317 0.012909 0.000000 0.000710 0.000000
# 4 0.000000 0.000000 0.000000 -0.027305 0.000000 -0.046995
# 5 0.000198 -0.005173 0.000710 0.000000 0.037743 0.000000
# 6 0.000000 0.000000 0.000000 -0.046995 0.000000 0.021225
#
#
# Mechanical properties :
#
#
# Convention : Reuss Voigt Hill
#
# Bulk Modulus (GPa) = 25.11129 49.84100 37.47614
# Shear Modulus (GPa) = 56.57185 26.73688 41.65437
#
# Velocity S-wave (km/s) = 5.07149 3.48651 4.35177
# Velocity P-wave (km/s) = 6.76092 6.23439 6.50299
#
# Compressibility (1/GPa) = 0.03982272
#
# Stress axis : x y z
#
# Youngs Moduli (GPa) = 169.22031 43.82819 77.46707
#
# Poissons Ratio (x) = 0.06381 0.29184
# Poissons Ratio (y) = 0.24636 -0.33444
# Poissons Ratio (z) = 0.63750 -0.18922
#
# Static dielectric constant tensor:
#      x y z
#    x 1.834260 0.000000 0.031300 
#    y 0.000000 1.820230 0.000000 
#    z 0.031300 0.000000 1.770960 
# 
# From -- ./inp_files/174915.got.cif
#   From: 2010.05.17/outbox.cif.g08.bks.cpg/sg12_88_cif.got.tgz:174915.got - 2010.06.03 13:09:07.
