data_PCOD9191054
_publ_section_title
;
Structure prediction by ZEFSAII (Michael W. Deem and Ramdas Pophale) SiO2 
 PCOD9191054
Probable space group: C 2/M
;
_chemical_formula_sum "Si O2"
_cell_formula_units_Z 64
_cell_length_a 16.907848
_cell_length_b 12.718553
_cell_length_c 26.263659
_cell_angle_alpha 90.000000
_cell_angle_beta 148.634690
_cell_angle_gamma 90.000000
_cell_volume 2939.652227
_symmetry_space_group_name_H-M "C 2/M"
_symmetry_group_IT_number 12
_symmetry_cell_setting 'monoclinic'
loop_
_space_group_symop_operation_xyz
x,y,z
-x,y,-z
-x,-y,-z
x,-y,z
1/2+x,1/2+y,z
1/2-x,1/2+y,-z
1/2-x,1/2-y,-z
1/2+x,1/2-y,z
loop_
_atom_site_type_symbol
_atom_site_label
_atom_site_fract_x
_atom_site_fract_y
_atom_site_fract_z
Si Si1 0.641465 0.883149 0.841641
Si Si2 0.783159 0.819404 0.230839
Si Si3 0.649764 0.876410 0.499395
Si Si4 0.506426 0.843916 0.876330
Si Si5 0.315349 0.881384 0.311340
Si Si6 0.007627 0.115847 0.835839
Si Si7 0.078906 0.263243 0.356813
Si Si8 0.778666 0.669105 0.915590
O O1 0.572326 0.887728 0.860414
O O2 0.515750 0.830279 0.735842
O O3 0.773560 0.796287 0.914687
O O4 0.683777 0.000000 0.848559
O O5 0.672131 0.866915 0.212676
O O6 0.776057 0.696121 0.243347
O O7 0.708526 0.853898 0.136724
O O8 0.964343 0.823108 0.320349
O O9 0.478360 0.853547 0.424505
O O10 0.781662 0.799850 0.590627
O O11 0.635585 0.842861 0.431818
O O12 0.681845 0.000000 0.523848
O O13 0.535887 0.718156 0.885531
O O14 0.601550 0.874244 0.978398
O O15 0.173701 0.879905 0.271675
O O16 0.331420 0.000000 0.300827
O O17 0.114639 0.130383 0.846033
O O18 0.040696 0.000000 0.876412
#
# Coordination Sequence:
#
# PCOD9191054 Si02
#       8
#     8   8   8   8   8   8   8   8
#     4  10  20  35  54  76 105 140 178 216 258 312
#     4   9  18  33  50  72 106 140 171 216 261 303
#     4   9  16  30  55  84 110 134 170 217 264 317
#     4  10  20  34  52  75 103 139 179 217 257 303
#     4   8  15  29  53  80 103 132 165 206 265 321
#     4   9  17  31  50  73 102 133 165 206 260 312
#     4   9  18  32  54  82 107 141 177 211 262 315
#     4  10  20  32  52  79 103 135 178 219 260 305
#
# _framework density 21.771284000000001
#
# number of rings (size 3 to 8) (size 9 to 14) (size 15 to 20)
#    0.000    2.750    0.000    2.250    0.000    5.000 
#    0.000    6.875    0.000   36.000    0.000   67.375 
#    0.000    0.000    0.000    0.000    0.000    0.000 
#
# Total GULP energy -178200.041696 kJ/mol
# GULP energy per Si atom -5568.751303 kJ/mol
# Density = 2.172173 g / cm^3
# Si number density = 21.771284 Si / 1000 Ang^3
#
#
#
# Elastic Constant Matrix: (Units=GPa)
#
#
# Indices 1 2 3 4 5 6 
#
# 1 61.5739 -8.5333 10.1283 0.0000 11.1195 0.0000
# 2 -8.5333 83.6772 15.4591 0.0001 0.5230 0.0000
# 3 10.1283 15.4591 33.3960 0.0007 0.9814 0.0001
# 4 0.0000 0.0001 0.0007 2.4814 0.0000 7.0865
# 5 11.1195 0.5230 0.9814 0.0000 36.2511 0.0000
# 6 0.0000 0.0000 0.0001 7.0865 0.0000 1.4914
#
#
#
# Elastic Compliance Matrix: (Units=1/GPa)
#
#
# Indices 1 2 3 4 5 6 
#
# 1 0.018876 0.003267 -0.007071 0.000000 -0.005646 0.000001
# 2 0.003267 0.013634 -0.007272 0.000000 -0.001002 0.000000
# 3 -0.007071 -0.007272 0.035416 0.000000 0.001315 -0.000004
# 4 0.000000 0.000000 0.000000 -0.032060 0.000000 0.152339
# 5 -0.005646 -0.001002 0.001315 0.000000 0.029296 0.000000
# 6 0.000001 0.000000 -0.000004 0.152339 0.000000 -0.053342
#
#
# Mechanical properties :
#
#
# Convention : Reuss Voigt Hill
#
# Bulk Modulus (GPa) = 21.84729 23.63949 22.74339
# Shear Modulus (GPa) = 101.56463 18.81763 60.19113
#
# Velocity S-wave (km/s) = 6.83754 2.94314 5.26375
# Velocity P-wave (km/s) = 8.50839 4.73615 6.88563
#
# Compressibility (1/GPa) = 0.04577226
#
# Stress axis : x y z
#
# Youngs Moduli (GPa) = 52.97748 73.34822 28.23594
#
# Poissons Ratio (x) = -0.23959 0.19965
# Poissons Ratio (y) = -0.17305 0.20534
# Poissons Ratio (z) = 0.37460 0.53341
#
# Static dielectric constant tensor:
#      x y z
#    x 1.823340 0.000000 0.028390 
#    y 0.000000 1.816400 0.000000 
#    z 0.028390 0.000000 1.842690 
# 
# From -- ./inp_files/379359.got.cif
#   From: 2010.05.17/outbox.cif.g08.bks.cpg/sg12_190_cif.got.tgz:379359.got - 2010.06.03 13:09:07.
