data_PCOD9191324
_publ_section_title
;
Structure prediction by ZEFSAII (Michael W. Deem and Ramdas Pophale) SiO2 
 PCOD9191324
Probable space group: C 2/M
;
_chemical_formula_sum "Si O2"
_cell_formula_units_Z 56
_cell_length_a 30.348149
_cell_length_b 12.969778
_cell_length_c 16.755014
_cell_angle_alpha 90.000000
_cell_angle_beta 28.163880
_cell_angle_gamma 90.000000
_cell_volume 3112.769929
_symmetry_space_group_name_H-M "C 2/M"
_symmetry_group_IT_number 12
_symmetry_cell_setting 'monoclinic'
loop_
_space_group_symop_operation_xyz
x,y,z
-x,y,-z
-x,-y,-z
x,-y,z
1/2+x,1/2+y,z
1/2-x,1/2+y,-z
1/2-x,1/2-y,-z
1/2+x,1/2-y,z
loop_
_atom_site_type_symbol
_atom_site_label
_atom_site_fract_x
_atom_site_fract_y
_atom_site_fract_z
Si Si1 0.684857 0.759250 0.297287
Si Si2 0.795040 0.622560 0.236133
Si Si3 0.628155 0.380714 0.055186
Si Si4 0.999517 0.618525 0.630151
Si Si5 0.525016 0.193567 0.153412
Si Si6 0.853178 0.785581 0.810489
Si Si7 0.591532 0.879830 0.796734
O O1 0.714003 0.689517 0.325631
O O2 0.774431 0.827026 0.127136
O O3 0.600389 0.834945 0.450746
O O4 0.654409 0.688257 0.270525
O O5 0.777602 0.500000 0.262225
O O6 0.823991 0.652402 0.280293
O O7 0.886302 0.646572 0.035778
O O8 0.625794 0.500000 0.037508
O O9 0.549985 0.310426 0.137709
O O10 0.618201 0.366304 0.166941
O O11 0.991149 0.500000 0.620288
O O12 0.984151 0.632286 0.749454
O O13 0.922717 0.689124 0.709438
O O14 0.435957 0.181933 0.238323
O O15 0.750000 0.750000 0.000000
O O16 0.604161 0.000000 0.754825
O O17 0.500000 0.874948 0.000000
#
# Coordination Sequence:
#
# PCOD9191324 Si02
#       7
#     8   8   8   8   8   8   8
#     4  10  20  33  48  74 105 130 163 203 245 298
#     4   9  17  31  53  76  99 131 167 205 248 289
#     4   9  18  33  51  70  97 134 168 202 248 295
#     4  11  21  33  52  76 102 131 162 201 248 295
#     4   9  17  30  51  77 100 124 167 214 246 287
#     4   9  20  34  49  71  94 123 165 203 237 285
#     4   8  13  25  49  77  99 123 161 208 251 284
#
# _framework density 17.990407999999999
#
# number of rings (size 3 to 8) (size 9 to 14) (size 15 to 20)
#    0.000    2.714    0.000    3.857    0.000    4.000 
#    0.000    3.571    0.000   15.857    0.000    0.000 
#    0.000    0.000    0.000    0.000    0.000    0.000 
#
# Total GULP energy -156023.836423 kJ/mol
# GULP energy per Si atom -5572.279872 kJ/mol
# Density = 1.794946 g / cm^3
# Si number density = 17.990408 Si / 1000 Ang^3
#
#
#
# Elastic Constant Matrix: (Units=GPa)
#
#
# Indices 1 2 3 4 5 6 
#
# 1 146.5551 51.5148 17.5886 0.0000 -6.4148 0.0000
# 2 51.5148 93.8126 8.5591 0.0000 -14.9656 0.0000
# 3 17.5886 8.5591 26.1120 0.0000 -8.3308 0.0000
# 4 0.0000 0.0000 0.0000 16.4456 0.0000 -3.4333
# 5 -6.4148 -14.9656 -8.3308 0.0000 14.2713 0.0000
# 6 0.0000 0.0000 0.0000 -3.4333 0.0000 0.2666
#
#
#
# Elastic Compliance Matrix: (Units=1/GPa)
#
#
# Indices 1 2 3 4 5 6 
#
# 1 0.009188 -0.005281 -0.006030 0.000000 -0.004928 0.000000
# 2 -0.005281 0.015837 0.003573 0.000000 0.016319 0.000000
# 3 -0.006030 0.003573 0.051019 0.000000 0.030818 0.000000
# 4 0.000000 0.000000 0.000000 -0.036018 0.000000 -0.463791
# 5 -0.004928 0.016319 0.030818 0.000000 0.102958 0.000000
# 6 0.000000 0.000000 0.000000 -0.463791 0.000000 -2.221554
#
#
# Mechanical properties :
#
#
# Convention : Reuss Voigt Hill
#
# Bulk Modulus (GPa) = 16.51060 46.86719 31.68889
# Shear Modulus (GPa) = -2.44750 18.78451 8.16851
#
# Velocity S-wave (km/s) = -1.16765 3.23482 2.13315
# Velocity P-wave (km/s) = 2.71652 6.32929 4.87029
#
# Compressibility (1/GPa) = 0.06056714
#
# Stress axis : x y z
#
# Youngs Moduli (GPa) = 108.84106 63.14333 19.60039
#
# Poissons Ratio (x) = 0.33348 0.11819
# Poissons Ratio (y) = 0.57482 -0.07003
# Poissons Ratio (z) = 0.65630 -0.22559
#
# Static dielectric constant tensor:
#      x y z
#    x 1.657080 0.000000 0.008280 
#    y 0.000000 1.581820 0.000000 
#    z 0.008280 0.000000 1.619770 
# 
# From -- ./inp_files/250997.got.cif
#   From: 2010.05.17/outbox.cif.g08.bks.cpg/sg12_126_cif.got.tgz:250997.got - 2010.06.03 13:09:07.
