data_PCOD9191640
_publ_section_title
;
Structure prediction by ZEFSAII (Michael W. Deem and Ramdas Pophale) SiO2 
 PCOD9191640
Probable space group: C 2/M
;
_chemical_formula_sum "Si O2"
_cell_formula_units_Z 56
_cell_length_a 31.824605
_cell_length_b 8.307121
_cell_length_c 12.953281
_cell_angle_alpha 90.000000
_cell_angle_beta 56.405045
_cell_angle_gamma 90.000000
_cell_volume 2852.480519
_symmetry_space_group_name_H-M "C 2/M"
_symmetry_group_IT_number 12
_symmetry_cell_setting 'monoclinic'
loop_
_space_group_symop_operation_xyz
x,y,z
-x,y,-z
-x,-y,-z
x,-y,z
1/2+x,1/2+y,z
1/2-x,1/2+y,-z
1/2-x,1/2-y,-z
1/2+x,1/2-y,z
loop_
_atom_site_type_symbol
_atom_site_label
_atom_site_fract_x
_atom_site_fract_y
_atom_site_fract_z
Si Si1 0.256432 0.315315 0.817234
Si Si2 0.387512 0.803963 0.475962
Si Si3 0.362879 0.187550 0.732971
Si Si4 0.459832 0.195983 0.198883
Si Si5 0.726903 0.192975 0.424041
Si Si6 0.845676 0.185408 0.971727
Si Si7 0.571894 0.805107 0.984126
O O1 0.272538 0.500000 0.805242
O O2 0.303282 0.206924 0.788948
O O3 0.246397 0.272549 0.711186
O O4 0.205752 0.285787 0.949285
O O5 0.389802 0.750817 0.592068
O O6 0.430829 0.746849 0.339795
O O7 0.332287 0.761870 0.506316
O O8 0.389106 0.000000 0.476553
O O9 0.375011 0.000000 0.730934
O O10 0.372178 0.278085 0.826765
O O11 0.431229 0.242072 0.132035
O O12 0.459618 0.000000 0.200832
O O13 0.518121 0.243163 0.107219
O O14 0.750000 0.250000 0.500000
O O15 0.730686 0.000000 0.410728
O O16 0.882619 0.231212 0.014296
O O17 0.831282 0.000000 0.997296
O O18 0.575599 0.000000 0.983683
#
# Coordination Sequence:
#
# PCOD9191640 Si02
#       7
#     8   8   8   8   8   8   8
#     4  11  22  37  56  78 108 147 185 226 277 328
#     4   8  16  31  54  79 106 141 180 223 270 321
#     4  10  20  37  57  80 109 143 185 228 272 330
#     4   8  15  32  57  84 110 138 177 225 274 327
#     4  10  20  33  50  79 115 149 187 227 268 321
#     4  12  24  37  54  78 111 145 184 229 274 329
#     4   9  18  33  57  85 110 138 179 225 273 329
#
# _framework density 19.632037
#
# number of rings (size 3 to 8) (size 9 to 14) (size 15 to 20)
#    0.000    2.286    0.000    5.571    2.000    0.000 
#    0.000    2.143    0.000   10.286    0.000    0.000 
#    0.000    0.000    0.000    0.000    0.000    0.000 
#
# Total GULP energy -156312.305839 kJ/mol
# GULP energy per Si atom -5582.582351 kJ/mol
# Density = 1.958735 g / cm^3
# Si number density = 19.632037 Si / 1000 Ang^3
#
#
#
# Elastic Constant Matrix: (Units=GPa)
#
#
# Indices 1 2 3 4 5 6 
#
# 1 19.8789 -7.1528 4.2752 0.0000 5.1854 0.0000
# 2 -7.1528 30.7687 -0.8150 0.0000 -0.4429 0.0000
# 3 4.2752 -0.8150 114.2906 0.0000 -5.0963 0.0000
# 4 0.0000 0.0000 0.0000 16.8455 0.0000 6.5709
# 5 5.1854 -0.4429 -5.0963 0.0000 17.2530 0.0000
# 6 0.0000 0.0000 0.0000 6.5709 0.0000 22.3527
#
#
#
# Elastic Compliance Matrix: (Units=1/GPa)
#
#
# Indices 1 2 3 4 5 6 
#
# 1 0.060823 0.013789 -0.003016 0.000000 -0.018817 0.000000
# 2 0.013789 0.035647 -0.000411 0.000000 -0.003351 0.000000
# 3 -0.003016 -0.000411 0.009018 0.000000 0.003560 0.000000
# 4 0.000000 0.000000 0.000000 0.067051 0.000000 -0.019711
# 5 -0.018817 -0.003351 0.003560 0.000000 0.064582 0.000000
# 6 0.000000 0.000000 0.000000 -0.019711 0.000000 0.050532
#
#
# Mechanical properties :
#
#
# Convention : Reuss Voigt Hill
#
# Bulk Modulus (GPa) = 7.92316 17.50590 12.71453
# Shear Modulus (GPa) = 16.18120 22.53229 19.35675
#
# Velocity S-wave (km/s) = 2.87405 3.39149 3.14343
# Velocity P-wave (km/s) = 3.88048 4.92673 4.43457
#
# Compressibility (1/GPa) = 0.12621226
#
# Stress axis : x y z
#
# Youngs Moduli (GPa) = 16.44107 28.05290 110.88639
#
# Poissons Ratio (x) = -0.38682 0.33443
# Poissons Ratio (y) = -0.22670 0.04557
# Poissons Ratio (z) = 0.04959 0.01153
#
# Static dielectric constant tensor:
#      x y z
#    x 1.654850 0.000000 0.006950 
#    y 0.000000 1.670450 0.000000 
#    z 0.006950 0.000000 1.717010 
# 
# From -- ./inp_files/187147.got.cif
#   From: 2010.05.17/outbox.cif.g08.bks.cpg/sg12_94_cif.got.tgz:187147.got - 2010.06.03 13:09:07.
