data_PCOD9191235
_publ_section_title
;
Structure prediction by ZEFSAII (Michael W. Deem and Ramdas Pophale) SiO2 
 PCOD9191235
Probable space group: C 2/M
;
_chemical_formula_sum "Si O2"
_cell_formula_units_Z 52
_cell_length_a 5.360893
_cell_length_b 24.844069
_cell_length_c 23.181144
_cell_angle_alpha 90.000000
_cell_angle_beta 97.402240
_cell_angle_gamma 90.000000
_cell_volume 3061.682905
_symmetry_space_group_name_H-M "C 2/M"
_symmetry_group_IT_number 12
_symmetry_cell_setting 'monoclinic'
loop_
_space_group_symop_operation_xyz
x,y,z
-x,y,-z
-x,-y,-z
x,-y,z
1/2+x,1/2+y,z
1/2-x,1/2+y,-z
1/2-x,1/2-y,-z
1/2+x,1/2-y,z
loop_
_atom_site_type_symbol
_atom_site_label
_atom_site_fract_x
_atom_site_fract_y
_atom_site_fract_z
Si Si1 0.767109 0.500000 0.538855
Si Si2 0.544467 0.434430 0.067218
Si Si3 0.037503 0.391865 0.432869
Si Si4 0.581969 0.065706 0.134574
Si Si5 0.628342 0.935239 0.267967
Si Si6 0.216055 0.727149 0.432368
Si Si7 0.157520 0.934848 0.337568
O O1 0.500000 0.500000 0.500000
O O2 0.802477 0.445606 0.575830
O O3 0.000000 0.500000 0.500000
O O4 0.544545 0.500000 0.067103
O O5 0.316435 0.417585 0.101970
O O6 0.815345 0.417530 0.099673
O O7 0.500000 0.417260 0.000000
O O8 0.174498 0.336170 0.425216
O O9 0.000000 0.390108 0.500000
O O10 0.769956 0.402257 0.394932
O O11 0.610933 0.083893 0.201518
O O12 0.581771 0.000000 0.135209
O O13 0.372681 0.924684 0.295429
O O14 0.885289 0.917222 0.306743
O O15 0.651115 0.000000 0.266183
O O16 0.250000 0.750000 0.500000
O O17 0.459283 0.745350 0.405707
O O18 0.156126 0.000000 0.349675
#
# Coordination Sequence:
#
# PCOD9191235 Si02
#       7
#     4   8   8   8   8   8   8
#     4  10  24  34  50  74  96 122 144 176 229 302
#     4   9  15  21  32  53  76  97 134 182 226 262
#     4  11  22  38  55  73  99 120 150 189 248 303
#     4   9  15  24  37  50  70 108 138 172 222 267
#     4   9  18  31  44  57  82 112 150 180 219 279
#     4  10  21  37  55  73  92 120 151 181 220 292
#     4  10  20  33  45  66  87 112 144 188 230 281
#
# _framework density 16.984123
#
# number of rings (size 3 to 8) (size 9 to 14) (size 15 to 20)
#    0.000    2.308    2.308    1.385    2.154    9.231 
#    0.000    0.000    0.000    0.000    0.000    0.000 
#    0.000    0.000    0.000    0.000    0.000    0.000 
#
# Total GULP energy -144990.782144 kJ/mol
# GULP energy per Si atom -5576.568544 kJ/mol
# Density = 1.694547 g / cm^3
# Si number density = 16.984123 Si / 1000 Ang^3
#
#
#
# Elastic Constant Matrix: (Units=GPa)
#
#
# Indices 1 2 3 4 5 6 
#
# 1 130.2911 20.1252 50.0100 0.0000 17.4125 0.0000
# 2 20.1252 76.3454 4.7109 0.0000 10.6203 0.0000
# 3 50.0100 4.7109 113.3626 0.0000 6.8184 0.0000
# 4 0.0000 0.0000 0.0000 -2.6924 0.0000 1.7873
# 5 17.4125 10.6203 6.8184 0.0000 27.8418 0.0000
# 6 0.0000 0.0000 0.0000 1.7873 0.0000 7.7138
#
#
#
# Elastic Compliance Matrix: (Units=1/GPa)
#
#
# Indices 1 2 3 4 5 6 
#
# 1 0.010156 -0.001774 -0.004126 0.000000 -0.004665 0.000000
# 2 -0.001774 0.014150 0.000459 0.000000 -0.004401 0.000000
# 3 -0.004126 0.000459 0.010634 0.000000 -0.000199 0.000000
# 4 0.000000 0.000000 0.000000 -0.321901 0.000000 0.074584
# 5 -0.004665 -0.004401 -0.000199 0.000000 0.040562 0.000000
# 6 0.000000 0.000000 0.000000 0.074584 0.000000 0.112358
#
#
# Mechanical properties :
#
#
# Convention : Reuss Voigt Hill
#
# Bulk Modulus (GPa) = 41.56461 52.18792 46.87627
# Shear Modulus (GPa) = -43.42548 22.91615 -10.25466
#
# Velocity S-wave (km/s) = -5.06199 3.67722 -2.45986
# Velocity P-wave (km/s) = 3.10472 6.98738 4.42630
#
# Compressibility (1/GPa) = 0.02405893
#
# Stress axis : x y z
#
# Youngs Moduli (GPa) = 98.46133 70.67250 94.03444
#
# Poissons Ratio (x) = 0.12536 0.38800
# Poissons Ratio (y) = 0.17465 -0.04318
# Poissons Ratio (z) = 0.40627 -0.03245
#
# Static dielectric constant tensor:
#      x y z
#    x 1.622180 0.000000 -0.016980 
#    y 0.000000 1.573020 0.000000 
#    z -0.016980 0.000000 1.600840 
# 
# From -- ./inp_files/298031.got.cif
#   From: 2010.05.17/outbox.cif.g08.bks.cpg/sg12_150_cif.got.tgz:298031.got - 2010.06.03 13:09:07.
