data_PCOD9191068
_publ_section_title
;
Structure prediction by ZEFSAII (Michael W. Deem and Ramdas Pophale) SiO2 
 PCOD9191068
Probable space group: C 2/M
;
_chemical_formula_sum "Si O2"
_cell_formula_units_Z 58
_cell_length_a 17.200068
_cell_length_b 7.619344
_cell_length_c 21.371363
_cell_angle_alpha 90.000000
_cell_angle_beta 124.975108
_cell_angle_gamma 90.000000
_cell_volume 2294.967495
_symmetry_space_group_name_H-M "C 2/M"
_symmetry_group_IT_number 12
_symmetry_cell_setting 'monoclinic'
loop_
_space_group_symop_operation_xyz
x,y,z
-x,y,-z
-x,-y,-z
x,-y,z
1/2+x,1/2+y,z
1/2-x,1/2+y,-z
1/2-x,1/2-y,-z
1/2+x,1/2-y,z
loop_
_atom_site_type_symbol
_atom_site_label
_atom_site_fract_x
_atom_site_fract_y
_atom_site_fract_z
Si Si1 0.639484 0.206212 0.055985
Si Si2 0.452347 0.801603 0.114973
Si Si3 0.648772 0.285079 0.528676
Si Si4 0.853342 0.797522 0.334519
Si Si5 0.145304 0.790463 0.802811
Si Si6 0.860012 0.202613 0.741996
Si Si7 0.500000 0.500000 0.000000
Si Si8 0.628015 0.704816 0.385878
O O1 0.620231 0.256342 0.973381
O O2 0.571892 0.344909 0.056215
O O3 0.617066 0.000000 0.053246
O O4 0.743538 0.230388 0.131217
O O5 0.402122 0.791139 0.158564
O O6 0.551483 0.706936 0.171646
O O7 0.477772 0.000000 0.111594
O O8 0.648732 0.500000 0.529362
O O9 0.617069 0.225732 0.583264
O O10 0.599059 0.226200 0.441022
O O11 0.757472 0.223917 0.568511
O O12 0.879678 0.723334 0.278432
O O13 0.737386 0.794959 0.283122
O O14 0.885192 0.000000 0.348968
O O15 0.124249 0.000000 0.794197
O O16 0.900569 0.278294 0.694634
O O17 0.832207 0.000000 0.719095
O O18 0.601211 0.500000 0.374282
#
# Coordination Sequence:
#
# PCOD9191068 Si02
#       8
#     8   8   8   8   8   8   2   8
#     4  10  25  43  62  93 123 152 193 238 282 344
#     4  11  24  40  59  80 111 149 191 235 280 336
#     4   8  13  24  44  70 103 137 174 216 274 335
#     4   9  18  32  53  81 109 142 179 229 284 333
#     4  10  22  40  60  80 112 148 189 237 282 338
#     4  10  20  32  52  80 111 144 185 231 280 334
#     4  12  26  40  72  94 120 156 188 236 300 338
#     4   8  14  25  42  70 104 138 174 221 271 329
#
# _framework density 25.272690000000001
#
# number of rings (size 3 to 8) (size 9 to 14) (size 15 to 20)
#    0.000    2.483    0.000    1.448    4.828    1.103 
#    0.000    0.000    0.000    0.828    0.000    5.793 
#    0.000    0.000    0.000    0.000    0.000    0.000 
#
# Total GULP energy -161602.224045 kJ/mol
# GULP energy per Si atom -5572.490484 kJ/mol
# Density = 2.521517 g / cm^3
# Si number density = 25.272690 Si / 1000 Ang^3
#
#
#
# Elastic Constant Matrix: (Units=GPa)
#
#
# Indices 1 2 3 4 5 6 
#
# 1 56.2791 -3.3599 60.2911 0.0000 -35.3072 0.0000
# 2 -3.3599 35.2812 13.4313 0.0000 17.2249 0.0000
# 3 60.2911 13.4313 180.3468 0.0000 -58.1001 0.0000
# 4 0.0000 0.0000 0.0000 -28.2369 0.0000 -5.6055
# 5 -35.3072 17.2249 -58.1001 0.0000 53.5938 0.0000
# 6 0.0000 0.0000 0.0000 -5.6055 0.0000 8.9980
#
#
#
# Elastic Compliance Matrix: (Units=1/GPa)
#
#
# Indices 1 2 3 4 5 6 
#
# 1 0.034837 -0.003266 -0.005641 0.000000 0.017885 0.000000
# 2 -0.003266 0.048010 -0.012520 0.000000 -0.031155 0.000000
# 3 -0.005641 -0.012520 0.013004 0.000000 0.014405 0.000000
# 4 0.000000 0.000000 0.000000 -0.031517 0.000000 -0.019634
# 5 0.017885 -0.031155 0.014405 0.000000 0.056070 0.000000
# 6 0.000000 0.000000 0.000000 -0.019634 0.000000 0.098905
#
#
# Mechanical properties :
#
#
# Convention : Reuss Voigt Hill
#
# Bulk Modulus (GPa) = 18.86991 45.84800 32.35896
# Shear Modulus (GPa) = 17.86801 20.30729 19.08765
#
# Velocity S-wave (km/s) = 2.66185 2.83773 2.75119
# Velocity P-wave (km/s) = 4.11461 5.37751 4.78788
#
# Compressibility (1/GPa) = 0.05299442
#
# Stress axis : x y z
#
# Youngs Moduli (GPa) = 28.70492 20.82916 76.90008
#
# Poissons Ratio (x) = 0.06804 0.43382
# Poissons Ratio (y) = 0.09376 0.96282
# Poissons Ratio (z) = 0.16194 0.26079
#
# Static dielectric constant tensor:
#      x y z
#    x 2.029260 0.000000 -0.080620 
#    y 0.000000 2.044680 0.000000 
#    z -0.080620 0.000000 2.084940 
# 
# From -- ./inp_files/314284.got.cif
#   From: 2010.05.17/outbox.cif.g08.bks.cpg/sg12_158_cif.got.tgz:314284.got - 2010.06.03 13:09:07.
