data_PCOD9191295
_publ_section_title
;
Structure prediction by ZEFSAII (Michael W. Deem and Ramdas Pophale) SiO2 
 PCOD9191295
Probable space group: C 2/M
;
_chemical_formula_sum "Si O2"
_cell_formula_units_Z 56
_cell_length_a 30.169076
_cell_length_b 7.298727
_cell_length_c 15.602372
_cell_angle_alpha 90.000000
_cell_angle_beta 45.712123
_cell_angle_gamma 90.000000
_cell_volume 2459.325532
_symmetry_space_group_name_H-M "C 2/M"
_symmetry_group_IT_number 12
_symmetry_cell_setting 'monoclinic'
loop_
_space_group_symop_operation_xyz
x,y,z
-x,y,-z
-x,-y,-z
x,-y,z
1/2+x,1/2+y,z
1/2-x,1/2+y,-z
1/2-x,1/2-y,-z
1/2+x,1/2-y,z
loop_
_atom_site_type_symbol
_atom_site_label
_atom_site_fract_x
_atom_site_fract_y
_atom_site_fract_z
Si Si1 0.853413 0.709638 0.350012
Si Si2 0.487707 0.224174 0.113542
Si Si3 0.664774 0.776795 0.332450
Si Si4 0.971932 0.277377 0.446255
Si Si5 0.563829 0.223164 0.170785
Si Si6 0.745066 0.778033 0.376771
Si Si7 0.820603 0.717897 0.880861
O O1 0.864474 0.500000 0.362490
O O2 0.920810 0.786697 0.239316
O O3 0.811029 0.712634 0.322033
O O4 0.807991 0.786740 0.484483
O O5 0.540498 0.281023 0.109263
O O6 0.486040 0.000000 0.114455
O O7 0.500000 0.283297 0.000000
O O8 0.599495 0.721631 0.462169
O O9 0.722205 0.721271 0.314012
O O10 0.666902 0.712351 0.231886
O O11 0.665193 0.000000 0.330707
O O12 0.973088 0.500000 0.444739
O O13 0.000000 0.220239 0.500000
O O14 0.013949 0.220026 0.310191
O O15 0.630482 0.285749 0.114971
O O16 0.563937 0.000000 0.169076
O O17 0.747146 0.000000 0.377505
O O18 0.830563 0.500000 0.862722
O O19 0.750000 0.750000 0.000000
#
# Coordination Sequence:
#
# PCOD9191295 Si02
#       7
#     8   8   8   8   8   8   8
#     4   9  17  30  47  69  95 122 155 193 232 272
#     4   9  17  28  43  64  91 121 152 189 230 271
#     4   9  16  27  44  69  96 120 150 191 238 277
#     4   9  13  21  41  67  90 109 139 191 239 266
#     4   9  16  27  44  67  91 115 149 193 236 271
#     4   9  17  29  47  69  95 124 152 188 233 278
#     4  10  20  33  48  68  95 125 155 187 226 278
#
# _framework density 22.77047
#
# number of rings (size 3 to 8) (size 9 to 14) (size 15 to 20)
#    0.000    2.857    1.429    0.857    0.000    4.571 
#    0.000    2.143    0.000    1.286    0.000    3.000 
#    0.000    0.000    0.000    0.000    0.000    0.000 
#
# Total GULP energy -156406.592591 kJ/mol
# GULP energy per Si atom -5585.949735 kJ/mol
# Density = 2.271864 g / cm^3
# Si number density = 22.770470 Si / 1000 Ang^3
#
#
#
# Elastic Constant Matrix: (Units=GPa)
#
#
# Indices 1 2 3 4 5 6 
#
# 1 197.1624 -4.8274 68.1271 0.0002 6.9437 -0.0002
# 2 -4.8274 93.7205 -2.8325 0.0003 3.0961 -0.0013
# 3 68.1271 -2.8325 87.9977 0.0000 -6.4194 0.0002
# 4 0.0002 0.0003 0.0000 -9.9195 0.0001 0.1483
# 5 6.9437 3.0961 -6.4194 0.0001 35.5236 0.0000
# 6 -0.0002 -0.0013 0.0002 0.1483 0.0000 -2.5938
#
#
#
# Elastic Compliance Matrix: (Units=1/GPa)
#
#
# Indices 1 2 3 4 5 6 
#
# 1 0.007131 0.000276 -0.005690 0.000000 -0.002446 -0.000001
# 2 0.000276 0.010718 0.000060 0.000000 -0.000977 -0.000006
# 3 -0.005690 0.000060 0.016064 0.000000 0.004010 0.000001
# 4 0.000000 0.000000 0.000000 -0.100898 0.000000 -0.005768
# 5 -0.002446 -0.000977 0.004010 0.000000 0.029438 0.000001
# 6 -0.000001 -0.000006 0.000001 -0.005768 0.000001 -0.385869
#
#
# Mechanical properties :
#
#
# Convention : Reuss Voigt Hill
#
# Bulk Modulus (GPa) = 43.09488 55.53500 49.31494
# Shear Modulus (GPa) = -12.34654 25.82965 6.74155
#
# Velocity S-wave (km/s) = -2.33108 3.37166 1.72252
# Velocity P-wave (km/s) = 3.42368 6.29281 5.06562
#
# Compressibility (1/GPa) = 0.02320461
#
# Stress axis : x y z
#
# Youngs Moduli (GPa) = 140.23011 93.29802 62.25151
#
# Poissons Ratio (x) = -0.02576 0.35424
# Poissons Ratio (y) = -0.03872 -0.00373
# Poissons Ratio (z) = 0.79797 -0.00559
#
# Static dielectric constant tensor:
#      x y z
#    x 1.813390 0.000000 0.028730 
#    y 0.000000 1.950420 0.000000 
#    z 0.028730 0.000000 1.760920 
# 
# From -- ./inp_files/250532.got.cif
#   From: 2010.05.17/outbox.cif.g08.bks.cpg/sg12_126_cif.got.tgz:250532.got - 2010.06.03 13:09:07.
