data_PCOD9191806
_publ_section_title
;
Structure prediction by ZEFSAII (Michael W. Deem and Ramdas Pophale) SiO2 
 PCOD9191806
Probable space group: C 2/M
;
_chemical_formula_sum "Si O2"
_cell_formula_units_Z 40
_cell_length_a 14.054201
_cell_length_b 21.139838
_cell_length_c 9.007933
_cell_angle_alpha 90.000000
_cell_angle_beta 134.278261
_cell_angle_gamma 90.000000
_cell_volume 1916.109439
_symmetry_space_group_name_H-M "C 2/M"
_symmetry_group_IT_number 12
_symmetry_cell_setting 'monoclinic'
loop_
_space_group_symop_operation_xyz
x,y,z
-x,y,-z
-x,-y,-z
x,-y,z
1/2+x,1/2+y,z
1/2-x,1/2+y,-z
1/2-x,1/2-y,-z
1/2+x,1/2-y,z
loop_
_atom_site_type_symbol
_atom_site_label
_atom_site_fract_x
_atom_site_fract_y
_atom_site_fract_z
Si Si1 0.358414 0.427736 0.408003
Si Si2 0.974109 0.251832 0.298822
Si Si3 0.144075 0.069605 0.238318
Si Si4 0.354414 0.292801 0.769902
Si Si5 0.223059 0.319291 0.102498
O O1 0.500000 0.404826 0.500000
O O2 0.340057 0.500000 0.338636
O O3 0.368764 0.427667 0.596973
O O4 0.246292 0.383581 0.215693
O O5 0.857787 0.198407 0.160705
O O6 0.000000 0.262199 0.500000
O O7 0.103718 0.228852 0.350404
O O8 0.905215 0.311563 0.142067
O O9 0.211182 0.138081 0.281027
O O10 0.204690 0.000000 0.267831
O O11 0.000000 0.069196 0.000000
O O12 0.291306 0.236503 0.793273
O O13 0.500000 0.299777 0.000000
#
# Coordination Sequence:
#
# PCOD9191806 Si02
#       5
#     8   8   8   8   8
#     4  10  20  34  53  77 106 136 168 214 269 323
#     4  10  20  33  51  78 107 134 176 225 262 308
#     4   9  17  29  46  71 103 134 163 202 255 309
#     4   9  18  32  50  75 106 138 172 213 260 309
#     4  10  20  34  54  77 106 143 176 213 269 323
#
# _framework density 20.875634000000002
#
# number of rings (size 3 to 8) (size 9 to 14) (size 15 to 20)
#    0.000    2.400    0.000    3.000    0.000    4.800 
#    0.000    0.000    0.000    6.000    0.000    0.000 
#    0.000    2.400    0.000    0.000    0.000    0.000 
#
# Total GULP energy -111487.896897 kJ/mol
# GULP energy per Si atom -5574.394845 kJ/mol
# Density = 2.082812 g / cm^3
# Si number density = 20.875634 Si / 1000 Ang^3
#
#
#
# Elastic Constant Matrix: (Units=GPa)
#
#
# Indices 1 2 3 4 5 6 
#
# 1 59.0095 19.4758 3.6401 0.0000 -7.6877 0.0000
# 2 19.4758 133.6699 37.4363 0.0000 -3.0066 0.0000
# 3 3.6401 37.4363 129.7095 0.0000 -19.9826 0.0000
# 4 0.0000 0.0000 0.0000 23.2775 0.0000 4.6507
# 5 -7.6877 -3.0066 -19.9826 0.0000 25.9839 0.0000
# 6 0.0000 0.0000 0.0000 4.6507 0.0000 17.7866
#
#
#
# Elastic Compliance Matrix: (Units=1/GPa)
#
#
# Indices 1 2 3 4 5 6 
#
# 1 0.018638 -0.002933 0.001271 0.000000 0.006153 0.000000
# 2 -0.002933 0.008623 -0.002707 0.000000 -0.001952 0.000000
# 3 0.001271 -0.002707 0.009603 0.000000 0.007448 0.000000
# 4 0.000000 0.000000 0.000000 0.045328 0.000000 -0.011852
# 5 0.006153 -0.001952 0.007448 0.000000 0.045807 0.000000
# 6 0.000000 0.000000 0.000000 -0.011852 0.000000 0.059321
#
#
# Mechanical properties :
#
#
# Convention : Reuss Voigt Hill
#
# Bulk Modulus (GPa) = 35.55544 49.27705 42.41624
# Shear Modulus (GPa) = 24.33897 30.86538 27.60217
#
# Velocity S-wave (km/s) = 3.41824 3.84935 3.64018
# Velocity P-wave (km/s) = 5.71385 6.58885 6.16689
#
# Compressibility (1/GPa) = 0.02812509
#
# Stress axis : x y z
#
# Youngs Moduli (GPa) = 53.65493 115.97246 104.13941
#
# Poissons Ratio (x) = 0.34017 -0.13240
# Poissons Ratio (y) = 0.15738 0.28191
# Poissons Ratio (z) = -0.06822 0.31394
#
# Static dielectric constant tensor:
#      x y z
#    x 1.797200 0.000000 -0.012770 
#    y 0.000000 1.807150 0.000000 
#    z -0.012770 0.000000 1.815530 
# 
# From -- ./inp_files/61381.got.cif
#   From: 2010.05.17/outbox.cif.g08.bks.cpg/sg12_31_cif.got.tgz:61381.got - 2010.06.03 13:09:07.
