data_PCOD9191210
_publ_section_title
;
Structure prediction by ZEFSAII (Michael W. Deem and Ramdas Pophale) SiO2 
 PCOD9191210
Probable space group: C 2/M
;
_chemical_formula_sum "Si O2"
_cell_formula_units_Z 40
_cell_length_a 9.639064
_cell_length_b 21.537514
_cell_length_c 14.631878
_cell_angle_alpha 90.000000
_cell_angle_beta 135.984991
_cell_angle_gamma 90.000000
_cell_volume 2110.666216
_symmetry_space_group_name_H-M "C 2/M"
_symmetry_group_IT_number 12
_symmetry_cell_setting 'monoclinic'
loop_
_space_group_symop_operation_xyz
x,y,z
-x,y,-z
-x,-y,-z
x,-y,z
1/2+x,1/2+y,z
1/2-x,1/2+y,-z
1/2-x,1/2-y,-z
1/2+x,1/2-y,z
loop_
_atom_site_type_symbol
_atom_site_label
_atom_site_fract_x
_atom_site_fract_y
_atom_site_fract_z
Si Si1 0.206588 0.252138 0.267335
Si Si2 0.500000 0.393965 0.000000
Si Si3 0.500000 0.341790 0.500000
Si Si4 0.710871 0.928731 0.481300
Si Si5 0.216755 0.281958 0.888858
Si Si6 0.252714 0.397095 0.709552
O O1 0.391496 0.294626 0.380023
O O2 0.183134 0.254321 0.147156
O O3 0.228106 0.177992 0.292222
O O4 0.020608 0.279101 0.235404
O O5 0.315660 0.349301 0.940326
O O6 0.407900 0.421144 0.861541
O O7 0.342934 0.384169 0.480528
O O8 0.778459 0.923468 0.619761
O O9 0.475179 0.911458 0.368788
O O10 0.732222 0.000000 0.461813
O O11 0.250000 0.250000 0.000000
#
# Coordination Sequence:
#
# PCOD9191210 Si02
#       6
#     8   4   4   8   8   8
#     4  11  22  33  57  91 120 146 178 230 294 346
#     4  10  20  32  59  90 116 150 189 230 286 346
#     4  12  23  36  58  88 117 148 190 240 282 346
#     4  11  24  42  59  78 112 159 202 241 285 332
#     4  11  18  33  50  81 126 155 172 206 281 366
#     4  10  20  38  62  88 114 148 191 239 289 341
#
# _framework density 18.951362
#
# number of rings (size 3 to 8) (size 9 to 14) (size 15 to 20)
#    0.000    1.200    4.000    6.300    0.000    2.400 
#    0.000    2.000    0.000    0.000    0.000    4.200 
#    0.000    0.000    0.000    0.000    0.000    0.000 
#
# Total GULP energy -111487.726464 kJ/mol
# GULP energy per Si atom -5574.386323 kJ/mol
# Density = 1.890823 g / cm^3
# Si number density = 18.951362 Si / 1000 Ang^3
#
#
#
# Elastic Constant Matrix: (Units=GPa)
#
#
# Indices 1 2 3 4 5 6 
#
# 1 80.6395 12.6556 23.0594 0.0000 -0.8286 0.0000
# 2 12.6556 78.9528 28.3814 0.0000 6.2602 0.0000
# 3 23.0594 28.3814 118.9438 -0.0001 -7.3325 0.0000
# 4 0.0000 0.0000 -0.0001 8.5656 0.0000 -7.0089
# 5 -0.8286 6.2602 -7.3325 0.0000 29.4443 0.0000
# 6 0.0000 0.0000 0.0000 -7.0089 0.0000 8.6150
#
#
#
# Elastic Compliance Matrix: (Units=1/GPa)
#
#
# Indices 1 2 3 4 5 6 
#
# 1 0.013252 -0.001324 -0.002247 0.000000 0.000095 0.000000
# 2 -0.001324 0.014425 -0.003429 0.000000 -0.003958 0.000000
# 3 -0.002247 -0.003429 0.009854 0.000000 0.003120 0.000000
# 4 0.000000 0.000000 0.000000 0.349231 0.000001 0.284123
# 5 0.000095 -0.003958 0.003120 0.000001 0.035584 0.000001
# 6 0.000000 0.000000 0.000000 0.284123 0.000001 0.347229
#
#
# Mechanical properties :
#
#
# Convention : Reuss Voigt Hill
#
# Bulk Modulus (GPa) = 42.50008 45.19210 43.84609
# Shear Modulus (GPa) = 6.31777 23.62096 14.96936
#
# Velocity S-wave (km/s) = 1.82782 3.53427 2.81354
# Velocity P-wave (km/s) = 5.18933 6.36811 5.80870
#
# Compressibility (1/GPa) = 0.02352937
#
# Stress axis : x y z
#
# Youngs Moduli (GPa) = 75.45861 69.32623 101.48559
#
# Poissons Ratio (x) = 0.09178 0.22809
# Poissons Ratio (y) = 0.09990 0.34802
# Poissons Ratio (z) = 0.16959 0.23773
#
# Static dielectric constant tensor:
#      x y z
#    x 1.749620 0.000000 0.148120 
#    y 0.000000 1.643260 0.000000 
#    z 0.148120 0.000000 1.991750 
# 
# From -- ./inp_files/197344.got.cif
#   From: 2010.05.17/outbox.cif.g08.bks.cpg/sg12_99_cif.got.tgz:197344.got - 2010.06.03 13:09:07.
