data_PCOD9191290
_publ_section_title
;
Structure prediction by ZEFSAII (Michael W. Deem and Ramdas Pophale) SiO2 
 PCOD9191290
Probable space group: C 2/M
;
_chemical_formula_sum "Si O2"
_cell_formula_units_Z 56
_cell_length_a 15.883763
_cell_length_b 8.792886
_cell_length_c 24.071662
_cell_angle_alpha 90.000000
_cell_angle_beta 60.403649
_cell_angle_gamma 90.000000
_cell_volume 2923.301993
_symmetry_space_group_name_H-M "C 2/M"
_symmetry_group_IT_number 12
_symmetry_cell_setting 'monoclinic'
loop_
_space_group_symop_operation_xyz
x,y,z
-x,y,-z
-x,-y,-z
x,-y,z
1/2+x,1/2+y,z
1/2-x,1/2+y,-z
1/2-x,1/2-y,-z
1/2+x,1/2-y,z
loop_
_atom_site_type_symbol
_atom_site_label
_atom_site_fract_x
_atom_site_fract_y
_atom_site_fract_z
Si Si1 0.375794 0.171340 0.698061
Si Si2 0.227443 0.314338 0.162128
Si Si3 0.274024 0.171518 0.434422
Si Si4 0.965757 0.684935 0.841025
Si Si5 0.924738 0.829023 0.567235
Si Si6 0.075799 0.673513 0.700555
Si Si7 0.949471 0.816157 0.074243
O O1 0.299212 0.239827 0.766694
O O2 0.402172 0.253950 0.633053
O O3 0.473741 0.163690 0.702220
O O4 0.344605 0.000000 0.694150
O O5 0.223971 0.500000 0.165092
O O6 0.140539 0.269446 0.148264
O O7 0.336192 0.269282 0.111272
O O8 0.250000 0.250000 0.500000
O O9 0.175100 0.162397 0.432991
O O10 0.350383 0.247544 0.367080
O O11 0.310377 0.000000 0.434999
O O12 0.967759 0.500000 0.840341
O O13 0.047106 0.739092 0.769719
O O14 0.993767 0.747124 0.891862
O O15 0.000000 0.752308 0.500000
O O16 0.962472 0.000000 0.566256
O O17 0.112485 0.500000 0.698235
O O18 0.952139 0.000000 0.077902
O O19 0.000000 0.772827 0.000000
#
# Coordination Sequence:
#
# PCOD9191290 Si02
#       7
#     8   8   8   8   8   8   8
#     4   9  17  32  54  73  91 124 171 212 245 296
#     4   8  17  35  55  77 108 142 174 216 269 316
#     4  10  20  33  48  67  95 129 164 202 247 298
#     4   9  18  35  58  79 103 139 182 222 261 310
#     4  10  21  33  45  68 103 133 156 199 262 308
#     4   8  16  32  52  72  94 125 165 210 253 292
#     4  10  21  36  54  79 113 146 173 213 272 327
#
# _framework density 19.156419
#
# number of rings (size 3 to 8) (size 9 to 14) (size 15 to 20)
#    0.000    2.857    0.000    2.571    2.000    1.714 
#    0.000    4.286    0.000    0.000    0.000    0.000 
#    0.000    0.000    0.000    0.000    0.000    0.000 
#
# Total GULP energy -155927.305852 kJ/mol
# GULP energy per Si atom -5568.832352 kJ/mol
# Density = 1.911282 g / cm^3
# Si number density = 19.156419 Si / 1000 Ang^3
#
#
#
# Elastic Constant Matrix: (Units=GPa)
#
#
# Indices 1 2 3 4 5 6 
#
# 1 72.0077 12.9372 79.7711 0.0000 3.5625 0.0000
# 2 12.9372 14.1048 37.7508 0.0000 8.4308 0.0001
# 3 79.7711 37.7508 225.2016 0.0000 5.8729 0.0000
# 4 0.0000 0.0000 0.0000 15.2240 0.0000 10.4092
# 5 3.5625 8.4308 5.8729 0.0000 41.3877 0.0000
# 6 0.0000 0.0001 0.0000 10.4092 0.0000 -34.2126
#
#
#
# Elastic Compliance Matrix: (Units=1/GPa)
#
#
# Indices 1 2 3 4 5 6 
#
# 1 0.022925 0.002504 -0.008507 0.000000 -0.001276 0.000000
# 2 0.002504 0.155749 -0.026260 0.000000 -0.028216 0.000000
# 3 -0.008507 -0.026260 0.011741 0.000000 0.004415 0.000000
# 4 0.000000 0.000000 0.000000 0.054375 0.000000 0.016543
# 5 -0.001276 -0.028216 0.004415 0.000000 0.029393 0.000000
# 6 0.000000 0.000000 0.000000 0.016543 0.000000 -0.024196
#
#
# Mechanical properties :
#
#
# Convention : Reuss Voigt Hill
#
# Bulk Modulus (GPa) = 7.94347 63.58137 35.76242
# Shear Modulus (GPa) = 14.02628 16.53680 15.28154
#
# Velocity S-wave (km/s) = 2.70885 2.94130 2.82747
# Velocity P-wave (km/s) = 3.73356 6.69311 5.41928
#
# Compressibility (1/GPa) = 0.12588950
#
# Stress axis : x y z
#
# Youngs Moduli (GPa) = 43.62110 6.42059 85.17482
#
# Poissons Ratio (x) = -0.01608 0.72457
# Poissons Ratio (y) = -0.10923 2.23665
# Poissons Ratio (z) = 0.37108 0.16860
#
# Static dielectric constant tensor:
#      x y z
#    x 1.605200 0.000000 -0.056440 
#    y 0.000000 1.695350 0.000000 
#    z -0.056440 0.000000 1.692540 
# 
# From -- ./inp_files/269379.got.cif
#   From: 2010.05.17/outbox.cif.g08.bks.cpg/sg12_135_cif.got.tgz:269379.got - 2010.06.03 13:09:07.
