data_PCOD9191700
_publ_section_title
;
Structure prediction by ZEFSAII (Michael W. Deem and Ramdas Pophale) SiO2 
 PCOD9191700
Probable space group: C 2/M
;
_chemical_formula_sum "Si O2"
_cell_formula_units_Z 64
_cell_length_a 22.980380
_cell_length_b 7.716974
_cell_length_c 23.000504
_cell_angle_alpha 90.000000
_cell_angle_beta 132.426370
_cell_angle_gamma 90.000000
_cell_volume 3010.809171
_symmetry_space_group_name_H-M "C 2/M"
_symmetry_group_IT_number 12
_symmetry_cell_setting 'monoclinic'
loop_
_space_group_symop_operation_xyz
x,y,z
-x,y,-z
-x,-y,-z
x,-y,z
1/2+x,1/2+y,z
1/2-x,1/2+y,-z
1/2-x,1/2-y,-z
1/2+x,1/2-y,z
loop_
_atom_site_type_symbol
_atom_site_label
_atom_site_fract_x
_atom_site_fract_y
_atom_site_fract_z
Si Si1 0.966375 0.711971 0.651661
Si Si2 0.625875 0.203095 0.817281
Si Si3 0.915258 0.200905 0.960576
Si Si4 0.062614 0.289863 0.894124
Si Si5 0.067672 0.291425 0.501299
Si Si6 0.232553 0.791017 0.671709
Si Si7 0.748802 0.697948 0.810768
Si Si8 0.395923 0.210796 0.725532
O O1 0.964664 0.500000 0.648868
O O2 0.943762 0.773383 0.572333
O O3 0.911842 0.764777 0.669490
O O4 0.054485 0.769689 0.728862
O O5 0.616512 0.270875 0.876307
O O6 0.706975 0.221332 0.838324
O O7 0.609164 0.000000 0.812381
O O8 0.842266 0.292713 0.881250
O O9 0.912229 0.000000 0.940509
O O10 0.910962 0.214208 0.027075
O O11 0.000000 0.274467 0.000000
O O12 0.065578 0.500000 0.901855
O O13 0.972834 0.241293 0.815535
O O14 0.060089 0.500000 0.494343
O O15 0.154116 0.250019 0.583478
O O16 0.000000 0.226854 0.500000
O O17 0.225883 0.722878 0.733242
O O18 0.313292 0.727859 0.696101
O O19 0.239759 0.000000 0.680496
O O20 0.722310 0.500000 0.793144
O O21 0.394842 0.000000 0.724660
#
# Coordination Sequence:
#
# PCOD9191700 Si02
#       8
#     8   8   8   8   8   8   8   8
#     4   8  15  30  53  78 103 136 175 211 255 312
#     4   9  18  35  59  83 107 138 177 219 261 308
#     4  11  24  39  56  80 109 140 175 219 267 312
#     4   9  18  35  60  84 106 139 178 214 259 315
#     4  10  20  33  51  75 103 137 175 214 258 311
#     4  10  21  35  52  76 104 135 173 218 264 308
#     4  11  23  37  55  78 105 140 179 219 266 319
#     4   8  15  31  54  77 103 135 172 213 256 309
#
# _framework density 21.256744000000001
#
# number of rings (size 3 to 8) (size 9 to 14) (size 15 to 20)
#    0.000    2.500    0.000    3.750    0.000    5.750 
#    0.000    1.250    0.000    1.500    0.000    0.000 
#    0.000    0.000    0.000    0.000    0.000    0.000 
#
# Total GULP energy -178648.212468 kJ/mol
# GULP energy per Si atom -5582.756640 kJ/mol
# Density = 2.120836 g / cm^3
# Si number density = 21.256744 Si / 1000 Ang^3
#
#
#
# Elastic Constant Matrix: (Units=GPa)
#
#
# Indices 1 2 3 4 5 6 
#
# 1 46.0826 -3.1428 -12.5017 0.0000 0.5203 0.0000
# 2 -3.1428 30.2523 -7.7937 0.0001 -2.1329 0.0001
# 3 -12.5017 -7.7937 48.9970 0.0000 -20.0975 0.0000
# 4 0.0000 0.0001 0.0000 17.8947 0.0000 4.1675
# 5 0.5203 -2.1329 -20.0975 0.0000 31.7737 0.0000
# 6 0.0000 0.0001 0.0000 4.1675 0.0000 7.0638
#
#
#
# Elastic Compliance Matrix: (Units=1/GPa)
#
#
# Indices 1 2 3 4 5 6 
#
# 1 0.024619 0.005467 0.009637 0.000000 0.006059 0.000000
# 2 0.005467 0.037179 0.011202 0.000000 0.009492 0.000000
# 3 0.009637 0.011202 0.033615 0.000000 0.021857 0.000000
# 4 0.000000 0.000000 0.000000 0.064784 0.000000 -0.038221
# 5 0.006059 0.009492 0.021857 0.000000 0.045835 0.000000
# 6 0.000000 0.000000 0.000000 -0.038221 0.000000 0.164116
#
#
# Mechanical properties :
#
#
# Convention : Reuss Voigt Hill
#
# Bulk Modulus (GPa) = 6.75561 8.71727 7.73644
# Shear Modulus (GPa) = 13.62854 21.26445 17.44650
#
# Velocity S-wave (km/s) = 2.53482 3.16628 2.86798
# Velocity P-wave (km/s) = 3.42813 4.18055 3.82290
#
# Compressibility (1/GPa) = 0.14802511
#
# Stress axis : x y z
#
# Youngs Moduli (GPa) = 40.61917 26.89725 29.74844
#
# Poissons Ratio (x) = -0.14706 -0.28667
# Poissons Ratio (y) = -0.22208 -0.33325
# Poissons Ratio (z) = -0.39143 -0.30131
#
# Static dielectric constant tensor:
#      x y z
#    x 1.777760 0.000000 -0.018770 
#    y 0.000000 1.785530 0.000000 
#    z -0.018770 0.000000 1.724660 
# 
# From -- ./inp_files/346132.got.cif
#   From: 2010.05.17/outbox.cif.g08.bks.cpg/sg12_174_cif.got.tgz:346132.got - 2010.06.03 13:09:07.
