data_PCOD9191888
_publ_section_title
;
Structure prediction by ZEFSAII (Michael W. Deem and Ramdas Pophale) SiO2 
 PCOD9191888
Probable space group: C 2/M
;
_chemical_formula_sum "Si O2"
_cell_formula_units_Z 44
_cell_length_a 14.391654
_cell_length_b 26.798299
_cell_length_c 10.590041
_cell_angle_alpha 90.000000
_cell_angle_beta 35.926948
_cell_angle_gamma 90.000000
_cell_volume 2396.465080
_symmetry_space_group_name_H-M "C 2/M"
_symmetry_group_IT_number 12
_symmetry_cell_setting 'monoclinic'
loop_
_space_group_symop_operation_xyz
x,y,z
-x,y,-z
-x,-y,-z
x,-y,z
1/2+x,1/2+y,z
1/2-x,1/2+y,-z
1/2-x,1/2-y,-z
1/2+x,1/2-y,z
loop_
_atom_site_type_symbol
_atom_site_label
_atom_site_fract_x
_atom_site_fract_y
_atom_site_fract_z
Si Si1 0.204355 0.394832 0.139322
Si Si2 0.500000 0.741835 0.500000
Si Si3 0.875612 0.707032 0.387036
Si Si4 0.202792 0.000000 0.653071
Si Si5 0.780911 0.700644 0.048734
Si Si6 0.829867 0.000000 0.017486
Si Si7 0.824612 0.604837 0.537947
O O1 0.252244 0.348226 0.999771
O O2 0.273974 0.448042 0.019501
O O3 0.246179 0.388590 0.242309
O O4 0.014283 0.397624 0.342112
O O5 0.548741 0.778130 0.560621
O O6 0.347772 0.707804 0.699931
O O7 0.750000 0.750000 0.500000
O O8 0.790392 0.653976 0.494858
O O9 0.031203 0.702063 0.127350
O O10 0.240147 0.000000 0.762658
O O11 0.269815 0.946906 0.536733
O O12 0.017188 0.000000 0.830581
O O13 0.750000 0.750000 0.000000
#
# Coordination Sequence:
#
# PCOD9191888 Si02
#       7
#     8   4   8   4   8   4   8
#     4   9  16  29  49  68  94 132 164 196 245 300
#     4  10  20  36  50  70 104 132 168 212 244 294
#     4  10  20  33  52  76 101 133 170 204 252 302
#     4   9  17  25  39  67 100 127 154 200 251 293
#     4   9  18  32  50  71  96 129 165 203 247 291
#     4   9  17  27  41  68  98 127 162 196 243 299
#     4   9  16  29  46  69  99 127 160 200 244 300
#
# _framework density 18.360375000000001
#
# number of rings (size 3 to 8) (size 9 to 14) (size 15 to 20)
#    0.000    2.727    0.000    3.818    0.000    5.818 
#    0.000    3.636    0.000    0.545    0.000    1.273 
#    0.000    8.727    0.000    0.000    0.000    0.000 
#
# Total GULP energy -122519.889654 kJ/mol
# GULP energy per Si atom -5569.085893 kJ/mol
# Density = 1.831859 g / cm^3
# Si number density = 18.360375 Si / 1000 Ang^3
#
#
#
# Elastic Constant Matrix: (Units=GPa)
#
#
# Indices 1 2 3 4 5 6 
#
# 1 21.2014 17.7166 1.6940 0.0000 -4.7086 0.0000
# 2 17.7166 189.9097 49.0079 0.0000 -9.2637 0.0000
# 3 1.6940 49.0079 81.2667 0.0000 6.6134 0.0000
# 4 0.0000 0.0000 0.0000 29.0523 0.0000 -0.5099
# 5 -4.7086 -9.2637 6.6134 0.0000 9.8704 0.0000
# 6 0.0000 0.0000 0.0000 -0.5099 0.0000 28.6007
#
#
#
# Elastic Compliance Matrix: (Units=1/GPa)
#
#
# Indices 1 2 3 4 5 6 
#
# 1 0.055652 -0.003858 -0.000739 0.000000 0.023423 0.000000
# 2 -0.003858 0.007333 -0.005026 0.000000 0.008409 0.000000
# 3 -0.000739 -0.005026 0.016673 0.000000 -0.016241 0.000000
# 4 0.000000 0.000000 0.000000 0.034431 0.000000 0.000614
# 5 0.023423 0.008409 -0.016241 0.000000 0.131261 0.000000
# 6 0.000000 0.000000 0.000000 0.000614 0.000000 0.034975
#
#
# Mechanical properties :
#
#
# Convention : Reuss Voigt Hill
#
# Bulk Modulus (GPa) = 16.55339 47.69055 32.12197
# Shear Modulus (GPa) = 15.63920 28.43529 22.03724
#
# Velocity S-wave (km/s) = 2.92171 3.93966 3.46824
# Velocity P-wave (km/s) = 4.51855 6.83562 5.79409
#
# Compressibility (1/GPa) = 0.06041059
#
# Stress axis : x y z
#
# Youngs Moduli (GPa) = 17.96878 136.37400 59.97674
#
# Poissons Ratio (x) = 0.52619 0.04435
# Poissons Ratio (y) = 0.06933 0.30144
# Poissons Ratio (z) = 0.01329 0.68540
#
# Static dielectric constant tensor:
#      x y z
#    x 1.642030 0.000000 0.010550 
#    y 0.000000 1.655600 0.000000 
#    z 0.010550 0.000000 1.682320 
# 
# From -- ./inp_files/66434.got.cif
#   From: 2010.05.17/outbox.cif.g08.bks.cpg/sg12_34_cif.got.tgz:66434.got - 2010.06.03 13:09:07.
