data_PCOD9191873
_publ_section_title
;
Structure prediction by ZEFSAII (Michael W. Deem and Ramdas Pophale) SiO2 
 PCOD9191873
Probable space group: C 2/M
;
_chemical_formula_sum "Si O2"
_cell_formula_units_Z 56
_cell_length_a 14.575933
_cell_length_b 23.347114
_cell_length_c 8.762769
_cell_angle_alpha 90.000000
_cell_angle_beta 62.987736
_cell_angle_gamma 90.000000
_cell_volume 2656.711751
_symmetry_space_group_name_H-M "C 2/M"
_symmetry_group_IT_number 12
_symmetry_cell_setting 'monoclinic'
loop_
_space_group_symop_operation_xyz
x,y,z
-x,y,-z
-x,-y,-z
x,-y,z
1/2+x,1/2+y,z
1/2-x,1/2+y,-z
1/2-x,1/2-y,-z
1/2+x,1/2-y,z
loop_
_atom_site_type_symbol
_atom_site_label
_atom_site_fract_x
_atom_site_fract_y
_atom_site_fract_z
Si Si1 0.561272 0.260174 0.807618
Si Si2 0.281106 0.253426 0.799780
Si Si3 0.742337 0.932400 0.734294
Si Si4 0.149885 0.838696 0.496166
Si Si5 0.038421 0.627303 0.751562
Si Si6 0.180587 0.432580 0.109863
Si Si7 0.676005 0.855984 0.384066
O O1 0.675009 0.251546 0.787851
O O2 0.565865 0.303813 0.660287
O O3 0.526417 0.195056 0.797114
O O4 0.500000 0.283645 0.000000
O O5 0.334529 0.306570 0.676718
O O6 0.347432 0.198529 0.702312
O O7 0.250000 0.250000 0.000000
O O8 0.836544 0.904508 0.567827
O O9 0.633334 0.901194 0.774133
O O10 0.732263 0.000000 0.711941
O O11 0.752382 0.923406 0.908450
O O12 0.246983 0.835769 0.540068
O O13 0.079897 0.621349 0.548962
O O14 0.930643 0.594962 0.845766
O O15 0.167951 0.500000 0.142425
O O16 0.219990 0.402359 0.233842
#
# Coordination Sequence:
#
# PCOD9191873 Si02
#       7
#     8   8   8   8   8   8   8
#     4  11  21  36  57  83 116 156 187 242 300 352
#     4  11  20  36  57  80 107 149 191 246 284 337
#     4  10  20  34  55  77 106 153 199 238 288 343
#     4  10  20  40  55  79 112 147 195 245 288 345
#     4  11  20  34  52  77 123 156 196 228 287 345
#     4  11  23  35  50  85 123 159 200 236 274 345
#     4  10  20  33  52  71 109 155 193 233 281 324
#
# _framework density 21.078688
#
# number of rings (size 3 to 8) (size 9 to 14) (size 15 to 20)
#    0.000    1.429    4.286    3.857    2.000    4.571 
#    0.000    0.714    0.000    0.429    0.000    0.000 
#    0.000   10.286    0.000    0.000    0.000    0.000 
#
# Total GULP energy -156019.791535 kJ/mol
# GULP energy per Si atom -5572.135412 kJ/mol
# Density = 2.103071 g / cm^3
# Si number density = 21.078688 Si / 1000 Ang^3
#
#
#
# Elastic Constant Matrix: (Units=GPa)
#
#
# Indices 1 2 3 4 5 6 
#
# 1 38.9818 9.2732 4.7702 0.0000 14.7581 0.0000
# 2 9.2732 111.9087 69.4348 0.0000 3.5718 0.0000
# 3 4.7702 69.4348 143.1560 0.0000 20.0567 0.0000
# 4 0.0000 0.0000 0.0000 36.5711 0.0000 -0.6395
# 5 14.7581 3.5718 20.0567 0.0000 26.2269 0.0000
# 6 0.0000 0.0000 0.0000 -0.6395 0.0000 16.1275
#
#
#
# Elastic Compliance Matrix: (Units=1/GPa)
#
#
# Indices 1 2 3 4 5 6 
#
# 1 0.034649 -0.004823 0.004283 0.000000 -0.022116 0.000000
# 2 -0.004823 0.013724 -0.007408 0.000000 0.006510 0.000000
# 3 0.004283 -0.007408 0.011908 0.000000 -0.010508 0.000000
# 4 0.000000 0.000000 0.000000 0.027363 0.000000 0.001085
# 5 -0.022116 0.006510 -0.010508 0.000000 0.057723 0.000000
# 6 0.000000 0.000000 0.000000 0.001085 0.000000 0.062049
#
#
# Mechanical properties :
#
#
# Convention : Reuss Voigt Hill
#
# Bulk Modulus (GPa) = 22.52970 51.22256 36.87613
# Shear Modulus (GPa) = 20.99906 29.82298 25.41102
#
# Velocity S-wave (km/s) = 3.15972 3.76552 3.47584
# Velocity P-wave (km/s) = 4.90137 6.57715 5.80010
#
# Compressibility (1/GPa) = 0.04438585
#
# Stress axis : x y z
#
# Youngs Moduli (GPa) = 28.86084 72.86491 83.97790
#
# Poissons Ratio (x) = 0.35141 -0.35969
# Poissons Ratio (y) = 0.13919 0.62210
# Poissons Ratio (z) = -0.12362 0.53978
#
# Static dielectric constant tensor:
#      x y z
#    x 1.809630 0.000000 0.001100 
#    y 0.000000 1.783420 0.000000 
#    z 0.001100 0.000000 1.863070 
# 
# From -- ./inp_files/89093.got.cif
#   From: 2010.05.17/outbox.cif.g08.bks.cpg/sg12_45_cif.got.tgz:89093.got - 2010.06.03 13:09:07.
