data_PCOD9191772
_publ_section_title
;
Structure prediction by ZEFSAII (Michael W. Deem and Ramdas Pophale) SiO2 
 PCOD9191772
Probable space group: C 2/M
;
_chemical_formula_sum "Si O2"
_cell_formula_units_Z 56
_cell_length_a 25.573162
_cell_length_b 8.939508
_cell_length_c 19.257208
_cell_angle_alpha 90.000000
_cell_angle_beta 148.671659
_cell_angle_gamma 90.000000
_cell_volume 2289.001194
_symmetry_space_group_name_H-M "C 2/M"
_symmetry_group_IT_number 12
_symmetry_cell_setting 'monoclinic'
loop_
_space_group_symop_operation_xyz
x,y,z
-x,y,-z
-x,-y,-z
x,-y,z
1/2+x,1/2+y,z
1/2-x,1/2+y,-z
1/2-x,1/2-y,-z
1/2+x,1/2-y,z
loop_
_atom_site_type_symbol
_atom_site_label
_atom_site_fract_x
_atom_site_fract_y
_atom_site_fract_z
Si Si1 0.694520 0.678127 0.657747
Si Si2 0.050126 0.171158 0.220103
Si Si3 0.997316 0.669470 0.289666
Si Si4 0.288665 0.169709 0.975270
Si Si5 0.380192 0.177883 0.296962
Si Si6 0.756716 0.676548 0.582890
Si Si7 0.899089 0.828814 0.931441
O O1 0.681263 0.500000 0.644051
O O2 0.615961 0.752057 0.621888
O O3 0.691201 0.733605 0.573946
O O4 0.808809 0.718762 0.810369
O O5 0.126531 0.283112 0.269301
O O6 0.052240 0.206470 0.304951
O O7 0.943337 0.182754 0.059637
O O8 0.083571 0.000000 0.247108
O O9 0.041771 0.500000 0.344836
O O10 0.903534 0.652021 0.129243
O O11 0.954125 0.717419 0.316045
O O12 0.250631 0.000000 0.920554
O O13 0.250000 0.250000 0.000000
O O14 0.231171 0.269888 0.853676
O O15 0.385488 0.000000 0.308592
O O16 0.744937 0.500000 0.564927
O O17 0.750000 0.750000 0.500000
O O18 0.862766 0.000000 0.879198
O O19 0.000000 0.809581 0.000000
#
# Coordination Sequence:
#
# PCOD9191772 Si02
#       7
#     8   8   8   8   8   8   8
#     4  11  23  37  58  88 119 153 192 240 292 343
#     4  11  22  36  59  88 118 155 195 236 286 340
#     4   9  19  33  49  75 112 152 192 233 280 334
#     4   9  16  27  44  69 106 151 194 234 275 328
#     4  10  20  33  51  76 111 155 195 235 283 340
#     4  11  25  44  65  87 113 147 190 240 293 348
#     4  10  20  35  55  83 121 159 194 235 284 345
#
# _framework density 24.464818999999999
#
# number of rings (size 3 to 8) (size 9 to 14) (size 15 to 20)
#    0.000    1.857    1.429    3.857    0.000    8.857 
#    0.000    0.000    0.000    0.857    0.000    6.000 
#    0.000    0.000    0.000    0.000    0.000    0.000 
#
# Total GULP energy -156178.961247 kJ/mol
# GULP energy per Si atom -5577.820045 kJ/mol
# Density = 2.440914 g / cm^3
# Si number density = 24.464819 Si / 1000 Ang^3
#
#
#
# Elastic Constant Matrix: (Units=GPa)
#
#
# Indices 1 2 3 4 5 6 
#
# 1 166.9471 54.6708 31.3194 0.0000 -42.3765 0.0000
# 2 54.6708 74.0972 3.5837 0.0000 -16.6478 0.0000
# 3 31.3194 3.5837 73.5972 0.0000 -26.5614 0.0000
# 4 0.0000 0.0000 0.0000 23.0620 0.0000 -4.9391
# 5 -42.3765 -16.6478 -26.5614 0.0000 49.7003 0.0000
# 6 0.0000 0.0000 0.0000 -4.9391 0.0000 29.4612
#
#
#
# Elastic Compliance Matrix: (Units=1/GPa)
#
#
# Indices 1 2 3 4 5 6 
#
# 1 0.009566 -0.005799 -0.001915 0.000000 0.005190 0.000000
# 2 -0.005799 0.018212 0.002476 0.000000 0.002479 0.000000
# 3 -0.001915 0.002476 0.017336 0.000000 0.008461 0.000000
# 4 0.000000 0.000000 0.000000 0.044976 0.000000 0.007540
# 5 0.005190 0.002479 0.008461 0.000000 0.029898 0.000000
# 6 0.000000 0.000000 0.000000 0.007540 0.000000 0.035207
#
#
# Mechanical properties :
#
#
# Convention : Reuss Voigt Hill
#
# Bulk Modulus (GPa) = 28.87211 54.86546 41.86879
# Shear Modulus (GPa) = 28.21408 35.44921 31.83164
#
# Velocity S-wave (km/s) = 3.39964 3.81069 3.61102
# Velocity P-wave (km/s) = 5.21892 6.46813 5.87681
#
# Compressibility (1/GPa) = 0.03463550
#
# Stress axis : x y z
#
# Youngs Moduli (GPa) = 104.54063 54.90976 57.68508
#
# Poissons Ratio (x) = 0.31843 0.11048
# Poissons Ratio (y) = 0.60624 -0.14281
# Poissons Ratio (z) = 0.20022 -0.13594
#
# Static dielectric constant tensor:
#      x y z
#    x 2.027900 0.000000 0.043980 
#    y 0.000000 1.833070 0.000000 
#    z 0.043980 0.000000 2.127500 
# 
# From -- ./inp_files/292556.got.cif
#   From: 2010.05.17/outbox.cif.g08.bks.cpg/sg12_147_cif.got.tgz:292556.got - 2010.06.03 13:09:07.
