data_PCOD9191979
_publ_section_title
;
Structure prediction by ZEFSAII (Michael W. Deem and Ramdas Pophale) SiO2 
 PCOD9191979
Probable space group: C 2/M
;
_chemical_formula_sum "Si O2"
_cell_formula_units_Z 56
_cell_length_a 13.761846
_cell_length_b 13.523668
_cell_length_c 28.965292
_cell_angle_alpha 90.000000
_cell_angle_beta 147.305229
_cell_angle_gamma 90.000000
_cell_volume 2911.885911
_symmetry_space_group_name_H-M "C 2/M"
_symmetry_group_IT_number 12
_symmetry_cell_setting 'monoclinic'
loop_
_space_group_symop_operation_xyz
x,y,z
-x,y,-z
-x,-y,-z
x,-y,z
1/2+x,1/2+y,z
1/2-x,1/2+y,-z
1/2-x,1/2-y,-z
1/2+x,1/2-y,z
loop_
_atom_site_type_symbol
_atom_site_label
_atom_site_fract_x
_atom_site_fract_y
_atom_site_fract_z
Si Si1 0.341603 0.812968 0.973217
Si Si2 0.350118 0.886440 0.079686
Si Si3 0.221343 0.691229 0.260149
Si Si4 0.006481 0.885895 0.306210
Si Si5 0.542581 0.614753 0.214785
Si Si6 0.988489 0.808980 0.550408
Si Si7 0.184906 0.388708 0.494093
O O1 0.290262 0.697173 0.959656
O O2 0.160611 0.866756 0.883470
O O3 0.500000 0.825042 0.000000
O O4 0.388692 0.859043 0.041665
O O5 0.536716 0.868702 0.181237
O O6 0.290739 0.000000 0.059944
O O7 0.350108 0.674157 0.268113
O O8 0.167052 0.806011 0.239601
O O9 0.336280 0.657958 0.350900
O O10 0.049510 0.857039 0.271564
O O11 0.180945 0.880828 0.408451
O O12 0.946623 0.000000 0.281178
O O13 0.591365 0.500000 0.228617
O O14 0.961071 0.694971 0.555136
O O15 0.812259 0.863075 0.501249
O O16 0.000000 0.818774 0.500000
O O17 0.114802 0.500000 0.462943
#
# Coordination Sequence:
#
# PCOD9191979 Si02
#       7
#     8   8   8   8   8   8   8
#     4  10  21  36  56  81 106 134 170 211 253 300
#     4  10  21  37  56  79 107 137 170 208 253 308
#     4  10  20  33  53  77 104 136 173 212 258 307
#     4   9  17  32  54  76 102 137 173 211 257 308
#     4  10  20  33  52  79 106 133 171 214 253 301
#     4  10  20  34  53  75 102 136 174 218 260 300
#     4   9  19  34  51  75 104 135 173 213 258 311
#
# _framework density 19.231522999999999
#
# number of rings (size 3 to 8) (size 9 to 14) (size 15 to 20)
#    0.000    2.286    0.000    2.571    0.000    4.286 
#    0.000    0.000    0.000    9.429    0.000    0.000 
#    0.000    0.000    0.000    0.000    0.000    0.000 
#
# Total GULP energy -156338.025324 kJ/mol
# GULP energy per Si atom -5583.500904 kJ/mol
# Density = 1.918775 g / cm^3
# Si number density = 19.231523 Si / 1000 Ang^3
#
#
#
# Elastic Constant Matrix: (Units=GPa)
#
#
# Indices 1 2 3 4 5 6 
#
# 1 52.2250 -0.0045 15.8161 0.0000 -11.4282 0.0000
# 2 -0.0045 65.8884 -12.0038 0.0000 -2.4875 0.0000
# 3 15.8161 -12.0038 41.3619 0.0001 -5.9150 0.0000
# 4 0.0000 0.0000 0.0001 13.1565 0.0000 -6.3840
# 5 -11.4282 -2.4875 -5.9150 0.0000 21.0075 0.0000
# 6 0.0000 0.0000 0.0000 -6.3840 0.0000 16.3786
#
#
#
# Elastic Compliance Matrix: (Units=1/GPa)
#
#
# Indices 1 2 3 4 5 6 
#
# 1 0.023870 -0.001037 -0.007908 0.000000 0.010636 0.000000
# 2 -0.001037 0.016298 0.005545 0.000000 0.002927 0.000000
# 3 -0.007908 0.005545 0.029475 0.000000 0.004654 0.000000
# 4 0.000000 0.000000 0.000000 0.093737 0.000000 0.036537
# 5 0.010636 0.002927 0.004654 0.000000 0.055045 0.000000
# 6 0.000000 0.000000 0.000000 0.036537 0.000000 0.075297
#
#
# Mechanical properties :
#
#
# Convention : Reuss Voigt Hill
#
# Bulk Modulus (GPa) = 15.91255 18.56566 17.23910
# Shear Modulus (GPa) = 15.55358 20.48636 18.01997
#
# Velocity S-wave (km/s) = 2.84695 3.26736 3.06437
# Velocity P-wave (km/s) = 4.37024 4.88967 4.63723
#
# Compressibility (1/GPa) = 0.06284348
#
# Stress axis : x y z
#
# Youngs Moduli (GPa) = 41.89360 61.35786 33.92662
#
# Poissons Ratio (x) = 0.06366 0.26828
# Poissons Ratio (y) = 0.04346 -0.18813
# Poissons Ratio (z) = 0.33127 -0.34024
#
# Static dielectric constant tensor:
#      x y z
#    x 1.639730 0.000000 -0.007210 
#    y 0.000000 1.684450 0.000000 
#    z -0.007210 0.000000 1.688440 
# 
# From -- ./inp_files/358244.got.cif
#   From: 2010.05.17/outbox.cif.g08.bks.cpg/sg12_180_cif.got.tgz:358244.got - 2010.06.03 13:09:07.
