data_PCOD9191911
_publ_section_title
;
Structure prediction by ZEFSAII (Michael W. Deem and Ramdas Pophale) SiO2 
 PCOD9191911
Probable space group: C 2/M
;
_chemical_formula_sum "Si O2"
_cell_formula_units_Z 60
_cell_length_a 28.039470
_cell_length_b 8.295062
_cell_length_c 28.627890
_cell_angle_alpha 90.000000
_cell_angle_beta 29.451774
_cell_angle_gamma 90.000000
_cell_volume 3273.941112
_symmetry_space_group_name_H-M "C 2/M"
_symmetry_group_IT_number 12
_symmetry_cell_setting 'monoclinic'
loop_
_space_group_symop_operation_xyz
x,y,z
-x,y,-z
-x,-y,-z
x,-y,z
1/2+x,1/2+y,z
1/2-x,1/2+y,-z
1/2-x,1/2-y,-z
1/2+x,1/2-y,z
loop_
_atom_site_type_symbol
_atom_site_label
_atom_site_fract_x
_atom_site_fract_y
_atom_site_fract_z
Si Si1 0.500000 0.256097 0.000000
Si Si2 0.841772 0.195323 0.624899
Si Si3 0.352461 0.307012 0.891286
Si Si4 0.342496 0.679799 0.057665
Si Si5 0.513453 0.304332 0.414472
Si Si6 0.979522 0.314233 0.865053
Si Si7 0.863882 0.194894 0.774327
Si Si8 0.876267 0.811871 0.185945
O O1 0.584186 0.327127 0.961465
O O2 0.570219 0.196875 0.897932
O O3 0.903931 0.238266 0.618002
O O4 0.736246 0.272216 0.714940
O O5 0.909925 0.247141 0.523337
O O6 0.832015 0.000000 0.632439
O O7 0.351634 0.500000 0.891886
O O8 0.438673 0.247062 0.850942
O O9 0.365487 0.250528 0.826727
O O10 0.250000 0.250000 0.000000
O O11 0.334279 0.500000 0.044664
O O12 0.237586 0.744479 0.160430
O O13 0.390446 0.791826 0.977535
O O14 0.510283 0.500000 0.416786
O O15 0.548837 0.249917 0.333517
O O16 0.006976 0.500000 0.838669
O O17 0.067096 0.216311 0.813941
O O18 0.862910 0.000000 0.775018
O O19 0.890903 0.000000 0.159387
#
# Coordination Sequence:
#
# PCOD9191911 Si02
#       8
#     4   8   8   8   8   8   8   8
#     4  10  21  34  47  70 105 142 171 204 253 310
#     4   9  17  33  56  79 107 142 177 212 255 306
#     4  11  21  34  53  76 106 139 174 218 267 313
#     4  11  20  32  49  71 104 139 172 210 257 307
#     4   8  16  32  54  80 108 139 176 216 256 305
#     4  11  22  36  52  72 100 136 180 216 256 315
#     4  10  20  33  52  77 104 135 174 215 258 309
#     4  11  21  35  53  75 106 140 174 214 263 315
#
# _framework density 18.326536000000001
#
# number of rings (size 3 to 8) (size 9 to 14) (size 15 to 20)
#    0.000    1.867    1.333    6.000    0.000    0.533 
#    0.000   13.333    0.000    0.800    0.000    0.000 
#    0.000    0.000    0.000    0.000    0.000    0.000 
#
# Total GULP energy -167185.038183 kJ/mol
# GULP energy per Si atom -5572.834606 kJ/mol
# Density = 1.828482 g / cm^3
# Si number density = 18.326536 Si / 1000 Ang^3
#
#
#
# Elastic Constant Matrix: (Units=GPa)
#
#
# Indices 1 2 3 4 5 6 
#
# 1 100.8232 18.2931 67.2191 -0.0086 6.5569 0.0068
# 2 18.2931 39.4519 14.4546 -0.0073 2.3693 0.0101
# 3 67.2191 14.4546 139.7346 -0.0039 2.7967 0.0095
# 4 -0.0086 -0.0073 -0.0039 13.8148 0.0036 0.2574
# 5 6.5569 2.3693 2.7967 0.0036 30.9655 -0.0061
# 6 0.0068 0.0101 0.0095 0.2574 -0.0061 0.1877
#
#
#
# Elastic Compliance Matrix: (Units=1/GPa)
#
#
# Indices 1 2 3 4 5 6 
#
# 1 0.015524 -0.004511 -0.006955 0.000007 -0.002314 -0.000048
# 2 -0.004511 0.027755 -0.000679 0.000038 -0.001107 -0.001379
# 3 -0.006955 -0.000679 0.010561 0.000002 0.000571 -0.000235
# 4 0.000007 0.000038 0.000002 0.074284 -0.000033 -0.101856
# 5 -0.002314 -0.001107 0.000571 -0.000033 0.032817 0.001223
# 6 -0.000048 -0.001379 -0.000235 -0.101856 0.001223 5.467255
#
#
# Mechanical properties :
#
#
# Convention : Reuss Voigt Hill
#
# Bulk Modulus (GPa) = 33.84077 53.32704 43.58390
# Shear Modulus (GPa) = 0.88303 20.99645 10.93974
#
# Velocity S-wave (km/s) = 0.69489 3.38847 2.44587
# Velocity P-wave (km/s) = 4.37600 6.66861 5.64003
#
# Compressibility (1/GPa) = 0.02955016
#
# Stress axis : x y z
#
# Youngs Moduli (GPa) = 64.41560 36.03006 94.68908
#
# Poissons Ratio (x) = 0.16254 0.65856
# Poissons Ratio (y) = 0.29059 0.06427
# Poissons Ratio (z) = 0.44801 0.02445
#
# Static dielectric constant tensor:
#      x y z
#    x 1.631280 -0.000010 0.026690 
#    y -0.000010 1.647290 0.000010 
#    z 0.026690 0.000010 1.632740 
# 
# From -- ./inp_files/368875.got.cif
#   From: 2010.05.17/outbox.cif.g08.bks.cpg/sg12_185_cif.got.tgz:368875.got - 2010.06.03 13:09:07.
