data_PCOD9191665
_publ_section_title
;
Structure prediction by ZEFSAII (Michael W. Deem and Ramdas Pophale) SiO2 
 PCOD9191665
Probable space group: C 2/M
;
_chemical_formula_sum "Si O2"
_cell_formula_units_Z 40
_cell_length_a 9.398257
_cell_length_b 17.664654
_cell_length_c 11.873559
_cell_angle_alpha 90.000000
_cell_angle_beta 68.972344
_cell_angle_gamma 90.000000
_cell_volume 1839.943882
_symmetry_space_group_name_H-M "C 2/M"
_symmetry_group_IT_number 12
_symmetry_cell_setting 'monoclinic'
loop_
_space_group_symop_operation_xyz
x,y,z
-x,y,-z
-x,-y,-z
x,-y,z
1/2+x,1/2+y,z
1/2-x,1/2+y,-z
1/2-x,1/2-y,-z
1/2+x,1/2-y,z
loop_
_atom_site_type_symbol
_atom_site_label
_atom_site_fract_x
_atom_site_fract_y
_atom_site_fract_z
Si Si1 0.944724 0.731251 0.131468
Si Si2 0.548940 0.083732 0.206382
Si Si3 0.104542 0.796681 0.289661
Si Si4 0.284656 0.413015 0.577886
Si Si5 0.650680 0.140202 0.398096
O O1 0.044252 0.654743 0.124099
O O2 0.976566 0.782409 0.232428
O O3 0.767663 0.709502 0.179610
O O4 0.000000 0.767210 0.000000
O O5 0.381979 0.088460 0.313497
O O6 0.668679 0.097788 0.273931
O O7 0.567796 0.000000 0.152234
O O8 0.107523 0.871589 0.363473
O O9 0.110046 0.725268 0.372777
O O10 0.321781 0.500000 0.545452
O O11 0.269959 0.368001 0.464648
O O12 0.500000 0.105654 0.500000
#
# Coordination Sequence:
#
# PCOD9191665 Si02
#       5
#     8   8   8   8   8
#     4  10  20  34  52  71  94 128 165 205 245 277
#     4   8  15  27  45  73 101 122 153 197 242 287
#     4  10  20  33  51  73  98 126 163 202 235 285
#     4   9  16  27  46  71  99 129 156 188 235 288
#     4   9  16  28  49  74 101 130 156 189 236 289
#
# _framework density 21.739794
#
# number of rings (size 3 to 8) (size 9 to 14) (size 15 to 20)
#    0.000    2.800    0.000    3.000    0.000    2.800 
#    0.000    0.000    0.000   10.800    0.000    0.000 
#    0.000    0.000    0.000    0.000    0.000    0.000 
#
# Total GULP energy -111605.622486 kJ/mol
# GULP energy per Si atom -5580.281124 kJ/mol
# Density = 2.169031 g / cm^3
# Si number density = 21.739794 Si / 1000 Ang^3
#
#
#
# Elastic Constant Matrix: (Units=GPa)
#
#
# Indices 1 2 3 4 5 6 
#
# 1 50.3628 -29.3288 15.2917 0.0000 6.5311 0.0000
# 2 -29.3288 72.6798 22.0128 0.0000 20.2194 0.0000
# 3 15.2917 22.0128 76.0513 0.0000 9.6738 0.0000
# 4 0.0000 0.0000 0.0000 6.3766 0.0000 -0.7693
# 5 6.5311 20.2194 9.6738 0.0000 23.7566 0.0000
# 6 0.0000 0.0000 0.0000 -0.7693 0.0000 17.3109
#
#
#
# Elastic Compliance Matrix: (Units=1/GPa)
#
#
# Indices 1 2 3 4 5 6 
#
# 1 0.049946 0.035260 -0.015487 0.000000 -0.037434 0.000000
# 2 0.035260 0.043817 -0.014549 0.000000 -0.041062 0.000000
# 3 -0.015487 -0.014549 0.019360 0.000000 0.008757 0.000000
# 4 0.000000 0.000000 0.000000 0.157670 0.000000 0.007007
# 5 -0.037434 -0.041062 0.008757 0.000000 0.083767 0.000000
# 6 0.000000 0.000000 0.000000 0.007007 0.000000 0.058078
#
#
# Mechanical properties :
#
#
# Convention : Reuss Voigt Hill
#
# Bulk Modulus (GPa) = 8.09251 23.89393 15.99322
# Shear Modulus (GPa) = 11.27694 22.23003 16.75349
#
# Velocity S-wave (km/s) = 2.28002 3.20120 2.77905
# Velocity P-wave (km/s) = 3.26525 4.96773 4.20358
#
# Compressibility (1/GPa) = 0.12357103
#
# Stress axis : x y z
#
# Youngs Moduli (GPa) = 20.02155 22.82194 51.65196
#
# Poissons Ratio (x) = -0.80469 0.79993
# Poissons Ratio (y) = -0.70595 0.75150
# Poissons Ratio (z) = 0.31007 0.33204
#
# Static dielectric constant tensor:
#      x y z
#    x 1.857790 0.000000 -0.010670 
#    y 0.000000 1.791790 0.000000 
#    z -0.010670 0.000000 1.782920 
# 
# From -- ./inp_files/120240.got.cif
#   From: 2010.05.17/outbox.cif.g08.bks.cpg/sg12_61_cif.got.tgz:120240.got - 2010.06.03 13:09:07.
