data_PCOD9191516
_publ_section_title
;
Structure prediction by ZEFSAII (Michael W. Deem and Ramdas Pophale) SiO2 
 PCOD9191516
Probable space group: C 2/M
;
_chemical_formula_sum "Si O2"
_cell_formula_units_Z 56
_cell_length_a 18.949705
_cell_length_b 7.536922
_cell_length_c 30.275567
_cell_angle_alpha 90.000000
_cell_angle_beta 38.153601
_cell_angle_gamma 90.000000
_cell_volume 2671.264145
_symmetry_space_group_name_H-M "C 2/M"
_symmetry_group_IT_number 12
_symmetry_cell_setting 'monoclinic'
loop_
_space_group_symop_operation_xyz
x,y,z
-x,y,-z
-x,-y,-z
x,-y,z
1/2+x,1/2+y,z
1/2-x,1/2+y,-z
1/2-x,1/2-y,-z
1/2+x,1/2-y,z
loop_
_atom_site_type_symbol
_atom_site_label
_atom_site_fract_x
_atom_site_fract_y
_atom_site_fract_z
Si Si1 0.493405 0.714106 0.136862
Si Si2 0.347859 0.281809 0.860550
Si Si3 0.587376 0.210425 0.993562
Si Si4 0.563273 0.290243 0.276986
Si Si5 0.766673 0.714990 0.727337
Si Si6 0.116733 0.788208 0.565654
Si Si7 0.548048 0.795513 0.431355
O O1 0.490783 0.500000 0.139979
O O2 0.579196 0.775083 0.132956
O O3 0.537702 0.764493 0.066798
O O4 0.363601 0.776587 0.208183
O O5 0.347256 0.500000 0.861025
O O6 0.404970 0.220164 0.786709
O O7 0.216673 0.220626 0.927164
O O8 0.596394 0.000000 0.980620
O O9 0.500000 0.284172 0.000000
O O10 0.545953 0.500000 0.279489
O O11 0.666979 0.265040 0.260487
O O12 0.450875 0.221717 0.357620
O O13 0.767370 0.500000 0.725237
O O14 0.842681 0.780750 0.648535
O O15 0.250000 0.750000 0.500000
O O16 0.052778 0.708180 0.554981
O O17 0.100014 0.000000 0.571342
O O18 0.500000 0.713061 0.500000
O O19 0.578536 0.000000 0.426901
#
# Coordination Sequence:
#
# PCOD9191516 Si02
#       7
#     8   8   8   8   8   8   8
#     4  10  20  33  50  73 101 130 160 200 248 295
#     4   9  18  33  52  74  99 127 163 206 247 289
#     4  10  20  34  53  74  97 129 166 203 243 289
#     4   9  18  34  55  74  95 130 171 205 242 294
#     4   9  18  32  50  73 100 129 163 205 250 295
#     4  10  20  33  52  77 104 135 170 210 254 302
#     4   9  18  33  53  75 100 133 172 213 257 305
#
# _framework density 20.963857000000001
#
# number of rings (size 3 to 8) (size 9 to 14) (size 15 to 20)
#    0.000    2.571    0.000    1.714    0.000    4.000 
#    0.000    5.714    0.000    1.714    0.000    0.000 
#    0.000    0.000    0.000    0.000    0.000    0.000 
#
# Total GULP energy -156302.718822 kJ/mol
# GULP energy per Si atom -5582.239958 kJ/mol
# Density = 2.091614 g / cm^3
# Si number density = 20.963857 Si / 1000 Ang^3
#
#
#
# Elastic Constant Matrix: (Units=GPa)
#
#
# Indices 1 2 3 4 5 6 
#
# 1 147.4063 -11.3998 125.4137 -0.0196 3.7223 0.0476
# 2 -11.3998 49.1863 -10.0153 0.0263 -0.1398 0.0060
# 3 125.4137 -10.0153 196.0388 -0.0091 0.9738 0.0025
# 4 -0.0196 0.0263 -0.0091 -8.6561 -0.0006 9.9604
# 5 3.7223 -0.1398 0.9738 -0.0006 45.0846 -0.0007
# 6 0.0476 0.0060 0.0025 9.9604 -0.0007 11.8849
#
#
#
# Elastic Compliance Matrix: (Units=1/GPa)
#
#
# Indices 1 2 3 4 5 6 
#
# 1 0.015049 0.001542 -0.009543 -0.000044 -0.001032 -0.000022
# 2 0.001542 0.020703 0.000072 0.000021 -0.000065 -0.000034
# 3 -0.009543 0.000072 0.011207 0.000026 0.000546 0.000014
# 4 -0.000044 0.000021 0.000026 -0.058811 0.000003 0.049288
# 5 -0.001032 -0.000065 0.000546 0.000003 0.022254 0.000003
# 6 -0.000022 -0.000034 0.000014 0.049288 0.000003 0.042834
#
#
# Mechanical properties :
#
#
# Convention : Reuss Voigt Hill
#
# Bulk Modulus (GPa) = 32.15575 66.73650 49.44613
# Shear Modulus (GPa) = 62.92343 28.90487 45.91415
#
# Velocity S-wave (km/s) = 5.48456 3.71724 4.68499
# Velocity P-wave (km/s) = 7.44843 7.09415 7.27345
#
# Compressibility (1/GPa) = 0.03109864
#
# Stress axis : x y z
#
# Youngs Moduli (GPa) = 66.45033 48.30311 89.22759
#
# Poissons Ratio (x) = -0.07447 0.85154
# Poissons Ratio (y) = -0.10245 -0.00640
# Poissons Ratio (z) = 0.63416 -0.00346
#
# Static dielectric constant tensor:
#      x y z
#    x 1.697950 0.000000 0.001210 
#    y 0.000000 1.812140 0.000000 
#    z 0.001210 0.000000 1.751810 
# 
# From -- ./inp_files/377653.got.cif
#   From: 2010.05.17/outbox.cif.g08.bks.cpg/sg12_189_cif.got.tgz:377653.got - 2010.06.03 13:09:07.
