data_PCOD9191656
_publ_section_title
;
Structure prediction by ZEFSAII (Michael W. Deem and Ramdas Pophale) SiO2 
 PCOD9191656
Probable space group: C 2/M
;
_chemical_formula_sum "Si O2"
_cell_formula_units_Z 56
_cell_length_a 15.075197
_cell_length_b 8.048377
_cell_length_c 25.577743
_cell_angle_alpha 90.000000
_cell_angle_beta 64.117457
_cell_angle_gamma 90.000000
_cell_volume 2792.073311
_symmetry_space_group_name_H-M "C 2/M"
_symmetry_group_IT_number 12
_symmetry_cell_setting 'monoclinic'
loop_
_space_group_symop_operation_xyz
x,y,z
-x,y,-z
-x,-y,-z
x,-y,z
1/2+x,1/2+y,z
1/2-x,1/2+y,-z
1/2-x,1/2-y,-z
1/2+x,1/2-y,z
loop_
_atom_site_type_symbol
_atom_site_label
_atom_site_fract_x
_atom_site_fract_y
_atom_site_fract_z
Si Si1 0.493662 0.301399 0.062990
Si Si2 0.871950 0.198743 0.187638
Si Si3 0.566851 0.300113 0.409580
Si Si4 0.686090 0.815992 0.064405
Si Si5 0.575867 0.798658 0.188639
Si Si6 0.352691 0.299720 0.500240
Si Si7 0.840478 0.700838 0.723895
O O1 0.514485 0.500000 0.065798
O O2 0.394710 0.262082 0.120747
O O3 0.577102 0.190954 0.068027
O O4 0.500000 0.272329 0.000000
O O5 0.770382 0.265073 0.237003
O O6 0.968698 0.249229 0.195180
O O7 0.865329 0.000000 0.191778
O O8 0.564415 0.500000 0.412925
O O9 0.452902 0.243022 0.444871
O O10 0.629596 0.243055 0.444212
O O11 0.615177 0.251485 0.342723
O O12 0.661906 0.734758 0.126838
O O13 0.725366 0.000000 0.064779
O O14 0.750000 0.750000 0.000000
O O15 0.595397 0.744240 0.242625
O O16 0.581870 0.000000 0.184939
O O17 0.353743 0.500000 0.500233
O O18 0.250000 0.250000 0.500000
O O19 0.838467 0.500000 0.725411
#
# Coordination Sequence:
#
# PCOD9191656 Si02
#       7
#     8   8   8   8   8   8   8
#     4   9  18  32  53  74  96 131 172 216 273 332
#     4   9  19  35  53  75 104 136 178 224 268 325
#     4   9  20  38  56  81 115 147 181 221 264 316
#     4  10  20  33  51  73 100 131 170 221 274 329
#     4   9  20  37  54  73 104 140 177 222 273 326
#     4   9  19  37  60  84 114 149 182 219 265 310
#     4  10  21  36  56  80 108 146 184 222 268 321
#
# _framework density 20.056781000000001
#
# number of rings (size 3 to 8) (size 9 to 14) (size 15 to 20)
#    0.000    2.714    0.000    1.286    2.000    4.286 
#    0.000    7.143    0.000    0.000    0.000    0.000 
#    0.000    0.000    0.000    0.000    0.000    0.000 
#
# Total GULP energy -155977.861914 kJ/mol
# GULP energy per Si atom -5570.637926 kJ/mol
# Density = 2.001113 g / cm^3
# Si number density = 20.056781 Si / 1000 Ang^3
#
#
#
# Elastic Constant Matrix: (Units=GPa)
#
#
# Indices 1 2 3 4 5 6 
#
# 1 125.8291 6.6545 94.7202 0.0000 -0.8739 0.0000
# 2 6.6545 7.9237 18.0842 0.0000 -0.2503 0.0000
# 3 94.7202 18.0842 219.2576 0.0000 4.0042 0.0000
# 4 0.0000 0.0000 0.0000 27.7979 0.0000 -0.9955
# 5 -0.8739 -0.2503 4.0042 0.0000 23.1509 0.0000
# 6 0.0000 0.0000 0.0000 -0.9955 0.0000 25.4865
#
#
#
# Elastic Compliance Matrix: (Units=1/GPa)
#
#
# Indices 1 2 3 4 5 6 
#
# 1 0.011851 0.002259 -0.005331 0.000000 0.001394 0.000000
# 2 0.002259 0.156254 -0.013940 0.000000 0.004186 0.000000
# 3 -0.005331 -0.013940 0.008046 0.000000 -0.001744 0.000000
# 4 0.000000 0.000000 0.000000 0.036024 0.000000 0.001407
# 5 0.001394 0.004186 -0.001744 0.000000 0.043594 0.000000
# 6 0.000000 0.000000 0.000000 0.001407 0.000000 0.039291
#
#
# Mechanical properties :
#
#
# Convention : Reuss Voigt Hill
#
# Bulk Modulus (GPa) = 7.03602 65.76978 36.40290
# Shear Modulus (GPa) = 13.28161 30.85716 22.06939
#
# Velocity S-wave (km/s) = 2.57612 3.92661 3.32074
# Velocity P-wave (km/s) = 3.51627 7.30895 5.73519
#
# Compressibility (1/GPa) = 0.14212589
#
# Stress axis : x y z
#
# Youngs Moduli (GPa) = 84.38256 6.39984 124.29085
#
# Poissons Ratio (x) = -0.01446 0.66264
# Poissons Ratio (y) = -0.19065 1.73264
# Poissons Ratio (z) = 0.44988 0.08921
#
# Static dielectric constant tensor:
#      x y z
#    x 1.703320 0.000000 -0.006550 
#    y 0.000000 1.737700 0.000000 
#    z -0.006550 0.000000 1.740350 
# 
# From -- ./inp_files/338489.got.cif
#   From: 2010.05.17/outbox.cif.g08.bks.cpg/sg12_170_cif.got.tgz:338489.got - 2010.06.03 13:09:07.
