data_PCOD9191108
_publ_section_title
;
Structure prediction by ZEFSAII (Michael W. Deem and Ramdas Pophale) SiO2 
 PCOD9191108
Probable space group: C 2/M
;
_chemical_formula_sum "Si O2"
_cell_formula_units_Z 64
_cell_length_a 29.150219
_cell_length_b 7.758939
_cell_length_c 13.023979
_cell_angle_alpha 90.000000
_cell_angle_beta 79.102599
_cell_angle_gamma 90.000000
_cell_volume 2892.576594
_symmetry_space_group_name_H-M "C 2/M"
_symmetry_group_IT_number 12
_symmetry_cell_setting 'monoclinic'
loop_
_space_group_symop_operation_xyz
x,y,z
-x,y,-z
-x,-y,-z
x,-y,z
1/2+x,1/2+y,z
1/2-x,1/2+y,-z
1/2-x,1/2-y,-z
1/2+x,1/2-y,z
loop_
_atom_site_type_symbol
_atom_site_label
_atom_site_fract_x
_atom_site_fract_y
_atom_site_fract_z
Si Si1 0.055492 0.705200 0.627071
Si Si2 0.084701 0.703064 0.835248
Si Si3 0.455595 0.790271 0.706536
Si Si4 0.190104 0.795411 0.832783
Si Si5 0.327361 0.290841 0.936717
Si Si6 0.211052 0.792238 0.265855
Si Si7 0.065623 0.702091 0.063788
Si Si8 0.122997 0.800368 0.415719
O O1 0.051429 0.500000 0.640098
O O2 0.070445 0.777318 0.731585
O O3 0.093340 0.731224 0.523092
O O4 0.002623 0.764185 0.627898
O O5 0.072745 0.500000 0.840310
O O6 0.140735 0.716948 0.821213
O O7 0.062167 0.776612 0.950060
O O8 0.459993 0.732425 0.823439
O O9 0.409911 0.719092 0.670425
O O10 0.451220 0.000000 0.706568
O O11 0.234812 0.752417 0.745661
O O12 0.183554 0.000000 0.835963
O O13 0.199077 0.739123 0.947386
O O14 0.329580 0.500000 0.932386
O O15 0.305395 0.229043 0.839816
O O16 0.379782 0.221932 0.929569
O O17 0.173595 0.725583 0.364563
O O18 0.207545 0.000000 0.266238
O O19 0.053614 0.500000 0.061731
O O20 0.129915 0.000000 0.435426
#
# Coordination Sequence:
#
# PCOD9191108 Si02
#       8
#     8   8   8   8   8   8   8   8
#     4  10  22  39  58  79 107 146 186 227 272 317
#     4   9  19  37  57  78 110 148 183 220 267 320
#     4  10  20  35  57  85 113 140 177 225 275 324
#     4  10  20  32  53  82 109 140 178 221 267 322
#     4   9  17  31  49  75 112 145 173 213 267 322
#     4  10  20  34  52  76 108 143 178 219 269 324
#     4   9  17  30  53  83 111 142 177 218 266 322
#     4  11  23  38  57  81 110 144 183 226 271 321
#
# _framework density 22.125603000000002
#
# number of rings (size 3 to 8) (size 9 to 14) (size 15 to 20)
#    0.000    2.250    1.250    1.500    0.000    5.000 
#    0.000    3.125    0.000    0.000    0.000    5.250 
#    0.000    0.000    0.000    0.000    0.000    0.000 
#
# Total GULP energy -178605.545878 kJ/mol
# GULP energy per Si atom -5581.423309 kJ/mol
# Density = 2.207524 g / cm^3
# Si number density = 22.125603 Si / 1000 Ang^3
#
#
#
# Elastic Constant Matrix: (Units=GPa)
#
#
# Indices 1 2 3 4 5 6 
#
# 1 42.7380 -6.1524 32.1731 0.0000 -22.7061 0.0000
# 2 -6.1524 24.7447 -5.0744 0.0000 -3.3776 0.0000
# 3 32.1731 -5.0744 116.7777 0.0000 -26.3136 0.0000
# 4 0.0000 0.0000 0.0000 -54.0919 0.0000 -41.4873
# 5 -22.7061 -3.3776 -26.3136 0.0000 37.3092 0.0000
# 6 0.0000 0.0000 0.0000 -41.4873 0.0000 -16.3001
#
#
#
# Elastic Compliance Matrix: (Units=1/GPa)
#
#
# Indices 1 2 3 4 5 6 
#
# 1 0.041289 0.012074 -0.005876 0.000000 0.022077 0.000000
# 2 0.012074 0.045420 0.001462 0.000000 0.012491 0.000000
# 3 -0.005876 0.001462 0.011259 0.000000 0.004497 0.000000
# 4 0.000000 0.000000 0.000000 0.019416 0.000000 -0.049419
# 5 0.022077 0.012491 0.004497 0.000000 0.044541 0.000000
# 6 0.000000 0.000000 0.000000 -0.049419 0.000000 0.064434
#
#
# Mechanical properties :
#
#
# Convention : Reuss Voigt Hill
#
# Bulk Modulus (GPa) = 8.82708 25.12812 16.97760
# Shear Modulus (GPa) = 20.09627 4.27106 12.18366
#
# Velocity S-wave (km/s) = 3.01704 1.39088 2.34916
# Velocity P-wave (km/s) = 4.01683 3.73646 3.87918
#
# Compressibility (1/GPa) = 0.11328778
#
# Stress axis : x y z
#
# Youngs Moduli (GPa) = 24.21926 22.01696 88.81771
#
# Poissons Ratio (x) = -0.26584 0.52191
# Poissons Ratio (y) = -0.29243 -0.12982
# Poissons Ratio (z) = 0.14232 -0.03218
#
# Static dielectric constant tensor:
#      x y z
#    x 1.802250 0.000000 -0.017730 
#    y 0.000000 1.819590 0.000000 
#    z -0.017730 0.000000 1.859310 
# 
# From -- ./inp_files/243824.got.cif
#   From: 2010.05.17/outbox.cif.g08.bks.cpg/sg12_122_cif.got.tgz:243824.got - 2010.06.03 13:09:07.
