data_PCOD9191667
_publ_section_title
;
Structure prediction by ZEFSAII (Michael W. Deem and Ramdas Pophale) SiO2 
 PCOD9191667
Probable space group: C 2/M
;
_chemical_formula_sum "Si O2"
_cell_formula_units_Z 48
_cell_length_a 9.608748
_cell_length_b 17.905336
_cell_length_c 13.168170
_cell_angle_alpha 90.000000
_cell_angle_beta 103.061325
_cell_angle_gamma 90.000000
_cell_volume 2206.942705
_symmetry_space_group_name_H-M "C 2/M"
_symmetry_group_IT_number 12
_symmetry_cell_setting 'monoclinic'
loop_
_space_group_symop_operation_xyz
x,y,z
-x,y,-z
-x,-y,-z
x,-y,z
1/2+x,1/2+y,z
1/2-x,1/2+y,-z
1/2-x,1/2-y,-z
1/2+x,1/2-y,z
loop_
_atom_site_type_symbol
_atom_site_label
_atom_site_fract_x
_atom_site_fract_y
_atom_site_fract_z
Si Si1 0.303884 0.416379 0.826121
Si Si2 0.977431 0.086051 0.640128
Si Si3 0.062966 0.362760 0.660148
Si Si4 0.324976 0.291535 0.254017
Si Si5 0.048307 0.232010 0.113730
Si Si6 0.707174 0.087266 0.478095
O O1 0.321525 0.500000 0.870658
O O2 0.388993 0.412435 0.732276
O O3 0.138697 0.399951 0.770223
O O4 0.369659 0.346426 0.896702
O O5 0.866357 0.112827 0.535463
O O6 0.116860 0.134480 0.683369
O O7 0.010578 0.000000 0.625301
O O8 0.122245 0.278649 0.670057
O O9 0.127462 0.405387 0.573771
O O10 0.893678 0.368295 0.616129
O O11 0.161265 0.280408 0.196534
O O12 0.414124 0.283633 0.163661
O O13 0.000000 0.266747 0.000000
O O14 0.709321 0.000000 0.450468
#
# Coordination Sequence:
#
# PCOD9191667 Si02
#       6
#     8   8   8   8   8   8
#     4   8  14  26  45  70  97 122 156 202 246 285
#     4   8  15  28  45  65  92 130 167 195 231 284
#     4   9  15  24  43  73 104 129 154 193 246 289
#     4  10  20  33  51  73  98 129 165 205 251 295
#     4  10  20  34  52  73  97 127 163 207 256 302
#     4   9  15  26  48  76 104 132 165 203 239 276
#
# _framework density 21.749545000000001
#
# number of rings (size 3 to 8) (size 9 to 14) (size 15 to 20)
#    0.000    3.000    0.000    4.500    0.000    1.000 
#    0.000    0.000    0.000    6.500    0.000    4.667 
#    0.000    0.000    0.000    0.000    0.000    0.000 
#
# Total GULP energy -133942.649591 kJ/mol
# GULP energy per Si atom -5580.943733 kJ/mol
# Density = 2.170004 g / cm^3
# Si number density = 21.749545 Si / 1000 Ang^3
#
#
#
# Elastic Constant Matrix: (Units=GPa)
#
#
# Indices 1 2 3 4 5 6 
#
# 1 63.2387 -5.3143 22.6214 0.0000 11.3013 0.0000
# 2 -5.3143 67.3476 23.2498 0.0000 21.0920 0.0000
# 3 22.6214 23.2498 84.6189 0.0000 18.3910 0.0000
# 4 0.0000 0.0000 0.0000 4.0622 0.0000 -1.6554
# 5 11.3013 21.0920 18.3910 0.0000 26.5962 0.0000
# 6 0.0000 0.0000 0.0000 -1.6554 0.0000 9.3977
#
#
#
# Elastic Compliance Matrix: (Units=1/GPa)
#
#
# Indices 1 2 3 4 5 6 
#
# 1 0.019927 0.006456 -0.004881 0.000000 -0.010211 0.000000
# 2 0.006456 0.022262 -0.004012 0.000000 -0.017624 0.000000
# 3 -0.004881 -0.004012 0.015397 0.000000 -0.005390 0.000000
# 4 0.000000 0.000000 0.000000 0.265212 0.000000 0.046718
# 5 -0.010211 -0.017624 -0.005390 0.000000 0.059642 0.000000
# 6 0.000000 0.000000 0.000000 0.046718 0.000000 0.114638
#
#
# Mechanical properties :
#
#
# Convention : Reuss Voigt Hill
#
# Bulk Modulus (GPa) = 18.97204 32.92434 25.94819
# Shear Modulus (GPa) = 9.62420 19.65444 14.63932
#
# Velocity S-wave (km/s) = 2.10585 3.00937 2.59721
# Velocity P-wave (km/s) = 3.82815 5.21976 4.57715
#
# Compressibility (1/GPa) = 0.05270916
#
# Stress axis : x y z
#
# Youngs Moduli (GPa) = 50.18421 44.91914 64.94938
#
# Poissons Ratio (x) = -0.28998 0.31705
# Poissons Ratio (y) = -0.32397 0.26059
# Poissons Ratio (z) = 0.24497 0.18023
#
# Static dielectric constant tensor:
#      x y z
#    x 1.876530 0.000000 0.003090 
#    y 0.000000 1.788970 0.000000 
#    z 0.003090 0.000000 1.788250 
# 
# From -- ./inp_files/263672.got.cif
#   From: 2010.05.17/outbox.cif.g08.bks.cpg/sg12_132_cif.got.tgz:263672.got - 2010.06.03 13:09:07.
