data_PCOD9191837
_publ_section_title
;
Structure prediction by ZEFSAII (Michael W. Deem and Ramdas Pophale) SiO2 
 PCOD9191837
Probable space group: C 2/M
;
_chemical_formula_sum "Si O2"
_cell_formula_units_Z 64
_cell_length_a 25.160339
_cell_length_b 7.664659
_cell_length_c 16.011546
_cell_angle_alpha 90.000000
_cell_angle_beta 70.421154
_cell_angle_gamma 90.000000
_cell_volume 2909.223226
_symmetry_space_group_name_H-M "C 2/M"
_symmetry_group_IT_number 12
_symmetry_cell_setting 'monoclinic'
loop_
_space_group_symop_operation_xyz
x,y,z
-x,y,-z
-x,-y,-z
x,-y,z
1/2+x,1/2+y,z
1/2-x,1/2+y,-z
1/2-x,1/2-y,-z
1/2+x,1/2-y,z
loop_
_atom_site_type_symbol
_atom_site_label
_atom_site_fract_x
_atom_site_fract_y
_atom_site_fract_z
Si Si1 0.155201 0.795389 0.675445
Si Si2 0.185608 0.209782 0.009975
Si Si3 0.400548 0.292281 0.805300
Si Si4 0.473378 0.196892 0.261532
Si Si5 0.827429 0.802798 0.516879
Si Si6 0.707960 0.711587 0.818041
Si Si7 0.547230 0.201720 0.534732
Si Si8 0.327199 0.293312 0.697562
O O1 0.176876 0.721273 0.574199
O O2 0.182357 0.720502 0.744730
O O3 0.087387 0.783417 0.721784
O O4 0.168925 0.000000 0.663557
O O5 0.177890 0.271555 0.918593
O O6 0.179638 0.000000 0.012284
O O7 0.250000 0.250000 0.000000
O O8 0.141209 0.278325 0.101180
O O9 0.391710 0.500000 0.804381
O O10 0.465537 0.266117 0.796150
O O11 0.380185 0.225051 0.724167
O O12 0.476661 0.197402 0.360033
O O13 0.468047 0.000000 0.233318
O O14 0.895069 0.805483 0.493758
O O15 0.810838 0.717668 0.614407
O O16 0.804415 0.000000 0.524890
O O17 0.705526 0.500000 0.817853
O O18 0.773074 0.766713 0.784313
O O19 0.500000 0.276127 0.500000
O O20 0.559746 0.000000 0.503336
O O21 0.335578 0.500000 0.678072
#
# Coordination Sequence:
#
# PCOD9191837 Si02
#       8
#     8   8   8   8   8   8   8   8
#     4   9  19  37  55  73 104 144 181 216 255 304
#     4  10  20  36  57  81 106 134 171 213 263 317
#     4  10  20  34  53  78 108 137 167 211 267 319
#     4  10  20  33  52  78 104 136 177 217 259 309
#     4   9  18  31  48  71 101 138 177 212 250 303
#     4  10  21  36  56  79 103 137 179 218 260 312
#     4   9  17  29  45  68 100 134 170 214 261 304
#     4  10  20  33  51  79 110 139 174 216 264 313
#
# _framework density 21.999001
#
# number of rings (size 3 to 8) (size 9 to 14) (size 15 to 20)
#    0.000    2.375    1.250    1.125    0.000    3.250 
#    0.000    0.625    0.000    3.750    0.000    0.000 
#    0.000    0.000    0.000    0.000    0.000    0.000 
#
# Total GULP energy -178397.472242 kJ/mol
# GULP energy per Si atom -5574.921008 kJ/mol
# Density = 2.194893 g / cm^3
# Si number density = 21.999001 Si / 1000 Ang^3
#
#
#
# Elastic Constant Matrix: (Units=GPa)
#
#
# Indices 1 2 3 4 5 6 
#
# 1 53.1285 -5.0247 24.3250 0.0000 0.1273 0.0000
# 2 -5.0247 45.4418 11.8105 0.0000 2.6989 0.0000
# 3 24.3250 11.8105 122.4446 0.0000 2.9107 0.0000
# 4 0.0000 0.0000 0.0000 23.1099 0.0000 -1.3647
# 5 0.1273 2.6989 2.9107 0.0000 36.2837 0.0000
# 6 0.0000 0.0000 0.0000 -1.3647 0.0000 18.2668
#
#
#
# Elastic Compliance Matrix: (Units=1/GPa)
#
#
# Indices 1 2 3 4 5 6 
#
# 1 0.021245 0.003533 -0.004562 0.000000 0.000029 0.000000
# 2 0.003533 0.023242 -0.002908 0.000000 -0.001508 0.000000
# 3 -0.004562 -0.002908 0.009366 0.000000 -0.000519 0.000000
# 4 0.000000 0.000000 0.000000 0.043463 0.000000 0.003247
# 5 0.000029 -0.001508 -0.000519 0.000000 0.027714 0.000000
# 6 0.000000 0.000000 0.000000 0.003247 0.000000 0.054987
#
#
# Mechanical properties :
#
#
# Convention : Reuss Voigt Hill
#
# Bulk Modulus (GPa) = 21.74867 31.47072 26.60970
# Shear Modulus (GPa) = 24.60413 28.19236 26.39825
#
# Velocity S-wave (km/s) = 3.34791 3.58373 3.46782
# Velocity P-wave (km/s) = 4.98521 5.60899 5.30627
#
# Compressibility (1/GPa) = 0.04597982
#
# Stress axis : x y z
#
# Youngs Moduli (GPa) = 47.06964 43.02518 106.76814
#
# Poissons Ratio (x) = -0.15202 0.48708
# Poissons Ratio (y) = -0.16631 0.31047
# Poissons Ratio (z) = 0.21473 0.12511
#
# Static dielectric constant tensor:
#      x y z
#    x 1.815420 0.000000 0.019710 
#    y 0.000000 1.819400 0.000000 
#    z 0.019710 0.000000 1.870800 
# 
# From -- ./inp_files/243742.got.cif
#   From: 2010.05.17/outbox.cif.g08.bks.cpg/sg12_122_cif.got.tgz:243742.got - 2010.06.03 13:09:07.
