data_PCOD9191472
_publ_section_title
;
Structure prediction by ZEFSAII (Michael W. Deem and Ramdas Pophale) SiO2 
 PCOD9191472
Probable space group: C 2/M
;
_chemical_formula_sum "Si O2"
_cell_formula_units_Z 64
_cell_length_a 19.311580
_cell_length_b 7.632991
_cell_length_c 22.608564
_cell_angle_alpha 90.000000
_cell_angle_beta 103.165802
_cell_angle_gamma 90.000000
_cell_volume 3245.020225
_symmetry_space_group_name_H-M "C 2/M"
_symmetry_group_IT_number 12
_symmetry_cell_setting 'monoclinic'
loop_
_space_group_symop_operation_xyz
x,y,z
-x,y,-z
-x,-y,-z
x,-y,z
1/2+x,1/2+y,z
1/2-x,1/2+y,-z
1/2-x,1/2-y,-z
1/2+x,1/2-y,z
loop_
_atom_site_type_symbol
_atom_site_label
_atom_site_fract_x
_atom_site_fract_y
_atom_site_fract_z
Si Si1 0.029599 0.715359 0.321486
Si Si2 0.665168 0.294797 0.812106
Si Si3 0.686639 0.290766 0.943159
Si Si4 0.354683 0.207016 0.563522
Si Si5 0.195603 0.286827 0.570733
Si Si6 0.525110 0.793584 0.942314
Si Si7 0.000982 0.287988 0.810496
Si Si8 0.129216 0.294157 0.679078
O O1 0.029962 0.500000 0.321342
O O2 0.086498 0.778484 0.380254
O O3 0.043068 0.769078 0.255768
O O4 0.950234 0.775045 0.324023
O O5 0.680086 0.500000 0.810596
O O6 0.701985 0.224918 0.879060
O O7 0.582028 0.263180 0.810797
O O8 0.674720 0.222623 0.748102
O O9 0.678727 0.500000 0.937619
O O10 0.610245 0.221948 0.950504
O O11 0.750000 0.250000 0.000000
O O12 0.276617 0.231288 0.575849
O O13 0.349250 0.275027 0.495233
O O14 0.369173 0.000000 0.561282
O O15 0.195207 0.500000 0.570181
O O16 0.165366 0.222140 0.627190
O O17 0.489206 0.721888 0.874940
O O18 0.507373 0.000000 0.940125
O O19 0.500000 0.717256 0.000000
O O20 0.998028 0.500000 0.811834
O O21 0.119578 0.500000 0.666592
#
# Coordination Sequence:
#
# PCOD9191472 Si02
#       8
#     8   8   8   8   8   8   8   8
#     4   8  14  26  46  69  87 110 149 190 225 261
#     4   9  17  29  46  69  93 118 151 189 229 273
#     4  10  20  33  50  71  96 126 160 197 235 279
#     4   9  17  30  47  65  89 121 153 186 226 272
#     4   9  18  31  46  65  90 121 153 184 224 275
#     4   9  17  30  49  71  96 127 159 192 234 282
#     4   8  14  27  46  66  90 120 152 186 227 275
#     4   9  17  30  48  68  90 116 149 189 229 272
#
# _framework density 19.722529000000002
#
# number of rings (size 3 to 8) (size 9 to 14) (size 15 to 20)
#    0.000    3.125    0.000    1.500    0.000    2.750 
#    0.000    6.250    0.000    3.000    0.000    7.000 
#    0.000    0.000    0.000    0.000    0.000    0.000 
#
# Total GULP energy -178145.967225 kJ/mol
# GULP energy per Si atom -5567.061476 kJ/mol
# Density = 1.967764 g / cm^3
# Si number density = 19.722529 Si / 1000 Ang^3
#
#
#
# Elastic Constant Matrix: (Units=GPa)
#
#
# Indices 1 2 3 4 5 6 
#
# 1 32.8412 -9.9362 67.4550 0.0000 -2.2925 0.0000
# 2 -9.9362 34.5160 -4.2298 0.0000 -4.0014 0.0000
# 3 67.4550 -4.2298 229.6843 0.0000 -10.9640 0.0000
# 4 0.0000 0.0000 0.0000 9.8479 0.0000 0.5921
# 5 -2.2925 -4.0014 -10.9640 0.0000 36.5054 0.0000
# 6 0.0000 0.0000 0.0000 0.5921 0.0000 12.4949
#
#
#
# Elastic Compliance Matrix: (Units=1/GPa)
#
#
# Indices 1 2 3 4 5 6 
#
# 1 0.092291 0.023342 -0.026658 0.000000 0.000348 0.000000
# 2 0.023342 0.035361 -0.006035 0.000000 0.003529 0.000000
# 3 -0.026658 -0.006035 0.012134 0.000000 0.001309 0.000000
# 4 0.000000 0.000000 0.000000 0.101835 0.000000 -0.004826
# 5 0.000348 0.003529 0.001309 0.000000 0.028195 0.000000
# 6 0.000000 0.000000 0.000000 -0.004826 0.000000 0.080261
#
#
# Mechanical properties :
#
#
# Convention : Reuss Voigt Hill
#
# Bulk Modulus (GPa) = 8.25886 44.84661 26.55273
# Shear Modulus (GPa) = 12.22072 28.01982 20.12027
#
# Velocity S-wave (km/s) = 2.49194 3.77331 3.19747
# Velocity P-wave (km/s) = 3.53218 6.46312 5.20808
#
# Compressibility (1/GPa) = 0.12108215
#
# Stress axis : x y z
#
# Youngs Moduli (GPa) = 10.83532 28.27974 82.41167
#
# Poissons Ratio (x) = -0.66009 2.19693
# Poissons Ratio (y) = -0.25291 0.49739
# Poissons Ratio (z) = 0.28885 0.17068
#
# Static dielectric constant tensor:
#      x y z
#    x 1.640420 0.000000 -0.003200 
#    y 0.000000 1.735250 0.000000 
#    z -0.003200 0.000000 1.770670 
# 
# From -- ./inp_files/319238.got.cif
#   From: 2010.05.17/outbox.cif.g08.bks.cpg/sg12_160_cif.got.tgz:319238.got - 2010.06.03 13:09:07.
