data_PCOD9191426
_publ_section_title
;
Structure prediction by ZEFSAII (Michael W. Deem and Ramdas Pophale) SiO2 
 PCOD9191426
Probable space group: C 2/M
;
_chemical_formula_sum "Si O2"
_cell_formula_units_Z 64
_cell_length_a 24.066460
_cell_length_b 26.626415
_cell_length_c 20.463049
_cell_angle_alpha 90.000000
_cell_angle_beta 164.500377
_cell_angle_gamma 90.000000
_cell_volume 3504.158758
_symmetry_space_group_name_H-M "C 2/M"
_symmetry_group_IT_number 12
_symmetry_cell_setting 'monoclinic'
loop_
_space_group_symop_operation_xyz
x,y,z
-x,y,-z
-x,-y,-z
x,-y,z
1/2+x,1/2+y,z
1/2-x,1/2+y,-z
1/2-x,1/2-y,-z
1/2+x,1/2-y,z
loop_
_atom_site_type_symbol
_atom_site_label
_atom_site_fract_x
_atom_site_fract_y
_atom_site_fract_z
Si Si1 0.505740 0.711644 0.279166
Si Si2 0.338210 0.875079 0.467160
Si Si3 0.242362 0.207622 0.254497
Si Si4 0.392835 0.350743 0.021930
Si Si5 0.908919 0.672864 0.792165
Si Si6 0.393751 0.826266 0.117870
Si Si7 0.685133 0.682297 0.664822
Si Si8 0.584090 0.056558 0.669148
O O1 0.458670 0.679248 0.161165
O O2 0.741600 0.710081 0.570872
O O3 0.461916 0.769137 0.212141
O O4 0.354418 0.683575 0.160200
O O5 0.340513 0.835688 0.410080
O O6 0.508326 0.858990 0.713310
O O7 0.394904 0.928994 0.502555
O O8 0.108088 0.869517 0.234406
O O9 0.361748 0.259378 0.404729
O O10 0.225429 0.187170 0.161552
O O11 0.000000 0.214014 0.000000
O O12 0.252681 0.399991 0.872477
O O13 0.769971 0.652703 0.696761
O O14 0.011971 0.651173 0.842317
O O15 0.114442 0.690503 0.061693
O O16 0.500000 0.661121 0.500000
O O17 0.500000 0.060291 0.500000
O O18 0.660169 0.000000 0.766231
#
# Coordination Sequence:
#
# PCOD9191426 Si02
#       8
#     8   8   8   8   8   8   8   8
#     4  11  22  33  51  78 111 147 186 229 280 336
#     4  11  22  36  56  80 107 144 193 240 287 334
#     4  10  20  33  49  73 103 142 191 243 273 316
#     4  11  22  36  56  80 107 144 193 240 287 334
#     4  11  21  36  48  71 106 143 183 229 273 319
#     4  11  22  33  51  78 111 147 186 229 280 336
#     4  11  23  34  51  73 105 150 194 226 265 327
#     4  11  24  42  59  80 108 143 196 257 302 330
#
# _framework density 18.264012000000001
#
# number of rings (size 3 to 8) (size 9 to 14) (size 15 to 20)
#    0.000    1.125    5.000    2.625    5.250    2.500 
#    0.000    1.250    0.000    0.000    0.000    0.000 
#    0.000    0.000    0.000   13.500    0.000    0.750 
#
# Total GULP energy -178243.963702 kJ/mol
# GULP energy per Si atom -5570.123866 kJ/mol
# Density = 1.822244 g / cm^3
# Si number density = 18.264012 Si / 1000 Ang^3
#
#
#
# Elastic Constant Matrix: (Units=GPa)
#
#
# Indices 1 2 3 4 5 6 
#
# 1 113.9315 21.4486 24.9375 0.0007 10.8615 -0.0002
# 2 21.4486 42.1127 1.8916 -0.0012 -3.9001 -0.0005
# 3 24.9375 1.8916 55.9942 -0.0011 0.5937 -0.0008
# 4 0.0007 -0.0012 -0.0011 11.9632 0.0000 1.9616
# 5 10.8615 -3.9001 0.5937 0.0000 37.7807 -0.0002
# 6 -0.0002 -0.0005 -0.0008 1.9616 -0.0002 11.4810
#
#
#
# Elastic Compliance Matrix: (Units=1/GPa)
#
#
# Indices 1 2 3 4 5 6 
#
# 1 0.011295 -0.005887 -0.004791 -0.000002 -0.003780 0.000000
# 2 -0.005887 0.027083 0.001660 0.000003 0.004462 0.000001
# 3 -0.004791 0.001660 0.019924 0.000002 0.001236 0.000001
# 4 -0.000002 0.000003 0.000002 0.085999 0.000001 -0.014693
# 5 -0.003780 0.004462 0.001236 0.000001 0.027996 0.000001
# 6 0.000000 0.000001 0.000001 -0.014693 0.000001 0.089611
#
#
# Mechanical properties :
#
#
# Convention : Reuss Voigt Hill
#
# Bulk Modulus (GPa) = 24.83627 34.28820 29.56223
# Shear Modulus (GPa) = 17.04357 23.16235 20.10296
#
# Velocity S-wave (km/s) = 3.05811 3.56504 3.32126
# Velocity P-wave (km/s) = 5.10856 5.98000 5.56137
#
# Compressibility (1/GPa) = 0.04026370
#
# Stress axis : x y z
#
# Youngs Moduli (GPa) = 88.53820 36.92358 50.19165
#
# Poissons Ratio (x) = 0.21738 0.24048
# Poissons Ratio (y) = 0.52125 -0.08331
# Poissons Ratio (z) = 0.42420 -0.06128
#
# Static dielectric constant tensor:
#      x y z
#    x 2.471330 -0.000130 0.603470 
#    y -0.000130 1.589070 -0.000100 
#    z 0.603470 -0.000100 2.105360 
# 
# From -- ./inp_files/286679.got.cif
#   From: 2010.05.17/outbox.cif.g08.bks.cpg/sg12_144_cif.got.tgz:286679.got - 2010.06.03 13:09:07.
