data_PCOD9191250
_publ_section_title
;
Structure prediction by ZEFSAII (Michael W. Deem and Ramdas Pophale) SiO2 
 PCOD9191250
Probable space group: C 2/M
;
_chemical_formula_sum "Si O2"
_cell_formula_units_Z 64
_cell_length_a 20.625191
_cell_length_b 7.338093
_cell_length_c 21.551827
_cell_angle_alpha 90.000000
_cell_angle_beta 44.470180
_cell_angle_gamma 90.000000
_cell_volume 2285.056547
_symmetry_space_group_name_H-M "C 2/M"
_symmetry_group_IT_number 12
_symmetry_cell_setting 'monoclinic'
loop_
_space_group_symop_operation_xyz
x,y,z
-x,y,-z
-x,-y,-z
x,-y,z
1/2+x,1/2+y,z
1/2-x,1/2+y,-z
1/2-x,1/2-y,-z
1/2+x,1/2-y,z
loop_
_atom_site_type_symbol
_atom_site_label
_atom_site_fract_x
_atom_site_fract_y
_atom_site_fract_z
Si Si1 0.437137 0.278210 0.294323
Si Si2 0.687302 0.710460 0.789519
Si Si3 0.372959 0.720441 0.906587
Si Si4 0.625701 0.218625 0.404590
Si Si5 0.466450 0.715226 0.654188
Si Si6 0.738313 0.216921 0.435674
Si Si7 0.487134 0.723251 0.938478
Si Si8 0.776804 0.220190 0.852231
O O1 0.433723 0.500000 0.294796
O O2 0.529990 0.231613 0.194193
O O3 0.454196 0.215137 0.354040
O O4 0.336662 0.216251 0.341121
O O5 0.686593 0.500000 0.770682
O O6 0.781506 0.785520 0.695940
O O7 0.586006 0.781010 0.842041
O O8 0.699554 0.715399 0.856355
O O9 0.366813 0.500000 0.911705
O O10 0.398712 0.784671 0.958565
O O11 0.293223 0.783317 0.912572
O O12 0.543001 0.255770 0.412745
O O13 0.651220 0.288766 0.456005
O O14 0.623443 0.000000 0.408758
O O15 0.467262 0.500000 0.661589
O O16 0.371107 0.779962 0.751952
O O17 0.750000 0.250000 0.500000
O O18 0.735437 0.000000 0.430743
O O19 0.484994 0.500000 0.939588
O O20 0.500000 0.783960 0.000000
O O21 0.774061 0.000000 0.854632
#
# Coordination Sequence:
#
# PCOD9191250 Si02
#       8
#     8   8   8   8   8   8   8   8
#     4   8  14  27  47  66  83 109 147 184 213 249
#     4   9  16  27  45  67  89 113 142 178 218 257
#     4   8  13  24  44  66  85 110 147 184 214 249
#     4   9  17  29  46  67  89 114 142 174 217 264
#     4   8  14  26  46  69  87 106 140 183 218 250
#     4  10  20  33  47  64  88 116 146 179 215 256
#     4   9  16  25  39  62  90 117 147 183 217 249
#     4   8  14  25  43  66  88 110 140 179 218 256
#
# _framework density 28.008058999999999
#
# number of rings (size 3 to 8) (size 9 to 14) (size 15 to 20)
#    0.000    3.375    0.000    2.250    0.000    3.500 
#    0.000    1.875    0.000    5.625    0.000    0.000 
#    0.000    0.000    0.000    0.000    0.000    0.000 
#
# Total GULP energy -178753.626758 kJ/mol
# GULP energy per Si atom -5586.050836 kJ/mol
# Density = 2.794431 g / cm^3
# Si number density = 28.008059 Si / 1000 Ang^3
#
#
#
# Elastic Constant Matrix: (Units=GPa)
#
#
# Indices 1 2 3 4 5 6 
#
# 1 279.7719 2.9559 37.8030 -0.0003 14.2224 0.0009
# 2 2.9559 110.7124 -7.9818 -0.0016 -5.0300 0.0046
# 3 37.8030 -7.9818 83.3960 -0.0002 32.1030 0.0005
# 4 -0.0003 -0.0016 -0.0002 -2.7223 0.0001 3.8826
# 5 14.2224 -5.0300 32.1030 0.0001 60.3839 -0.0003
# 6 0.0009 0.0046 0.0005 3.8826 -0.0003 6.1600
#
#
#
# Elastic Compliance Matrix: (Units=1/GPa)
#
#
# Indices 1 2 3 4 5 6 
#
# 1 0.003813 -0.000228 -0.001757 0.000000 0.000017 0.000000
# 2 -0.000228 0.009115 0.000833 -0.000008 0.000370 -0.000002
# 3 -0.001757 0.000833 0.015944 -0.000002 -0.007993 0.000000
# 4 0.000000 -0.000008 -0.000002 -0.193442 0.000002 0.121926
# 5 0.000017 0.000370 -0.007993 0.000002 0.020837 0.000000
# 6 0.000000 -0.000002 0.000000 0.121926 0.000000 0.085488
#
#
# Mechanical properties :
#
#
# Convention : Reuss Voigt Hill
#
# Bulk Modulus (GPa) = 37.63620 59.93718 48.78669
# Shear Modulus (GPa) = -106.19134 42.17121 -32.01006
#
# Velocity S-wave (km/s) = -6.16416 3.88452 -3.38433
# Velocity P-wave (km/s) = 6.09883 6.44715 1.47819
#
# Compressibility (1/GPa) = 0.02657017
#
# Stress axis : x y z
#
# Youngs Moduli (GPa) = 262.24204 109.70482 62.71894
#
# Poissons Ratio (x) = 0.02498 0.11019
# Poissons Ratio (y) = 0.05971 -0.05226
# Poissons Ratio (z) = 0.46072 -0.09141
#
# Static dielectric constant tensor:
#      x y z
#    x 2.240090 0.000000 0.055630 
#    y 0.000000 2.057700 0.000000 
#    z 0.055630 0.000000 2.339370 
# 
# From -- ./inp_files/319908.got.cif
#   From: 2010.05.17/outbox.cif.g08.bks.cpg/sg12_160_cif.got.tgz:319908.got - 2010.06.03 13:09:07.
