data_PCOD9191984
_publ_section_title
;
Structure prediction by ZEFSAII (Michael W. Deem and Ramdas Pophale) SiO2 
 PCOD9191984
Probable space group: C 2/M
;
_chemical_formula_sum "Si O2"
_cell_formula_units_Z 60
_cell_length_a 11.214886
_cell_length_b 22.451806
_cell_length_c 10.433504
_cell_angle_alpha 90.000000
_cell_angle_beta 98.844025
_cell_angle_gamma 90.000000
_cell_volume 2595.863562
_symmetry_space_group_name_H-M "C 2/M"
_symmetry_group_IT_number 12
_symmetry_cell_setting 'monoclinic'
loop_
_space_group_symop_operation_xyz
x,y,z
-x,y,-z
-x,-y,-z
x,-y,z
1/2+x,1/2+y,z
1/2-x,1/2+y,-z
1/2-x,1/2-y,-z
1/2+x,1/2-y,z
loop_
_atom_site_type_symbol
_atom_site_label
_atom_site_fract_x
_atom_site_fract_y
_atom_site_fract_z
Si Si1 0.422884 0.812401 0.604832
Si Si2 0.855087 0.685824 0.182708
Si Si3 0.567626 0.688147 0.875660
Si Si4 0.343589 0.305648 0.643474
Si Si5 0.858373 0.933227 0.234013
Si Si6 0.000000 0.886335 0.500000
Si Si7 0.594200 0.935448 0.899195
Si Si8 0.110551 0.436957 0.345253
O O1 0.500000 0.787727 0.500000
O O2 0.507961 0.816728 0.742531
O O3 0.322238 0.764294 0.614038
O O4 0.383891 0.878889 0.567203
O O5 0.847105 0.753234 0.126869
O O6 0.768066 0.674971 0.289000
O O7 0.837653 0.627838 0.091144
O O8 0.462571 0.693141 0.752268
O O9 0.624174 0.623451 0.855500
O O10 0.500000 0.690557 0.000000
O O11 0.389188 0.345546 0.533284
O O12 0.946508 0.923222 0.371719
O O13 0.721688 0.932086 0.264837
O O14 0.880722 0.000000 0.185318
O O15 0.512913 0.937809 0.756547
O O16 0.659631 0.000000 0.918711
O O17 0.500000 0.933677 0.000000
O O18 0.122991 0.500000 0.417131
#
# Coordination Sequence:
#
# PCOD9191984 Si02
#       8
#     8   8   8   8   8   4   8   8
#     4  10  20  33  52  79 107 142 179 223 274 320
#     4  10  21  35  55  83 112 146 182 226 275 330
#     4  10  22  38  55  82 114 143 185 236 278 325
#     4  10  21  37  55  83 109 144 187 227 275 333
#     4  10  21  38  58  80 108 149 190 229 280 331
#     4  10  21  38  58  80 109 144 186 236 275 326
#     4   9  18  35  57  82 114 146 180 225 273 328
#     4   9  19  34  52  78 109 140 182 224 273 332
#
# _framework density 23.113696000000001
#
# number of rings (size 3 to 8) (size 9 to 14) (size 15 to 20)
#    0.000    2.267    0.667    1.400    1.867    2.667 
#    0.000    3.333    0.000    0.000    0.000    0.000 
#    0.000    0.000    0.000    0.000    0.000    0.000 
#
# Total GULP energy -167386.849293 kJ/mol
# GULP energy per Si atom -5579.561643 kJ/mol
# Density = 2.306109 g / cm^3
# Si number density = 23.113696 Si / 1000 Ang^3
#
#
#
# Elastic Constant Matrix: (Units=GPa)
#
#
# Indices 1 2 3 4 5 6 
#
# 1 54.8178 35.5069 8.0431 0.0000 0.0596 0.0000
# 2 35.5069 221.1861 38.5791 0.0000 -24.6036 0.0000
# 3 8.0431 38.5791 55.1926 0.0000 -2.4885 0.0000
# 4 0.0000 0.0000 0.0000 59.1845 0.0000 -19.7942
# 5 0.0596 -24.6036 -2.4885 0.0000 48.7451 0.0000
# 6 0.0000 0.0000 0.0000 -19.7942 0.0000 8.6532
#
#
#
# Elastic Compliance Matrix: (Units=1/GPa)
#
#
# Indices 1 2 3 4 5 6 
#
# 1 0.020530 -0.003366 -0.000718 0.000000 -0.001761 0.000000
# 2 -0.003366 0.006002 -0.003577 0.000000 0.002851 0.000000
# 3 -0.000718 -0.003577 0.020689 0.000000 -0.000748 0.000000
# 4 0.000000 0.000000 0.000000 0.071915 0.000000 0.164506
# 5 -0.001761 0.002851 -0.000748 0.000000 0.021918 0.000000
# 6 0.000000 0.000000 0.000000 0.164506 0.000000 0.491870
#
#
# Mechanical properties :
#
#
# Convention : Reuss Voigt Hill
#
# Bulk Modulus (GPa) = 31.34826 55.05051 43.19938
# Shear Modulus (GPa) = 7.58864 39.92107 23.75485
#
# Velocity S-wave (km/s) = 1.81392 4.16042 3.20932
# Velocity P-wave (km/s) = 4.24018 6.85184 5.69767
#
# Compressibility (1/GPa) = 0.03189970
#
# Stress axis : x y z
#
# Youngs Moduli (GPa) = 48.70929 166.59912 48.33428
#
# Poissons Ratio (x) = 0.56082 0.03471
# Poissons Ratio (y) = 0.16397 0.17287
# Poissons Ratio (z) = 0.03498 0.59585
#
# Static dielectric constant tensor:
#      x y z
#    x 1.852660 0.000000 0.039840 
#    y 0.000000 1.939190 0.000000 
#    z 0.039840 0.000000 1.859860 
# 
# From -- ./inp_files/133928.got.cif
#   From: 2010.05.17/outbox.cif.g08.bks.cpg/sg12_67_cif.got.tgz:133928.got - 2010.06.03 13:09:07.
