data_PCOD9191635
_publ_section_title
;
Structure prediction by ZEFSAII (Michael W. Deem and Ramdas Pophale) SiO2 
 PCOD9191635
Probable space group: C 2/M
;
_chemical_formula_sum "Si O2"
_cell_formula_units_Z 58
_cell_length_a 25.947603
_cell_length_b 7.606983
_cell_length_c 12.887100
_cell_angle_alpha 90.000000
_cell_angle_beta 75.320120
_cell_angle_gamma 90.000000
_cell_volume 2460.659827
_symmetry_space_group_name_H-M "C 2/M"
_symmetry_group_IT_number 12
_symmetry_cell_setting 'monoclinic'
loop_
_space_group_symop_operation_xyz
x,y,z
-x,y,-z
-x,-y,-z
x,-y,z
1/2+x,1/2+y,z
1/2-x,1/2+y,-z
1/2-x,1/2-y,-z
1/2+x,1/2-y,z
loop_
_atom_site_type_symbol
_atom_site_label
_atom_site_fract_x
_atom_site_fract_y
_atom_site_fract_z
Si Si1 0.333431 0.197458 0.384861
Si Si2 0.944954 0.288459 0.665207
Si Si3 0.500000 0.000000 0.000000
Si Si4 0.778602 0.208478 0.619044
Si Si5 0.068243 0.285575 0.557480
Si Si6 0.335424 0.205417 0.010043
Si Si7 0.228922 0.290484 0.155912
Si Si8 0.446750 0.307248 0.899058
O O1 0.282710 0.276820 0.352774
O O2 0.310916 0.194075 0.514335
O O3 0.390621 0.281317 0.376540
O O4 0.341018 0.000000 0.339018
O O5 0.938237 0.500000 0.670960
O O6 0.920632 0.225980 0.566984
O O7 0.929838 0.221176 0.786776
O O8 0.007764 0.246656 0.618410
O O9 0.515880 0.154065 0.077666
O O10 0.798602 0.238245 0.723773
O O11 0.777992 0.000000 0.595351
O O12 0.072590 0.500000 0.554644
O O13 0.289328 0.220686 0.118976
O O14 0.348025 0.000000 0.988684
O O15 0.304828 0.276764 0.924122
O O16 0.391910 0.295837 0.993410
O O17 0.231245 0.500000 0.146784
O O18 0.470878 0.500000 0.895709
#
# Coordination Sequence:
#
# PCOD9191635 Si02
#       8
#     8   8   2   8   8   8   8   8
#     4   9  18  34  52  77 111 156 204 243 294 364
#     4   9  17  36  61  91 123 155 205 261 317 375
#     4  12  26  52  68  92 132 168 218 272 324 382
#     4  10  20  33  50  78 117 157 199 249 304 366
#     4   8  16  32  60  87 117 161 205 255 312 374
#     4  10  21  41  64  90 124 161 206 264 322 374
#     4  10  21  37  61  90 122 161 207 263 315 377
#     4  12  25  44  70  97 126 170 215 267 326 389
#
# _framework density 23.570913999999998
#
# number of rings (size 3 to 8) (size 9 to 14) (size 15 to 20)
#    0.000    2.207    1.379    2.276    1.931    2.207 
#    2.483    2.069    0.000    0.000    0.000    0.000 
#    0.000    0.000    0.000    0.000    0.000    0.000 
#
# Total GULP energy -161622.940567 kJ/mol
# GULP energy per Si atom -5573.204847 kJ/mol
# Density = 2.351727 g / cm^3
# Si number density = 23.570914 Si / 1000 Ang^3
#
#
#
# Elastic Constant Matrix: (Units=GPa)
#
#
# Indices 1 2 3 4 5 6 
#
# 1 44.8318 1.9276 -17.5250 0.0000 -2.9802 0.0000
# 2 1.9276 115.6005 -2.5008 0.0000 4.4405 0.0000
# 3 -17.5250 -2.5008 59.7960 0.0000 -5.3544 0.0000
# 4 0.0000 0.0000 0.0000 10.7396 0.0000 -10.0215
# 5 -2.9802 4.4405 -5.3544 0.0000 16.6768 0.0000
# 6 0.0000 0.0000 0.0000 -10.0215 0.0000 -1.2047
#
#
#
# Elastic Compliance Matrix: (Units=1/GPa)
#
#
# Indices 1 2 3 4 5 6 
#
# 1 0.026063 -0.000542 0.008284 0.000000 0.007462 0.000000
# 2 -0.000542 0.008753 -0.000010 0.000000 -0.002431 0.000000
# 3 0.008284 -0.000010 0.019855 0.000000 0.007858 0.000000
# 4 0.000000 0.000000 0.000000 0.010627 0.000000 -0.088397
# 5 0.007462 -0.002431 0.007858 0.000000 0.064467 0.000000
# 6 0.000000 0.000000 0.000000 -0.088397 0.000000 -0.094732
#
#
# Mechanical properties :
#
#
# Convention : Reuss Voigt Hill
#
# Bulk Modulus (GPa) = 14.25845 20.44799 17.35322
# Shear Modulus (GPa) = 116.42257 21.13078 68.77667
#
# Velocity S-wave (km/s) = 7.03560 2.99737 5.40758
# Velocity P-wave (km/s) = 8.48893 4.54675 6.80936
#
# Compressibility (1/GPa) = 0.07013387
#
# Stress axis : x y z
#
# Youngs Moduli (GPa) = 38.36818 114.25092 50.36601
#
# Poissons Ratio (x) = 0.06193 -0.41724
# Poissons Ratio (y) = 0.02080 0.00053
# Poissons Ratio (z) = -0.31785 0.00120
#
# Static dielectric constant tensor:
#      x y z
#    x 1.942420 0.000000 0.031880 
#    y 0.000000 1.913270 0.000000 
#    z 0.031880 0.000000 1.912060 
# 
# From -- ./inp_files/180923.got.cif
#   From: 2010.05.17/outbox.cif.g08.bks.cpg/sg12_91_cif.got.tgz:180923.got - 2010.06.03 13:09:07.
