data_PCOD9191725
_publ_section_title
;
Structure prediction by ZEFSAII (Michael W. Deem and Ramdas Pophale) SiO2 
 PCOD9191725
Probable space group: C 2/M
;
_chemical_formula_sum "Si O2"
_cell_formula_units_Z 64
_cell_length_a 14.089054
_cell_length_b 9.621347
_cell_length_c 22.714377
_cell_angle_alpha 90.000000
_cell_angle_beta 94.401703
_cell_angle_gamma 90.000000
_cell_volume 3069.980978
_symmetry_space_group_name_H-M "C 2/M"
_symmetry_group_IT_number 12
_symmetry_cell_setting 'monoclinic'
loop_
_space_group_symop_operation_xyz
x,y,z
-x,y,-z
-x,-y,-z
x,-y,z
1/2+x,1/2+y,z
1/2-x,1/2+y,-z
1/2-x,1/2-y,-z
1/2+x,1/2-y,z
loop_
_atom_site_type_symbol
_atom_site_label
_atom_site_fract_x
_atom_site_fract_y
_atom_site_fract_z
Si Si1 0.581309 0.661386 0.313890
Si Si2 0.575157 0.161264 0.740843
Si Si3 0.086165 0.839270 0.044894
Si Si4 0.261947 0.660150 0.587409
Si Si5 0.717165 0.342822 0.213261
Si Si6 0.743001 0.838541 0.099954
Si Si7 0.393532 0.340186 0.476575
Si Si8 0.049601 0.842865 0.854203
O O1 0.562816 0.500000 0.328327
O O2 0.486301 0.751269 0.308086
O O3 0.664425 0.715142 0.360396
O O4 0.626299 0.665548 0.250630
O O5 0.689056 0.171288 0.741333
O O6 0.554848 0.228227 0.804100
O O7 0.548041 0.000000 0.737944
O O8 0.179839 0.747510 0.051580
O O9 0.041416 0.836363 0.108526
O O10 0.106383 0.000000 0.030359
O O11 0.000000 0.788594 0.000000
O O12 0.237961 0.500000 0.601077
O O13 0.326241 0.658954 0.531218
O O14 0.166203 0.746545 0.571605
O O15 0.722231 0.500000 0.187621
O O16 0.723053 0.228008 0.163314
O O17 0.856930 0.827076 0.100144
O O18 0.717041 0.000000 0.097084
O O19 0.500000 0.292536 0.500000
O O20 0.402863 0.500000 0.456148
O O21 0.055873 0.000000 0.828700
#
# Coordination Sequence:
#
# PCOD9191725 Si02
#       8
#     8   8   8   8   8   8   8   8
#     4  10  20  34  51  72 103 137 164 199 247 294
#     4  10  20  33  51  76 101 128 166 205 241 288
#     4  10  21  36  53  73  98 130 165 199 243 299
#     4   9  19  34  51  74 101 131 169 205 242 294
#     4   9  19  35  52  71  99 134 166 197 241 296
#     4  10  20  34  53  76 100 127 163 206 246 287
#     4   9  18  34  54  74  99 131 166 207 252 292
#     4   9  19  36  54  72  99 133 164 198 245 296
#
# _framework density 20.847035999999999
#
# number of rings (size 3 to 8) (size 9 to 14) (size 15 to 20)
#    0.000    2.500    0.000    1.500    0.000    7.500 
#    0.000    0.000    0.000    0.000    0.000    0.000 
#    0.000    0.000    0.000    0.000    0.000    0.000 
#
# Total GULP energy -178687.340029 kJ/mol
# GULP energy per Si atom -5583.979376 kJ/mol
# Density = 2.079959 g / cm^3
# Si number density = 20.847036 Si / 1000 Ang^3
#
#
#
# Elastic Constant Matrix: (Units=GPa)
#
#
# Indices 1 2 3 4 5 6 
#
# 1 115.1338 60.5762 20.6418 0.0000 42.7719 0.0000
# 2 60.5762 84.1319 20.3193 0.0000 30.0372 0.0000
# 3 20.6418 20.3193 41.8973 0.0000 26.7889 0.0000
# 4 0.0000 0.0000 0.0000 25.8037 0.0000 17.5368
# 5 42.7719 30.0372 26.7889 0.0000 46.8145 0.0000
# 6 0.0000 0.0000 0.0000 17.5368 0.0000 28.1243
#
#
#
# Elastic Compliance Matrix: (Units=1/GPa)
#
#
# Indices 1 2 3 4 5 6 
#
# 1 0.017238 -0.008977 0.003545 0.000000 -0.012018 0.000000
# 2 -0.008977 0.020181 -0.003674 0.000000 -0.002645 0.000000
# 3 0.003545 -0.003674 0.038584 0.000000 -0.022961 0.000000
# 4 0.000000 0.000000 0.000000 0.067255 0.000000 -0.041937
# 5 -0.012018 -0.002645 -0.022961 0.000000 0.047177 0.000000
# 6 0.000000 0.000000 0.000000 -0.041937 0.000000 0.061706
#
#
# Mechanical properties :
#
#
# Convention : Reuss Voigt Hill
#
# Bulk Modulus (GPa) = 17.30333 49.35975 33.33154
# Shear Modulus (GPa) = 17.26425 29.45687 23.36056
#
# Velocity S-wave (km/s) = 2.88086 3.76307 3.35112
# Velocity P-wave (km/s) = 4.40272 6.52759 5.56747
#
# Compressibility (1/GPa) = 0.05779235
#
# Stress axis : x y z
#
# Youngs Moduli (GPa) = 58.01232 49.55131 25.91741
#
# Poissons Ratio (x) = 0.44482 -0.09189
# Poissons Ratio (y) = 0.52077 0.09521
# Poissons Ratio (z) = -0.20567 0.18204
#
# Static dielectric constant tensor:
#      x y z
#    x 1.755540 0.000000 0.016880 
#    y 0.000000 1.709200 0.000000 
#    z 0.016880 0.000000 1.787900 
# 
# From -- ./inp_files/359701.got.cif
#   From: 2010.05.17/outbox.cif.g08.bks.cpg/sg12_180_cif.got.tgz:359701.got - 2010.06.03 13:09:07.
