data_PCOD9191944
_publ_section_title
;
Structure prediction by ZEFSAII (Michael W. Deem and Ramdas Pophale) SiO2 
 PCOD9191944
Probable space group: C 2/M
;
_chemical_formula_sum "Si O2"
_cell_formula_units_Z 64
_cell_length_a 8.241372
_cell_length_b 18.219359
_cell_length_c 21.294048
_cell_angle_alpha 90.000000
_cell_angle_beta 92.011828
_cell_angle_gamma 90.000000
_cell_volume 3195.384018
_symmetry_space_group_name_H-M "C 2/M"
_symmetry_group_IT_number 12
_symmetry_cell_setting 'monoclinic'
loop_
_space_group_symop_operation_xyz
x,y,z
-x,y,-z
-x,-y,-z
x,-y,z
1/2+x,1/2+y,z
1/2-x,1/2+y,-z
1/2-x,1/2-y,-z
1/2+x,1/2-y,z
loop_
_atom_site_type_symbol
_atom_site_label
_atom_site_fract_x
_atom_site_fract_y
_atom_site_fract_z
Si Si1 0.581177 0.080816 0.302531
Si Si2 0.968599 0.080583 0.328650
Si Si3 0.463368 0.146553 0.568383
Si Si4 0.457242 0.642576 0.934978
Si Si5 0.928360 0.145804 0.796900
Si Si6 0.554635 0.807696 0.799336
Si Si7 0.914772 0.304545 0.062525
Si Si8 0.085144 0.191457 0.567066
O O1 0.775172 0.080892 0.313585
O O2 0.508539 0.096910 0.370479
O O3 0.535400 0.144297 0.253582
O O4 0.529658 0.000000 0.279466
O O5 0.998356 0.145018 0.378765
O O6 0.049665 0.095584 0.262987
O O7 0.013431 0.000000 0.354028
O O8 0.500000 0.114461 0.500000
O O9 0.273997 0.170230 0.566664
O O10 0.564931 0.221704 0.576777
O O11 0.473610 0.610783 0.865121
O O12 0.270928 0.670017 0.937862
O O13 0.569342 0.715961 0.937457
O O14 0.500000 0.600794 0.000000
O O15 0.743344 0.172590 0.797761
O O16 0.030023 0.220971 0.789205
O O17 0.502140 0.826227 0.870304
O O18 0.000000 0.331036 0.000000
O O19 0.000000 0.174164 0.500000
#
# Coordination Sequence:
#
# PCOD9191944 Si02
#       8
#     8   8   8   8   8   8   8   8
#     4  10  22  38  54  75 105 139 174 214 259 306
#     4  10  22  38  54  75 105 139 174 214 259 306
#     4  10  20  35  56  80 105 133 168 209 253 303
#     4   9  16  26  43  70 101 130 164 207 255 304
#     4  10  20  33  52  78 105 136 174 215 258 307
#     4  10  20  33  52  78 105 136 174 215 258 307
#     4   9  16  26  43  70 101 130 164 207 255 304
#     4  10  20  35  56  80 105 133 168 209 253 303
#
# _framework density 20.028891999999999
#
# number of rings (size 3 to 8) (size 9 to 14) (size 15 to 20)
#    0.000    2.250    0.000    4.500    0.000    8.000 
#    0.000    0.000    0.000    0.750    0.000    0.000 
#    0.000    0.000    0.000    0.000    0.000    0.000 
#
# Total GULP energy -178546.490268 kJ/mol
# GULP energy per Si atom -5579.577821 kJ/mol
# Density = 1.998331 g / cm^3
# Si number density = 20.028892 Si / 1000 Ang^3
#
#
#
# Elastic Constant Matrix: (Units=GPa)
#
#
# Indices 1 2 3 4 5 6 
#
# 1 22.4854 -5.0608 -0.9052 0.0000 -6.8674 0.0000
# 2 -5.0608 25.3025 19.5118 0.0000 1.7352 0.0000
# 3 -0.9052 19.5118 97.0598 0.0000 -14.4254 0.0000
# 4 0.0000 0.0000 0.0000 -4.5879 0.0000 -2.4157
# 5 -6.8674 1.7352 -14.4254 0.0000 30.2399 0.0000
# 6 0.0000 0.0000 0.0000 -2.4157 0.0000 7.8470
#
#
#
# Elastic Compliance Matrix: (Units=1/GPa)
#
#
# Indices 1 2 3 4 5 6 
#
# 1 0.049852 0.009004 0.000280 0.000000 0.010938 0.000000
# 2 0.009004 0.050134 -0.010890 0.000000 -0.006027 0.000000
# 3 0.000280 -0.010890 0.013558 0.000000 0.007156 0.000000
# 4 0.000000 0.000000 0.000000 -0.187561 0.000000 -0.057741
# 5 0.010938 -0.006027 0.007156 0.000000 0.039313 0.000000
# 6 0.000000 0.000000 0.000000 -0.057741 0.000000 0.109662
#
#
# Mechanical properties :
#
#
# Convention : Reuss Voigt Hill
#
# Bulk Modulus (GPa) = 9.06341 19.10438 14.08389
# Shear Modulus (GPa) = 43.49890 15.45326 29.47608
#
# Velocity S-wave (km/s) = 4.66532 2.78069 3.84041
# Velocity P-wave (km/s) = 5.79269 4.45744 5.16837
#
# Compressibility (1/GPa) = 0.11033374
#
# Stress axis : x y z
#
# Youngs Moduli (GPa) = 20.05944 19.94663 73.75527
#
# Poissons Ratio (x) = -0.17961 -0.02069
# Poissons Ratio (y) = -0.18062 0.80320
# Poissons Ratio (z) = -0.00563 0.21722
#
# Static dielectric constant tensor:
#      x y z
#    x 1.710570 0.000000 -0.007450 
#    y 0.000000 1.683010 0.000000 
#    z -0.007450 0.000000 1.757540 
# 
# From -- ./inp_files/300818.got.cif
#   From: 2010.05.17/outbox.cif.g08.bks.cpg/sg12_151_cif.got.tgz:300818.got - 2010.06.03 13:09:07.
