data_PCOD9191143
_publ_section_title
;
Structure prediction by ZEFSAII (Michael W. Deem and Ramdas Pophale) SiO2 
 PCOD9191143
Probable space group: C 2/M
;
_chemical_formula_sum "Si O2"
_cell_formula_units_Z 56
_cell_length_a 21.307766
_cell_length_b 25.260541
_cell_length_c 5.456017
_cell_angle_alpha 90.000000
_cell_angle_beta 106.810541
_cell_angle_gamma 90.000000
_cell_volume 2811.182588
_symmetry_space_group_name_H-M "C 2/M"
_symmetry_group_IT_number 12
_symmetry_cell_setting 'monoclinic'
loop_
_space_group_symop_operation_xyz
x,y,z
-x,y,-z
-x,-y,-z
x,-y,z
1/2+x,1/2+y,z
1/2-x,1/2+y,-z
1/2-x,1/2-y,-z
1/2+x,1/2-y,z
loop_
_atom_site_type_symbol
_atom_site_label
_atom_site_fract_x
_atom_site_fract_y
_atom_site_fract_z
Si Si1 0.849354 0.861353 0.452256
Si Si2 0.459269 0.175764 0.198587
Si Si3 0.680364 0.856917 0.892755
Si Si4 0.569230 0.402032 0.083014
Si Si5 0.436527 0.296226 0.251634
Si Si6 0.268768 0.189554 0.526463
Si Si7 0.294876 0.562003 0.002365
O O1 0.916725 0.884406 0.625700
O O2 0.869414 0.810140 0.318740
O O3 0.799498 0.841488 0.600428
O O4 0.815707 0.909194 0.275736
O O5 0.500000 0.173398 0.500000
O O6 0.434986 0.237303 0.139324
O O7 0.500000 0.163599 0.000000
O O8 0.396575 0.137490 0.145227
O O9 0.708056 0.829656 0.176177
O O10 0.726225 0.907252 0.876486
O O11 0.684530 0.822335 0.648691
O O12 0.500000 0.431592 0.000000
O O13 0.560714 0.346604 0.926353
O O14 0.637163 0.429387 0.075863
O O15 0.500000 0.295934 0.500000
O O16 0.250000 0.250000 0.500000
O O17 0.282990 0.500000 0.004006
#
# Coordination Sequence:
#
# PCOD9191143 Si02
#       7
#     8   8   8   8   8   8   8
#     4  10  21  36  54  87 122 159 213 258 303 367
#     4  11  24  39  62  95 130 167 206 250 313 390
#     4  11  23  42  62  92 125 165 213 261 318 378
#     4  11  20  35  59  84 121 158 210 256 303 362
#     4  10  20  32  54  84 124 170 197 242 304 378
#     4  11  22  36  60  91 129 167 206 255 310 377
#     4  10  24  43  61  85 118 164 218 271 325 369
#
# _framework density 19.920444
#
# number of rings (size 3 to 8) (size 9 to 14) (size 15 to 20)
#    0.000    1.429    2.857    2.571    4.000    0.857 
#    0.000    0.714    0.000    0.857    0.000    0.000 
#    0.000    0.000    0.000    0.000    0.000    0.000 
#
# Total GULP energy -155918.331023 kJ/mol
# GULP energy per Si atom -5568.511822 kJ/mol
# Density = 1.987510 g / cm^3
# Si number density = 19.920444 Si / 1000 Ang^3
#
#
#
# Elastic Constant Matrix: (Units=GPa)
#
#
# Indices 1 2 3 4 5 6 
#
# 1 149.1998 59.1230 31.7202 0.0000 -15.5525 0.0000
# 2 59.1230 90.1159 17.7963 0.0000 4.0768 0.0000
# 3 31.7202 17.7963 58.2340 0.0000 -8.8522 0.0000
# 4 0.0000 0.0000 0.0000 -11.2449 0.0000 12.9623
# 5 -15.5525 4.0768 -8.8522 0.0000 35.5837 0.0000
# 6 0.0000 0.0000 0.0000 12.9623 0.0000 12.9515
#
#
#
# Elastic Compliance Matrix: (Units=1/GPa)
#
#
# Indices 1 2 3 4 5 6 
#
# 1 0.010345 -0.006400 -0.002994 0.000000 0.004510 0.000000
# 2 -0.006400 0.015959 -0.002177 0.000000 -0.005167 0.000000
# 3 -0.002994 -0.002177 0.020066 0.000000 0.003933 0.000000
# 4 0.000000 0.000000 0.000000 -0.041292 0.000000 0.041326
# 5 0.004510 -0.005167 0.003933 0.000000 0.031644 0.000000
# 6 0.000000 0.000000 0.000000 0.041326 0.000000 0.035851
#
#
# Mechanical properties :
#
#
# Convention : Reuss Voigt Hill
#
# Bulk Modulus (GPa) = 43.04809 57.20318 50.12563
# Shear Modulus (GPa) = 48.32913 20.05206 34.19059
#
# Velocity S-wave (km/s) = 4.93090 3.17615 4.14739
# Velocity P-wave (km/s) = 7.35359 6.49836 6.93916
#
# Compressibility (1/GPa) = 0.02322983
#
# Stress axis : x y z
#
# Youngs Moduli (GPa) = 96.66385 62.65921 49.83639
#
# Poissons Ratio (x) = 0.40102 0.14919
# Poissons Ratio (y) = 0.61865 0.10847
# Poissons Ratio (z) = 0.28937 0.13638
#
# Static dielectric constant tensor:
#      x y z
#    x 1.541490 0.000000 -0.107070 
#    y 0.000000 1.683400 0.000000 
#    z -0.107070 0.000000 1.758700 
# 
# From -- ./inp_files/22209.got.cif
#   From: 2010.05.17/outbox.cif.g08.bks.cpg/sg12_12_cif.got.tgz:22209.got - 2010.06.03 13:09:07.
