data_PCOD9191580
_publ_section_title
;
Structure prediction by ZEFSAII (Michael W. Deem and Ramdas Pophale) SiO2 
 PCOD9191580
Probable space group: C 2/M
;
_chemical_formula_sum "Si O2"
_cell_formula_units_Z 64
_cell_length_a 23.474944
_cell_length_b 8.934991
_cell_length_c 22.118236
_cell_angle_alpha 90.000000
_cell_angle_beta 122.782502
_cell_angle_gamma 90.000000
_cell_volume 3900.378468
_symmetry_space_group_name_H-M "C 2/M"
_symmetry_group_IT_number 12
_symmetry_cell_setting 'monoclinic'
loop_
_space_group_symop_operation_xyz
x,y,z
-x,y,-z
-x,-y,-z
x,-y,z
1/2+x,1/2+y,z
1/2-x,1/2+y,-z
1/2-x,1/2-y,-z
1/2+x,1/2-y,z
loop_
_atom_site_type_symbol
_atom_site_label
_atom_site_fract_x
_atom_site_fract_y
_atom_site_fract_z
Si Si1 0.431359 0.178125 0.232015
Si Si2 0.929021 0.675059 0.493828
Si Si3 0.272177 0.678167 0.928114
Si Si4 0.642819 0.323988 0.915696
Si Si5 0.560492 0.322030 0.368822
Si Si6 0.702433 0.322211 0.637981
Si Si7 0.204795 0.677102 0.768624
Si Si8 0.213475 0.821713 0.420542
O O1 0.412131 0.232137 0.153557
O O2 0.497570 0.258962 0.295047
O O3 0.366237 0.212575 0.237759
O O4 0.440262 0.000000 0.238341
O O5 0.909982 0.500000 0.486019
O O6 0.937162 0.741269 0.565168
O O7 0.871081 0.764085 0.425394
O O8 0.000000 0.686948 0.500000
O O9 0.256015 0.500000 0.928795
O O10 0.213718 0.778779 0.924425
O O11 0.264146 0.702332 0.852123
O O12 0.341262 0.707668 0.004494
O O13 0.629737 0.500000 0.901055
O O14 0.553075 0.500000 0.373245
O O15 0.633144 0.294695 0.379473
O O16 0.705736 0.500000 0.634995
O O17 0.713309 0.269138 0.712739
O O18 0.754972 0.248448 0.621479
O O19 0.202843 0.500000 0.752952
O O20 0.250000 0.750000 0.500000
O O21 0.225090 0.000000 0.428149
#
# Coordination Sequence:
#
# PCOD9191580 Si02
#       8
#     8   8   8   8   8   8   8   8
#     4  10  20  33  50  74 107 143 173 206 255 310
#     4  11  23  37  54  75 102 137 169 202 253 310
#     4   8  15  27  44  68 100 138 174 207 251 304
#     4   9  15  25  44  70 101 136 173 211 248 296
#     4  11  23  37  55  78 100 128 169 215 258 302
#     4  12  24  36  53  77 102 133 172 214 258 302
#     4   9  18  33  50  72 105 141 174 208 251 305
#     4  11  23  40  60  78  98 128 169 217 264 308
#
# _framework density 16.408663000000001
#
# number of rings (size 3 to 8) (size 9 to 14) (size 15 to 20)
#    0.000    1.875    1.250    4.500    0.000    8.500 
#    0.000    0.000    0.000    0.000    0.000    0.875 
#    0.000    7.000    0.000    0.000    0.000    0.000 
#
# Total GULP energy -178517.638403 kJ/mol
# GULP energy per Si atom -5578.676200 kJ/mol
# Density = 1.637132 g / cm^3
# Si number density = 16.408663 Si / 1000 Ang^3
#
#
#
# Elastic Constant Matrix: (Units=GPa)
#
#
# Indices 1 2 3 4 5 6 
#
# 1 66.7502 52.9042 49.6396 0.0000 -10.1259 0.0000
# 2 52.9042 88.8493 60.5055 0.0000 -8.1218 0.0000
# 3 49.6396 60.5055 132.2486 0.0000 -11.0206 0.0000
# 4 0.0000 0.0000 0.0000 32.2900 0.0000 0.9015
# 5 -10.1259 -8.1218 -11.0206 0.0000 -5.1657 0.0000
# 6 0.0000 0.0000 0.0000 0.9015 0.0000 20.0687
#
#
#
# Elastic Compliance Matrix: (Units=1/GPa)
#
#
# Indices 1 2 3 4 5 6 
#
# 1 0.027461 -0.014546 -0.005292 0.000000 -0.019671 0.000000
# 2 -0.014546 0.023647 -0.005163 0.000000 0.002349 0.000000
# 3 -0.005292 -0.005163 0.011421 0.000000 -0.005874 0.000000
# 4 0.000000 0.000000 0.000000 0.031008 0.000000 -0.001393
# 5 -0.019671 0.002349 -0.005874 0.000000 -0.146190 0.000000
# 6 0.000000 0.000000 0.000000 -0.001393 0.000000 0.049891
#
#
# Mechanical properties :
#
#
# Convention : Reuss Voigt Hill
#
# Bulk Modulus (GPa) = 79.82814 68.21630 74.02222
# Shear Modulus (GPa) = 97.24527 17.75853 57.50190
#
# Velocity S-wave (km/s) = 7.70670 3.29335 5.92619
# Velocity P-wave (km/s) = 11.31135 7.49167 9.59353
#
# Compressibility (1/GPa) = 0.01252691
#
# Stress axis : x y z
#
# Youngs Moduli (GPa) = 36.41504 42.28860 87.56107
#
# Poissons Ratio (x) = 0.61512 0.46336
# Poissons Ratio (y) = 0.52969 0.45210
# Poissons Ratio (z) = 0.19270 0.21835
#
# Static dielectric constant tensor:
#      x y z
#    x 1.525070 0.000000 0.003770 
#    y 0.000000 1.549060 0.000000 
#    z 0.003770 0.000000 1.572970 
# 
# From -- ./inp_files/323754.got.cif
#   From: 2010.05.17/outbox.cif.g08.bks.cpg/sg12_162_cif.got.tgz:323754.got - 2010.06.03 13:09:07.
