data_PCOD9191975
_publ_section_title
;
Structure prediction by ZEFSAII (Michael W. Deem and Ramdas Pophale) SiO2 
 PCOD9191975
Probable space group: C 2/M
;
_chemical_formula_sum "Si O2"
_cell_formula_units_Z 48
_cell_length_a 13.521633
_cell_length_b 23.931619
_cell_length_c 13.733316
_cell_angle_alpha 90.000000
_cell_angle_beta 143.228969
_cell_angle_gamma 90.000000
_cell_volume 2660.277212
_symmetry_space_group_name_H-M "C 2/M"
_symmetry_group_IT_number 12
_symmetry_cell_setting 'monoclinic'
loop_
_space_group_symop_operation_xyz
x,y,z
-x,y,-z
-x,-y,-z
x,-y,z
1/2+x,1/2+y,z
1/2-x,1/2+y,-z
1/2-x,1/2-y,-z
1/2+x,1/2-y,z
loop_
_atom_site_type_symbol
_atom_site_label
_atom_site_fract_x
_atom_site_fract_y
_atom_site_fract_z
Si Si1 0.585580 0.327006 0.855151
Si Si2 0.840424 0.735171 0.922387
Si Si3 0.127726 0.436534 0.513595
Si Si4 0.208967 0.328396 0.477813
Si Si5 0.667138 0.264477 0.594478
Si Si6 0.004128 0.936687 0.888817
O O1 0.718855 0.306953 0.881578
O O2 0.401380 0.326106 0.664130
O O3 0.604862 0.389233 0.912178
O O4 0.604411 0.282926 0.958478
O O5 0.749147 0.760273 0.755745
O O6 0.000000 0.707016 0.000000
O O7 0.093123 0.500000 0.452600
O O8 0.129251 0.388342 0.433759
O O9 0.314065 0.435406 0.702886
O O10 0.000000 0.423813 0.500000
O O11 0.213651 0.305644 0.371804
O O12 0.124159 0.283900 0.483198
O O13 0.500000 0.293186 0.500000
O O14 0.066763 0.000000 0.924641
O O15 0.000000 0.924144 0.000000
#
# Coordination Sequence:
#
# PCOD9191975 Si02
#       6
#     8   8   8   8   8   8
#     4  10  20  33  54  76 103 135 172 209 253 305
#     4  11  21  35  51  74 103 138 171 212 255 299
#     4   9  18  34  54  77 104 132 165 209 256 301
#     4  10  20  33  52  79 103 136 169 208 255 308
#     4  11  21  34  51  74 106 136 168 210 257 304
#     4   9  18  33  54  77 102 133 167 207 255 304
#
# _framework density 18.043233000000001
#
# number of rings (size 3 to 8) (size 9 to 14) (size 15 to 20)
#    0.000    2.000    3.333    1.000    2.333    0.000 
#    3.000    0.000    0.000    2.000    0.000    0.000 
#    0.000    0.000    0.000    0.000    0.000    0.000 
#
# Total GULP energy -133810.246726 kJ/mol
# GULP energy per Si atom -5575.426947 kJ/mol
# Density = 1.800217 g / cm^3
# Si number density = 18.043233 Si / 1000 Ang^3
#
#
#
# Elastic Constant Matrix: (Units=GPa)
#
#
# Indices 1 2 3 4 5 6 
#
# 1 133.7011 64.8888 19.1752 0.0000 -5.6812 0.0000
# 2 64.8888 102.5991 2.7858 0.0000 -3.8540 0.0000
# 3 19.1752 2.7858 30.9374 0.0000 -13.0445 0.0000
# 4 0.0000 0.0000 0.0000 16.4774 0.0000 0.8741
# 5 -5.6812 -3.8540 -13.0445 0.0000 22.4140 0.0000
# 6 0.0000 0.0000 0.0000 0.8741 0.0000 24.9595
#
#
#
# Elastic Compliance Matrix: (Units=1/GPa)
#
#
# Indices 1 2 3 4 5 6 
#
# 1 0.012216 -0.007616 -0.008127 0.000000 -0.002943 0.000000
# 2 -0.007616 0.014559 0.004838 0.000000 0.003389 0.000000
# 3 -0.008127 0.004838 0.048246 0.000000 0.026850 0.000000
# 4 0.000000 0.000000 0.000000 0.060802 0.000000 -0.002129
# 5 -0.002943 0.003389 0.026850 0.000000 0.060078 0.000000
# 6 0.000000 0.000000 0.000000 -0.002129 0.000000 0.040139
#
#
# Mechanical properties :
#
#
# Convention : Reuss Voigt Hill
#
# Bulk Modulus (GPa) = 18.79251 48.99303 33.89277
# Shear Modulus (GPa) = 18.14309 24.79602 21.46956
#
# Velocity S-wave (km/s) = 3.17446 3.71112 3.45323
# Velocity P-wave (km/s) = 4.88611 6.75095 5.89277
#
# Compressibility (1/GPa) = 0.05321268
#
# Stress axis : x y z
#
# Youngs Moduli (GPa) = 81.85948 68.68460 20.72719
#
# Poissons Ratio (x) = 0.52310 0.16844
# Poissons Ratio (y) = 0.62344 -0.10028
# Poissons Ratio (z) = 0.66524 -0.33231
#
# Static dielectric constant tensor:
#      x y z
#    x 1.614700 0.000000 0.024480 
#    y 0.000000 1.627680 0.000000 
#    z 0.024480 0.000000 1.673860 
# 
# From -- ./inp_files/51944.got.cif
#   From: 2010.05.17/outbox.cif.g08.bks.cpg/sg12_26_cif.got.tgz:51944.got - 2010.06.03 13:09:07.
