data_PCOD9191936
_publ_section_title
;
Structure prediction by ZEFSAII (Michael W. Deem and Ramdas Pophale) SiO2 
 PCOD9191936
Probable space group: C 2/M
;
_chemical_formula_sum "Si O2"
_cell_formula_units_Z 48
_cell_length_a 20.139325
_cell_length_b 8.987156
_cell_length_c 16.266142
_cell_angle_alpha 90.000000
_cell_angle_beta 72.303433
_cell_angle_gamma 90.000000
_cell_volume 2804.779080
_symmetry_space_group_name_H-M "C 2/M"
_symmetry_group_IT_number 12
_symmetry_cell_setting 'monoclinic'
loop_
_space_group_symop_operation_xyz
x,y,z
-x,y,-z
-x,-y,-z
x,-y,z
1/2+x,1/2+y,z
1/2-x,1/2+y,-z
1/2-x,1/2-y,-z
1/2+x,1/2-y,z
loop_
_atom_site_type_symbol
_atom_site_label
_atom_site_fract_x
_atom_site_fract_y
_atom_site_fract_z
Si Si1 0.136971 0.177221 0.765433
Si Si2 0.304200 0.177545 0.093348
Si Si3 0.014979 0.820956 0.244273
Si Si4 0.650702 0.678818 0.089487
Si Si5 0.536802 0.822199 0.572595
Si Si6 0.818059 0.178372 0.434813
O O1 0.168274 0.260899 0.831126
O O2 0.175852 0.211839 0.665007
O O3 0.055664 0.213123 0.779618
O O4 0.142044 0.000000 0.777358
O O5 0.222985 0.217840 0.108187
O O6 0.309685 0.000000 0.089362
O O7 0.346131 0.246360 0.000895
O O8 0.083551 0.778394 0.167959
O O9 0.007749 0.740450 0.334299
O O10 0.015723 0.000000 0.257309
O O11 0.649224 0.500000 0.079558
O O12 0.500000 0.789316 0.500000
O O13 0.612172 0.745111 0.551036
O O14 0.544664 0.000000 0.577340
O O15 0.750000 0.250000 0.500000
O O16 0.817668 0.000000 0.444127
#
# Coordination Sequence:
#
# PCOD9191936 Si02
#       6
#     8   8   8   8   8   8
#     4   9  19  35  53  74 102 135 169 209 257 307
#     4  10  20  33  52  78 104 133 170 211 257 308
#     4   9  19  36  56  76  99 135 180 217 256 308
#     4   9  19  36  54  73 101 135 172 213 256 306
#     4  10  21  36  54  79 110 141 175 218 267 315
#     4  10  21  37  57  80 107 141 179 218 263 314
#
# _framework density 17.113647
#
# number of rings (size 3 to 8) (size 9 to 14) (size 15 to 20)
#    0.000    2.500    0.000    2.500    0.000    8.000 
#    0.000    6.667    0.000    0.000    0.000    0.000 
#    0.000    0.000    0.000    0.000    0.000    0.000 
#
# Total GULP energy -133918.538839 kJ/mol
# GULP energy per Si atom -5579.939118 kJ/mol
# Density = 1.707470 g / cm^3
# Si number density = 17.113647 Si / 1000 Ang^3
#
#
#
# Elastic Constant Matrix: (Units=GPa)
#
#
# Indices 1 2 3 4 5 6 
#
# 1 109.4824 61.6377 126.5859 0.0000 -5.0739 0.0000
# 2 61.6377 53.6591 78.7758 0.0000 4.7858 0.0000
# 3 126.5859 78.7758 170.6209 0.0000 -4.7627 0.0000
# 4 0.0000 0.0000 0.0000 37.0317 0.0000 3.2354
# 5 -5.0739 4.7858 -4.7627 0.0000 40.6609 0.0000
# 6 0.0000 0.0000 0.0000 3.2354 0.0000 29.9007
#
#
#
# Elastic Compliance Matrix: (Units=1/GPa)
#
#
# Indices 1 2 3 4 5 6 
#
# 1 0.067730 -0.014563 -0.043384 0.000000 0.005084 0.000000
# 2 -0.014563 0.065303 -0.019676 0.000000 -0.011808 0.000000
# 3 -0.043384 -0.019676 0.047200 0.000000 0.002431 0.000000
# 4 0.000000 0.000000 0.000000 0.027262 0.000000 -0.002950
# 5 0.005084 -0.011808 0.002431 0.000000 0.026903 0.000000
# 6 0.000000 0.000000 0.000000 -0.002950 0.000000 0.033763
#
#
# Mechanical properties :
#
#
# Convention : Reuss Voigt Hill
#
# Bulk Modulus (GPa) = 40.01939 96.41788 68.21864
# Shear Modulus (GPa) = 11.58118 25.96954 18.77536
#
# Velocity S-wave (km/s) = 2.60421 3.89971 3.31584
# Velocity P-wave (km/s) = 5.69893 8.76008 7.38975
#
# Compressibility (1/GPa) = 0.02498788
#
# Stress axis : x y z
#
# Youngs Moduli (GPa) = 14.76451 15.31326 21.18635
#
# Poissons Ratio (x) = 0.22301 0.91915
# Poissons Ratio (y) = 0.21502 0.41685
# Poissons Ratio (z) = 0.64054 0.30130
#
# Static dielectric constant tensor:
#      x y z
#    x 1.563500 0.000000 -0.007710 
#    y 0.000000 1.569680 0.000000 
#    z -0.007710 0.000000 1.551080 
# 
# From -- ./inp_files/229905.got.cif
#   From: 2010.05.17/outbox.cif.g08.bks.cpg/sg12_115_cif.got.tgz:229905.got - 2010.06.03 13:09:07.
