data_PCOD9191933
_publ_section_title
;
Structure prediction by ZEFSAII (Michael W. Deem and Ramdas Pophale) SiO2 
 PCOD9191933
Probable space group: C 2/M
;
_chemical_formula_sum "Si O2"
_cell_formula_units_Z 64
_cell_length_a 14.435973
_cell_length_b 9.140584
_cell_length_c 29.673177
_cell_angle_alpha 90.000000
_cell_angle_beta 105.286583
_cell_angle_gamma 90.000000
_cell_volume 3776.938792
_symmetry_space_group_name_H-M "C 2/M"
_symmetry_group_IT_number 12
_symmetry_cell_setting 'monoclinic'
loop_
_space_group_symop_operation_xyz
x,y,z
-x,y,-z
-x,-y,-z
x,-y,z
1/2+x,1/2+y,z
1/2-x,1/2+y,-z
1/2-x,1/2-y,-z
1/2+x,1/2-y,z
loop_
_atom_site_type_symbol
_atom_site_label
_atom_site_fract_x
_atom_site_fract_y
_atom_site_fract_z
Si Si1 0.787105 0.673990 0.074862
Si Si2 0.959080 0.824033 0.423079
Si Si3 0.073272 0.673987 0.676403
Si Si4 0.610568 0.174542 0.006331
Si Si5 0.529734 0.674787 0.255643
Si Si6 0.263770 0.674793 0.757762
Si Si7 0.160507 0.174247 0.825681
Si Si8 0.651599 0.324416 0.501320
O O1 0.780957 0.500000 0.080558
O O2 0.683846 0.739054 0.047595
O O3 0.825190 0.750768 0.124496
O O4 0.856078 0.702602 0.040747
O O5 0.938224 0.745868 0.373693
O O6 0.884199 0.784038 0.453077
O O7 0.064400 0.787010 0.456260
O O8 0.955397 0.000000 0.416975
O O9 0.060749 0.500000 0.672125
O O10 0.178734 0.703581 0.711009
O O11 0.998398 0.742174 0.702379
O O12 0.621078 0.000000 0.015831
O O13 0.500000 0.214360 0.000000
O O14 0.530055 0.500000 0.264369
O O15 0.633035 0.715918 0.249018
O O16 0.444744 0.704538 0.208924
O O17 0.264239 0.500000 0.766938
O O18 0.235638 0.760018 0.799360
O O19 0.172048 0.000000 0.830784
O O20 0.661838 0.500000 0.501726
O O21 0.750000 0.250000 0.500000
#
# Coordination Sequence:
#
# PCOD9191933 Si02
#       8
#     8   8   8   8   8   8   8   8
#     4  10  20  34  53  76 104 136 168 207 254 301
#     4   9  19  36  53  71 102 139 169 201 251 309
#     4  10  20  33  52  78 104 131 168 213 253 294
#     4   9  19  36  55  76 103 134 170 211 252 296
#     4   9  19  36  55  74 101 137 170 205 253 305
#     4   9  19  36  54  74 102 133 168 209 253 300
#     4  10  20  34  53  76 102 133 170 209 250 299
#     4   9  19  35  54  75 100 133 170 209 252 299
#
# _framework density 16.944939999999999
#
# number of rings (size 3 to 8) (size 9 to 14) (size 15 to 20)
#    0.000    2.625    0.000    1.875    0.000    5.250 
#    0.000    7.500    0.000    0.000    0.000    0.000 
#    0.000    0.000    0.000    0.000    0.000    0.000 
#
# Total GULP energy -178525.708315 kJ/mol
# GULP energy per Si atom -5578.928385 kJ/mol
# Density = 1.690637 g / cm^3
# Si number density = 16.944940 Si / 1000 Ang^3
#
#
#
# Elastic Constant Matrix: (Units=GPa)
#
#
# Indices 1 2 3 4 5 6 
#
# 1 144.0625 51.6415 55.0199 0.0000 -12.9806 0.0000
# 2 51.6415 49.4680 64.8679 0.0000 -3.7921 0.0000
# 3 55.0199 64.8679 134.4007 0.0000 -5.6930 0.0000
# 4 0.0000 0.0000 0.0000 32.7854 0.0000 -1.0754
# 5 -12.9806 -3.7921 -5.6930 0.0000 7.0943 0.0000
# 6 0.0000 0.0000 0.0000 -1.0754 0.0000 29.2484
#
#
#
# Elastic Compliance Matrix: (Units=1/GPa)
#
#
# Indices 1 2 3 4 5 6 
#
# 1 0.013440 -0.017519 0.003725 0.000000 0.018217 0.000000
# 2 -0.017519 0.078389 -0.031309 0.000000 -0.015279 0.000000
# 3 0.003725 -0.031309 0.021332 0.000000 0.007198 0.000000
# 4 0.000000 0.000000 0.000000 0.030538 0.000000 0.001123
# 5 0.018217 -0.015279 0.007198 0.000000 0.171901 0.000000
# 6 0.000000 0.000000 0.000000 0.001123 0.000000 0.034231
#
#
# Mechanical properties :
#
#
# Convention : Reuss Voigt Hill
#
# Bulk Modulus (GPa) = 43.56509 74.55443 59.05976
# Shear Modulus (GPa) = 11.16849 24.25241 17.71045
#
# Velocity S-wave (km/s) = 2.57009 3.78729 3.23643
# Velocity P-wave (km/s) = 5.87986 7.95099 6.99253
#
# Compressibility (1/GPa) = 0.02295416
#
# Stress axis : x y z
#
# Youngs Moduli (GPa) = 74.40432 12.75696 46.87846
#
# Poissons Ratio (x) = 0.22349 -0.17462
# Poissons Ratio (y) = 1.30347 1.46773
# Poissons Ratio (z) = -0.27715 0.39941
#
# Static dielectric constant tensor:
#      x y z
#    x 1.554810 0.000000 0.002560 
#    y 0.000000 1.560670 0.000000 
#    z 0.002560 0.000000 1.543710 
# 
# From -- ./inp_files/359916.got.cif
#   From: 2010.05.17/outbox.cif.g08.bks.cpg/sg12_180_cif.got.tgz:359916.got - 2010.06.03 13:09:07.
