data_PCOD9191762
_publ_section_title
;
Structure prediction by ZEFSAII (Michael W. Deem and Ramdas Pophale) SiO2 
 PCOD9191762
Probable space group: C 2/M
;
_chemical_formula_sum "Si O2"
_cell_formula_units_Z 64
_cell_length_a 22.635353
_cell_length_b 8.964334
_cell_length_c 22.349950
_cell_angle_alpha 90.000000
_cell_angle_beta 127.713679
_cell_angle_gamma 90.000000
_cell_volume 3587.574234
_symmetry_space_group_name_H-M "C 2/M"
_symmetry_group_IT_number 12
_symmetry_cell_setting 'monoclinic'
loop_
_space_group_symop_operation_xyz
x,y,z
-x,y,-z
-x,-y,-z
x,-y,z
1/2+x,1/2+y,z
1/2-x,1/2+y,-z
1/2-x,1/2-y,-z
1/2+x,1/2-y,z
loop_
_atom_site_type_symbol
_atom_site_label
_atom_site_fract_x
_atom_site_fract_y
_atom_site_fract_z
Si Si1 0.940484 0.174808 0.107272
Si Si2 0.086418 0.676405 0.249446
Si Si3 0.084985 0.323913 0.032760
Si Si4 0.269274 0.677734 0.835074
Si Si5 0.792190 0.823857 0.082464
Si Si6 0.638957 0.671760 0.398882
Si Si7 0.809435 0.672018 0.453965
Si Si8 0.753756 0.177088 0.302895
O O1 0.880115 0.190667 0.122696
O O2 0.020775 0.235782 0.175958
O O3 0.944069 0.000000 0.093158
O O4 0.910513 0.267815 0.032373
O O5 0.071251 0.500000 0.237997
O O6 0.093866 0.734068 0.322058
O O7 0.167060 0.701873 0.268686
O O8 0.100820 0.500000 0.047592
O O9 0.144975 0.233801 0.108240
O O10 0.000000 0.298164 0.000000
O O11 0.266128 0.500000 0.833839
O O12 0.231208 0.744960 0.870810
O O13 0.234482 0.743367 0.752999
O O14 0.773899 0.000000 0.073890
O O15 0.750000 0.750000 0.000000
O O16 0.614121 0.500000 0.384963
O O17 0.724762 0.672375 0.428121
O O18 0.641399 0.744338 0.465882
O O19 0.831841 0.500000 0.460953
O O20 0.803310 0.755099 0.386958
O O21 0.764962 0.000000 0.305072
#
# Coordination Sequence:
#
# PCOD9191762 Si02
#       8
#     8   8   8   8   8   8   8   8
#     4  11  23  37  55  78 102 133 173 217 265 313
#     4  10  20  33  51  76 108 143 176 214 262 313
#     4  11  23  37  54  76 104 138 172 209 258 315
#     4  12  24  37  55  78 103 136 175 218 266 312
#     4  11  23  40  60  79 100 131 174 223 269 314
#     4   9  16  27  45  70 103 141 177 213 254 305
#     4   9  16  27  45  71 103 139 177 214 255 307
#     4  10  20  34  51  75 108 143 177 215 261 313
#
# _framework density 17.839352999999999
#
# number of rings (size 3 to 8) (size 9 to 14) (size 15 to 20)
#    0.000    1.625    1.250    4.500    0.000   10.000 
#    0.000    0.000    0.000    0.000    0.000    0.875 
#    0.000    7.000    0.000    0.000    0.000    0.000 
#
# Total GULP energy -178740.569110 kJ/mol
# GULP energy per Si atom -5585.642785 kJ/mol
# Density = 1.779875 g / cm^3
# Si number density = 17.839353 Si / 1000 Ang^3
#
#
#
# Elastic Constant Matrix: (Units=GPa)
#
#
# Indices 1 2 3 4 5 6 
#
# 1 46.8503 39.1466 14.5905 0.0000 -23.2789 0.0000
# 2 39.1466 109.3291 27.5716 0.0000 -28.0595 0.0000
# 3 14.5905 27.5716 77.5332 0.0000 -40.3782 0.0000
# 4 0.0000 0.0000 0.0000 33.9194 0.0000 -3.5043
# 5 -23.2789 -28.0595 -40.3782 0.0000 29.4898 0.0000
# 6 0.0000 0.0000 0.0000 -3.5043 0.0000 21.4161
#
#
#
# Elastic Compliance Matrix: (Units=1/GPa)
#
#
# Indices 1 2 3 4 5 6 
#
# 1 0.070937 -0.007859 0.051280 0.000000 0.118732 0.000000
# 2 -0.007859 0.013801 0.000624 0.000000 0.007781 0.000000
# 3 0.051280 0.000624 0.085096 0.000000 0.157588 0.000000
# 4 0.000000 0.000000 0.000000 0.029989 0.000000 0.004907
# 5 0.118732 0.007781 0.157588 0.000000 0.350814 0.000000
# 6 0.000000 0.000000 0.000000 0.004907 0.000000 0.047497
#
#
# Mechanical properties :
#
#
# Convention : Reuss Voigt Hill
#
# Bulk Modulus (GPa) = 3.87715 44.03668 23.95691
# Shear Modulus (GPa) = 8.38902 27.12531 17.75716
#
# Velocity S-wave (km/s) = 2.17089 3.90363 3.15841
# Velocity P-wave (km/s) = 2.90891 6.71241 5.17292
#
# Compressibility (1/GPa) = 0.25792161
#
# Stress axis : x y z
#
# Youngs Moduli (GPa) = 14.09700 72.46088 11.75150
#
# Poissons Ratio (x) = 0.56949 -0.60261
# Poissons Ratio (y) = 0.11079 -0.00733
# Poissons Ratio (z) = -0.72289 -0.04519
#
# Static dielectric constant tensor:
#      x y z
#    x 1.614530 0.000000 -0.003650 
#    y 0.000000 1.594200 0.000000 
#    z -0.003650 0.000000 1.595650 
# 
# From -- ./inp_files/324211.got.cif
#   From: 2010.05.17/outbox.cif.g08.bks.cpg/sg12_163_cif.got.tgz:324211.got - 2010.06.03 13:09:07.
