data_PCOD9191812
_publ_section_title
;
Structure prediction by ZEFSAII (Michael W. Deem and Ramdas Pophale) SiO2 
 PCOD9191812
Probable space group: C 2/M
;
_chemical_formula_sum "Si O2"
_cell_formula_units_Z 40
_cell_length_a 17.084467
_cell_length_b 18.118947
_cell_length_c 8.071880
_cell_angle_alpha 90.000000
_cell_angle_beta 120.859215
_cell_angle_gamma 90.000000
_cell_volume 2144.934802
_symmetry_space_group_name_H-M "C 2/M"
_symmetry_group_IT_number 12
_symmetry_cell_setting 'monoclinic'
loop_
_space_group_symop_operation_xyz
x,y,z
-x,y,-z
-x,-y,-z
x,-y,z
1/2+x,1/2+y,z
1/2-x,1/2+y,-z
1/2-x,1/2-y,-z
1/2+x,1/2-y,z
loop_
_atom_site_type_symbol
_atom_site_label
_atom_site_fract_x
_atom_site_fract_y
_atom_site_fract_z
Si Si1 0.906108 0.687824 0.464362
Si Si2 0.792260 0.855505 0.806140
Si Si3 0.611593 0.657538 0.754117
Si Si4 0.556170 0.289878 0.229427
Si Si5 0.893772 0.000000 0.422716
Si Si6 0.604321 0.500000 0.175615
O O1 0.815014 0.642760 0.337599
O O2 0.887647 0.769093 0.359628
O O3 0.931958 0.710385 0.677683
O O4 0.000000 0.654730 0.500000
O O5 0.842223 0.813126 0.710038
O O6 0.844767 0.931729 0.848772
O O7 0.820599 0.826983 0.018552
O O8 0.508120 0.658588 0.721736
O O9 0.636221 0.579262 0.692839
O O10 0.500000 0.288509 0.000000
O O11 0.000000 0.000000 0.500000
O O12 0.883188 0.000000 0.611174
O O13 0.500000 0.500000 0.000000
#
# Coordination Sequence:
#
# PCOD9191812 Si02
#       6
#     8   8   8   8   4   4
#     4  10  20  35  52  76 105 140 179 216 254 305
#     4  11  20  34  54  77 105 139 173 214 263 314
#     4  10  20  33  51  78 108 138 172 212 260 312
#     4   9  18  31  51  78 107 137 170 211 261 308
#     4  12  20  32  52  78 111 139 161 206 263 315
#     4  12  24  36  53  80 106 133 169 212 267 321
#
# _framework density 18.648584
#
# number of rings (size 3 to 8) (size 9 to 14) (size 15 to 20)
#    0.000    1.600    0.000    9.000    0.000    0.000 
#    0.000    1.000    0.000    0.000    0.000    2.100 
#    0.000    0.000    0.000    0.000    0.000    0.000 
#
# Total GULP energy -111380.854818 kJ/mol
# GULP energy per Si atom -5569.042741 kJ/mol
# Density = 1.860614 g / cm^3
# Si number density = 18.648584 Si / 1000 Ang^3
#
#
#
# Elastic Constant Matrix: (Units=GPa)
#
#
# Indices 1 2 3 4 5 6 
#
# 1 82.9296 22.4498 41.4410 0.0000 29.5852 0.0000
# 2 22.4498 37.9576 18.5698 0.0000 6.9251 0.0000
# 3 41.4410 18.5698 44.1430 0.0000 8.6843 0.0000
# 4 0.0000 0.0000 0.0000 18.5421 0.0000 6.0014
# 5 29.5852 6.9251 8.6843 0.0000 43.0661 0.0000
# 6 0.0000 0.0000 0.0000 6.0014 0.0000 17.3456
#
#
#
# Elastic Compliance Matrix: (Units=1/GPa)
#
#
# Indices 1 2 3 4 5 6 
#
# 1 0.030722 -0.003414 -0.024327 0.000000 -0.015651 0.000000
# 2 -0.003414 0.033839 -0.010851 0.000000 -0.000908 0.000000
# 3 -0.024327 -0.010851 0.048343 0.000000 0.008708 0.000000
# 4 0.000000 0.000000 0.000000 0.060732 0.000000 -0.021013
# 5 -0.015651 -0.000908 0.008708 0.000000 0.032362 0.000000
# 6 0.000000 0.000000 0.000000 -0.021013 0.000000 0.064922
#
#
# Mechanical properties :
#
#
# Convention : Reuss Voigt Hill
#
# Bulk Modulus (GPa) = 27.99554 36.66126 32.32840
# Shear Modulus (GPa) = 13.88845 21.29541 17.59193
#
# Velocity S-wave (km/s) = 2.73196 3.38291 3.07471
# Velocity P-wave (km/s) = 4.99962 5.91274 5.47525
#
# Compressibility (1/GPa) = 0.03571998
#
# Stress axis : x y z
#
# Youngs Moduli (GPa) = 32.54947 29.55186 20.68553
#
# Poissons Ratio (x) = 0.10089 0.50321
# Poissons Ratio (y) = 0.11112 0.22447
# Poissons Ratio (z) = 0.79182 0.32068
#
# Static dielectric constant tensor:
#      x y z
#    x 1.682610 0.000000 -0.059950 
#    y 0.000000 1.192880 0.000000 
#    z -0.059950 0.000000 1.730750 
# 
# From -- ./inp_files/75534.got.cif
#   From: 2010.05.17/outbox.cif.g08.bks.cpg/sg12_38_cif.got.tgz:75534.got - 2010.06.03 13:09:07.
