data_PCOD9191463
_publ_section_title
;
Structure prediction by ZEFSAII (Michael W. Deem and Ramdas Pophale) SiO2 
 PCOD9191463
Probable space group: C 2/M
;
_chemical_formula_sum "Si O2"
_cell_formula_units_Z 64
_cell_length_a 21.233068
_cell_length_b 9.509836
_cell_length_c 19.138030
_cell_angle_alpha 90.000000
_cell_angle_beta 95.931641
_cell_angle_gamma 90.000000
_cell_volume 3843.717894
_symmetry_space_group_name_H-M "C 2/M"
_symmetry_group_IT_number 12
_symmetry_cell_setting 'monoclinic'
loop_
_space_group_symop_operation_xyz
x,y,z
-x,y,-z
-x,-y,-z
x,-y,z
1/2+x,1/2+y,z
1/2-x,1/2+y,-z
1/2-x,1/2-y,-z
1/2+x,1/2-y,z
loop_
_atom_site_type_symbol
_atom_site_label
_atom_site_fract_x
_atom_site_fract_y
_atom_site_fract_z
Si Si1 0.610993 0.338040 0.613739
Si Si2 0.991063 0.165286 0.195667
Si Si3 0.296463 0.162766 0.102094
Si Si4 0.535764 0.338623 0.351633
Si Si5 0.344012 0.336825 0.978812
Si Si6 0.346019 0.334468 0.230727
Si Si7 0.455817 0.836390 0.926557
Si Si8 0.573656 0.838652 0.482368
O O1 0.625472 0.500000 0.597697
O O2 0.537623 0.335855 0.631149
O O3 0.650986 0.296997 0.686829
O O4 0.613444 0.240905 0.546347
O O5 0.032314 0.199212 0.269640
O O6 0.008870 0.265032 0.134290
O O7 0.917729 0.179909 0.209501
O O8 0.001230 0.000000 0.179651
O O9 0.224443 0.165527 0.066303
O O10 0.303455 0.235931 0.177793
O O11 0.317618 0.000000 0.105656
O O12 0.336299 0.254208 0.050961
O O13 0.557184 0.500000 0.360856
O O14 0.573856 0.239623 0.408193
O O15 0.361939 0.500000 0.992513
O O16 0.394179 0.254756 0.937686
O O17 0.329158 0.500000 0.222704
O O18 0.440723 0.000000 0.911253
O O19 0.500000 0.830339 0.000000
O O20 0.500000 0.835162 0.500000
O O21 0.592441 0.000000 0.478183
#
# Coordination Sequence:
#
# PCOD9191463 Si02
#       8
#     8   8   8   8   8   8   8   8
#     4   8  14  24  37  55  81 114 150 181 211 256
#     4   9  18  31  46  65  89 120 156 187 220 268
#     4  10  20  33  50  71  92 114 145 187 229 265
#     4   8  14  25  39  54  77 112 150 183 214 255
#     4  10  21  36  52  68  88 118 152 183 220 269
#     4   9  17  29  46  67  91 122 155 184 221 269
#     4  11  23  35  48  69  94 118 147 186 229 266
#     4   9  15  21  32  53  80 111 146 182 221 259
#
# _framework density 16.650545000000001
#
# number of rings (size 3 to 8) (size 9 to 14) (size 15 to 20)
#    0.000    2.750    0.000    3.750    0.000    7.500 
#    0.000    2.500    0.000    0.000    0.000    0.000 
#    0.000    1.000    0.000    3.250    0.000    4.375 
#
# Total GULP energy -178349.223498 kJ/mol
# GULP energy per Si atom -5573.413234 kJ/mol
# Density = 1.661265 g / cm^3
# Si number density = 16.650545 Si / 1000 Ang^3
#
#
#
# Elastic Constant Matrix: (Units=GPa)
#
#
# Indices 1 2 3 4 5 6 
#
# 1 9.9331 14.9580 1.0942 0.0000 -1.6016 0.0000
# 2 14.9580 114.5543 76.5504 0.0000 9.5459 0.0000
# 3 1.0942 76.5504 115.0969 0.0000 17.6303 0.0000
# 4 0.0000 0.0000 0.0000 24.0606 0.0000 6.7950
# 5 -1.6016 9.5459 17.6303 0.0000 15.3206 0.0000
# 6 0.0000 0.0000 0.0000 6.7950 0.0000 12.9048
#
#
#
# Elastic Compliance Matrix: (Units=1/GPa)
#
#
# Indices 1 2 3 4 5 6 
#
# 1 0.151290 -0.033299 0.018341 0.000000 0.015457 0.000000
# 2 -0.033299 0.023136 -0.014968 0.000000 -0.000672 0.000000
# 3 0.018341 -0.014968 0.020331 0.000000 -0.012152 0.000000
# 4 0.000000 0.000000 0.000000 0.048822 0.000000 -0.025707
# 5 0.015457 -0.000672 -0.012152 0.000000 0.081290 0.000000
# 6 0.000000 0.000000 0.000000 -0.025707 0.000000 0.091026
#
#
# Mechanical properties :
#
#
# Convention : Reuss Voigt Hill
#
# Bulk Modulus (GPa) = 7.41269 47.19882 27.30575
# Shear Modulus (GPa) = 9.60221 20.25599 14.92910
#
# Velocity S-wave (km/s) = 2.40404 3.49167 2.99760
# Velocity P-wave (km/s) = 3.48819 6.68311 5.33064
#
# Compressibility (1/GPa) = 0.13490387
#
# Stress axis : x y z
#
# Youngs Moduli (GPa) = 6.60983 43.22298 49.18718
#
# Poissons Ratio (x) = 1.43929 -0.90214
# Poissons Ratio (y) = 0.22010 0.73623
# Poissons Ratio (z) = -0.12123 0.64696
#
# Static dielectric constant tensor:
#      x y z
#    x 1.550500 0.000000 0.010470 
#    y 0.000000 1.557190 0.000000 
#    z 0.010470 0.000000 1.570520 
# 
# From -- ./inp_files/287705.got.cif
#   From: 2010.05.17/outbox.cif.g08.bks.cpg/sg12_144_cif.got.tgz:287705.got - 2010.06.03 13:09:07.
