data_PCOD9191037
_publ_section_title
;
Structure prediction by ZEFSAII (Michael W. Deem and Ramdas Pophale) SiO2 
 PCOD9191037
Probable space group: C 2/M
;
_chemical_formula_sum "Si O2"
_cell_formula_units_Z 44
_cell_length_a 14.810526
_cell_length_b 10.264366
_cell_length_c 23.344644
_cell_angle_alpha 90.000000
_cell_angle_beta 32.609570
_cell_angle_gamma 90.000000
_cell_volume 1912.525839
_symmetry_space_group_name_H-M "C 2/M"
_symmetry_group_IT_number 12
_symmetry_cell_setting 'monoclinic'
loop_
_space_group_symop_operation_xyz
x,y,z
-x,y,-z
-x,-y,-z
x,-y,z
1/2+x,1/2+y,z
1/2-x,1/2+y,-z
1/2-x,1/2-y,-z
1/2+x,1/2-y,z
loop_
_atom_site_type_symbol
_atom_site_label
_atom_site_fract_x
_atom_site_fract_y
_atom_site_fract_z
Si Si1 0.947040 0.852948 0.868197
Si Si2 0.724065 0.859234 0.591063
Si Si3 0.000000 0.264497 0.500000
Si Si4 0.498227 0.647469 0.340944
Si Si5 0.684073 0.858604 0.302761
Si Si6 0.108643 0.653967 0.997867
O O1 0.813059 0.832733 0.888640
O O2 0.145441 0.855165 0.752015
O O3 0.906592 0.000000 0.912030
O O4 0.930402 0.744675 0.926623
O O5 0.841597 0.829661 0.581778
O O6 0.597133 0.742151 0.651245
O O7 0.859650 0.862187 0.466533
O O8 0.642061 0.000000 0.638039
O O9 0.026987 0.352007 0.430144
O O10 0.537445 0.500000 0.302302
O O11 0.655757 0.732079 0.278840
O O12 0.682522 0.000000 0.273673
O O13 0.071941 0.500000 0.026900
O O14 0.000000 0.692752 0.000000
#
# Coordination Sequence:
#
# PCOD9191037 Si02
#       6
#     8   8   4   8   8   8
#     4   9  19  36  58  85 118 150 187 236 289 345
#     4   9  17  31  49  69  95 132 179 230 277 319
#     4  10  20  32  52  76 106 150 196 230 270 326
#     4   9  18  31  49  70  95 132 179 227 275 326
#     4  10  20  35  53  75 109 150 190 233 278 327
#     4   9  18  36  62  89 116 147 183 230 293 357
#
# _framework density 23.006226000000002
#
# number of rings (size 3 to 8) (size 9 to 14) (size 15 to 20)
#    0.000    2.727    0.000    1.091    0.000    6.909 
#    3.273    0.000    0.000    0.000    0.000    0.000 
#    0.000    0.000    0.000    0.000    0.000    0.000 
#
# Total GULP energy -122549.334347 kJ/mol
# GULP energy per Si atom -5570.424289 kJ/mol
# Density = 2.295386 g / cm^3
# Si number density = 23.006226 Si / 1000 Ang^3
#
#
#
# Elastic Constant Matrix: (Units=GPa)
#
#
# Indices 1 2 3 4 5 6 
#
# 1 141.0235 73.6158 17.4227 0.0000 -41.3935 0.0000
# 2 73.6158 185.1831 30.4436 0.0000 -20.2770 0.0000
# 3 17.4227 30.4436 47.4527 -0.0005 -17.3371 -0.0001
# 4 0.0000 0.0000 -0.0005 22.1198 0.0000 -5.7163
# 5 -41.3935 -20.2770 -17.3371 0.0000 34.7787 0.0000
# 6 0.0000 0.0000 -0.0001 -5.7163 0.0000 28.2970
#
#
#
# Elastic Compliance Matrix: (Units=1/GPa)
#
#
# Indices 1 2 3 4 5 6 
#
# 1 0.013262 -0.004171 0.003283 0.000000 0.014990 0.000000
# 2 -0.004171 0.007458 -0.004253 0.000000 -0.002736 0.000000
# 3 0.003283 -0.004253 0.028266 0.000001 0.015518 0.000000
# 4 0.000000 0.000000 0.000001 0.047699 0.000000 0.009636
# 5 0.014990 -0.002736 0.015518 0.000000 0.052735 0.000000
# 6 0.000000 0.000000 0.000000 0.009636 0.000000 0.037286
#
#
# Mechanical properties :
#
#
# Convention : Reuss Voigt Hill
#
# Bulk Modulus (GPa) = 25.83618 68.51372 47.17495
# Shear Modulus (GPa) = 23.82220 33.85090 28.83655
#
# Velocity S-wave (km/s) = 3.22136 3.84002 3.54421
# Velocity P-wave (km/s) = 5.00906 7.03606 6.10724
#
# Compressibility (1/GPa) = 0.03870542
#
# Stress axis : x y z
#
# Youngs Moduli (GPa) = 75.40173 134.09242 35.37769
#
# Poissons Ratio (x) = 0.55923 -0.11614
# Poissons Ratio (y) = 0.31446 0.15045
# Poissons Ratio (z) = -0.24753 0.57025
#
# Static dielectric constant tensor:
#      x y z
#    x 1.912810 0.000000 0.003890 
#    y 0.000000 1.889480 0.000000 
#    z 0.003890 0.000000 1.902420 
# 
# From -- ./inp_files/377585.got.cif
#   From: 2010.05.17/outbox.cif.g08.bks.cpg/sg12_189_cif.got.tgz:377585.got - 2010.06.03 13:09:07.
