data_PCOD9191722
_publ_section_title
;
Structure prediction by ZEFSAII (Michael W. Deem and Ramdas Pophale) SiO2 
 PCOD9191722
Probable space group: C 2/M
;
_chemical_formula_sum "Si O2"
_cell_formula_units_Z 56
_cell_length_a 19.181776
_cell_length_b 7.448183
_cell_length_c 23.668878
_cell_angle_alpha 90.000000
_cell_angle_beta 51.485833
_cell_angle_gamma 90.000000
_cell_volume 2645.914194
_symmetry_space_group_name_H-M "C 2/M"
_symmetry_group_IT_number 12
_symmetry_cell_setting 'monoclinic'
loop_
_space_group_symop_operation_xyz
x,y,z
-x,y,-z
-x,-y,-z
x,-y,z
1/2+x,1/2+y,z
1/2-x,1/2+y,-z
1/2-x,1/2-y,-z
1/2+x,1/2-y,z
loop_
_atom_site_type_symbol
_atom_site_label
_atom_site_fract_x
_atom_site_fract_y
_atom_site_fract_z
Si Si1 0.757347 0.285953 0.930500
Si Si2 0.115604 0.717157 0.229222
Si Si3 0.579392 0.708864 0.630700
Si Si4 0.071662 0.211405 0.508238
Si Si5 0.767659 0.217613 0.362826
Si Si6 0.097148 0.780663 0.932792
Si Si7 0.722371 0.718551 0.771033
O O1 0.758090 0.500000 0.923420
O O2 0.843042 0.222171 0.851690
O O3 0.669852 0.221160 0.941945
O O4 0.750000 0.250000 0.000000
O O5 0.112018 0.500000 0.231880
O O6 0.187617 0.772125 0.240852
O O7 0.016983 0.782200 0.291722
O O8 0.604025 0.500000 0.610366
O O9 0.571127 0.788519 0.571963
O O10 0.656037 0.784000 0.632813
O O11 0.170310 0.230492 0.433721
O O12 0.000000 0.287589 0.500000
O O13 0.049422 0.000000 0.525241
O O14 0.780418 0.280242 0.291931
O O15 0.771815 0.000000 0.359271
O O16 0.137753 0.726562 0.851804
O O17 0.095015 0.000000 0.933714
O O18 0.000000 0.718470 0.000000
O O19 0.723163 0.500000 0.770330
#
# Coordination Sequence:
#
# PCOD9191722 Si02
#       7
#     8   8   8   8   8   8   8
#     4   9  18  31  48  72  99 127 161 199 239 286
#     4   9  18  33  51  70  95 129 165 197 235 289
#     4  10  21  34  49  74 102 125 157 202 245 284
#     4  10  21  36  52  71  99 133 164 194 234 290
#     4  10  20  33  51  75  99 123 158 205 247 282
#     4   8  14  26  46  70  94 123 159 197 238 282
#     4   8  15  29  47  68  94 122 158 202 239 278
#
# _framework density 21.164708000000001
#
# number of rings (size 3 to 8) (size 9 to 14) (size 15 to 20)
#    0.000    2.857    0.000    3.000    0.000    3.143 
#    0.000    2.857    0.000    1.286    0.000    0.000 
#    0.000    0.000    0.000    0.000    0.000    0.000 
#
# Total GULP energy -156271.616126 kJ/mol
# GULP energy per Si atom -5581.129147 kJ/mol
# Density = 2.111654 g / cm^3
# Si number density = 21.164708 Si / 1000 Ang^3
#
#
#
# Elastic Constant Matrix: (Units=GPa)
#
#
# Indices 1 2 3 4 5 6 
#
# 1 158.1262 -4.8924 114.1584 0.0006 10.6217 -0.0015
# 2 -4.8924 58.1775 -20.1208 0.0009 6.9002 -0.0042
# 3 114.1584 -20.1208 177.3572 0.0000 10.5037 0.0000
# 4 0.0006 0.0009 0.0000 -9.4301 -0.0001 55.4062
# 5 10.6217 6.9002 10.5037 -0.0001 43.5217 0.0003
# 6 -0.0015 -0.0042 0.0000 55.4062 0.0003 -139.1339
#
#
#
# Elastic Compliance Matrix: (Units=1/GPa)
#
#
# Indices 1 2 3 4 5 6 
#
# 1 0.012003 -0.001618 -0.007864 0.000000 -0.000775 0.000000
# 2 -0.001618 0.018611 0.003352 0.000001 -0.003365 0.000000
# 3 -0.007864 0.003352 0.011158 0.000000 -0.001305 0.000000
# 4 0.000000 0.000001 0.000000 0.079152 0.000000 0.031520
# 5 -0.000775 -0.003365 -0.001305 0.000000 0.024015 0.000000
# 6 0.000000 0.000000 0.000000 0.031520 0.000000 0.005365
#
#
# Mechanical properties :
#
#
# Convention : Reuss Voigt Hill
#
# Bulk Modulus (GPa) = 33.88397 63.55013 48.71705
# Shear Modulus (GPa) = 29.00221 -0.70741 14.14740
#
# Velocity S-wave (km/s) = 3.70579 -0.57876 2.58823
# Velocity P-wave (km/s) = 5.86130 5.44472 5.65685
#
# Compressibility (1/GPa) = 0.02951248
#
# Stress axis : x y z
#
# Youngs Moduli (GPa) = 83.31082 53.73110 89.62535
#
# Poissons Ratio (x) = 0.08696 0.70479
# Poissons Ratio (y) = 0.13483 -0.30046
# Poissons Ratio (z) = 0.65514 -0.18013
#
# Static dielectric constant tensor:
#      x y z
#    x 1.745330 0.000000 0.033350 
#    y 0.000000 1.837620 0.000000 
#    z 0.033350 0.000000 1.742340 
# 
# From -- ./inp_files/342330.got.cif
#   From: 2010.05.17/outbox.cif.g08.bks.cpg/sg12_172_cif.got.tgz:342330.got - 2010.06.03 13:09:07.
