data_PCOD9191751
_publ_section_title
;
Structure prediction by ZEFSAII (Michael W. Deem and Ramdas Pophale) SiO2 
 PCOD9191751
Probable space group: C 2/M
;
_chemical_formula_sum "Si O2"
_cell_formula_units_Z 52
_cell_length_a 29.415867
_cell_length_b 9.560592
_cell_length_c 8.954356
_cell_angle_alpha 90.000000
_cell_angle_beta 60.715138
_cell_angle_gamma 90.000000
_cell_volume 2196.423849
_symmetry_space_group_name_H-M "C 2/M"
_symmetry_group_IT_number 12
_symmetry_cell_setting 'monoclinic'
loop_
_space_group_symop_operation_xyz
x,y,z
-x,y,-z
-x,-y,-z
x,-y,z
1/2+x,1/2+y,z
1/2-x,1/2+y,-z
1/2-x,1/2-y,-z
1/2+x,1/2-y,z
loop_
_atom_site_type_symbol
_atom_site_label
_atom_site_fract_x
_atom_site_fract_y
_atom_site_fract_z
Si Si1 0.041366 0.839630 0.254772
Si Si2 0.795225 0.725897 0.610356
Si Si3 0.263157 0.500000 0.506539
Si Si4 0.697304 0.160630 0.886246
Si Si5 0.879773 0.344778 0.706819
Si Si6 0.037463 0.661347 0.792317
Si Si7 0.384003 0.339049 0.157270
O O1 0.078347 0.773414 0.321293
O O2 0.995053 0.733925 0.287228
O O3 0.025410 0.000000 0.308233
O O4 0.076734 0.842507 0.047976
O O5 0.770561 0.618492 0.534864
O O6 0.798438 0.875080 0.527516
O O7 0.750650 0.754921 0.808955
O O8 0.847147 0.677692 0.609607
O O9 0.662222 0.239250 0.821761
O O10 0.709352 0.000000 0.811697
O O11 0.663062 0.156085 0.089788
O O12 0.903845 0.500000 0.672094
O O13 0.052217 0.500000 0.739182
O O14 0.084325 0.763477 0.763243
O O15 0.000000 0.657213 0.000000
O O16 0.367879 0.500000 0.204230
#
# Coordination Sequence:
#
# PCOD9191751 Si02
#       7
#     8   8   4   8   8   8   8
#     4   9  17  27  42  67  99 134 170 204 244 298
#     4  11  21  40  54  76  99 135 170 220 254 307
#     4  10  24  38  58  70  96 132 180 216 260 294
#     4  10  20  33  51  76 106 137 168 207 259 313
#     4  10  20  33  51  76 106 137 168 207 259 313
#     4   9  15  25  41  61  95 138 171 200 239 295
#     4   9  17  27  42  67  99 134 170 204 244 298
#
# _framework density 23.674845999999999
#
# number of rings (size 3 to 8) (size 9 to 14) (size 15 to 20)
#    0.000    2.308    1.538    1.846    2.154    5.538 
#    0.000    0.000    0.000    0.000    0.000    0.000 
#    0.000    7.385    0.000    0.000    0.000    0.000 
#
# Total GULP energy -145010.792801 kJ/mol
# GULP energy per Si atom -5577.338185 kJ/mol
# Density = 2.362096 g / cm^3
# Si number density = 23.674846 Si / 1000 Ang^3
#
#
#
# Elastic Constant Matrix: (Units=GPa)
#
#
# Indices 1 2 3 4 5 6 
#
# 1 226.5340 73.6573 -278.2652 0.0000 19.4277 0.0000
# 2 73.6573 192.9054 -77.9675 0.0000 9.2017 0.0000
# 3 -278.2652 -77.9675 621.7290 0.0000 21.7460 0.0000
# 4 0.0000 0.0000 0.0000 20.0202 0.0000 -3.1851
# 5 19.4277 9.2017 21.7460 0.0000 36.2743 0.0000
# 6 0.0000 0.0000 0.0000 -3.1851 0.0000 45.1149
#
#
#
# Elastic Compliance Matrix: (Units=1/GPa)
#
#
# Indices 1 2 3 4 5 6 
#
# 1 0.013631 -0.002204 0.006190 0.000000 -0.010452 0.000000
# 2 -0.002204 0.005939 -0.000235 0.000000 -0.000185 0.000000
# 3 0.006190 -0.000235 0.004559 0.000000 -0.005988 0.000000
# 4 0.000000 0.000000 0.000000 0.050517 0.000000 0.003566
# 5 -0.010452 -0.000185 -0.005988 0.000000 0.036802 0.000000
# 6 0.000000 0.000000 0.000000 0.003566 0.000000 0.022417
#
#
# Mechanical properties :
#
#
# Convention : Reuss Voigt Hill
#
# Bulk Modulus (GPa) = 31.61639 52.89082 42.25361
# Shear Modulus (GPa) = 36.52084 108.53148 72.52616
#
# Velocity S-wave (km/s) = 3.93186 6.77806 5.54083
# Velocity P-wave (km/s) = 5.83062 9.14577 7.66946
#
# Compressibility (1/GPa) = 0.03162916
#
# Stress axis : x y z
#
# Youngs Moduli (GPa) = 73.36347 168.37033 219.35989
#
# Poissons Ratio (x) = 0.37114 -1.35780
# Poissons Ratio (y) = 0.16172 0.05162
# Poissons Ratio (z) = -0.45411 0.03962
#
# Static dielectric constant tensor:
#      x y z
#    x 2.182990 0.000000 -0.608530 
#    y 0.000000 1.802560 0.000000 
#    z -0.608530 0.000000 2.782220 
# 
# From -- ./inp_files/185874.got.cif
#   From: 2010.05.17/outbox.cif.g08.bks.cpg/sg12_93_cif.got.tgz:185874.got - 2010.06.03 13:09:07.
