data_PCOD9191749
_publ_section_title
;
Structure prediction by ZEFSAII (Michael W. Deem and Ramdas Pophale) SiO2 
 PCOD9191749
Probable space group: C 2/M
;
_chemical_formula_sum "Si O2"
_cell_formula_units_Z 64
_cell_length_a 15.023405
_cell_length_b 7.631362
_cell_length_c 24.848901
_cell_angle_alpha 90.000000
_cell_angle_beta 100.693479
_cell_angle_gamma 90.000000
_cell_volume 2799.428427
_symmetry_space_group_name_H-M "C 2/M"
_symmetry_group_IT_number 12
_symmetry_cell_setting 'monoclinic'
loop_
_space_group_symop_operation_xyz
x,y,z
-x,y,-z
-x,-y,-z
x,-y,z
1/2+x,1/2+y,z
1/2-x,1/2+y,-z
1/2-x,1/2-y,-z
1/2+x,1/2-y,z
loop_
_atom_site_type_symbol
_atom_site_label
_atom_site_fract_x
_atom_site_fract_y
_atom_site_fract_z
Si Si1 0.679086 0.212779 0.249623
Si Si2 0.283198 0.204120 0.866869
Si Si3 0.644652 0.210200 0.496780
Si Si4 0.829723 0.210738 0.050060
Si Si5 0.483355 0.703199 0.211231
Si Si6 0.870193 0.209531 0.295561
Si Si7 0.020736 0.212784 0.093778
Si Si8 0.971915 0.710715 0.414844
O O1 0.701520 0.274940 0.191101
O O2 0.580564 0.285020 0.251690
O O3 0.766699 0.267425 0.293449
O O4 0.670662 0.000000 0.249277
O O5 0.205698 0.279231 0.896136
O O6 0.379602 0.219448 0.907983
O O7 0.262021 0.000000 0.856620
O O8 0.750000 0.250000 0.500000
O O9 0.572520 0.272001 0.443320
O O10 0.600482 0.272922 0.548188
O O11 0.639238 0.000000 0.496877
O O12 0.932392 0.268419 0.050458
O O13 0.834767 0.000000 0.054149
O O14 0.750000 0.250000 0.000000
O O15 0.459565 0.500000 0.199667
O O16 0.410323 0.780810 0.243866
O O17 0.499474 0.773439 0.152969
O O18 0.936381 0.243741 0.352204
O O19 0.865309 0.000000 0.288287
O O20 0.028012 0.000000 0.093092
O O21 0.973459 0.500000 0.417864
#
# Coordination Sequence:
#
# PCOD9191749 Si02
#       8
#     8   8   8   8   8   8   8   8
#     4   9  18  33  52  74 100 131 167 203 242 292
#     4   9  18  34  54  73  96 129 166 203 244 292
#     4   9  19  37  58  76  98 133 173 211 250 292
#     4  10  21  35  51  72  98 128 162 202 250 299
#     4   9  18  33  52  74 100 131 167 203 242 292
#     4  10  20  33  51  76 106 136 165 202 246 293
#     4   9  18  34  54  73  96 129 166 203 244 292
#     4   9  20  37  53  74 105 136 167 205 251 297
#
# _framework density 22.861810999999999
#
# number of rings (size 3 to 8) (size 9 to 14) (size 15 to 20)
#    0.000    2.750    0.000    1.500    0.000    7.500 
#    0.000    8.750    0.000    7.500    0.000    0.000 
#    0.000    0.000    0.000    0.000    0.000    0.000 
#
# Total GULP energy -178543.668485 kJ/mol
# GULP energy per Si atom -5579.489640 kJ/mol
# Density = 2.280978 g / cm^3
# Si number density = 22.861811 Si / 1000 Ang^3
#
#
#
# Elastic Constant Matrix: (Units=GPa)
#
#
# Indices 1 2 3 4 5 6 
#
# 1 146.9464 -0.9388 14.6858 0.0000 23.3313 0.0000
# 2 -0.9388 44.9074 -5.2483 0.0000 -1.3147 0.0000
# 3 14.6858 -5.2483 41.9973 0.0000 17.5765 0.0000
# 4 0.0000 0.0000 0.0000 18.0727 0.0000 4.8439
# 5 23.3313 -1.3147 17.5765 0.0000 27.4932 0.0000
# 6 0.0000 0.0000 0.0000 4.8439 0.0000 18.9233
#
#
#
# Elastic Compliance Matrix: (Units=1/GPa)
#
#
# Indices 1 2 3 4 5 6 
#
# 1 0.007865 -0.000026 0.000055 0.000000 -0.006711 0.000000
# 2 -0.000026 0.022618 0.003241 0.000000 -0.000969 0.000000
# 3 0.000055 0.003241 0.032974 0.000000 -0.020972 0.000000
# 4 0.000000 0.000000 0.000000 0.059408 0.000000 -0.015207
# 5 -0.006711 -0.000969 -0.020972 0.000000 0.055429 0.000000
# 6 0.000000 0.000000 0.000000 -0.015207 0.000000 0.056738
#
#
# Mechanical properties :
#
#
# Convention : Reuss Voigt Hill
#
# Bulk Modulus (GPa) = 14.28621 27.87205 21.07913
# Shear Modulus (GPa) = 19.85520 27.92132 23.88826
#
# Velocity S-wave (km/s) = 2.95021 3.49851 3.23599
# Velocity P-wave (km/s) = 4.22699 5.34205 4.81689
#
# Compressibility (1/GPa) = 0.06999756
#
# Stress axis : x y z
#
# Youngs Moduli (GPa) = 127.14488 44.21276 30.32695
#
# Poissons Ratio (x) = 0.00113 -0.00167
# Poissons Ratio (y) = 0.00326 -0.09828
# Poissons Ratio (z) = -0.00701 -0.14329
#
# Static dielectric constant tensor:
#      x y z
#    x 1.878000 0.000000 0.025380 
#    y 0.000000 1.877830 0.000000 
#    z 0.025380 0.000000 1.873970 
# 
# From -- ./inp_files/359763.got.cif
#   From: 2010.05.17/outbox.cif.g08.bks.cpg/sg12_180_cif.got.tgz:359763.got - 2010.06.03 13:09:07.
