data_PCOD9191232
_publ_section_title
;
Structure prediction by ZEFSAII (Michael W. Deem and Ramdas Pophale) SiO2 
 PCOD9191232
Probable space group: C 2/M
;
_chemical_formula_sum "Si O2"
_cell_formula_units_Z 64
_cell_length_a 31.060666
_cell_length_b 7.644524
_cell_length_c 14.610695
_cell_angle_alpha 90.000000
_cell_angle_beta 89.681829
_cell_angle_gamma 90.000000
_cell_volume 3469.168471
_symmetry_space_group_name_H-M "C 2/M"
_symmetry_group_IT_number 12
_symmetry_cell_setting 'monoclinic'
loop_
_space_group_symop_operation_xyz
x,y,z
-x,y,-z
-x,-y,-z
x,-y,z
1/2+x,1/2+y,z
1/2-x,1/2+y,-z
1/2-x,1/2-y,-z
1/2+x,1/2-y,z
loop_
_atom_site_type_symbol
_atom_site_label
_atom_site_fract_x
_atom_site_fract_y
_atom_site_fract_z
Si Si1 0.643523 0.796694 0.823414
Si Si2 0.048123 0.207102 0.478568
Si Si3 0.200612 0.710667 0.982102
Si Si4 0.005830 0.286949 0.803862
Si Si5 0.415360 0.211783 0.329185
Si Si6 0.124496 0.292398 0.110800
Si Si7 0.582816 0.700383 0.289240
Si Si8 0.561544 0.796796 0.963390
O O1 0.625906 0.722428 0.727956
O O2 0.601608 0.796406 0.890721
O O3 0.654379 0.000000 0.805493
O O4 0.681528 0.720809 0.885544
O O5 0.077157 0.228992 0.567916
O O6 0.071105 0.282206 0.387797
O O7 0.000000 0.279362 0.500000
O O8 0.041997 0.000000 0.460718
O O9 0.196712 0.500000 0.978492
O O10 0.168256 0.773146 0.062901
O O11 0.250000 0.750000 0.000000
O O12 0.003330 0.500000 0.806480
O O13 0.042464 0.237575 0.729928
O O14 0.021986 0.226031 0.903722
O O15 0.961449 0.216144 0.766966
O O16 0.413968 0.000000 0.328518
O O17 0.123218 0.500000 0.093701
O O18 0.118399 0.270023 0.218567
O O19 0.083555 0.219010 0.053504
O O20 0.594450 0.500000 0.305025
O O21 0.550725 0.000000 0.983195
#
# Coordination Sequence:
#
# PCOD9191232 Si02
#       8
#     8   8   8   8   8   8   8   8
#     4   7  12  25  44  69  96 118 143 182 228 268
#     4  10  20  33  44  58  88 127 160 195 244 285
#     4   9  17  31  53  77 101 124 145 175 222 279
#     4   9  16  27  44  64  84 113 155 196 227 261
#     4   9  16  27  47  69  87 113 158 205 231 258
#     4   9  18  33  49  65  89 121 153 186 222 265
#     4  11  22  32  42  59  88 124 158 193 233 274
#     4   7  12  25  44  62  83 115 152 184 219 263
#
# _framework density 18.448224
#
# number of rings (size 3 to 8) (size 9 to 14) (size 15 to 20)
#    0.000    3.125    1.250    3.375    0.000    2.250 
#    0.000    3.750    0.000    4.500    0.000    0.875 
#    0.000    0.000    0.000    0.000    0.000    0.000 
#
# Total GULP energy -178212.289660 kJ/mol
# GULP energy per Si atom -5569.134052 kJ/mol
# Density = 1.840623 g / cm^3
# Si number density = 18.448224 Si / 1000 Ang^3
#
#
#
# Elastic Constant Matrix: (Units=GPa)
#
#
# Indices 1 2 3 4 5 6 
#
# 1 80.9762 -3.2529 56.7387 0.0000 11.6334 0.0000
# 2 -3.2529 30.3486 -0.5092 0.0000 -3.3882 0.0000
# 3 56.7387 -0.5092 154.9021 0.0000 1.4380 0.0000
# 4 0.0000 0.0000 0.0000 41.7298 0.0000 6.2982
# 5 11.6334 -3.3882 1.4380 0.0000 19.8229 0.0000
# 6 0.0000 0.0000 0.0000 6.2982 0.0000 16.5064
#
#
#
# Elastic Compliance Matrix: (Units=1/GPa)
#
#
# Indices 1 2 3 4 5 6 
#
# 1 0.018546 0.000728 -0.006695 0.000000 -0.010274 0.000000
# 2 0.000728 0.033621 -0.000206 0.000000 0.005334 0.000000
# 3 -0.006695 -0.000206 0.008877 0.000000 0.003250 0.000000
# 4 0.000000 0.000000 0.000000 0.025428 0.000000 -0.009702
# 5 -0.010274 0.005334 0.003250 0.000000 0.057152 0.000000
# 6 0.000000 0.000000 0.000000 -0.009702 0.000000 0.064285
#
#
# Mechanical properties :
#
#
# Convention : Reuss Voigt Hill
#
# Bulk Modulus (GPa) = 20.53457 41.35334 30.94396
# Shear Modulus (GPa) = 21.14284 29.82849 25.48566
#
# Velocity S-wave (km/s) = 3.38903 4.02540 3.72085
# Velocity P-wave (km/s) = 5.14481 6.63850 5.93880
#
# Compressibility (1/GPa) = 0.04869837
#
# Stress axis : x y z
#
# Youngs Moduli (GPa) = 53.92032 29.74366 112.64729
#
# Poissons Ratio (x) = -0.02167 0.75421
# Poissons Ratio (y) = -0.03928 0.02319
# Poissons Ratio (z) = 0.36102 0.00612
#
# Static dielectric constant tensor:
#      x y z
#    x 1.634320 0.000000 0.003690 
#    y 0.000000 1.698560 0.000000 
#    z 0.003690 0.000000 1.690730 
# 
# From -- ./inp_files/248411.got.cif
#   From: 2010.05.17/outbox.cif.g08.bks.cpg/sg12_125_cif.got.tgz:248411.got - 2010.06.03 13:09:07.
