data_PCOD9191852
_publ_section_title
;
Structure prediction by ZEFSAII (Michael W. Deem and Ramdas Pophale) SiO2 
 PCOD9191852
Probable space group: C 2/M
;
_chemical_formula_sum "Si O2"
_cell_formula_units_Z 48
_cell_length_a 16.245174
_cell_length_b 8.641197
_cell_length_c 29.908878
_cell_angle_alpha 90.000000
_cell_angle_beta 35.205271
_cell_angle_gamma 90.000000
_cell_volume 2420.490304
_symmetry_space_group_name_H-M "C 2/M"
_symmetry_group_IT_number 12
_symmetry_cell_setting 'monoclinic'
loop_
_space_group_symop_operation_xyz
x,y,z
-x,y,-z
-x,-y,-z
x,-y,z
1/2+x,1/2+y,z
1/2-x,1/2+y,-z
1/2-x,1/2-y,-z
1/2+x,1/2-y,z
loop_
_atom_site_type_symbol
_atom_site_label
_atom_site_fract_x
_atom_site_fract_y
_atom_site_fract_z
Si Si1 0.593983 0.314320 0.334010
Si Si2 0.576859 0.314233 0.175129
Si Si3 0.864231 0.183837 0.092107
Si Si4 0.407172 0.180911 0.496422
Si Si5 0.405959 0.814140 0.172939
Si Si6 0.902373 0.811429 0.336699
O O1 0.596346 0.500000 0.333320
O O2 0.493381 0.259958 0.418546
O O3 0.757384 0.260457 0.262282
O O4 0.522327 0.265388 0.319137
O O5 0.579367 0.500000 0.172637
O O6 0.725043 0.255660 0.130201
O O7 0.535812 0.250040 0.144797
O O8 0.453499 0.262740 0.265073
O O9 0.895961 0.256449 0.126517
O O10 0.842657 0.000000 0.106895
O O11 0.000000 0.209811 0.000000
O O12 0.500000 0.190880 0.500000
O O13 0.250544 0.244824 0.577783
O O14 0.390879 0.000000 0.491672
O O15 0.410858 0.000000 0.170811
O O16 0.894990 0.000000 0.339104
#
# Coordination Sequence:
#
# PCOD9191852 Si02
#       6
#     8   8   8   8   8   8
#     4  10  20  36  56  81 117 159 205 255 305 360
#     4  11  22  41  68  95 127 167 208 257 314 370
#     4  11  25  45  68  96 128 161 203 255 311 377
#     4  10  20  33  51  79 115 156 205 255 303 360
#     4  11  23  41  65  94 128 167 211 258 310 371
#     4   9  18  35  56  81 118 160 203 252 308 364
#
# _framework density 19.830694000000001
#
# number of rings (size 3 to 8) (size 9 to 14) (size 15 to 20)
#    0.000    1.667    1.667    3.000    0.000    5.000 
#    0.000    1.667    0.000    0.000    0.000    0.000 
#    0.000    0.000    0.000    0.000    0.000    0.000 
#
# Total GULP energy -134062.851665 kJ/mol
# GULP energy per Si atom -5585.952153 kJ/mol
# Density = 1.978556 g / cm^3
# Si number density = 19.830694 Si / 1000 Ang^3
#
#
#
# Elastic Constant Matrix: (Units=GPa)
#
#
# Indices 1 2 3 4 5 6 
#
# 1 145.6101 50.5302 63.5701 0.0000 13.0058 -0.0001
# 2 50.5302 46.9858 44.8882 0.0001 2.7648 -0.0002
# 3 63.5701 44.8882 90.4139 0.0000 3.3879 0.0001
# 4 0.0000 0.0001 0.0000 29.1996 0.0000 2.1306
# 5 13.0058 2.7648 3.3879 0.0000 8.5678 0.0000
# 6 -0.0001 -0.0002 0.0001 2.1306 0.0000 23.6132
#
#
#
# Elastic Compliance Matrix: (Units=1/GPa)
#
#
# Indices 1 2 3 4 5 6 
#
# 1 0.013347 -0.009568 -0.004051 0.000000 -0.015572 0.000000
# 2 -0.009568 0.047574 -0.017114 0.000000 0.005940 0.000000
# 3 -0.004051 -0.017114 0.022298 0.000000 0.002854 0.000000
# 4 0.000000 0.000000 0.000000 0.034474 0.000000 -0.003111
# 5 -0.015572 0.005940 0.002854 0.000000 0.137308 0.000000
# 6 0.000000 0.000000 0.000000 -0.003111 0.000000 0.042630
#
#
# Mechanical properties :
#
#
# Convention : Reuss Voigt Hill
#
# Bulk Modulus (GPa) = 45.97089 66.77633 56.37361
# Shear Modulus (GPa) = 13.64821 20.54421 17.09621
#
# Velocity S-wave (km/s) = 2.62627 3.22216 2.93935
# Velocity P-wave (km/s) = 5.69460 6.89851 6.32526
#
# Compressibility (1/GPa) = 0.02175289
#
# Stress axis : x y z
#
# Youngs Moduli (GPa) = 74.92165 21.02005 44.84650
#
# Poissons Ratio (x) = 0.20112 0.18166
# Poissons Ratio (y) = 0.71684 0.76752
# Poissons Ratio (z) = 0.30349 0.35975
#
# Static dielectric constant tensor:
#      x y z
#    x 1.683200 0.000000 -0.014190 
#    y 0.000000 1.679680 0.000000 
#    z -0.014190 0.000000 1.707060 
# 
# From -- ./inp_files/274135.got.cif
#   From: 2010.05.17/outbox.cif.g08.bks.cpg/sg12_138_cif.got.tgz:274135.got - 2010.06.03 13:09:07.
