data_PCOD9191848
_publ_section_title
;
Structure prediction by ZEFSAII (Michael W. Deem and Ramdas Pophale) SiO2 
 PCOD9191848
Probable space group: C 2/M
;
_chemical_formula_sum "Si O2"
_cell_formula_units_Z 64
_cell_length_a 16.164203
_cell_length_b 18.318760
_cell_length_c 24.603097
_cell_angle_alpha 90.000000
_cell_angle_beta 152.613742
_cell_angle_gamma 90.000000
_cell_volume 3351.085819
_symmetry_space_group_name_H-M "C 2/M"
_symmetry_group_IT_number 12
_symmetry_cell_setting 'monoclinic'
loop_
_space_group_symop_operation_xyz
x,y,z
-x,y,-z
-x,-y,-z
x,-y,z
1/2+x,1/2+y,z
1/2-x,1/2+y,-z
1/2-x,1/2-y,-z
1/2+x,1/2-y,z
loop_
_atom_site_type_symbol
_atom_site_label
_atom_site_fract_x
_atom_site_fract_y
_atom_site_fract_z
Si Si1 0.569418 0.580446 0.102503
Si Si2 0.316184 0.262126 0.816007
Si Si3 0.030682 0.802574 0.734267
Si Si4 0.145581 0.168083 0.626656
Si Si5 0.604777 0.147266 0.322121
Si Si6 0.685439 0.806102 0.008648
Si Si7 0.826826 0.416662 0.087959
Si Si8 0.104763 0.086867 0.431979
O O1 0.652275 0.500000 0.158136
O O2 0.685743 0.650868 0.183284
O O3 0.500000 0.584983 0.000000
O O4 0.388719 0.585380 0.033100
O O5 0.178651 0.230460 0.779394
O O6 0.251657 0.229521 0.721098
O O7 0.518982 0.231998 0.942259
O O8 0.147548 0.823782 0.855037
O O9 0.900893 0.734469 0.672505
O O10 0.934124 0.868058 0.645862
O O11 0.280326 0.127229 0.664647
O O12 0.000000 0.200388 0.500000
O O13 0.041449 0.116759 0.608934
O O14 0.407510 0.122316 0.188552
O O15 0.702705 0.109461 0.429693
O O16 0.750000 0.750000 0.000000
O O17 0.620401 0.875775 0.936504
O O18 0.886303 0.500000 0.123225
O O19 0.091118 0.000000 0.417632
#
# Coordination Sequence:
#
# PCOD9191848 Si02
#       8
#     8   8   8   8   8   8   8   8
#     4  10  20  33  51  79 113 144 182 236 291 340
#     4  11  19  36  57  83 111 150 191 230 290 344
#     4  11  23  36  60  85 115 152 198 233 286 355
#     4   9  20  35  59  84 109 147 193 237 284 339
#     4  11  19  38  59  84 112 152 196 244 279 340
#     4  12  20  36  57  82 114 152 189 235 283 348
#     4  11  22  33  54  88 115 145 190 241 291 334
#     4  10  23  40  59  86 119 155 191 241 302 347
#
# _framework density 19.098288
#
# number of rings (size 3 to 8) (size 9 to 14) (size 15 to 20)
#    0.000    1.375    3.750    2.625    0.000    3.250 
#    0.000    0.625    0.000    2.625    0.000    0.000 
#    0.000    0.000    0.000    0.000    0.000    0.000 
#
# Total GULP energy -178585.083431 kJ/mol
# GULP energy per Si atom -5580.783857 kJ/mol
# Density = 1.905482 g / cm^3
# Si number density = 19.098288 Si / 1000 Ang^3
#
#
#
# Elastic Constant Matrix: (Units=GPa)
#
#
# Indices 1 2 3 4 5 6 
#
# 1 44.9783 12.3990 8.5818 0.0004 -11.4600 -0.0002
# 2 12.3990 147.1656 49.8273 0.0024 -30.5280 0.0007
# 3 8.5818 49.8273 88.2947 0.0065 -35.2439 0.0013
# 4 0.0004 0.0024 0.0065 23.4538 0.0005 -1.0647
# 5 -11.4600 -30.5280 -35.2439 0.0005 35.4888 -0.0002
# 6 -0.0002 0.0007 0.0013 -1.0647 -0.0002 15.9519
#
#
#
# Elastic Compliance Matrix: (Units=1/GPa)
#
#
# Indices 1 2 3 4 5 6 
#
# 1 0.024379 -0.000764 0.001560 -0.000001 0.008764 0.000000
# 2 -0.000764 0.008814 -0.003267 0.000000 0.004091 0.000000
# 3 0.001560 -0.003267 0.020042 -0.000006 0.017597 -0.000002
# 4 -0.000001 0.000000 -0.000006 0.042767 -0.000007 0.002854
# 5 0.008764 0.004091 0.017597 -0.000007 0.052003 -0.000001
# 6 0.000000 0.000000 -0.000002 0.002854 -0.000001 0.062879
#
#
# Mechanical properties :
#
#
# Convention : Reuss Voigt Hill
#
# Bulk Modulus (GPa) = 20.70684 46.89498 33.80091
# Shear Modulus (GPa) = 21.55890 28.95426 25.25658
#
# Velocity S-wave (km/s) = 3.36347 3.89789 3.64050
# Velocity P-wave (km/s) = 5.09408 6.69820 5.95045
#
# Compressibility (1/GPa) = 0.04829322
#
# Stress axis : x y z
#
# Youngs Moduli (GPa) = 41.01896 113.45359 49.89600
#
# Poissons Ratio (x) = 0.08669 -0.07784
# Poissons Ratio (y) = 0.03134 0.16300
# Poissons Ratio (z) = -0.06399 0.37063
#
# Static dielectric constant tensor:
#      x y z
#    x 1.702320 0.000000 0.035810 
#    y 0.000000 1.672220 0.000000 
#    z 0.035810 0.000000 1.713960 
# 
# From -- ./inp_files/340838.got.cif
#   From: 2010.05.17/outbox.cif.g08.bks.cpg/sg12_171_cif.got.tgz:340838.got - 2010.06.03 13:09:07.
