data_PCOD9191451
_publ_section_title
;
Structure prediction by ZEFSAII (Michael W. Deem and Ramdas Pophale) SiO2 
 PCOD9191451
Probable space group: C 2/M
;
_chemical_formula_sum "Si O2"
_cell_formula_units_Z 48
_cell_length_a 21.804942
_cell_length_b 14.333972
_cell_length_c 10.001159
_cell_angle_alpha 90.000000
_cell_angle_beta 109.550510
_cell_angle_gamma 90.000000
_cell_volume 2945.659906
_symmetry_space_group_name_H-M "C 2/M"
_symmetry_group_IT_number 12
_symmetry_cell_setting 'monoclinic'
loop_
_space_group_symop_operation_xyz
x,y,z
-x,y,-z
-x,-y,-z
x,-y,z
1/2+x,1/2+y,z
1/2-x,1/2+y,-z
1/2-x,1/2-y,-z
1/2+x,1/2-y,z
loop_
_atom_site_type_symbol
_atom_site_label
_atom_site_fract_x
_atom_site_fract_y
_atom_site_fract_z
Si Si1 0.430034 0.300620 0.971567
Si Si2 0.408590 0.500000 0.048875
Si Si3 0.181535 0.000000 0.770509
Si Si4 0.696845 0.300135 0.649813
Si Si5 0.326188 0.697843 0.667933
Si Si6 0.702222 0.000000 0.929487
Si Si7 0.709695 0.500000 0.253531
Si Si8 0.323465 0.788860 0.089120
O O1 0.443615 0.403618 0.041726
O O2 0.377667 0.258663 0.036861
O O3 0.500000 0.253760 0.000000
O O4 0.391056 0.301781 0.803360
O O5 0.382043 0.500000 0.180913
O O6 0.348531 0.500000 0.898730
O O7 0.188104 0.906916 0.688411
O O8 0.238808 0.000000 0.921777
O O9 0.664967 0.284002 0.482152
O O10 0.772520 0.270104 0.685972
O O11 0.668765 0.239028 0.750525
O O12 0.295962 0.594230 0.666206
O O13 0.670368 0.100544 0.926354
O O14 0.727867 0.000000 0.795777
O O15 0.250000 0.750000 0.000000
#
# Coordination Sequence:
#
# PCOD9191451 Si02
#       8
#     8   4   4   8   8   4   4   8
#     4  11  21  36  56  78 106 143 180 218 263 318
#     4   9  17  30  54  75 104 138 181 211 252 317
#     4  11  17  29  51  80 103 140 172 221 263 309
#     4  11  20  31  53  78 112 136 174 221 268 308
#     4  10  20  33  49  81 111 137 173 222 267 314
#     4  11  18  28  54  81 105 132 182 219 252 315
#     4   9  15  29  50  76 107 137 166 216 265 309
#     4  12  19  36  56  81 105 140 179 217 262 312
#
# _framework density 16.295159999999999
#
# number of rings (size 3 to 8) (size 9 to 14) (size 15 to 20)
#    0.000    1.333    6.667    1.750    0.000    0.000 
#    0.000    1.250    0.000    1.000    0.000    1.167 
#    0.000    0.000    0.000    0.000    0.000    0.000 
#
# Total GULP energy -133733.057208 kJ/mol
# GULP energy per Si atom -5572.210717 kJ/mol
# Density = 1.625807 g / cm^3
# Si number density = 16.295160 Si / 1000 Ang^3
#
#
#
# Elastic Constant Matrix: (Units=GPa)
#
#
# Indices 1 2 3 4 5 6 
#
# 1 98.7026 37.1352 43.2206 0.0000 -13.0908 0.0000
# 2 37.1352 93.6415 15.5670 0.0000 -9.1806 0.0000
# 3 43.2206 15.5670 101.5790 0.0000 -19.6776 0.0000
# 4 0.0000 0.0000 0.0000 23.2216 0.0000 -7.5242
# 5 -13.0908 -9.1806 -19.6776 0.0000 19.1248 0.0000
# 6 0.0000 0.0000 0.0000 -7.5242 0.0000 11.8012
#
#
#
# Elastic Compliance Matrix: (Units=1/GPa)
#
#
# Indices 1 2 3 4 5 6 
#
# 1 0.014360 -0.004628 -0.004905 0.000000 0.002561 0.000000
# 2 -0.004628 0.012756 0.000733 0.000000 0.003710 0.000000
# 3 -0.004905 0.000733 0.014034 0.000000 0.011434 0.000000
# 4 0.000000 0.000000 0.000000 0.054276 0.000000 0.034605
# 5 0.002561 0.003710 0.011434 0.000000 0.067587 0.000000
# 6 0.000000 0.000000 0.000000 0.034605 0.000000 0.106801
#
#
# Mechanical properties :
#
#
# Convention : Reuss Voigt Hill
#
# Bulk Modulus (GPa) = 42.46157 53.97432 48.21795
# Shear Modulus (GPa) = 16.93396 24.02953 20.48175
#
# Velocity S-wave (km/s) = 3.22716 3.84427 3.54916
# Velocity P-wave (km/s) = 6.32459 7.27320 6.81542
#
# Compressibility (1/GPa) = 0.02355070
#
# Stress axis : x y z
#
# Youngs Moduli (GPa) = 69.63716 78.39265 71.25493
#
# Poissons Ratio (x) = 0.36283 0.34948
# Poissons Ratio (y) = 0.32230 -0.05223
# Poissons Ratio (z) = 0.34154 -0.05746
#
# Static dielectric constant tensor:
#      x y z
#    x 1.548090 0.000000 -0.009390 
#    y 0.000000 1.594390 0.000000 
#    z -0.009390 0.000000 1.548390 
# 
# From -- ./inp_files/86003.got.cif
#   From: 2010.05.17/outbox.cif.g08.bks.cpg/sg12_44_cif.got.tgz:86003.got - 2010.06.03 13:09:07.
