data_PCOD9191660
_publ_section_title
;
Structure prediction by ZEFSAII (Michael W. Deem and Ramdas Pophale) SiO2 
 PCOD9191660
Probable space group: C 2/M
;
_chemical_formula_sum "Si O2"
_cell_formula_units_Z 64
_cell_length_a 29.934539
_cell_length_b 7.759014
_cell_length_c 15.804211
_cell_angle_alpha 90.000000
_cell_angle_beta 130.787228
_cell_angle_gamma 90.000000
_cell_volume 2779.255779
_symmetry_space_group_name_H-M "C 2/M"
_symmetry_group_IT_number 12
_symmetry_cell_setting 'monoclinic'
loop_
_space_group_symop_operation_xyz
x,y,z
-x,y,-z
-x,-y,-z
x,-y,z
1/2+x,1/2+y,z
1/2-x,1/2+y,-z
1/2-x,1/2-y,-z
1/2+x,1/2-y,z
loop_
_atom_site_type_symbol
_atom_site_label
_atom_site_fract_x
_atom_site_fract_y
_atom_site_fract_z
Si Si1 0.717387 0.804838 0.583245
Si Si2 0.136748 0.196767 0.634648
Si Si3 0.970882 0.708904 0.601046
Si Si4 0.604550 0.793057 0.777235
Si Si5 0.183527 0.296051 0.173561
Si Si6 0.704514 0.207157 0.017614
Si Si7 0.934247 0.288466 0.894982
Si Si8 0.112968 0.290017 0.346022
O O1 0.673757 0.801469 0.611346
O O2 0.776985 0.726558 0.693907
O O3 0.676928 0.726281 0.458611
O O4 0.730760 0.000000 0.576400
O O5 0.068498 0.218129 0.523449
O O6 0.140095 0.248492 0.736055
O O7 0.156469 0.000000 0.649496
O O8 0.970988 0.500000 0.592301
O O9 0.935032 0.753527 0.641643
O O10 0.037772 0.771476 0.688336
O O11 0.641086 0.733336 0.903514
O O12 0.600924 0.000000 0.777346
O O13 0.178075 0.500000 0.155691
O O14 0.117382 0.230020 0.105642
O O15 0.213092 0.226922 0.123882
O O16 0.704902 0.000000 0.021695
O O17 0.750000 0.250000 0.000000
O O18 0.935386 0.500000 0.896318
O O19 0.911454 0.233817 0.774281
O O20 0.000000 0.231538 0.000000
O O21 0.117093 0.500000 0.349603
#
# Coordination Sequence:
#
# PCOD9191660 Si02
#       8
#     8   8   8   8   8   8   8   8
#     4  10  20  36  57  79 108 148 189 226 272 334
#     4  11  21  33  51  78 111 142 179 232 286 328
#     4   9  18  32  52  76 107 145 186 225 267 330
#     4  10  20  33  51  73 103 146 189 227 272 332
#     4  10  21  36  56  87 117 143 185 237 284 329
#     4  10  22  37  53  77 108 143 185 232 279 328
#     4   9  18  32  56  87 118 147 179 228 285 333
#     4   8  16  31  52  80 109 142 185 225 267 326
#
# _framework density 23.027749
#
# number of rings (size 3 to 8) (size 9 to 14) (size 15 to 20)
#    0.000    2.375    0.000    3.375    1.750    5.500 
#    0.000    0.000    0.000    3.375    0.000    0.000 
#    0.000    0.000    0.000    0.000    0.000    0.000 
#
# Total GULP energy -178723.939193 kJ/mol
# GULP energy per Si atom -5585.123100 kJ/mol
# Density = 2.297534 g / cm^3
# Si number density = 23.027749 Si / 1000 Ang^3
#
#
#
# Elastic Constant Matrix: (Units=GPa)
#
#
# Indices 1 2 3 4 5 6 
#
# 1 93.9671 3.7698 63.0673 0.0000 10.8576 0.0000
# 2 3.7698 28.3040 6.3521 0.0000 2.0663 0.0000
# 3 63.0673 6.3521 158.9828 0.0000 -0.9355 0.0000
# 4 0.0000 0.0000 0.0000 12.0484 0.0000 2.7705
# 5 10.8576 2.0663 -0.9355 0.0000 38.3307 0.0000
# 6 0.0000 0.0000 0.0000 2.7705 0.0000 8.3851
#
#
#
# Elastic Compliance Matrix: (Units=1/GPa)
#
#
# Indices 1 2 3 4 5 6 
#
# 1 0.015234 -0.000346 -0.006055 0.000000 -0.004444 0.000000
# 2 -0.000346 0.035806 -0.001305 0.000000 -0.001864 0.000000
# 3 -0.006055 -0.001305 0.008756 0.000000 0.001999 0.000000
# 4 0.000000 0.000000 0.000000 0.089823 0.000000 -0.029678
# 5 -0.004444 -0.001864 0.001999 0.000000 0.027497 0.000000
# 6 0.000000 0.000000 0.000000 -0.029678 0.000000 0.129065
#
#
# Mechanical properties :
#
#
# Convention : Reuss Voigt Hill
#
# Bulk Modulus (GPa) = 22.53053 47.51471 35.02262
# Shear Modulus (GPa) = 14.86387 25.62383 20.24385
#
# Velocity S-wave (km/s) = 2.54338 3.33939 2.96819
# Velocity P-wave (km/s) = 4.29306 5.96214 5.19507
#
# Compressibility (1/GPa) = 0.04438423
#
# Stress axis : x y z
#
# Youngs Moduli (GPa) = 65.64455 27.92866 114.20743
#
# Poissons Ratio (x) = 0.00965 0.69157
# Poissons Ratio (y) = 0.02268 0.14898
# Poissons Ratio (z) = 0.39750 0.03643
#
# Static dielectric constant tensor:
#      x y z
#    x 1.884780 0.000000 0.011220 
#    y 0.000000 1.853730 0.000000 
#    z 0.011220 0.000000 1.868230 
# 
# From -- ./inp_files/250081.got.cif
#   From: 2010.05.17/outbox.cif.g08.bks.cpg/sg12_126_cif.got.tgz:250081.got - 2010.06.03 13:09:07.
