data_PCOD9191352
_publ_section_title
;
Structure prediction by ZEFSAII (Michael W. Deem and Ramdas Pophale) SiO2 
 PCOD9191352
Probable space group: C 2/M
;
_chemical_formula_sum "Si O2"
_cell_formula_units_Z 56
_cell_length_a 21.211522
_cell_length_b 7.423740
_cell_length_c 16.719121
_cell_angle_alpha 90.000000
_cell_angle_beta 57.677117
_cell_angle_gamma 90.000000
_cell_volume 2224.792881
_symmetry_space_group_name_H-M "C 2/M"
_symmetry_group_IT_number 12
_symmetry_cell_setting 'monoclinic'
loop_
_space_group_symop_operation_xyz
x,y,z
-x,y,-z
-x,-y,-z
x,-y,z
1/2+x,1/2+y,z
1/2-x,1/2+y,-z
1/2-x,1/2-y,-z
1/2+x,1/2-y,z
loop_
_atom_site_type_symbol
_atom_site_label
_atom_site_fract_x
_atom_site_fract_y
_atom_site_fract_z
Si Si1 0.190983 0.720430 0.717917
Si Si2 0.287748 0.285599 0.060620
Si Si3 0.433781 0.285769 0.877981
Si Si4 0.641280 0.216265 0.240318
Si Si5 0.134679 0.706304 0.414692
Si Si6 0.661320 0.215008 0.566844
Si Si7 0.441051 0.206146 0.099465
O O1 0.194688 0.500000 0.715709
O O2 0.274899 0.791636 0.657696
O O3 0.148329 0.779489 0.665551
O O4 0.140122 0.782787 0.826467
O O5 0.292142 0.500000 0.068950
O O6 0.225113 0.212407 0.164008
O O7 0.250000 0.250000 0.000000
O O8 0.371225 0.219292 0.984825
O O9 0.438209 0.500000 0.882399
O O10 0.407367 0.247867 0.805796
O O11 0.511981 0.204245 0.850160
O O12 0.609460 0.285517 0.346534
O O13 0.647220 0.000000 0.244740
O O14 0.107665 0.500000 0.436834
O O15 0.123511 0.787003 0.511082
O O16 0.750000 0.250000 0.500000
O O17 0.649332 0.000000 0.574019
O O18 0.429820 0.000000 0.082683
O O19 0.500000 0.296341 0.000000
#
# Coordination Sequence:
#
# PCOD9191352 Si02
#       7
#     8   8   8   8   8   8   8
#     4   9  18  32  49  69  97 130 161 196 238 282
#     4   8  15  27  42  62  87 116 149 183 225 271
#     4  10  20  33  49  69  93 124 162 201 237 278
#     4   9  17  30  48  70  97 126 152 188 239 290
#     4   9  17  28  49  78 102 123 152 193 240 290
#     4   8  14  27  46  70  97 123 153 191 237 285
#     4  10  22  37  50  67  93 130 169 200 233 277
#
# _framework density 25.170883
#
# number of rings (size 3 to 8) (size 9 to 14) (size 15 to 20)
#    0.000    3.000    0.000    0.429    2.000    2.000 
#    0.000    0.000    0.000    0.857    0.000    6.000 
#    0.000    0.000    0.000    0.000    0.000    0.000 
#
# Total GULP energy -156183.128525 kJ/mol
# GULP energy per Si atom -5577.968876 kJ/mol
# Density = 2.511359 g / cm^3
# Si number density = 25.170883 Si / 1000 Ang^3
#
#
#
# Elastic Constant Matrix: (Units=GPa)
#
#
# Indices 1 2 3 4 5 6 
#
# 1 76.8821 5.0717 0.4298 0.0000 22.0882 0.0001
# 2 5.0717 108.6920 2.9507 -0.0002 10.8875 0.0003
# 3 0.4298 2.9507 73.8305 0.0001 30.1598 -0.0001
# 4 0.0000 -0.0002 0.0001 3.3636 0.0000 5.3118
# 5 22.0882 10.8875 30.1598 0.0000 46.3588 -0.0001
# 6 0.0001 0.0003 -0.0001 5.3118 -0.0001 13.6775
#
#
#
# Elastic Compliance Matrix: (Units=1/GPa)
#
#
# Indices 1 2 3 4 5 6 
#
# 1 0.015934 0.000177 0.004111 0.000001 -0.010308 0.000000
# 2 0.000177 0.009452 0.000766 0.000002 -0.002803 -0.000001
# 3 0.004111 0.000766 0.019563 -0.000001 -0.014866 0.000000
# 4 0.000001 0.000002 -0.000001 0.768822 -0.000001 -0.298579
# 5 -0.010308 -0.002803 -0.014866 -0.000001 0.036812 0.000000
# 6 0.000000 -0.000001 0.000000 -0.298579 0.000000 0.189069
#
#
# Mechanical properties :
#
#
# Convention : Reuss Voigt Hill
#
# Bulk Modulus (GPa) = 18.16286 30.70099 24.43193
# Shear Modulus (GPa) = 4.77147 29.41014 17.09081
#
# Velocity S-wave (km/s) = 1.37831 3.42192 2.60857
# Velocity P-wave (km/s) = 3.12482 5.27601 4.33594
#
# Compressibility (1/GPa) = 0.05505741
#
# Stress axis : x y z
#
# Youngs Moduli (GPa) = 62.75998 105.79786 51.11805
#
# Poissons Ratio (x) = -0.01877 -0.21014
# Poissons Ratio (y) = -0.01114 -0.03916
# Poissons Ratio (z) = -0.25800 -0.08106
#
# Static dielectric constant tensor:
#      x y z
#    x 2.143980 0.000000 0.142990 
#    y 0.000000 1.953820 0.000000 
#    z 0.142990 0.000000 2.116930 
# 
# From -- ./inp_files/287323.got.cif
#   From: 2010.05.17/outbox.cif.g08.bks.cpg/sg12_144_cif.got.tgz:287323.got - 2010.06.03 13:09:07.
