data_PCOD9191117
_publ_section_title
;
Structure prediction by ZEFSAII (Michael W. Deem and Ramdas Pophale) SiO2 
 PCOD9191117
Probable space group: C 2/M
;
_chemical_formula_sum "Si O2"
_cell_formula_units_Z 64
_cell_length_a 20.856485
_cell_length_b 8.948392
_cell_length_c 22.296919
_cell_angle_alpha 90.000000
_cell_angle_beta 62.309304
_cell_angle_gamma 90.000000
_cell_volume 3684.719084
_symmetry_space_group_name_H-M "C 2/M"
_symmetry_group_IT_number 12
_symmetry_cell_setting 'monoclinic'
loop_
_space_group_symop_operation_xyz
x,y,z
-x,y,-z
-x,-y,-z
x,-y,z
1/2+x,1/2+y,z
1/2-x,1/2+y,-z
1/2-x,1/2-y,-z
1/2+x,1/2-y,z
loop_
_atom_site_type_symbol
_atom_site_label
_atom_site_fract_x
_atom_site_fract_y
_atom_site_fract_z
Si Si1 0.584718 0.820066 0.464857
Si Si2 0.790979 0.820434 0.038549
Si Si3 0.829492 0.179192 0.462458
Si Si4 0.960542 0.179295 0.955869
Si Si5 0.201089 0.321559 0.317589
Si Si6 0.647533 0.677659 0.682645
Si Si7 0.923234 0.677763 0.175631
Si Si8 0.773554 0.320851 0.173903
O O1 0.500000 0.782932 0.500000
O O2 0.622698 0.742809 0.504680
O O3 0.629101 0.778762 0.385336
O O4 0.591981 0.000000 0.467984
O O5 0.763870 0.753952 0.113503
O O6 0.783743 0.000000 0.041993
O O7 0.750000 0.750000 0.000000
O O8 0.876210 0.782468 0.995468
O O9 0.750000 0.250000 0.500000
O O10 0.860729 0.217251 0.383175
O O11 0.823892 0.000000 0.468745
O O12 0.004701 0.251696 0.882677
O O13 0.033310 0.000000 0.051022
O O14 0.000000 0.227822 0.000000
O O15 0.199724 0.500000 0.306875
O O16 0.269979 0.291637 0.331330
O O17 0.217700 0.237330 0.248519
O O18 0.636313 0.500000 0.694556
O O19 0.595409 0.763908 0.750277
O O20 0.927991 0.500000 0.172975
O O21 0.853616 0.721378 0.164678
O O22 0.770088 0.500000 0.170732
#
# Coordination Sequence:
#
# PCOD9191117 Si02
#       8
#     8   8   8   8   8   8   8   8
#     4  10  21  38  58  83 116 152 191 235 285 340
#     4  11  23  39  59  83 113 149 186 228 277 332
#     4  11  21  35  57  84 113 146 188 234 283 336
#     4  10  20  36  58  82 109 144 183 220 272 333
#     4   9  17  33  55  79 108 146 189 228 278 335
#     4   9  18  33  53  78 110 147 187 230 280 338
#     4  10  20  32  53  85 115 143 182 234 280 321
#     4  10  20  34  54  83 113 144 186 231 276 327
#
# _framework density 17.369029999999999
#
# number of rings (size 3 to 8) (size 9 to 14) (size 15 to 20)
#    0.000    2.000    2.500    1.500    0.000    4.000 
#    0.000    1.250    0.000    3.000    0.000    0.000 
#    0.000    0.000    0.000    0.000    0.000    0.000 
#
# Total GULP energy -178625.620102 kJ/mol
# GULP energy per Si atom -5582.050628 kJ/mol
# Density = 1.732950 g / cm^3
# Si number density = 17.369030 Si / 1000 Ang^3
#
#
#
# Elastic Constant Matrix: (Units=GPa)
#
#
# Indices 1 2 3 4 5 6 
#
# 1 102.1060 48.7041 78.8850 0.0000 5.4239 -0.0002
# 2 48.7041 37.6500 60.1756 0.0001 3.2862 -0.0004
# 3 78.8850 60.1756 172.5677 0.0000 2.7958 0.0000
# 4 0.0000 0.0001 0.0000 27.4461 0.0000 6.0238
# 5 5.4239 3.2862 2.7958 0.0000 28.4324 0.0000
# 6 -0.0002 -0.0004 0.0000 6.0238 0.0000 23.6063
#
#
#
# Elastic Compliance Matrix: (Units=1/GPa)
#
#
# Indices 1 2 3 4 5 6 
#
# 1 0.025617 -0.032427 -0.000385 0.000000 -0.001101 0.000000
# 2 -0.032427 0.101734 -0.020595 -0.000001 -0.003547 0.000002
# 3 -0.000385 -0.020595 0.013133 0.000000 0.001162 0.000000
# 4 0.000000 -0.000001 0.000000 0.038597 0.000000 -0.009849
# 5 -0.001101 -0.003547 0.001162 0.000000 0.035677 0.000000
# 6 0.000000 0.000002 0.000000 -0.009849 0.000000 0.044875
#
#
# Mechanical properties :
#
#
# Convention : Reuss Voigt Hill
#
# Bulk Modulus (GPa) = 29.69884 76.42813 53.06349
# Shear Modulus (GPa) = 13.23904 24.20091 18.71997
#
# Velocity S-wave (km/s) = 2.76383 3.73679 3.28652
# Velocity P-wave (km/s) = 5.22694 7.91936 6.70959
#
# Compressibility (1/GPa) = 0.03367135
#
# Stress axis : x y z
#
# Youngs Moduli (GPa) = 39.03629 9.82951 76.14179
#
# Poissons Ratio (x) = 0.31875 0.02929
# Poissons Ratio (y) = 1.26585 1.56812
# Poissons Ratio (z) = 0.01502 0.20244
#
# Static dielectric constant tensor:
#      x y z
#    x 1.569390 0.000000 -0.003430 
#    y 0.000000 1.576170 0.000000 
#    z -0.003430 0.000000 1.582790 
# 
# From -- ./inp_files/319940.got.cif
#   From: 2010.05.17/outbox.cif.g08.bks.cpg/sg12_160_cif.got.tgz:319940.got - 2010.06.03 13:09:07.
