data_PCOD9191443
_publ_section_title
;
Structure prediction by ZEFSAII (Michael W. Deem and Ramdas Pophale) SiO2 
 PCOD9191443
Probable space group: C 2/M
;
_chemical_formula_sum "Si O2"
_cell_formula_units_Z 56
_cell_length_a 26.351634
_cell_length_b 14.366857
_cell_length_c 24.483294
_cell_angle_alpha 90.000000
_cell_angle_beta 160.442175
_cell_angle_gamma 90.000000
_cell_volume 3102.917149
_symmetry_space_group_name_H-M "C 2/M"
_symmetry_group_IT_number 12
_symmetry_cell_setting 'monoclinic'
loop_
_space_group_symop_operation_xyz
x,y,z
-x,y,-z
-x,-y,-z
x,-y,z
1/2+x,1/2+y,z
1/2-x,1/2+y,-z
1/2-x,1/2-y,-z
1/2+x,1/2-y,z
loop_
_atom_site_type_symbol
_atom_site_label
_atom_site_fract_x
_atom_site_fract_y
_atom_site_fract_z
Si Si1 0.017657 0.106982 0.386942
Si Si2 0.119654 0.394068 0.505411
Si Si3 0.600101 0.255784 0.919326
Si Si4 0.254276 0.242439 0.569694
Si Si5 0.285943 0.395333 0.049942
Si Si6 0.844737 0.731637 0.263536
Si Si7 0.818310 0.107355 0.814633
O O1 0.160842 0.159863 0.504715
O O2 0.896243 0.104060 0.214260
O O3 0.941367 0.171834 0.356736
O O4 0.048791 0.000000 0.434884
O O5 0.091447 0.500000 0.463102
O O6 0.177516 0.335871 0.513420
O O7 0.246548 0.388918 0.681571
O O8 0.967256 0.345984 0.371662
O O9 0.429302 0.240659 0.764102
O O10 0.624023 0.349729 0.908879
O O11 0.649961 0.173189 0.928693
O O12 0.714743 0.259197 0.086025
O O13 0.250000 0.250000 0.500000
O O14 0.236864 0.500000 0.988284
O O15 0.764068 0.689286 0.235040
O O16 0.787618 0.000000 0.803863
O O17 0.000000 0.119446 0.000000
#
# Coordination Sequence:
#
# PCOD9191443 Si02
#       7
#     8   8   8   8   8   8   8
#     4   9  19  36  54  76 106 145 186 224 274 328
#     4  10  22  37  55  83 114 147 186 224 275 338
#     4  10  20  33  49  77 107 136 186 227 269 330
#     4  11  21  35  54  77 109 144 183 234 277 323
#     4   9  18  32  49  69 102 142 178 222 270 319
#     4  10  20  35  57  80 111 147 181 229 274 330
#     4  10  20  36  59  87 116 146 181 224 280 336
#
# _framework density 18.047533000000001
#
# number of rings (size 3 to 8) (size 9 to 14) (size 15 to 20)
#    0.000    2.143    1.429    1.714    2.000    4.000 
#    0.000    0.000    0.000    7.286    0.000    0.000 
#    0.000    0.000    0.000    0.000    0.000    0.000 
#
# Total GULP energy -156095.212242 kJ/mol
# GULP energy per Si atom -5574.829009 kJ/mol
# Density = 1.800646 g / cm^3
# Si number density = 18.047533 Si / 1000 Ang^3
#
#
#
# Elastic Constant Matrix: (Units=GPa)
#
#
# Indices 1 2 3 4 5 6 
#
# 1 58.9762 35.6623 -3.4422 -0.0048 8.6026 -0.0020
# 2 35.6623 132.6488 0.7070 -0.0038 9.4373 -0.0010
# 3 -3.4422 0.7070 54.0766 -0.0051 9.2189 -0.0016
# 4 -0.0048 -0.0038 -0.0051 15.7296 -0.0008 -5.7598
# 5 8.6026 9.4373 9.2189 -0.0008 21.6541 -0.0003
# 6 -0.0020 -0.0010 -0.0016 -5.7598 -0.0003 14.8433
#
#
#
# Elastic Compliance Matrix: (Units=1/GPa)
#
#
# Indices 1 2 3 4 5 6 
#
# 1 0.021346 -0.005231 0.002679 0.000008 -0.007341 0.000006
# 2 -0.005231 0.009075 -0.000142 0.000000 -0.001817 0.000000
# 3 0.002679 -0.000142 0.020310 0.000009 -0.009649 0.000006
# 4 0.000008 0.000000 0.000009 0.074104 -0.000004 0.028755
# 5 -0.007341 -0.001817 -0.009649 -0.000004 0.053997 -0.000003
# 6 0.000006 0.000000 0.000006 0.028755 -0.000003 0.078528
#
#
# Mechanical properties :
#
#
# Convention : Reuss Voigt Hill
#
# Bulk Modulus (GPa) = 22.05439 34.61729 28.33584
# Shear Modulus (GPa) = 17.99455 24.63037 21.31246
#
# Velocity S-wave (km/s) = 3.16106 3.69826 3.44016
# Velocity P-wave (km/s) = 5.05665 6.12037 5.61377
#
# Compressibility (1/GPa) = 0.04534245
#
# Stress axis : x y z
#
# Youngs Moduli (GPa) = 46.84676 110.19272 49.23788
#
# Poissons Ratio (x) = 0.57640 -0.13189
# Poissons Ratio (y) = 0.24505 0.00699
# Poissons Ratio (z) = -0.12549 0.01564
#
# Static dielectric constant tensor:
#      x y z
#    x 1.648050 0.000000 0.005260 
#    y 0.000000 1.629370 0.000000 
#    z 0.005260 0.000000 1.619490 
# 
# From -- ./inp_files/96495.got.cif
#   From: 2010.05.17/outbox.cif.g08.bks.cpg/sg12_49_cif.got.tgz:96495.got - 2010.06.03 13:09:07.
