data_PCOD9191926
_publ_section_title
;
Structure prediction by ZEFSAII (Michael W. Deem and Ramdas Pophale) SiO2 
 PCOD9191926
Probable space group: C 2/M
;
_chemical_formula_sum "Si O2"
_cell_formula_units_Z 64
_cell_length_a 14.617609
_cell_length_b 9.374623
_cell_length_c 27.690826
_cell_angle_alpha 90.000000
_cell_angle_beta 107.646733
_cell_angle_gamma 90.000000
_cell_volume 3616.040763
_symmetry_space_group_name_H-M "C 2/M"
_symmetry_group_IT_number 12
_symmetry_cell_setting 'monoclinic'
loop_
_space_group_symop_operation_xyz
x,y,z
-x,y,-z
-x,-y,-z
x,-y,z
1/2+x,1/2+y,z
1/2-x,1/2+y,-z
1/2-x,1/2-y,-z
1/2+x,1/2-y,z
loop_
_atom_site_type_symbol
_atom_site_label
_atom_site_fract_x
_atom_site_fract_y
_atom_site_fract_z
Si Si1 0.890265 0.668131 0.118722
Si Si2 0.608111 0.328841 0.503761
Si Si3 0.023637 0.167825 0.778813
Si Si4 0.491049 0.330218 0.054542
Si Si5 0.224723 0.832435 0.757568
Si Si6 0.325884 0.329332 0.693493
Si Si7 0.309328 0.666894 0.859227
Si Si8 0.213356 0.829400 0.422574
O O1 0.909084 0.500000 0.118703
O O2 0.781340 0.688573 0.119793
O O3 0.956702 0.740283 0.170419
O O4 0.912097 0.744356 0.071858
O O5 0.500000 0.285954 0.500000
O O6 0.615498 0.500000 0.511581
O O7 0.688539 0.251236 0.548596
O O8 0.637030 0.296788 0.452828
O O9 0.927617 0.205590 0.734721
O O10 0.116114 0.186181 0.759165
O O11 0.018626 0.000000 0.791721
O O12 0.471305 0.500000 0.053723
O O13 0.592369 0.303796 0.097386
O O14 0.500000 0.289928 0.000000
O O15 0.245777 0.752430 0.711264
O O16 0.291431 0.762639 0.809551
O O17 0.244003 0.000000 0.756175
O O18 0.312529 0.500000 0.695525
O O19 0.322669 0.291916 0.636570
O O20 0.309061 0.500000 0.844331
O O21 0.229918 0.000000 0.426588
#
# Coordination Sequence:
#
# PCOD9191926 Si02
#       8
#     8   8   8   8   8   8   8   8
#     4  10  20  34  53  76 101 129 164 207 251 295
#     4   9  18  34  56  77  99 132 172 212 252 294
#     4   9  19  35  53  73 100 135 169 200 243 300
#     4  10  21  36  53  73  98 131 169 205 248 305
#     4  10  20  33  52  78 102 129 170 211 244 289
#     4  10  20  34  51  72 104 140 166 198 249 302
#     4   9  19  36  54  72 100 135 165 200 252 305
#     4   9  19  34  51  75 104 133 168 207 250 299
#
# _framework density 17.698915
#
# number of rings (size 3 to 8) (size 9 to 14) (size 15 to 20)
#    0.000    2.500    0.000    1.500    0.000    7.500 
#    0.000    2.500    0.000    0.000    0.000    0.000 
#    0.000    0.000    0.000    0.000    0.000    0.000 
#
# Total GULP energy -178591.445183 kJ/mol
# GULP energy per Si atom -5580.982662 kJ/mol
# Density = 1.765863 g / cm^3
# Si number density = 17.698915 Si / 1000 Ang^3
#
#
#
# Elastic Constant Matrix: (Units=GPa)
#
#
# Indices 1 2 3 4 5 6 
#
# 1 75.4842 31.1650 29.3050 0.0000 -11.2034 0.0000
# 2 31.1650 29.0890 31.5085 0.0000 -10.5444 0.0000
# 3 29.3050 31.5085 72.3238 0.0000 -21.3544 0.0000
# 4 0.0000 0.0000 0.0000 29.3167 0.0000 -5.4371
# 5 -11.2034 -10.5444 -21.3544 0.0000 15.4210 0.0000
# 6 0.0000 0.0000 0.0000 -5.4371 0.0000 24.7604
#
#
#
# Elastic Compliance Matrix: (Units=1/GPa)
#
#
# Indices 1 2 3 4 5 6 
#
# 1 0.024125 -0.028663 0.003553 0.000000 0.002848 0.000000
# 2 -0.028663 0.099874 -0.030250 0.000000 0.005577 0.000000
# 3 0.003553 -0.030250 0.034207 0.000000 0.029265 0.000000
# 4 0.000000 0.000000 0.000000 0.035558 0.000000 0.007808
# 5 0.002848 0.005577 0.029265 0.000000 0.111255 0.000000
# 6 0.000000 0.000000 0.000000 0.007808 0.000000 0.042102
#
#
# Mechanical properties :
#
#
# Convention : Reuss Voigt Hill
#
# Bulk Modulus (GPa) = 21.05912 40.09489 30.57701
# Shear Modulus (GPa) = 10.55588 19.56085 15.05837
#
# Velocity S-wave (km/s) = 2.44481 3.32806 2.92002
# Velocity P-wave (km/s) = 4.46025 6.12136 5.35560
#
# Compressibility (1/GPa) = 0.04748537
#
# Stress axis : x y z
#
# Youngs Moduli (GPa) = 41.45051 10.01266 29.23391
#
# Poissons Ratio (x) = 0.28699 -0.10386
# Poissons Ratio (y) = 1.18809 0.88433
# Poissons Ratio (z) = -0.14727 0.30288
#
# Static dielectric constant tensor:
#      x y z
#    x 1.604840 0.000000 -0.016200 
#    y 0.000000 1.589090 0.000000 
#    z -0.016200 0.000000 1.581640 
# 
# From -- ./inp_files/359697.got.cif
#   From: 2010.05.17/outbox.cif.g08.bks.cpg/sg12_180_cif.got.tgz:359697.got - 2010.06.03 13:09:07.
