data_PCOD9191249
_publ_section_title
;
Structure prediction by ZEFSAII (Michael W. Deem and Ramdas Pophale) SiO2 
 PCOD9191249
Probable space group: C 2/M
;
_chemical_formula_sum "Si O2"
_cell_formula_units_Z 56
_cell_length_a 29.326184
_cell_length_b 9.122289
_cell_length_c 14.653281
_cell_angle_alpha 90.000000
_cell_angle_beta 76.478673
_cell_angle_gamma 90.000000
_cell_volume 3811.421099
_symmetry_space_group_name_H-M "C 2/M"
_symmetry_group_IT_number 12
_symmetry_cell_setting 'monoclinic'
loop_
_space_group_symop_operation_xyz
x,y,z
-x,y,-z
-x,-y,-z
x,-y,z
1/2+x,1/2+y,z
1/2-x,1/2+y,-z
1/2-x,1/2-y,-z
1/2+x,1/2-y,z
loop_
_atom_site_type_symbol
_atom_site_label
_atom_site_fract_x
_atom_site_fract_y
_atom_site_fract_z
Si Si1 0.759907 0.324606 0.280378
Si Si2 0.427946 0.325800 0.196966
Si Si3 0.780982 0.676009 0.062727
Si Si4 0.482589 0.831488 0.902421
Si Si5 0.888901 0.676822 0.031697
Si Si6 0.854648 0.325878 0.351850
Si Si7 0.790263 0.324981 0.542385
O O1 0.753187 0.500000 0.291058
O O2 0.764292 0.283682 0.172650
O O3 0.809693 0.292898 0.307420
O O4 0.718867 0.242160 0.354126
O O5 0.426298 0.500000 0.193059
O O6 0.481462 0.268773 0.169144
O O7 0.398550 0.264728 0.295770
O O8 0.403295 0.256099 0.118625
O O9 0.777547 0.500000 0.056923
O O10 0.750000 0.750000 0.000000
O O11 0.836052 0.714420 0.029631
O O12 0.428216 0.787652 0.937322
O O13 0.486188 0.000000 0.869454
O O14 0.500000 0.828741 0.000000
O O15 0.891465 0.500000 0.046212
O O16 0.863776 0.500000 0.338411
O O17 0.837606 0.295618 0.463161
O O18 0.783638 0.500000 0.546719
O O19 0.750000 0.250000 0.500000
#
# Coordination Sequence:
#
# PCOD9191249 Si02
#       7
#     8   8   8   8   8   8   8
#     4   9  17  30  45  58  81 113 143 180 217 250
#     4  11  19  24  38  64  89 110 138 178 213 248
#     4  10  20  33  47  64  85 112 149 187 219 251
#     4   8  15  27  43  57  75 111 146 169 204 257
#     4   9  17  32  46  55  78 115 148 175 210 257
#     4   9  16  28  42  57  83 117 145 169 204 255
#     4   9  17  27  41  60  82 109 142 176 210 253
#
# _framework density 14.692683000000001
#
# number of rings (size 3 to 8) (size 9 to 14) (size 15 to 20)
#    0.000    2.714    1.429    3.429    0.000    6.571 
#    0.000    0.000    0.000    0.000    0.000    0.000 
#    0.000    1.143    0.000   12.857    0.000    6.429 
#
# Total GULP energy -155910.062890 kJ/mol
# GULP energy per Si atom -5568.216532 kJ/mol
# Density = 1.465924 g / cm^3
# Si number density = 14.692683 Si / 1000 Ang^3
#
#
#
# Elastic Constant Matrix: (Units=GPa)
#
#
# Indices 1 2 3 4 5 6 
#
# 1 73.5142 37.6315 62.6286 0.0000 -21.2262 0.0000
# 2 37.6315 50.0640 50.9292 0.0000 -23.3588 0.0000
# 3 62.6286 50.9292 106.5248 0.0000 -29.4034 0.0000
# 4 0.0000 0.0000 0.0000 24.7871 0.0000 -2.7801
# 5 -21.2262 -23.3588 -29.4034 0.0000 26.5941 0.0000
# 6 0.0000 0.0000 0.0000 -2.7801 0.0000 16.6979
#
#
#
# Elastic Compliance Matrix: (Units=1/GPa)
#
#
# Indices 1 2 3 4 5 6 
#
# 1 0.029150 -0.007908 -0.012741 0.000000 0.002234 0.000000
# 2 -0.007908 0.049690 -0.012669 0.000000 0.023326 0.000000
# 3 -0.012741 -0.012669 0.024548 0.000000 0.005845 0.000000
# 4 0.000000 0.000000 0.000000 0.041111 0.000000 0.006845
# 5 0.002234 0.023326 0.005845 0.000000 0.066336 0.000000
# 6 0.000000 0.000000 0.000000 0.006845 0.000000 0.061027
#
#
# Mechanical properties :
#
#
# Convention : Reuss Voigt Hill
#
# Bulk Modulus (GPa) = 27.20857 59.16464 43.18660
# Shear Modulus (GPa) = 14.25526 18.87671 16.56598
#
# Velocity S-wave (km/s) = 3.11823 3.58826 3.36147
# Velocity P-wave (km/s) = 5.61454 7.58439 6.67256
#
# Compressibility (1/GPa) = 0.03675313
#
# Stress axis : x y z
#
# Youngs Moduli (GPa) = 34.30543 20.12492 40.73622
#
# Poissons Ratio (x) = 0.15915 0.51900
# Poissons Ratio (y) = 0.27129 0.51607
# Poissons Ratio (z) = 0.43707 0.25495
#
# Static dielectric constant tensor:
#      x y z
#    x 1.477930 0.000000 -0.037570 
#    y 0.000000 1.487670 0.000000 
#    z -0.037570 0.000000 1.505430 
# 
# From -- ./inp_files/247720.got.cif
#   From: 2010.05.17/outbox.cif.g08.bks.cpg/sg12_124_cif.got.tgz:247720.got - 2010.06.03 13:09:07.
