data_PCOD9191691
_publ_section_title
;
Structure prediction by ZEFSAII (Michael W. Deem and Ramdas Pophale) SiO2 
 PCOD9191691
Probable space group: C 2/M
;
_chemical_formula_sum "Si O2"
_cell_formula_units_Z 64
_cell_length_a 21.682291
_cell_length_b 9.776429
_cell_length_c 22.077783
_cell_angle_alpha 90.000000
_cell_angle_beta 50.962786
_cell_angle_gamma 90.000000
_cell_volume 3635.087766
_symmetry_space_group_name_H-M "C 2/M"
_symmetry_group_IT_number 12
_symmetry_cell_setting 'monoclinic'
loop_
_space_group_symop_operation_xyz
x,y,z
-x,y,-z
-x,-y,-z
x,-y,z
1/2+x,1/2+y,z
1/2-x,1/2+y,-z
1/2-x,1/2-y,-z
1/2+x,1/2-y,z
loop_
_atom_site_type_symbol
_atom_site_label
_atom_site_fract_x
_atom_site_fract_y
_atom_site_fract_z
Si Si1 0.744646 0.651445 0.801453
Si Si2 0.469090 0.160615 0.317124
Si Si3 0.912790 0.156710 0.567097
Si Si4 0.317384 0.656817 0.428178
Si Si5 0.438473 0.660870 0.088543
Si Si6 0.915464 0.647844 0.212923
Si Si7 0.113334 0.842571 0.272070
Si Si8 0.255224 0.723283 0.337577
O O1 0.769794 0.500000 0.807000
O O2 0.653179 0.675101 0.875093
O O3 0.801115 0.772206 0.788786
O O4 0.748858 0.650034 0.725051
O O5 0.398048 0.256449 0.386107
O O6 0.456182 0.159817 0.252824
O O7 0.549168 0.239390 0.284134
O O8 0.466215 0.000000 0.338822
O O9 0.902002 0.154135 0.646149
O O10 0.833865 0.229773 0.591325
O O11 0.000000 0.217368 0.500000
O O12 0.913188 0.000000 0.543995
O O13 0.322260 0.500000 0.447854
O O14 0.250000 0.750000 0.500000
O O15 0.294003 0.650222 0.371288
O O16 0.453089 0.500000 0.089130
O O17 0.442893 0.737882 0.149446
O O18 0.500000 0.710734 0.000000
O O19 0.932764 0.500000 0.175367
O O20 0.820536 0.659511 0.283446
O O21 0.108204 0.000000 0.253540
#
# Coordination Sequence:
#
# PCOD9191691 Si02
#       8
#     8   8   8   8   8   8   8   8
#     4   9  17  32  54  75 101 135 166 204 252 302
#     4  10  21  37  54  74 101 134 175 217 258 307
#     4   9  18  30  46  69  97 128 163 210 263 305
#     4  11  23  36  51  72  99 132 172 218 268 314
#     4   9  18  32  53  83 113 138 167 205 252 305
#     4   9  18  32  52  77 102 134 170 208 256 305
#     4  10  20  33  51  75 101 133 174 214 253 307
#     4   9  18  32  51  70  97 130 171 211 253 306
#
# _framework density 17.606178
#
# number of rings (size 3 to 8) (size 9 to 14) (size 15 to 20)
#    0.000    2.500    0.000    1.875    1.750    8.250 
#    0.000    0.000    0.000    3.000    0.000    0.000 
#    0.000    0.000    0.000    0.000    0.000    0.000 
#
# Total GULP energy -178241.750583 kJ/mol
# GULP energy per Si atom -5570.054706 kJ/mol
# Density = 1.756611 g / cm^3
# Si number density = 17.606178 Si / 1000 Ang^3
#
#
#
# Elastic Constant Matrix: (Units=GPa)
#
#
# Indices 1 2 3 4 5 6 
#
# 1 54.3990 37.3169 4.1872 0.0000 -13.1558 0.0000
# 2 37.3169 127.5408 31.4798 0.0000 -11.2103 0.0000
# 3 4.1872 31.4798 70.1470 0.0000 -17.8692 0.0000
# 4 0.0000 0.0000 0.0000 16.8587 0.0000 -0.6186
# 5 -13.1558 -11.2103 -17.8692 0.0000 15.6841 0.0000
# 6 0.0000 0.0000 0.0000 -0.6186 0.0000 6.1052
#
#
#
# Elastic Compliance Matrix: (Units=1/GPa)
#
#
# Indices 1 2 3 4 5 6 
#
# 1 0.031315 -0.008900 0.010138 0.000000 0.031456 0.000000
# 2 -0.008900 0.011418 -0.006221 0.000000 -0.006392 0.000000
# 3 0.010138 -0.006221 0.024622 0.000000 0.032109 0.000000
# 4 0.000000 0.000000 0.000000 0.059538 0.000000 0.006033
# 5 0.031456 -0.006392 0.032109 0.000000 0.122158 0.000000
# 6 0.000000 0.000000 0.000000 0.006033 0.000000 0.164406
#
#
# Mechanical properties :
#
#
# Convention : Reuss Voigt Hill
#
# Bulk Modulus (GPa) = 17.42509 44.22827 30.82668
# Shear Modulus (GPa) = 11.29810 19.66979 15.48394
#
# Velocity S-wave (km/s) = 2.53595 3.34609 2.96879
# Velocity P-wave (km/s) = 4.30039 6.33276 5.41282
#
# Compressibility (1/GPa) = 0.05738852
#
# Stress axis : x y z
#
# Youngs Moduli (GPa) = 31.93403 87.57895 40.61415
#
# Poissons Ratio (x) = 0.77942 -0.41173
# Poissons Ratio (y) = 0.28420 0.25267
# Poissons Ratio (z) = -0.32374 0.54484
#
# Static dielectric constant tensor:
#      x y z
#    x 1.611530 0.000000 -0.005770 
#    y 0.000000 1.626160 0.000000 
#    z -0.005770 0.000000 1.588970 
# 
# From -- ./inp_files/346050.got.cif
#   From: 2010.05.17/outbox.cif.g08.bks.cpg/sg12_174_cif.got.tgz:346050.got - 2010.06.03 13:09:07.
