data_PCOD9191630
_publ_section_title
;
Structure prediction by ZEFSAII (Michael W. Deem and Ramdas Pophale) SiO2 
 PCOD9191630
Probable space group: C 2/M
;
_chemical_formula_sum "Si O2"
_cell_formula_units_Z 56
_cell_length_a 28.954542
_cell_length_b 7.642790
_cell_length_c 21.394003
_cell_angle_alpha 90.000000
_cell_angle_beta 147.529329
_cell_angle_gamma 90.000000
_cell_volume 2541.722005
_symmetry_space_group_name_H-M "C 2/M"
_symmetry_group_IT_number 12
_symmetry_cell_setting 'monoclinic'
loop_
_space_group_symop_operation_xyz
x,y,z
-x,y,-z
-x,-y,-z
x,-y,z
1/2+x,1/2+y,z
1/2-x,1/2+y,-z
1/2-x,1/2-y,-z
1/2+x,1/2-y,z
loop_
_atom_site_type_symbol
_atom_site_label
_atom_site_fract_x
_atom_site_fract_y
_atom_site_fract_z
Si Si1 0.999687 0.292426 0.190227
Si Si2 0.731797 0.298621 0.254130
Si Si3 0.682130 0.290988 0.868987
Si Si4 0.079972 0.298861 0.549866
Si Si5 0.931526 0.789210 0.868986
Si Si6 0.489839 0.706115 0.661537
Si Si7 0.320500 0.212862 0.935995
O O1 0.997643 0.500000 0.194008
O O2 0.040384 0.225367 0.301285
O O3 0.041426 0.249920 0.171067
O O4 0.900700 0.228998 0.069806
O O5 0.750260 0.500000 0.292892
O O6 0.823927 0.216954 0.340632
O O7 0.665609 0.221679 0.228891
O O8 0.673967 0.291430 0.125887
O O9 0.674773 0.500000 0.856857
O O10 0.587495 0.221693 0.771910
O O11 0.730014 0.229215 0.861583
O O12 0.750000 0.250000 0.000000
O O13 0.088374 0.500000 0.581825
O O14 0.000000 0.223503 0.500000
O O15 0.056442 0.294366 0.449624
O O16 0.928714 0.000000 0.872443
O O17 0.000000 0.724491 0.000000
O O18 0.489330 0.500000 0.646492
O O19 0.322759 0.000000 0.934951
#
# Coordination Sequence:
#
# PCOD9191630 Si02
#       7
#     8   8   8   8   8   8   8
#     4  11  22  36  57  85 119 154 191 237 293 351
#     4  10  21  37  59  85 113 152 195 236 289 348
#     4  10  20  33  50  78 113 148 186 228 281 342
#     4  10  22  41  63  87 117 154 197 242 288 344
#     4  10  20  36  58  85 119 153 191 241 293 347
#     4  11  23  38  59  85 117 157 198 242 293 347
#     4  10  20  33  52  82 117 149 185 234 286 342
#
# _framework density 22.032309000000001
#
# number of rings (size 3 to 8) (size 9 to 14) (size 15 to 20)
#    0.000    1.714    2.857    1.714    0.000    3.429 
#    0.000    0.714    0.000    0.000    0.000    0.000 
#    0.000    0.000    0.000    0.000    0.000    0.000 
#
# Total GULP energy -156200.947210 kJ/mol
# GULP energy per Si atom -5578.605257 kJ/mol
# Density = 2.198216 g / cm^3
# Si number density = 22.032309 Si / 1000 Ang^3
#
#
#
# Elastic Constant Matrix: (Units=GPa)
#
#
# Indices 1 2 3 4 5 6 
#
# 1 139.6787 0.3581 34.9686 0.0000 3.5924 0.0000
# 2 0.3581 53.5774 -3.1671 0.0000 6.7949 0.0000
# 3 34.9686 -3.1671 82.3159 0.0000 -2.7308 0.0000
# 4 0.0000 0.0000 0.0000 14.1470 0.0000 -9.0712
# 5 3.5924 6.7949 -2.7308 0.0000 40.8416 0.0000
# 6 0.0000 0.0000 0.0000 -9.0712 0.0000 19.0354
#
#
#
# Elastic Compliance Matrix: (Units=1/GPa)
#
#
# Indices 1 2 3 4 5 6 
#
# 1 0.008048 -0.000142 -0.003455 0.000000 -0.000915 0.000000
# 2 -0.000142 0.019102 0.000692 0.000000 -0.003119 0.000000
# 3 -0.003455 0.000692 0.013679 0.000000 0.001103 0.000000
# 4 0.000000 0.000000 0.000000 0.101790 0.000000 0.048507
# 5 -0.000915 -0.003119 0.001103 0.000000 0.025158 0.000000
# 6 0.000000 0.000000 0.000000 0.048507 0.000000 0.075649
#
#
# Mechanical properties :
#
#
# Convention : Reuss Voigt Hill
#
# Bulk Modulus (GPa) = 28.55556 37.76568 33.16062
# Shear Modulus (GPa) = 19.16376 31.03229 25.09803
#
# Velocity S-wave (km/s) = 2.95244 3.75706 3.37879
# Velocity P-wave (km/s) = 4.96099 5.99991 5.50501
#
# Compressibility (1/GPa) = 0.03501945
#
# Stress axis : x y z
#
# Youngs Moduli (GPa) = 124.25314 52.35049 73.10394
#
# Poissons Ratio (x) = 0.00743 0.25255
# Poissons Ratio (y) = 0.01763 -0.05057
# Poissons Ratio (z) = 0.42926 -0.03621
#
# Static dielectric constant tensor:
#      x y z
#    x 1.874410 0.000000 0.028240 
#    y 0.000000 1.810000 0.000000 
#    z 0.028240 0.000000 1.810400 
# 
# From -- ./inp_files/237369.got.cif
#   From: 2010.05.17/outbox.cif.g08.bks.cpg/sg12_119_cif.got.tgz:237369.got - 2010.06.03 13:09:07.
