data_PCOD9191014
_publ_section_title
;
Structure prediction by ZEFSAII (Michael W. Deem and Ramdas Pophale) SiO2 
 PCOD9191014
Probable space group: C 2/M
;
_chemical_formula_sum "Si O2"
_cell_formula_units_Z 64
_cell_length_a 19.801997
_cell_length_b 9.058625
_cell_length_c 34.573373
_cell_angle_alpha 90.000000
_cell_angle_beta 34.952918
_cell_angle_gamma 90.000000
_cell_volume 3552.991823
_symmetry_space_group_name_H-M "C 2/M"
_symmetry_group_IT_number 12
_symmetry_cell_setting 'monoclinic'
loop_
_space_group_symop_operation_xyz
x,y,z
-x,y,-z
-x,-y,-z
x,-y,z
1/2+x,1/2+y,z
1/2-x,1/2+y,-z
1/2-x,1/2-y,-z
1/2+x,1/2-y,z
loop_
_atom_site_type_symbol
_atom_site_label
_atom_site_fract_x
_atom_site_fract_y
_atom_site_fract_z
Si Si1 0.439848 0.175518 0.986738
Si Si2 0.606296 0.676787 0.686797
Si Si3 0.857313 0.320770 0.167118
Si Si4 0.046733 0.322536 0.795564
Si Si5 0.435112 0.830332 0.416331
Si Si6 0.225240 0.830139 0.450604
Si Si7 0.594233 0.677758 0.280896
Si Si8 0.778554 0.323692 0.945300
O O1 0.533744 0.227590 0.910470
O O2 0.417338 0.000000 0.991512
O O3 0.500000 0.193691 0.000000
O O4 0.318926 0.262315 0.038328
O O5 0.614832 0.500000 0.683711
O O6 0.589242 0.742700 0.737128
O O7 0.718443 0.744293 0.611818
O O8 0.491603 0.716988 0.714393
O O9 0.859407 0.500000 0.164462
O O10 0.729132 0.273702 0.212482
O O11 0.879130 0.279252 0.201262
O O12 0.910338 0.287714 0.869325
O O13 0.555739 0.000000 0.786399
O O14 0.327874 0.829447 0.435361
O O15 0.385503 0.748795 0.477375
O O16 0.539844 0.747045 0.345242
O O17 0.464519 0.000000 0.410666
O O18 0.199946 0.000000 0.452938
O O19 0.591545 0.500000 0.285699
O O20 0.770875 0.500000 0.952832
O O21 0.750000 0.250000 0.000000
#
# Coordination Sequence:
#
# PCOD9191014 Si02
#       8
#     8   8   8   8   8   8   8   8
#     4  10  21  37  60  84 110 143 182 226 277 330
#     4  10  20  32  51  81 109 134 174 222 265 311
#     4   9  18  36  55  75 104 141 180 217 260 319
#     4  10  21  37  55  74 104 143 178 217 266 320
#     4   9  16  27  46  74 107 138 171 215 263 308
#     4   9  16  28  48  73 105 141 176 211 257 312
#     4   9  18  32  52  76 104 138 177 217 260 314
#     4  11  22  38  59  81 109 142 184 230 274 327
#
# _framework density 18.012989000000001
#
# number of rings (size 3 to 8) (size 9 to 14) (size 15 to 20)
#    0.000    2.375    1.250    1.500    1.750    4.750 
#    0.000    1.250    0.000    0.750    0.000    5.250 
#    0.000    0.000    0.000    0.000    0.000    0.000 
#
# Total GULP energy -178521.982400 kJ/mol
# GULP energy per Si atom -5578.811950 kJ/mol
# Density = 1.797199 g / cm^3
# Si number density = 18.012989 Si / 1000 Ang^3
#
#
#
# Elastic Constant Matrix: (Units=GPa)
#
#
# Indices 1 2 3 4 5 6 
#
# 1 34.9235 10.4670 7.3683 -0.0004 14.1324 -0.0018
# 2 10.4670 36.3709 15.4134 -0.0032 16.1176 0.0012
# 3 7.3683 15.4134 53.0394 0.0002 30.0537 -0.0001
# 4 -0.0004 -0.0032 0.0002 30.9937 -0.0001 3.2265
# 5 14.1324 16.1176 30.0537 -0.0001 27.9039 0.0001
# 6 -0.0018 0.0012 -0.0001 3.2265 0.0001 19.5410
#
#
#
# Elastic Compliance Matrix: (Units=1/GPa)
#
#
# Indices 1 2 3 4 5 6 
#
# 1 0.040500 -0.002358 0.015164 0.000000 -0.035482 0.000004
# 2 -0.002358 0.037342 0.002620 0.000004 -0.023197 -0.000003
# 3 0.015164 0.002620 0.054386 0.000000 -0.067770 0.000002
# 4 0.000000 0.000004 0.000000 0.032829 -0.000002 -0.005421
# 5 -0.035482 -0.023197 -0.067770 -0.000002 0.140197 -0.000003
# 6 0.000004 -0.000003 0.000002 -0.005421 -0.000003 0.052070
#
#
# Mechanical properties :
#
#
# Convention : Reuss Voigt Hill
#
# Bulk Modulus (GPa) = 6.13194 21.20347 13.66770
# Shear Modulus (GPa) = 13.12915 21.76005 17.44460
#
# Velocity S-wave (km/s) = 2.70269 3.47943 3.11536
# Velocity P-wave (km/s) = 3.62642 5.28570 4.53264
#
# Compressibility (1/GPa) = 0.16308056
#
# Stress axis : x y z
#
# Youngs Moduli (GPa) = 24.69146 26.77922 18.38700
#
# Poissons Ratio (x) = 0.06314 -0.27883
# Poissons Ratio (y) = 0.05822 -0.04817
# Poissons Ratio (z) = -0.37443 -0.07015
#
# Static dielectric constant tensor:
#      x y z
#    x 1.612750 0.000000 -0.004030 
#    y 0.000000 1.606980 0.000000 
#    z -0.004030 0.000000 1.597110 
# 
# From -- ./inp_files/378067.got.cif
#   From: 2010.05.17/outbox.cif.g08.bks.cpg/sg12_190_cif.got.tgz:378067.got - 2010.06.03 13:09:07.
