data_PCOD9191216
_publ_section_title
;
Structure prediction by ZEFSAII (Michael W. Deem and Ramdas Pophale) SiO2 
 PCOD9191216
Probable space group: C 2/M
;
_chemical_formula_sum "Si O2"
_cell_formula_units_Z 52
_cell_length_a 15.949110
_cell_length_b 14.299005
_cell_length_c 9.687556
_cell_angle_alpha 90.000000
_cell_angle_beta 97.509505
_cell_angle_gamma 90.000000
_cell_volume 2190.360366
_symmetry_space_group_name_H-M "C 2/M"
_symmetry_group_IT_number 12
_symmetry_cell_setting 'monoclinic'
loop_
_space_group_symop_operation_xyz
x,y,z
-x,y,-z
-x,-y,-z
x,-y,z
1/2+x,1/2+y,z
1/2-x,1/2+y,-z
1/2-x,1/2-y,-z
1/2+x,1/2-y,z
loop_
_atom_site_type_symbol
_atom_site_label
_atom_site_fract_x
_atom_site_fract_y
_atom_site_fract_z
Si Si1 0.851015 0.866650 0.331188
Si Si2 0.074905 0.157672 0.937769
Si Si3 0.913852 0.000000 0.583627
Si Si4 0.840023 0.845933 0.759001
Si Si5 0.992025 0.635510 0.153287
Si Si6 0.658721 0.859952 0.354647
Si Si7 0.650089 0.140397 0.665893
O O1 0.881136 0.889042 0.182943
O O2 0.752919 0.892493 0.336315
O O3 0.856020 0.754021 0.341235
O O4 0.906222 0.919936 0.456659
O O5 0.030245 0.253067 0.871216
O O6 0.139729 0.178174 0.077271
O O7 0.000000 0.104874 0.000000
O O8 0.902732 0.081955 0.699634
O O9 0.838549 0.752393 0.666259
O O10 0.745035 0.885199 0.729685
O O11 0.917619 0.604779 0.239152
O O12 0.081119 0.613673 0.241975
O O13 0.000000 0.600438 0.000000
O O14 0.638378 0.888858 0.505742
#
# Coordination Sequence:
#
# PCOD9191216 Si02
#       7
#     8   8   4   8   8   8   8
#     4  10  22  35  64  83 118 149 203 238 295 344
#     4  10  21  40  57  86 122 154 191 249 287 355
#     4  12  22  42  57  87 112 166 202 244 274 359
#     4  11  21  37  63  82 120 152 203 239 298 344
#     4  10  20  32  61  92 124 141 189 244 303 348
#     4  11  18  38  60  94 114 151 191 253 294 349
#     4  10  20  36  60  92 115 150 195 252 293 348
#
# _framework density 23.740387999999999
#
# number of rings (size 3 to 8) (size 9 to 14) (size 15 to 20)
#    0.000    1.538    6.154    1.385    2.154    2.462 
#    0.000    3.077    0.000    1.846    0.000    1.077 
#    0.000    0.000    0.000    0.000    0.000    0.000 
#
# Total GULP energy -144818.404935 kJ/mol
# GULP energy per Si atom -5569.938651 kJ/mol
# Density = 2.368635 g / cm^3
# Si number density = 23.740388 Si / 1000 Ang^3
#
#
#
# Elastic Constant Matrix: (Units=GPa)
#
#
# Indices 1 2 3 4 5 6 
#
# 1 108.9333 -7.8657 111.9825 0.0000 -13.3710 0.0000
# 2 -7.8657 121.7343 3.1497 0.0000 -6.0079 0.0000
# 3 111.9825 3.1497 211.1070 0.0000 -26.7203 0.0000
# 4 0.0000 0.0000 0.0000 -24.4362 0.0000 6.8259
# 5 -13.3710 -6.0079 -26.7203 0.0000 56.5084 0.0000
# 6 0.0000 0.0000 0.0000 6.8259 0.0000 -26.3582
#
#
#
# Elastic Compliance Matrix: (Units=1/GPa)
#
#
# Indices 1 2 3 4 5 6 
#
# 1 0.020499 0.001600 -0.010916 0.000000 -0.000141 0.000000
# 2 0.001600 0.008383 -0.000865 0.000000 0.000861 0.000000
# 3 -0.010916 -0.000865 0.010851 0.000000 0.002456 0.000000
# 4 0.000000 0.000000 0.000000 -0.044114 0.000000 -0.011424
# 5 -0.000141 0.000861 0.002456 0.000000 0.018916 0.000000
# 6 0.000000 0.000000 0.000000 -0.011424 0.000000 -0.040897
#
#
# Mechanical properties :
#
#
# Convention : Reuss Voigt Hill
#
# Bulk Modulus (GPa) = 51.62027 72.92307 62.27167
# Shear Modulus (GPa) = 10954.45756 23.44332 5488.95044
#
# Velocity S-wave (km/s) = 68.00212 3.14584 48.13618
# Velocity P-wave (km/s) = 78.66071 6.63164 55.81884
#
# Compressibility (1/GPa) = 0.01937224
#
# Stress axis : x y z
#
# Youngs Moduli (GPa) = 48.78193 119.29102 92.15761
#
# Poissons Ratio (x) = -0.19087 1.00596
# Poissons Ratio (y) = -0.07805 0.07970
# Poissons Ratio (z) = 0.53249 0.10317
#
# Static dielectric constant tensor:
#      x y z
#    x 1.941400 0.000000 -0.000790 
#    y 0.000000 1.878980 0.000000 
#    z -0.000790 0.000000 1.874110 
# 
# From -- ./inp_files/75212.got.cif
#   From: 2010.05.17/outbox.cif.g08.bks.cpg/sg12_38_cif.got.tgz:75212.got - 2010.06.03 13:09:07.
