data_PCOD9191300
_publ_section_title
;
Structure prediction by ZEFSAII (Michael W. Deem and Ramdas Pophale) SiO2 
 PCOD9191300
Probable space group: C 2/M
;
_chemical_formula_sum "Si O2"
_cell_formula_units_Z 56
_cell_length_a 14.243280
_cell_length_b 14.080945
_cell_length_c 26.551062
_cell_angle_alpha 90.000000
_cell_angle_beta 146.886360
_cell_angle_gamma 90.000000
_cell_volume 2909.082279
_symmetry_space_group_name_H-M "C 2/M"
_symmetry_group_IT_number 12
_symmetry_cell_setting 'monoclinic'
loop_
_space_group_symop_operation_xyz
x,y,z
-x,y,-z
-x,-y,-z
x,-y,z
1/2+x,1/2+y,z
1/2-x,1/2+y,-z
1/2-x,1/2-y,-z
1/2+x,1/2-y,z
loop_
_atom_site_type_symbol
_atom_site_label
_atom_site_fract_x
_atom_site_fract_y
_atom_site_fract_z
Si Si1 0.392494 0.109981 0.564618
Si Si2 0.837975 0.220699 0.618358
Si Si3 0.712525 0.283065 0.775812
Si Si4 0.397638 0.609179 0.903957
Si Si5 0.735758 0.802516 0.683165
Si Si6 0.457418 0.892545 0.039592
Si Si7 0.580722 0.609479 0.880880
O O1 0.265778 0.150858 0.464927
O O2 0.365520 0.180149 0.600400
O O3 0.584986 0.122645 0.628310
O O4 0.361890 0.000000 0.562556
O O5 0.741002 0.229448 0.627902
O O6 0.030612 0.180981 0.714035
O O7 0.697129 0.275600 0.708523
O O8 0.750053 0.181162 0.819568
O O9 0.883955 0.340631 0.863986
O O10 0.337603 0.500000 0.884116
O O11 0.528757 0.609318 0.916066
O O12 0.500000 0.639558 0.000000
O O13 0.924089 0.841265 0.782027
O O14 0.445608 0.000000 0.054589
O O15 0.500000 0.896472 0.000000
O O16 0.269398 0.846694 0.960119
O O17 0.590147 0.500000 0.867299
#
# Coordination Sequence:
#
# PCOD9191300 Si02
#       7
#     8   8   8   8   8   8   8
#     4  10  22  41  64  87 112 145 187 235 288 345
#     4  10  22  38  58  87 116 141 184 239 286 339
#     4  10  21  34  52  78 111 147 183 224 277 335
#     4   9  18  32  51  76 106 142 186 231 272 318
#     4  10  20  35  58  84 112 142 182 235 286 336
#     4  10  20  33  48  69 103 146 187 224 266 322
#     4   9  18  31  49  76 106 139 185 233 271 318
#
# _framework density 19.250057000000002
#
# number of rings (size 3 to 8) (size 9 to 14) (size 15 to 20)
#    0.000    2.286    0.000    2.143    0.000    9.143 
#    0.000    0.714    0.000   11.143    0.000    0.000 
#    0.000    0.000    0.000    0.000    0.000    0.000 
#
# Total GULP energy -156126.773346 kJ/mol
# GULP energy per Si atom -5575.956191 kJ/mol
# Density = 1.920624 g / cm^3
# Si number density = 19.250057 Si / 1000 Ang^3
#
#
#
# Elastic Constant Matrix: (Units=GPa)
#
#
# Indices 1 2 3 4 5 6 
#
# 1 74.1030 17.9630 22.4454 0.0000 -16.3723 0.0000
# 2 17.9630 59.7992 23.6697 0.0000 2.4743 0.0000
# 3 22.4454 23.6697 79.0617 0.0000 10.6213 0.0000
# 4 0.0000 0.0000 0.0000 -21.8523 0.0000 5.5817
# 5 -16.3723 2.4743 10.6213 0.0000 33.9756 0.0000
# 6 0.0000 0.0000 0.0000 5.5817 0.0000 12.3955
#
#
#
# Elastic Compliance Matrix: (Units=1/GPa)
#
#
# Indices 1 2 3 4 5 6 
#
# 1 0.018532 -0.003806 -0.005594 0.000000 0.010956 0.000000
# 2 -0.003806 0.019758 -0.004588 0.000000 -0.001839 0.000000
# 3 -0.005594 -0.004588 0.016625 0.000000 -0.007559 0.000000
# 4 0.000000 0.000000 0.000000 -0.041041 0.000000 0.018481
# 5 0.010956 -0.001839 -0.007559 0.000000 0.037209 0.000000
# 6 0.000000 0.000000 0.000000 0.018481 0.000000 0.072352
#
#
# Mechanical properties :
#
#
# Convention : Reuss Voigt Hill
#
# Bulk Modulus (GPa) = 37.11855 37.90222 37.51038
# Shear Modulus (GPa) = 31.17382 14.82949 23.00166
#
# Velocity S-wave (km/s) = 4.02856 2.77855 3.46046
# Velocity P-wave (km/s) = 6.40025 5.47959 5.95773
#
# Compressibility (1/GPa) = 0.02694071
#
# Stress axis : x y z
#
# Youngs Moduli (GPa) = 53.95977 50.61263 60.14937
#
# Poissons Ratio (x) = 0.19264 0.33646
# Poissons Ratio (y) = 0.20538 0.27594
# Poissons Ratio (z) = 0.30183 0.23219
#
# Static dielectric constant tensor:
#      x y z
#    x 1.683660 0.000000 0.016950 
#    y 0.000000 1.710370 0.000000 
#    z 0.016950 0.000000 1.694130 
# 
# From -- ./inp_files/361471.got.cif
#   From: 2010.05.17/outbox.cif.g08.bks.cpg/sg12_181_cif.got.tgz:361471.got - 2010.06.03 13:09:07.
