data_PCOD9191964
_publ_section_title
;
Structure prediction by ZEFSAII (Michael W. Deem and Ramdas Pophale) SiO2 
 PCOD9191964
Probable space group: C 2/M
;
_chemical_formula_sum "Si O2"
_cell_formula_units_Z 64
_cell_length_a 30.473450
_cell_length_b 7.575369
_cell_length_c 15.438431
_cell_angle_alpha 90.000000
_cell_angle_beta 129.098768
_cell_angle_gamma 90.000000
_cell_volume 2765.819664
_symmetry_space_group_name_H-M "C 2/M"
_symmetry_group_IT_number 12
_symmetry_cell_setting 'monoclinic'
loop_
_space_group_symop_operation_xyz
x,y,z
-x,y,-z
-x,-y,-z
x,-y,z
1/2+x,1/2+y,z
1/2-x,1/2+y,-z
1/2-x,1/2-y,-z
1/2+x,1/2-y,z
loop_
_atom_site_type_symbol
_atom_site_label
_atom_site_fract_x
_atom_site_fract_y
_atom_site_fract_z
Si Si1 0.442533 0.712953 0.380946
Si Si2 0.851339 0.290516 0.765159
Si Si3 0.184464 0.288603 0.929468
Si Si4 0.888942 0.287312 0.628027
Si Si5 0.114324 0.291110 0.003469
Si Si6 0.481412 0.708919 0.243165
Si Si7 0.828243 0.701830 0.272374
Si Si8 0.721086 0.214265 0.617490
O O1 0.500000 0.756775 0.500000
O O2 0.436879 0.500000 0.374493
O O3 0.450507 0.779472 0.291571
O O4 0.393326 0.793891 0.379481
O O5 0.862308 0.500000 0.780306
O O6 0.882357 0.220229 0.718500
O O7 0.783883 0.266309 0.668045
O O8 0.872400 0.218238 0.884352
O O9 0.174779 0.500000 0.919377
O O10 0.156171 0.216659 0.981055
O O11 0.164244 0.213262 0.812385
O O12 0.250000 0.250000 0.000000
O O13 0.884996 0.500000 0.623467
O O14 0.833205 0.225454 0.505719
O O15 0.951640 0.244187 0.672729
O O16 0.125800 0.500000 0.024077
O O17 0.051940 0.271757 0.884215
O O18 0.474047 0.500000 0.236425
O O19 0.809089 0.500000 0.236219
O O20 0.789005 0.780792 0.296647
O O21 0.719306 0.000000 0.616560
#
# Coordination Sequence:
#
# PCOD9191964 Si02
#       8
#     8   8   8   8   8   8   8   8
#     4  10  21  36  54  80 113 146 183 227 275 330
#     4  10  22  39  61  86 112 151 199 240 288 346
#     4  10  20  33  52  78 109 144 182 223 270 325
#     4  10  22  40  60  84 115 153 194 239 293 349
#     4  10  21  39  59  81 115 156 194 236 286 342
#     4  11  23  38  59  87 116 151 195 242 290 340
#     4  10  20  34  53  81 111 144 183 218 268 334
#     4  10  21  37  59  88 120 150 187 239 294 345
#
# _framework density 23.139614000000002
#
# number of rings (size 3 to 8) (size 9 to 14) (size 15 to 20)
#    0.000    1.875    1.250    2.250    0.000    4.250 
#    0.000    2.500    0.000    0.000    0.000    0.000 
#    0.000    0.000    0.000    0.000    0.000    0.000 
#
# Total GULP energy -178572.781722 kJ/mol
# GULP energy per Si atom -5580.399429 kJ/mol
# Density = 2.308695 g / cm^3
# Si number density = 23.139614 Si / 1000 Ang^3
#
#
#
# Elastic Constant Matrix: (Units=GPa)
#
#
# Indices 1 2 3 4 5 6 
#
# 1 93.0613 -11.2206 5.5351 0.0000 -7.5126 0.0000
# 2 -11.2206 51.7959 -4.8832 0.0000 -14.2084 0.0000
# 3 5.5351 -4.8832 78.3109 0.0000 -8.2351 0.0000
# 4 0.0000 0.0000 0.0000 14.1832 0.0000 17.8162
# 5 -7.5126 -14.2084 -8.2351 0.0000 38.1268 0.0000
# 6 0.0000 0.0000 0.0000 17.8162 0.0000 16.5864
#
#
#
# Elastic Compliance Matrix: (Units=1/GPa)
#
#
# Indices 1 2 3 4 5 6 
#
# 1 0.011452 0.003413 -0.000231 0.000000 0.003479 0.000000
# 2 0.003413 0.022911 0.002206 0.000000 0.009687 0.000000
# 3 -0.000231 0.002206 0.013307 0.000000 0.003651 0.000000
# 4 0.000000 0.000000 0.000000 -0.201859 0.000000 0.216826
# 5 0.003479 0.009687 0.003651 0.000000 0.031312 0.000000
# 6 0.000000 0.000000 0.000000 0.216826 0.000000 -0.172612
#
#
# Mechanical properties :
#
#
# Convention : Reuss Voigt Hill
#
# Bulk Modulus (GPa) = 17.10932 22.44786 19.77859
# Shear Modulus (GPa) = -17.43482 29.36172 5.96345
#
# Velocity S-wave (km/s) = -2.74790 3.56602 1.60710
# Velocity P-wave (km/s) = 1.63033 5.16502 3.46551
#
# Compressibility (1/GPa) = 0.05844769
#
# Stress axis : x y z
#
# Youngs Moduli (GPa) = 87.32334 43.64654 75.14597
#
# Poissons Ratio (x) = -0.14898 0.01734
# Poissons Ratio (y) = -0.29806 -0.16578
# Poissons Ratio (z) = 0.02015 -0.09629
#
# Static dielectric constant tensor:
#      x y z
#    x 1.913670 0.000000 0.015110 
#    y 0.000000 1.862770 0.000000 
#    z 0.015110 0.000000 1.616090 
# 
# From -- ./inp_files/249942.got.cif
#   From: 2010.05.17/outbox.cif.g08.bks.cpg/sg12_125_cif.got.tgz:249942.got - 2010.06.03 13:09:07.
