data_PCOD9191323
_publ_section_title
;
Structure prediction by ZEFSAII (Michael W. Deem and Ramdas Pophale) SiO2 
 PCOD9191323
Probable space group: C 2/M
;
_chemical_formula_sum "Si O2"
_cell_formula_units_Z 64
_cell_length_a 17.311530
_cell_length_b 18.859683
_cell_length_c 11.471081
_cell_angle_alpha 90.000000
_cell_angle_beta 71.325356
_cell_angle_gamma 90.000000
_cell_volume 3548.016220
_symmetry_space_group_name_H-M "C 2/M"
_symmetry_group_IT_number 12
_symmetry_cell_setting 'monoclinic'
loop_
_space_group_symop_operation_xyz
x,y,z
-x,y,-z
-x,-y,-z
x,-y,z
1/2+x,1/2+y,z
1/2-x,1/2+y,-z
1/2-x,1/2-y,-z
1/2+x,1/2-y,z
loop_
_atom_site_type_symbol
_atom_site_label
_atom_site_fract_x
_atom_site_fract_y
_atom_site_fract_z
Si Si1 0.029568 0.861102 0.164005
Si Si2 0.972982 0.305019 0.883607
Si Si3 0.261707 0.418248 0.545840
Si Si4 0.204088 0.320597 0.975334
Si Si5 0.351858 0.191209 0.268865
Si Si6 0.841093 0.141803 0.279137
Si Si7 0.323762 0.417821 0.039981
Si Si8 0.576009 0.581924 0.378444
O O1 0.031099 0.780458 0.119586
O O2 0.071792 0.868030 0.269244
O O3 0.935852 0.882678 0.228459
O O4 0.083791 0.905425 0.048165
O O5 0.880668 0.330367 0.912505
O O6 0.051248 0.325266 0.769437
O O7 0.000000 0.326475 0.000000
O O8 0.233710 0.500000 0.564831
O O9 0.197423 0.362192 0.626344
O O10 0.291410 0.398725 0.401942
O O11 0.341627 0.411690 0.588825
O O12 0.264494 0.385273 0.971116
O O13 0.250000 0.250000 0.000000
O O14 0.179100 0.314886 0.851146
O O15 0.340354 0.274139 0.305186
O O16 0.809144 0.125768 0.165332
O O17 0.309037 0.500000 0.066848
O O18 0.500000 0.596257 0.500000
O O19 0.568427 0.500000 0.340877
#
# Coordination Sequence:
#
# PCOD9191323 Si02
#       8
#     8   8   8   8   8   8   8   8
#     4  11  19  33  55  81 115 150 189 228 278 350
#     4   9  19  36  59  85 109 146 188 232 287 335
#     4  11  23  38  57  81 115 157 198 243 290 332
#     4  11  19  38  61  83 116 149 180 233 290 335
#     4  10  21  38  61  85 111 149 202 236 274 348
#     4  11  22  38  56  80 118 158 190 232 288 347
#     4  12  24  34  55  91 118 147 188 232 291 356
#     4  10  20  33  48  73 111 154 185 220 281 341
#
# _framework density 18.038249
#
# number of rings (size 3 to 8) (size 9 to 14) (size 15 to 20)
#    0.000    1.375    3.750    3.750    0.000    3.500 
#    0.000    0.625    0.000    2.250    0.000    1.750 
#    0.000    0.000    0.000    0.000    0.000    0.000 
#
# Total GULP energy -178604.586790 kJ/mol
# GULP energy per Si atom -5581.393337 kJ/mol
# Density = 1.799719 g / cm^3
# Si number density = 18.038249 Si / 1000 Ang^3
#
#
#
# Elastic Constant Matrix: (Units=GPa)
#
#
# Indices 1 2 3 4 5 6 
#
# 1 88.0643 31.4518 25.6226 0.0000 -20.4054 0.0000
# 2 31.4518 70.8164 23.0988 0.0000 -22.1941 0.0000
# 3 25.6226 23.0988 58.6878 0.0000 -7.1252 0.0000
# 4 0.0000 0.0000 0.0000 15.5255 0.0000 -0.6572
# 5 -20.4054 -22.1941 -7.1252 0.0000 29.5639 0.0000
# 6 0.0000 0.0000 0.0000 -0.6572 0.0000 23.1366
#
#
#
# Elastic Compliance Matrix: (Units=1/GPa)
#
#
# Indices 1 2 3 4 5 6 
#
# 1 0.015497 -0.003086 -0.004671 0.000000 0.007254 0.000000
# 2 -0.003086 0.021180 -0.005477 0.000000 0.012450 0.000000
# 3 -0.004671 -0.005477 0.020957 0.000000 -0.002285 0.000000
# 4 0.000000 0.000000 0.000000 0.064488 0.000000 0.001832
# 5 0.007254 0.012450 -0.002285 0.000000 0.047628 0.000000
# 6 0.000000 0.000000 0.000000 0.001832 0.000000 0.043274
#
#
# Mechanical properties :
#
#
# Convention : Reuss Voigt Hill
#
# Bulk Modulus (GPa) = 32.08585 41.99055 37.03820
# Shear Modulus (GPa) = 20.00958 22.80488 21.40723
#
# Velocity S-wave (km/s) = 3.33421 3.55949 3.44869
# Velocity P-wave (km/s) = 5.71392 6.34212 6.03620
#
# Compressibility (1/GPa) = 0.03116639
#
# Stress axis : x y z
#
# Youngs Moduli (GPa) = 64.52758 47.21402 47.71689
#
# Poissons Ratio (x) = 0.14570 0.22287
# Poissons Ratio (y) = 0.19912 0.26136
# Poissons Ratio (z) = 0.30139 0.25861
#
# Static dielectric constant tensor:
#      x y z
#    x 1.640580 0.000000 -0.006120 
#    y 0.000000 1.592840 0.000000 
#    z -0.006120 0.000000 1.622840 
# 
# From -- ./inp_files/157806.got.cif
#   From: 2010.05.17/outbox.cif.g08.bks.cpg/sg12_79_cif.got.tgz:157806.got - 2010.06.03 13:09:07.
