data_PCOD9191688
_publ_section_title
;
Structure prediction by ZEFSAII (Michael W. Deem and Ramdas Pophale) SiO2 
 PCOD9191688
Probable space group: C 2/M
;
_chemical_formula_sum "Si O2"
_cell_formula_units_Z 48
_cell_length_a 18.671926
_cell_length_b 9.145457
_cell_length_c 32.550514
_cell_angle_alpha 90.000000
_cell_angle_beta 149.305170
_cell_angle_gamma 90.000000
_cell_volume 2837.387361
_symmetry_space_group_name_H-M "C 2/M"
_symmetry_group_IT_number 12
_symmetry_cell_setting 'monoclinic'
loop_
_space_group_symop_operation_xyz
x,y,z
-x,y,-z
-x,-y,-z
x,-y,z
1/2+x,1/2+y,z
1/2-x,1/2+y,-z
1/2-x,1/2-y,-z
1/2+x,1/2-y,z
loop_
_atom_site_type_symbol
_atom_site_label
_atom_site_fract_x
_atom_site_fract_y
_atom_site_fract_z
Si Si1 0.077428 0.174246 0.495777
Si Si2 0.900799 0.173868 0.327079
Si Si3 0.670232 0.832112 0.082776
Si Si4 0.816230 0.174082 0.572821
Si Si5 0.834469 0.826794 0.835102
Si Si6 0.167912 0.825348 0.996779
O O1 0.224351 0.258456 0.563819
O O2 0.000000 0.205383 0.500000
O O3 0.975426 0.211847 0.407115
O O4 0.104075 0.000000 0.505966
O O5 0.761909 0.262005 0.248225
O O6 0.018349 0.203066 0.349889
O O7 0.872421 0.000000 0.313461
O O8 0.710282 0.751607 0.144557
O O9 0.710935 0.745652 0.061664
O O10 0.719499 0.000000 0.106117
O O11 0.500000 0.834394 0.000000
O O12 0.750000 0.250000 0.500000
O O13 0.796998 0.000000 0.561137
O O14 0.815501 0.000000 0.829649
O O15 0.000088 0.799429 0.909676
O O16 0.190848 0.000000 0.008505
O O17 0.250000 0.750000 0.000000
#
# Coordination Sequence:
#
# PCOD9191688 Si02
#       6
#     8   8   8   8   8   8
#     4   9  18  33  52  74 101 133 168 206 249 299
#     4   9  18  32  50  72  98 130 168 209 252 297
#     4   9  17  31  52  74  96 126 162 200 244 293
#     4   9  17  30  49  72  96 126 164 202 241 290
#     4  10  20  33  51  75 101 130 166 208 250 295
#     4  10  20  34  52  75 102 133 170 207 247 299
#
# _framework density 16.916971
#
# number of rings (size 3 to 8) (size 9 to 14) (size 15 to 20)
#    0.000    2.667    0.000    3.000    0.000    7.667 
#    0.000    1.667    0.000    8.000    0.000    0.000 
#    0.000    0.000    0.000    0.000    0.000    0.000 
#
# Total GULP energy -133725.920943 kJ/mol
# GULP energy per Si atom -5571.913373 kJ/mol
# Density = 1.687847 g / cm^3
# Si number density = 16.916971 Si / 1000 Ang^3
#
#
#
# Elastic Constant Matrix: (Units=GPa)
#
#
# Indices 1 2 3 4 5 6 
#
# 1 122.3793 63.4803 30.5101 0.0000 -6.6656 0.0001
# 2 63.4803 83.2952 41.8273 -0.0001 4.3171 0.0001
# 3 30.5101 41.8273 63.6144 -0.0001 -2.4582 0.0000
# 4 0.0000 -0.0001 -0.0001 26.1894 0.0000 0.9217
# 5 -6.6656 4.3171 -2.4582 0.0000 13.8320 0.0000
# 6 0.0001 0.0001 0.0000 0.9217 0.0000 30.6872
#
#
#
# Elastic Compliance Matrix: (Units=1/GPa)
#
#
# Indices 1 2 3 4 5 6 
#
# 1 0.015113 -0.013001 0.001750 0.000000 0.011652 0.000000
# 2 -0.013001 0.029970 -0.014171 0.000000 -0.018137 0.000000
# 3 0.001750 -0.014171 0.024570 0.000000 0.009633 0.000000
# 4 0.000000 0.000000 0.000000 0.038224 0.000000 -0.001148
# 5 0.011652 -0.018137 0.009633 0.000000 0.085284 0.000000
# 6 0.000000 0.000000 0.000000 -0.001148 0.000000 0.032621
#
#
# Mechanical properties :
#
#
# Convention : Reuss Voigt Hill
#
# Bulk Modulus (GPa) = 53.16435 60.10269 56.63352
# Shear Modulus (GPa) = 17.67436 23.03980 20.35708
#
# Velocity S-wave (km/s) = 3.23580 3.69444 3.47270
# Velocity P-wave (km/s) = 6.74206 7.33510 7.04482
#
# Compressibility (1/GPa) = 0.01880960
#
# Stress axis : x y z
#
# Youngs Moduli (GPa) = 66.16656 33.36715 40.69950
#
# Poissons Ratio (x) = 0.43380 -0.07122
# Poissons Ratio (y) = 0.86021 0.57675
# Poissons Ratio (z) = -0.11578 0.47285
#
# Static dielectric constant tensor:
#      x y z
#    x 1.586370 0.000000 0.001720 
#    y 0.000000 1.566330 0.000000 
#    z 0.001720 0.000000 1.575630 
# 
# From -- ./inp_files/274612.got.cif
#   From: 2010.05.17/outbox.cif.g08.bks.cpg/sg12_138_cif.got.tgz:274612.got - 2010.06.03 13:09:07.
