data_PCOD9191524
_publ_section_title
;
Structure prediction by ZEFSAII (Michael W. Deem and Ramdas Pophale) SiO2 
 PCOD9191524
Probable space group: C 2/M
;
_chemical_formula_sum "Si O2"
_cell_formula_units_Z 48
_cell_length_a 20.646006
_cell_length_b 8.478606
_cell_length_c 16.338641
_cell_angle_alpha 90.000000
_cell_angle_beta 71.873719
_cell_angle_gamma 90.000000
_cell_volume 2718.132238
_symmetry_space_group_name_H-M "C 2/M"
_symmetry_group_IT_number 12
_symmetry_cell_setting 'monoclinic'
loop_
_space_group_symop_operation_xyz
x,y,z
-x,y,-z
-x,-y,-z
x,-y,z
1/2+x,1/2+y,z
1/2-x,1/2+y,-z
1/2-x,1/2-y,-z
1/2+x,1/2-y,z
loop_
_atom_site_type_symbol
_atom_site_label
_atom_site_fract_x
_atom_site_fract_y
_atom_site_fract_z
Si Si1 0.570508 0.811012 0.431475
Si Si2 0.098565 0.307746 0.903607
Si Si3 0.263538 0.192064 0.236026
Si Si4 0.950987 0.309379 0.899776
Si Si5 0.785502 0.188847 0.567589
Si Si6 0.114783 0.811268 0.240437
O O1 0.500000 0.756719 0.500000
O O2 0.637004 0.746577 0.452011
O O3 0.577052 0.756817 0.334961
O O4 0.572456 0.000000 0.433620
O O5 0.099544 0.500000 0.902852
O O6 0.167647 0.251154 0.834038
O O7 0.029719 0.261230 0.882981
O O8 0.089199 0.260498 0.001989
O O9 0.254231 0.241034 0.334201
O O10 0.194089 0.239313 0.217115
O O11 0.265646 0.000000 0.234571
O O12 0.949478 0.500000 0.896606
O O13 0.918754 0.242910 0.830402
O O14 0.750000 0.250000 0.500000
O O15 0.785625 0.000000 0.566823
O O16 0.113168 0.000000 0.246734
#
# Coordination Sequence:
#
# PCOD9191524 Si02
#       6
#     8   8   8   8   8   8
#     4  10  21  37  56  76  99 131 172 215 259 308
#     4   8  15  30  50  71  96 128 169 209 244 288
#     4   8  16  31  49  69  96 131 167 203 244 291
#     4   9  17  30  51  75  97 127 167 209 247 289
#     4  10  20  34  53  77 106 138 172 212 257 305
#     4  10  20  33  50  73 102 133 162 200 253 307
#
# _framework density 17.659185999999998
#
# number of rings (size 3 to 8) (size 9 to 14) (size 15 to 20)
#    0.000    2.833    0.000    3.500    0.000    3.333 
#    0.000    5.000    0.000   10.000    0.000    0.000 
#    0.000    0.000    0.000    0.000    0.000    0.000 
#
# Total GULP energy -133817.340325 kJ/mol
# GULP energy per Si atom -5575.722514 kJ/mol
# Density = 1.761899 g / cm^3
# Si number density = 17.659186 Si / 1000 Ang^3
#
#
#
# Elastic Constant Matrix: (Units=GPa)
#
#
# Indices 1 2 3 4 5 6 
#
# 1 151.7568 28.6514 144.2531 0.0000 -3.4389 0.0000
# 2 28.6514 28.3773 29.5159 0.0000 -0.1346 0.0000
# 3 144.2531 29.5159 161.2369 0.0000 -2.7345 0.0000
# 4 0.0000 0.0000 0.0000 21.3623 0.0000 7.3240
# 5 -3.4389 -0.1346 -2.7345 0.0000 44.8617 0.0000
# 6 0.0000 0.0000 0.0000 7.3240 0.0000 26.0358
#
#
#
# Elastic Compliance Matrix: (Units=1/GPa)
#
#
# Indices 1 2 3 4 5 6 
#
# 1 0.044532 -0.004367 -0.039025 0.000000 0.001022 0.000000
# 2 -0.004367 0.043961 -0.004148 0.000000 -0.000456 0.000000
# 3 -0.039025 -0.004148 0.041868 0.000000 -0.000452 0.000000
# 4 0.000000 0.000000 0.000000 0.051808 0.000000 -0.014574
# 5 0.001022 -0.000456 -0.000452 0.000000 0.022340 0.000000
# 6 0.000000 0.000000 0.000000 -0.014574 0.000000 0.042508
#
#
# Mechanical properties :
#
#
# Convention : Reuss Voigt Hill
#
# Bulk Modulus (GPa) = 28.34361 82.91241 55.62801
# Shear Modulus (GPa) = 14.12998 27.71533 20.92265
#
# Velocity S-wave (km/s) = 2.83176 3.96593 3.44583
# Velocity P-wave (km/s) = 5.17465 8.24772 6.88483
#
# Compressibility (1/GPa) = 0.03528133
#
# Stress axis : x y z
#
# Youngs Moduli (GPa) = 22.45569 22.74739 23.88473
#
# Poissons Ratio (x) = 0.09934 0.93209
# Poissons Ratio (y) = 0.09806 0.09908
# Poissons Ratio (z) = 0.87633 0.09436
#
# Static dielectric constant tensor:
#      x y z
#    x 1.586820 0.000000 -0.016170 
#    y 0.000000 1.605690 0.000000 
#    z -0.016170 0.000000 1.587680 
# 
# From -- ./inp_files/229958.got.cif
#   From: 2010.05.17/outbox.cif.g08.bks.cpg/sg12_115_cif.got.tgz:229958.got - 2010.06.03 13:09:07.
