data_PCOD9191347
_publ_section_title
;
Structure prediction by ZEFSAII (Michael W. Deem and Ramdas Pophale) SiO2 
 PCOD9191347
Probable space group: C 2/M
;
_chemical_formula_sum "Si O2"
_cell_formula_units_Z 56
_cell_length_a 28.296999
_cell_length_b 7.633372
_cell_length_c 14.400807
_cell_angle_alpha 90.000000
_cell_angle_beta 61.023017
_cell_angle_gamma 90.000000
_cell_volume 2721.194333
_symmetry_space_group_name_H-M "C 2/M"
_symmetry_group_IT_number 12
_symmetry_cell_setting 'monoclinic'
loop_
_space_group_symop_operation_xyz
x,y,z
-x,y,-z
-x,-y,-z
x,-y,z
1/2+x,1/2+y,z
1/2-x,1/2+y,-z
1/2-x,1/2-y,-z
1/2+x,1/2-y,z
loop_
_atom_site_type_symbol
_atom_site_label
_atom_site_fract_x
_atom_site_fract_y
_atom_site_fract_z
Si Si1 0.807104 0.291079 0.330472
Si Si2 0.186325 0.206227 0.472102
Si Si3 0.080638 0.710290 0.470902
Si Si4 0.619258 0.785131 0.124754
Si Si5 0.829912 0.702407 0.114930
Si Si6 0.223289 0.291905 0.125175
Si Si7 0.524102 0.213745 0.333671
O O1 0.803535 0.500000 0.318893
O O2 0.832207 0.266182 0.407994
O O3 0.745812 0.217679 0.395370
O O4 0.836974 0.219724 0.210719
O O5 0.141309 0.242936 0.438675
O O6 0.193139 0.000000 0.472016
O O7 0.078480 0.500000 0.470741
O O8 0.057424 0.768287 0.393969
O O9 0.037291 0.771196 0.589948
O O10 0.661978 0.733226 0.165109
O O11 0.559504 0.730649 0.211951
O O12 0.621827 0.000000 0.120824
O O13 0.640575 0.721025 0.004282
O O14 0.847235 0.500000 0.100176
O O15 0.765118 0.708742 0.157142
O O16 0.223366 0.500000 0.142084
O O17 0.250000 0.250000 0.000000
O O18 0.523475 0.000000 0.332501
#
# Coordination Sequence:
#
# PCOD9191347 Si02
#       7
#     8   8   8   8   8   8   8
#     4   9  19  34  49  68  93 122 155 189 231 281
#     4  10  20  33  49  69  93 120 152 194 236 276
#     4   9  17  30  50  70  92 122 155 192 228 267
#     4   8  14  25  42  65  92 119 149 185 222 264
#     4   9  17  29  45  65  92 121 149 188 232 273
#     4   9  16  25  39  61  90 124 155 184 219 265
#     4   8  15  28  46  71  95 120 156 189 222 268
#
# _framework density 20.579198999999999
#
# number of rings (size 3 to 8) (size 9 to 14) (size 15 to 20)
#    0.000    3.143    0.000    2.571    2.000    1.143 
#    0.000    1.429    0.000    5.143    0.000    6.000 
#    0.000    0.000    0.000    0.000    0.000    0.000 
#
# Total GULP energy -155953.059154 kJ/mol
# GULP energy per Si atom -5569.752113 kJ/mol
# Density = 2.053236 g / cm^3
# Si number density = 20.579199 Si / 1000 Ang^3
#
#
#
# Elastic Constant Matrix: (Units=GPa)
#
#
# Indices 1 2 3 4 5 6 
#
# 1 27.8065 -3.4945 -2.0534 0.0000 1.4192 0.0000
# 2 -3.4945 37.8816 11.7712 0.0000 -1.7047 0.0000
# 3 -2.0534 11.7712 78.6726 0.0000 2.8176 0.0000
# 4 0.0000 0.0000 0.0000 2.8811 0.0000 3.7169
# 5 1.4192 -1.7047 2.8176 0.0000 27.1818 0.0000
# 6 0.0000 0.0000 0.0000 3.7169 0.0000 16.3730
#
#
#
# Elastic Compliance Matrix: (Units=1/GPa)
#
#
# Indices 1 2 3 4 5 6 
#
# 1 0.036485 0.003115 0.000549 0.000000 -0.001766 0.000000
# 2 0.003115 0.028080 -0.004193 0.000000 0.002033 0.000000
# 3 0.000549 -0.004193 0.013413 0.000000 -0.001682 0.000000
# 4 0.000000 0.000000 0.000000 0.490842 0.000000 -0.111428
# 5 -0.001766 0.002033 -0.001682 0.000000 0.037183 0.000000
# 6 0.000000 0.000000 0.000000 -0.111428 0.000000 0.086372
#
#
# Mechanical properties :
#
#
# Convention : Reuss Voigt Hill
#
# Bulk Modulus (GPa) = 13.00022 17.42303 15.21163
# Shear Modulus (GPa) = 6.95341 18.49635 12.72488
#
# Velocity S-wave (km/s) = 1.84016 3.00123 2.48934
# Velocity P-wave (km/s) = 3.29330 4.52709 3.95856
#
# Compressibility (1/GPa) = 0.07692175
#
# Stress axis : x y z
#
# Youngs Moduli (GPa) = 27.40846 35.61275 74.55544
#
# Poissons Ratio (x) = -0.11095 -0.04096
# Poissons Ratio (y) = -0.08539 0.31260
# Poissons Ratio (z) = -0.01506 0.14932
#
# Static dielectric constant tensor:
#      x y z
#    x 1.732980 0.000000 -0.009800 
#    y 0.000000 3.884690 0.000000 
#    z -0.009800 0.000000 1.798070 
# 
# From -- ./inp_files/243698.got.cif
#   From: 2010.05.17/outbox.cif.g08.bks.cpg/sg12_122_cif.got.tgz:243698.got - 2010.06.03 13:09:07.
