data_PCOD9191076
_publ_section_title
;
Structure prediction by ZEFSAII (Michael W. Deem and Ramdas Pophale) SiO2 
 PCOD9191076
Probable space group: C 2/M
;
_chemical_formula_sum "Si O2"
_cell_formula_units_Z 64
_cell_length_a 10.836459
_cell_length_b 15.642095
_cell_length_c 16.621532
_cell_angle_alpha 90.000000
_cell_angle_beta 88.378990
_cell_angle_gamma 90.000000
_cell_volume 2816.303961
_symmetry_space_group_name_H-M "C 2/M"
_symmetry_group_IT_number 12
_symmetry_cell_setting 'monoclinic'
loop_
_space_group_symop_operation_xyz
x,y,z
-x,y,-z
-x,-y,-z
x,-y,z
1/2+x,1/2+y,z
1/2-x,1/2+y,-z
1/2-x,1/2-y,-z
1/2+x,1/2-y,z
loop_
_atom_site_type_symbol
_atom_site_label
_atom_site_fract_x
_atom_site_fract_y
_atom_site_fract_z
Si Si1 0.625543 0.144518 0.953318
Si Si2 0.095671 0.651420 0.329333
Si Si3 0.372994 0.645994 0.044070
Si Si4 0.565023 0.598855 0.621483
Si Si5 0.310628 0.341365 0.629219
Si Si6 0.327479 0.650696 0.224428
Si Si7 0.698604 0.099852 0.483564
Si Si8 0.151393 0.648006 0.771235
O O1 0.622675 0.249307 0.954294
O O2 0.631728 0.113341 0.860937
O O3 0.500000 0.116544 0.000000
O O4 0.750555 0.120484 0.997594
O O5 0.138845 0.747612 0.350700
O O6 0.204187 0.615349 0.269276
O O7 0.093902 0.607657 0.417115
O O8 0.972514 0.646224 0.279601
O O9 0.359922 0.616220 0.136460
O O10 0.500000 0.617678 0.000000
O O11 0.591047 0.500000 0.630254
O O12 0.428986 0.611283 0.590651
O O13 0.568260 0.638213 0.710454
O O14 0.679055 0.631786 0.567337
O O15 0.202539 0.344965 0.564618
O O16 0.258775 0.385502 0.710802
O O17 0.312528 0.752558 0.215910
O O18 0.709461 0.000000 0.505616
#
# Coordination Sequence:
#
# PCOD9191076 Si02
#       8
#     8   8   8   8   8   8   8   8
#     4   9  17  29  46  74 112 148 179 219 276 340
#     4  10  20  36  54  80 111 148 185 225 273 334
#     4   9  17  26  47  77 108 143 180 226 281 328
#     4  10  20  36  58  80 106 144 186 227 275 331
#     4  11  21  34  55  82 112 141 180 234 282 325
#     4   9  18  32  52  77 111 145 179 225 272 331
#     4  10  22  40  58  79 107 145 190 228 272 332
#     4  10  20  32  52  81 113 143 181 225 280 329
#
# _framework density 22.724820000000001
#
# number of rings (size 3 to 8) (size 9 to 14) (size 15 to 20)
#    0.000    2.250    1.250    1.875    1.750    4.500 
#    2.250    1.875    0.000    0.375    0.000    0.000 
#    0.000    7.000    0.000    0.000    0.000    0.000 
#
# Total GULP energy -178589.192720 kJ/mol
# GULP energy per Si atom -5580.912273 kJ/mol
# Density = 2.267310 g / cm^3
# Si number density = 22.724820 Si / 1000 Ang^3
#
#
#
# Elastic Constant Matrix: (Units=GPa)
#
#
# Indices 1 2 3 4 5 6 
#
# 1 96.1787 2.6081 38.6450 0.0000 1.4914 0.0000
# 2 2.6081 31.4697 2.0852 0.0000 1.1283 0.0000
# 3 38.6450 2.0852 156.9429 0.0000 9.8427 0.0000
# 4 0.0000 0.0000 0.0000 -14.5184 0.0000 1.2907
# 5 1.4914 1.1283 9.8427 0.0000 28.5407 0.0000
# 6 0.0000 0.0000 0.0000 1.2907 0.0000 8.3973
#
#
#
# Elastic Compliance Matrix: (Units=1/GPa)
#
#
# Indices 1 2 3 4 5 6 
#
# 1 0.011562 -0.000783 -0.002863 0.000000 0.000414 0.000000
# 2 -0.000783 0.031894 -0.000158 0.000000 -0.001166 0.000000
# 3 -0.002863 -0.000158 0.007225 0.000000 -0.002336 0.000000
# 4 0.000000 0.000000 0.000000 -0.067950 0.000000 0.010444
# 5 0.000414 -0.001166 -0.002336 0.000000 0.035868 0.000000
# 6 0.000000 0.000000 0.000000 0.010444 0.000000 0.117481
#
#
# Mechanical properties :
#
#
# Convention : Reuss Voigt Hill
#
# Bulk Modulus (GPa) = 23.21599 41.25199 32.23399
# Shear Modulus (GPa) = 31.63648 20.56746 26.10197
#
# Velocity S-wave (km/s) = 3.73521 3.01170 3.39279
# Velocity P-wave (km/s) = 5.37035 5.50327 5.43722
#
# Compressibility (1/GPa) = 0.04307376
#
# Stress axis : x y z
#
# Youngs Moduli (GPa) = 86.48760 31.35408 138.40411
#
# Poissons Ratio (x) = 0.02456 0.39620
# Poissons Ratio (y) = 0.06776 0.02183
# Poissons Ratio (z) = 0.24758 0.00495
#
# Static dielectric constant tensor:
#      x y z
#    x 1.866020 0.000000 -0.026640 
#    y 0.000000 1.869880 0.000000 
#    z -0.026640 0.000000 1.885400 
# 
# From -- ./inp_files/206671.got.cif
#   From: 2010.05.17/outbox.cif.g08.bks.cpg/sg12_104_cif.got.tgz:206671.got - 2010.06.03 13:09:07.
