data_PCOD9191240
_publ_section_title
;
Structure prediction by ZEFSAII (Michael W. Deem and Ramdas Pophale) SiO2 
 PCOD9191240
Probable space group: C 2/M
;
_chemical_formula_sum "Si O2"
_cell_formula_units_Z 64
_cell_length_a 22.786642
_cell_length_b 9.656579
_cell_length_c 15.293918
_cell_angle_alpha 90.000000
_cell_angle_beta 116.584327
_cell_angle_gamma 90.000000
_cell_volume 3009.499621
_symmetry_space_group_name_H-M "C 2/M"
_symmetry_group_IT_number 12
_symmetry_cell_setting 'monoclinic'
loop_
_space_group_symop_operation_xyz
x,y,z
-x,y,-z
-x,-y,-z
x,-y,z
1/2+x,1/2+y,z
1/2-x,1/2+y,-z
1/2-x,1/2-y,-z
1/2+x,1/2-y,z
loop_
_atom_site_type_symbol
_atom_site_label
_atom_site_fract_x
_atom_site_fract_y
_atom_site_fract_z
Si Si1 0.813863 0.341741 0.684159
Si Si2 0.071624 0.845139 0.032813
Si Si3 0.930451 0.846646 0.767092
Si Si4 0.041897 0.338986 0.779622
Si Si5 0.687833 0.842778 0.103111
Si Si6 0.046905 0.340422 0.453417
Si Si7 0.166276 0.836126 0.585106
Si Si8 0.162688 0.165026 0.793144
O O1 0.825568 0.500000 0.662873
O O2 0.871331 0.243577 0.689101
O O3 0.814144 0.346215 0.791307
O O4 0.740727 0.296007 0.610755
O O5 0.091283 0.863881 0.147152
O O6 0.129427 0.754826 0.030941
O O7 0.063944 0.000000 0.988358
O O8 0.000000 0.779558 0.000000
O O9 0.997662 0.759538 0.810874
O O10 0.939152 0.000000 0.734023
O O11 0.048309 0.500000 0.811545
O O12 0.110026 0.263913 0.803339
O O13 0.997203 0.337405 0.662207
O O14 0.762235 0.801550 0.129955
O O15 0.676721 0.000000 0.066024
O O16 0.065052 0.500000 0.483669
O O17 0.111346 0.248590 0.498712
O O18 0.000000 0.290010 0.500000
O O19 0.158140 0.815103 0.684733
O O20 0.159872 0.000000 0.565241
O O21 0.151501 0.000000 0.802302
#
# Coordination Sequence:
#
# PCOD9191240 Si02
#       8
#     8   8   8   8   8   8   8   8
#     4   8  15  30  49  70  97 126 159 201 247 291
#     4   9  18  33  54  80 106 129 155 193 241 289
#     4  10  20  34  52  74  99 129 164 198 238 293
#     4  11  22  34  49  69  98 135 168 204 248 291
#     4   8  15  28  48  75 103 128 158 198 240 284
#     4  10  20  33  46  67  98 129 166 210 252 291
#     4   9  17  29  49  73  95 124 163 209 253 291
#     4   9  17  30  48  72 100 129 164 205 246 287
#
# _framework density 21.265993000000002
#
# number of rings (size 3 to 8) (size 9 to 14) (size 15 to 20)
#    0.000    2.750    1.250    2.250    0.000    3.000 
#    0.000    3.125    0.000    0.750    0.000    0.000 
#    0.000    0.000    0.000    0.000    0.000    0.000 
#
# Total GULP energy -178511.551590 kJ/mol
# GULP energy per Si atom -5578.485987 kJ/mol
# Density = 2.121759 g / cm^3
# Si number density = 21.265993 Si / 1000 Ang^3
#
#
#
# Elastic Constant Matrix: (Units=GPa)
#
#
# Indices 1 2 3 4 5 6 
#
# 1 130.2920 98.1809 31.1925 0.0000 46.4857 0.0000
# 2 98.1809 114.9346 24.4190 0.0000 38.7185 0.0000
# 3 31.1925 24.4190 44.7784 0.0000 21.2763 0.0000
# 4 0.0000 0.0000 0.0000 16.7587 0.0000 14.8532
# 5 46.4857 38.7185 21.2763 0.0000 45.3035 0.0000
# 6 0.0000 0.0000 0.0000 14.8532 0.0000 28.7194
#
#
#
# Elastic Compliance Matrix: (Units=1/GPa)
#
#
# Indices 1 2 3 4 5 6 
#
# 1 0.024909 -0.017519 -0.003563 0.000000 -0.008914 0.000000
# 2 -0.017519 0.024708 0.000285 0.000000 -0.003275 0.000000
# 3 -0.003563 0.000285 0.029655 0.000000 -0.010515 0.000000
# 4 0.000000 0.000000 0.000000 0.110170 0.000000 -0.056978
# 5 -0.008914 -0.003275 -0.010515 0.000000 0.038957 0.000000
# 6 0.000000 0.000000 0.000000 -0.056978 0.000000 0.064288
#
#
# Mechanical properties :
#
#
# Convention : Reuss Voigt Hill
#
# Bulk Modulus (GPa) = 26.53932 66.39886 46.46909
# Shear Modulus (GPa) = 14.41591 27.23716 20.82654
#
# Velocity S-wave (km/s) = 2.60645 3.58269 3.13283
# Velocity P-wave (km/s) = 4.64380 6.95737 5.91481
#
# Compressibility (1/GPa) = 0.03767994
#
# Stress axis : x y z
#
# Youngs Moduli (GPa) = 40.14548 40.47248 33.72152
#
# Poissons Ratio (x) = 0.70902 0.12015
# Poissons Ratio (y) = 0.70329 -0.00963
# Poissons Ratio (z) = 0.14304 -0.01155
#
# Static dielectric constant tensor:
#      x y z
#    x 1.767580 0.000000 -0.041840 
#    y 0.000000 1.776570 0.000000 
#    z -0.041840 0.000000 1.831200 
# 
# From -- ./inp_files/320014.got.cif
#   From: 2010.05.17/outbox.cif.g08.bks.cpg/sg12_161_cif.got.tgz:320014.got - 2010.06.03 13:09:07.
