data_PCOD9191512
_publ_section_title
;
Structure prediction by ZEFSAII (Michael W. Deem and Ramdas Pophale) SiO2 
 PCOD9191512
Probable space group: C 2/M
;
_chemical_formula_sum "Si O2"
_cell_formula_units_Z 56
_cell_length_a 15.224832
_cell_length_b 9.473990
_cell_length_c 22.356510
_cell_angle_alpha 90.000000
_cell_angle_beta 80.315433
_cell_angle_gamma 90.000000
_cell_volume 3178.745101
_symmetry_space_group_name_H-M "C 2/M"
_symmetry_group_IT_number 12
_symmetry_cell_setting 'monoclinic'
loop_
_space_group_symop_operation_xyz
x,y,z
-x,y,-z
-x,-y,-z
x,-y,z
1/2+x,1/2+y,z
1/2-x,1/2+y,-z
1/2-x,1/2-y,-z
1/2+x,1/2-y,z
loop_
_atom_site_type_symbol
_atom_site_label
_atom_site_fract_x
_atom_site_fract_y
_atom_site_fract_z
Si Si1 0.753014 0.838946 0.560048
Si Si2 0.720124 0.168837 0.088628
Si Si3 0.206987 0.330617 0.229332
Si Si4 0.602364 0.330602 0.006421
Si Si5 0.975369 0.334264 0.684449
Si Si6 0.670273 0.832752 0.693490
Si Si7 0.460595 0.338325 0.566355
O O1 0.750000 0.750000 0.500000
O O2 0.696916 0.784949 0.623174
O O3 0.854546 0.841200 0.570813
O O4 0.724329 0.000000 0.550513
O O5 0.713980 0.207392 0.158953
O O6 0.820577 0.197148 0.052461
O O7 0.705407 0.000000 0.084225
O O8 0.645386 0.250197 0.058372
O O9 0.218387 0.500000 0.232525
O O10 0.110842 0.293551 0.267808
O O11 0.277845 0.252232 0.262501
O O12 0.601078 0.500000 0.017170
O O13 0.500000 0.290569 0.000000
O O14 0.968078 0.500000 0.670212
O O15 0.982367 0.248730 0.622446
O O16 0.065022 0.315343 0.711593
O O17 0.692603 0.000000 0.694004
O O18 0.500000 0.279292 0.500000
O O19 0.493535 0.500000 0.568534
#
# Coordination Sequence:
#
# PCOD9191512 Si02
#       7
#     8   8   8   8   8   8   8
#     4  10  20  33  50  73 100 130 167 214 266 318
#     4   9  19  35  54  79 112 145 179 221 264 311
#     4  10  21  37  55  78 109 144 180 219 266 319
#     4   9  18  34  56  82 112 144 181 221 261 309
#     4  10  21  36  54  76 103 136 175 217 264 319
#     4  10  21  37  54  75 104 137 175 221 267 317
#     4  10  20  34  52  75 102 131 169 218 269 320
#
# _framework density 17.617014000000001
#
# number of rings (size 3 to 8) (size 9 to 14) (size 15 to 20)
#    0.000    2.286    1.429    0.857    0.000    4.000 
#    0.000    0.000    0.000    0.000    0.000    0.000 
#    0.000    0.000    0.000    0.000    0.000    0.000 
#
# Total GULP energy -156131.097100 kJ/mol
# GULP energy per Si atom -5576.110611 kJ/mol
# Density = 1.757692 g / cm^3
# Si number density = 17.617014 Si / 1000 Ang^3
#
#
#
# Elastic Constant Matrix: (Units=GPa)
#
#
# Indices 1 2 3 4 5 6 
#
# 1 111.2325 44.8791 70.8354 0.0000 9.0054 0.0000
# 2 44.8791 36.6488 63.2032 0.0000 7.6045 0.0000
# 3 70.8354 63.2032 162.0918 0.0000 8.5157 0.0000
# 4 0.0000 0.0000 0.0000 31.2319 0.0000 -0.7062
# 5 9.0054 7.6045 8.5157 0.0000 18.3560 0.0000
# 6 0.0000 0.0000 0.0000 -0.7062 0.0000 321.9837
#
#
#
# Elastic Compliance Matrix: (Units=1/GPa)
#
#
# Indices 1 2 3 4 5 6 
#
# 1 0.018045 -0.026287 0.002314 0.000000 0.000964 0.000000
# 2 -0.026287 0.129372 -0.037739 0.000000 -0.023192 0.000000
# 3 0.002314 -0.037739 0.019589 0.000000 0.005412 0.000000
# 4 0.000000 0.000000 0.000000 0.032020 0.000000 0.000070
# 5 0.000964 -0.023192 0.005412 0.000000 0.061102 0.000000
# 6 0.000000 0.000000 0.000000 0.000070 0.000000 0.003106
#
#
# Mechanical properties :
#
#
# Convention : Reuss Voigt Hill
#
# Bulk Modulus (GPa) = 22.94582 74.20095 48.57339
# Shear Modulus (GPa) = 12.46303 83.05134 47.75718
#
# Velocity S-wave (km/s) = 2.66267 6.87350 5.21224
# Velocity P-wave (km/s) = 4.74406 10.25689 7.99093
#
# Compressibility (1/GPa) = 0.04358092
#
# Stress axis : x y z
#
# Youngs Moduli (GPa) = 55.41710 7.72966 51.04859
#
# Poissons Ratio (x) = 0.20319 -0.11810
# Poissons Ratio (y) = 1.45677 1.92651
# Poissons Ratio (z) = -0.12821 0.29171
#
# Static dielectric constant tensor:
#      x y z
#    x 1.608690 0.000000 -0.027580 
#    y 0.000000 1.606450 0.000000 
#    z -0.027580 0.000000 1.577910 
# 
# From -- ./inp_files/308922.got.cif
#   From: 2010.05.17/outbox.cif.g08.bks.cpg/sg12_155_cif.got.tgz:308922.got - 2010.06.03 13:09:07.
