data_PCOD9191236
_publ_section_title
;
Structure prediction by ZEFSAII (Michael W. Deem and Ramdas Pophale) SiO2 
 PCOD9191236
Probable space group: C 2/M
;
_chemical_formula_sum "Si O2"
_cell_formula_units_Z 44
_cell_length_a 5.361889
_cell_length_b 24.851561
_cell_length_c 19.208027
_cell_angle_alpha 90.000000
_cell_angle_beta 72.845375
_cell_angle_gamma 90.000000
_cell_volume 2445.628617
_symmetry_space_group_name_H-M "C 2/M"
_symmetry_group_IT_number 12
_symmetry_cell_setting 'monoclinic'
loop_
_space_group_symop_operation_xyz
x,y,z
-x,y,-z
-x,-y,-z
x,-y,z
1/2+x,1/2+y,z
1/2-x,1/2+y,-z
1/2-x,1/2-y,-z
1/2+x,1/2-y,z
loop_
_atom_site_type_symbol
_atom_site_label
_atom_site_fract_x
_atom_site_fract_y
_atom_site_fract_z
Si Si1 0.533529 0.565118 0.703411
Si Si2 0.294756 0.934346 0.957693
Si Si3 0.796876 0.500000 0.451343
Si Si4 0.451143 0.935269 0.790620
Si Si5 0.335825 0.227148 0.415295
Si Si6 0.986249 0.391854 0.584066
O O1 0.541188 0.500000 0.688159
O O2 0.237816 0.582770 0.742132
O O3 0.689669 0.597764 0.631597
O O4 0.716775 0.575174 0.756096
O O5 0.381237 0.916057 0.873847
O O6 0.295325 0.000000 0.956752
O O7 0.500000 0.917761 0.000000
O O8 0.000000 0.917732 0.000000
O O9 0.500000 0.500000 0.500000
O O10 0.000000 0.500000 0.500000
O O11 0.860506 0.445603 0.405054
O O12 0.473033 0.000000 0.792941
O O13 0.250000 0.250000 0.500000
O O14 0.613108 0.254604 0.381910
O O15 0.382624 0.163832 0.406353
O O16 0.000000 0.390094 0.500000
#
# Coordination Sequence:
#
# PCOD9191236 Si02
#       6
#     8   8   4   8   8   8
#     4  10  20  33  45  66  94 132 162 201 260 300
#     4   9  15  24  42  65  85 118 164 203 229 265
#     4  10  24  34  50  74  96 122 154 218 268 290
#     4   9  18  31  44  62  97 127 160 201 243 297
#     4  10  21  37  55  73  92 120 158 219 265 311
#     4  11  22  38  55  73  99 127 177 222 260 303
#
# _framework density 17.991285000000001
#
# number of rings (size 3 to 8) (size 9 to 14) (size 15 to 20)
#    0.000    2.182    2.727    1.091    2.545    8.727 
#    0.000    0.000    0.000    0.000    0.000    0.000 
#    0.000    0.000    0.000    0.000    0.000   63.636 
#
# Total GULP energy -122731.381972 kJ/mol
# GULP energy per Si atom -5578.699181 kJ/mol
# Density = 1.795034 g / cm^3
# Si number density = 17.991285 Si / 1000 Ang^3
#
#
#
# Elastic Constant Matrix: (Units=GPa)
#
#
# Indices 1 2 3 4 5 6 
#
# 1 140.5776 29.0843 45.1481 0.0000 -18.6407 0.0000
# 2 29.0843 96.8059 4.6921 0.0000 -11.0909 0.0000
# 3 45.1481 4.6921 107.7704 0.0000 -10.2368 0.0000
# 4 0.0000 0.0000 0.0000 -4.0619 0.0000 -0.7154
# 5 -18.6407 -11.0909 -10.2368 0.0000 25.8933 0.0000
# 6 0.0000 0.0000 0.0000 -0.7154 0.0000 10.0302
#
#
#
# Elastic Compliance Matrix: (Units=1/GPa)
#
#
# Indices 1 2 3 4 5 6 
#
# 1 0.009207 -0.002099 -0.003347 0.000000 0.004406 0.000000
# 2 -0.002099 0.011342 0.000731 0.000000 0.003636 0.000000
# 3 -0.003347 0.000731 0.010858 0.000000 0.002196 0.000000
# 4 0.000000 0.000000 0.000000 -0.243135 0.000000 -0.017341
# 5 0.004406 0.003636 0.002196 0.000000 0.044217 0.000000
# 6 0.000000 0.000000 0.000000 -0.017341 0.000000 0.098462
#
#
# Mechanical properties :
#
#
# Convention : Reuss Voigt Hill
#
# Bulk Modulus (GPa) = 45.50430 55.88922 50.69676
# Shear Modulus (GPa) = -95.61425 24.12094 -35.74665
#
# Velocity S-wave (km/s) = -7.29795 3.66553 -4.46229
# Velocity P-wave (km/s) = 6.75768 7.00335 1.30013
#
# Compressibility (1/GPa) = 0.02197595
#
# Stress axis : x y z
#
# Youngs Moduli (GPa) = 108.61304 88.16991 92.09804
#
# Poissons Ratio (x) = 0.18508 0.30827
# Poissons Ratio (y) = 0.22799 -0.06732
# Poissons Ratio (z) = 0.36355 -0.06445
#
# Static dielectric constant tensor:
#      x y z
#    x 1.663850 0.000000 0.023590 
#    y 0.000000 1.629020 0.000000 
#    z 0.023590 0.000000 1.652000 
# 
# From -- ./inp_files/191902.got.cif
#   From: 2010.05.17/outbox.cif.g08.bks.cpg/sg12_96_cif.got.tgz:191902.got - 2010.06.03 13:09:07.
