data_PCOD9191321
_publ_section_title
;
Structure prediction by ZEFSAII (Michael W. Deem and Ramdas Pophale) SiO2 
 PCOD9191321
Probable space group: C 2/M
;
_chemical_formula_sum "Si O2"
_cell_formula_units_Z 48
_cell_length_a 30.131300
_cell_length_b 7.370217
_cell_length_c 28.738226
_cell_angle_alpha 90.000000
_cell_angle_beta 20.720430
_cell_angle_gamma 90.000000
_cell_volume 2258.011799
_symmetry_space_group_name_H-M "C 2/M"
_symmetry_group_IT_number 12
_symmetry_cell_setting 'monoclinic'
loop_
_space_group_symop_operation_xyz
x,y,z
-x,y,-z
-x,-y,-z
x,-y,z
1/2+x,1/2+y,z
1/2-x,1/2+y,-z
1/2-x,1/2-y,-z
1/2+x,1/2-y,z
loop_
_atom_site_type_symbol
_atom_site_label
_atom_site_fract_x
_atom_site_fract_y
_atom_site_fract_z
Si Si1 0.262010 0.221970 0.628684
Si Si2 0.994369 0.721467 0.666405
Si Si3 0.101720 0.284874 0.140347
Si Si4 0.854955 0.720884 0.638819
Si Si5 0.260472 0.778080 0.831077
Si Si6 0.513708 0.291166 0.124174
O O1 0.374008 0.279659 0.484624
O O2 0.295333 0.277630 0.648556
O O3 0.124330 0.285926 0.748922
O O4 0.263584 0.000000 0.626005
O O5 0.993480 0.500000 0.667638
O O6 0.967179 0.782257 0.745575
O O7 0.878923 0.776983 0.746511
O O8 0.083826 0.500000 0.155626
O O9 0.050327 0.210367 0.142405
O O10 0.250000 0.250000 0.000000
O O11 0.855346 0.500000 0.638303
O O12 0.782662 0.777714 0.756201
O O13 0.000000 0.777537 0.500000
O O14 0.260158 0.000000 0.832468
O O15 0.130830 0.712803 0.980705
O O16 0.505109 0.500000 0.117056
#
# Coordination Sequence:
#
# PCOD9191321 Si02
#       6
#     8   8   8   8   8   8
#     4   9  17  28  44  70 103 134 162 200 249 297
#     4   9  16  28  46  68  96 130 162 200 250 293
#     4  11  21  34  54  75  98 130 169 206 246 293
#     4   9  14  22  41  68  97 131 167 198 240 298
#     4   9  15  25  43  67  98 130 160 200 248 290
#     4  10  20  33  48  73 107 133 160 204 250 289
#
# _framework density 21.257639000000001
#
# number of rings (size 3 to 8) (size 9 to 14) (size 15 to 20)
#    0.000    2.500    3.333    0.500    0.000    1.333 
#    0.000    3.333    0.000    1.000    0.000    2.333 
#    0.000    2.667    0.000    0.000    0.000    0.000 
#
# Total GULP energy -134067.143752 kJ/mol
# GULP energy per Si atom -5586.130990 kJ/mol
# Density = 2.120926 g / cm^3
# Si number density = 21.257639 Si / 1000 Ang^3
#
#
#
# Elastic Constant Matrix: (Units=GPa)
#
#
# Indices 1 2 3 4 5 6 
#
# 1 171.0633 -9.8987 137.5056 0.0060 14.5196 -0.0046
# 2 -9.8987 75.2887 4.0630 0.0616 1.3846 -0.0160
# 3 137.5056 4.0630 247.7632 0.0140 9.0493 0.0005
# 4 0.0060 0.0616 0.0140 -8.5328 -0.0071 4.9819
# 5 14.5196 1.3846 9.0493 -0.0071 48.1973 -0.0013
# 6 -0.0046 -0.0160 0.0005 4.9819 -0.0013 8.2284
#
#
#
# Elastic Compliance Matrix: (Units=1/GPa)
#
#
# Indices 1 2 3 4 5 6 
#
# 1 0.011011 0.001816 -0.006059 0.000014 -0.002232 0.000001
# 2 0.001816 0.013599 -0.001205 0.000084 -0.000711 -0.000024
# 3 -0.006059 -0.001205 0.007401 -0.000003 0.000470 -0.000004
# 4 0.000014 0.000084 -0.000003 -0.086587 -0.000017 0.052424
# 5 -0.002232 -0.000711 0.000470 -0.000017 0.021352 0.000011
# 6 0.000001 -0.000024 -0.000004 0.052424 0.000011 0.089790
#
#
# Mechanical properties :
#
#
# Convention : Reuss Voigt Hill
#
# Bulk Modulus (GPa) = 47.36007 84.16168 65.76088
# Shear Modulus (GPa) = 67.11234 33.74161 50.42697
#
# Velocity S-wave (km/s) = 5.62490 3.98838 4.87579
# Velocity P-wave (km/s) = 8.03202 7.80300 7.91834
#
# Compressibility (1/GPa) = 0.02111483
#
# Stress axis : x y z
#
# Youngs Moduli (GPa) = 90.82045 73.53515 135.10930
#
# Poissons Ratio (x) = -0.13352 0.81864
# Poissons Ratio (y) = -0.16490 0.16277
# Poissons Ratio (z) = 0.55029 0.08859
#
# Static dielectric constant tensor:
#      x y z
#    x 1.699150 0.000000 0.017390 
#    y 0.000000 1.860460 0.000010 
#    z 0.017390 0.000010 1.733230 
# 
# From -- ./inp_files/369263.got.cif
#   From: 2010.05.17/outbox.cif.g08.bks.cpg/sg12_185_cif.got.tgz:369263.got - 2010.06.03 13:09:07.
