data_PCOD9191103
_publ_section_title
;
Structure prediction by ZEFSAII (Michael W. Deem and Ramdas Pophale) SiO2 
 PCOD9191103
Probable space group: C 2/M
;
_chemical_formula_sum "Si O2"
_cell_formula_units_Z 48
_cell_length_a 31.959408
_cell_length_b 13.989849
_cell_length_c 5.871045
_cell_angle_alpha 90.000000
_cell_angle_beta 78.587010
_cell_angle_gamma 90.000000
_cell_volume 2573.081422
_symmetry_space_group_name_H-M "C 2/M"
_symmetry_group_IT_number 12
_symmetry_cell_setting 'monoclinic'
loop_
_space_group_symop_operation_xyz
x,y,z
-x,y,-z
-x,-y,-z
x,-y,z
1/2+x,1/2+y,z
1/2-x,1/2+y,-z
1/2-x,1/2-y,-z
1/2+x,1/2-y,z
loop_
_atom_site_type_symbol
_atom_site_label
_atom_site_fract_x
_atom_site_fract_y
_atom_site_fract_z
Si Si1 0.684755 0.608891 0.331035
Si Si2 0.729142 0.891942 0.965162
Si Si3 0.977039 0.113575 0.775020
Si Si4 0.613197 0.288333 0.152336
Si Si5 0.650567 0.110038 0.359276
Si Si6 0.323847 0.243557 0.289871
O O1 0.684475 0.500000 0.408988
O O2 0.719917 0.617272 0.091623
O O3 0.638666 0.642958 0.298133
O O4 0.697111 0.682095 0.515009
O O5 0.710279 0.809714 0.828147
O O6 0.720789 0.000000 0.882026
O O7 0.700049 0.885549 0.220137
O O8 0.934917 0.178891 0.817449
O O9 0.000000 0.129999 0.500000
O O10 0.966499 0.000000 0.787676
O O11 0.000000 0.130794 0.000000
O O12 0.622637 0.180324 0.230421
O O13 0.639811 0.296835 0.891818
O O14 0.651888 0.159169 0.601468
O O15 0.637238 0.000000 0.369105
#
# Coordination Sequence:
#
# PCOD9191103 Si02
#       6
#     8   8   8   8   8   8
#     4  10  21  33  49  75 113 151 189 237 285 338
#     4   9  18  33  50  75 110 151 194 234 279 333
#     4  10  23  42  68  94 121 155 192 237 293 364
#     4  10  22  37  56  83 112 145 185 239 292 350
#     4   9  19  35  56  79 110 149 193 236 282 338
#     4  10  20  32  53  79 107 148 193 237 279 338
#
# _framework density 18.654675999999998
#
# number of rings (size 3 to 8) (size 9 to 14) (size 15 to 20)
#    0.000    2.333    0.000    1.500    4.667    9.333 
#    0.000    3.333    0.000    1.000    0.000    0.000 
#    0.000    0.000    0.000    0.000    0.000    0.000 
#
# Total GULP energy -133718.851288 kJ/mol
# GULP energy per Si atom -5571.618804 kJ/mol
# Density = 1.861222 g / cm^3
# Si number density = 18.654676 Si / 1000 Ang^3
#
#
#
# Elastic Constant Matrix: (Units=GPa)
#
#
# Indices 1 2 3 4 5 6 
#
# 1 67.1841 38.2201 10.1414 0.0000 -7.3387 0.0000
# 2 38.2201 109.7284 20.8667 0.0000 -5.4127 0.0000
# 3 10.1414 20.8667 49.5287 0.0000 -3.0494 0.0000
# 4 0.0000 0.0000 0.0000 14.5171 0.0000 -8.5876
# 5 -7.3387 -5.4127 -3.0494 0.0000 18.1909 0.0000
# 6 0.0000 0.0000 0.0000 -8.5876 0.0000 21.1001
#
#
#
# Elastic Compliance Matrix: (Units=1/GPa)
#
#
# Indices 1 2 3 4 5 6 
#
# 1 0.019194 -0.006221 -0.000956 0.000000 0.005732 0.000000
# 2 -0.006221 0.012017 -0.003762 0.000000 0.000435 0.000000
# 3 -0.000956 -0.003762 0.022107 0.000000 0.002201 0.000000
# 4 0.000000 0.000000 0.000000 0.090727 0.000000 0.036925
# 5 0.005732 0.000435 0.002201 0.000000 0.057783 0.000000
# 6 0.000000 0.000000 0.000000 0.036925 0.000000 0.062422
#
#
# Mechanical properties :
#
#
# Convention : Reuss Voigt Hill
#
# Bulk Modulus (GPa) = 31.80790 40.54416 36.17603
# Shear Modulus (GPa) = 16.85724 21.24251 19.04987
#
# Velocity S-wave (km/s) = 3.00933 3.37816 3.19907
# Velocity P-wave (km/s) = 5.40025 6.08253 5.75152
#
# Compressibility (1/GPa) = 0.03143873
#
# Stress axis : x y z
#
# Youngs Moduli (GPa) = 52.09981 83.21402 45.23522
#
# Poissons Ratio (x) = 0.51767 0.04326
# Poissons Ratio (y) = 0.32411 0.17019
# Poissons Ratio (z) = 0.04982 0.31308
#
# Static dielectric constant tensor:
#      x y z
#    x 1.622780 0.000000 0.012280 
#    y 0.000000 1.650340 0.000000 
#    z 0.012280 0.000000 1.707210 
# 
# From -- ./inp_files/28141.got.cif
#   From: 2010.05.17/outbox.cif.g08.bks.cpg/sg12_15_cif.got.tgz:28141.got - 2010.06.03 13:09:07.
