data_PCOD9191038
_publ_section_title
;
Structure prediction by ZEFSAII (Michael W. Deem and Ramdas Pophale) SiO2 
 PCOD9191038
Probable space group: C 2/M
;
_chemical_formula_sum "Si O2"
_cell_formula_units_Z 40
_cell_length_a 17.844354
_cell_length_b 15.155437
_cell_length_c 18.054422
_cell_angle_alpha 90.000000
_cell_angle_beta 151.312575
_cell_angle_gamma 90.000000
_cell_volume 2343.808605
_symmetry_space_group_name_H-M "C 2/M"
_symmetry_group_IT_number 12
_symmetry_cell_setting 'monoclinic'
loop_
_space_group_symop_operation_xyz
x,y,z
-x,y,-z
-x,-y,-z
x,-y,z
1/2+x,1/2+y,z
1/2-x,1/2+y,-z
1/2-x,1/2-y,-z
1/2+x,1/2-y,z
loop_
_atom_site_type_symbol
_atom_site_label
_atom_site_fract_x
_atom_site_fract_y
_atom_site_fract_z
Si Si1 0.481259 0.399703 0.218877
Si Si2 0.036462 0.733141 0.179543
Si Si3 0.725120 0.099160 0.422670
Si Si4 0.792707 0.399249 0.897331
Si Si5 0.325112 0.673422 0.359488
O O1 0.475292 0.500000 0.184872
O O2 0.462686 0.323460 0.142601
O O3 0.649555 0.386416 0.404236
O O4 0.349111 0.392201 0.167255
O O5 0.093744 0.674060 0.299872
O O6 0.194997 0.745391 0.269521
O O7 0.923456 0.670151 0.035139
O O8 0.816756 0.108987 0.423668
O O9 0.661432 0.000000 0.373349
O O10 0.852476 0.500000 0.950900
O O11 0.730780 0.376057 0.762350
O O12 0.500000 0.706481 0.500000
#
# Coordination Sequence:
#
# PCOD9191038 Si02
#       5
#     8   8   8   8   8
#     4  10  20  35  53  72 101 141 174 202 242 297
#     4  10  21  32  49  75 110 132 166 208 247 300
#     4   9  18  30  50  75 103 133 160 198 252 303
#     4  11  20  32  52  79 107 130 160 207 261 307
#     4  10  20  32  52  76 108 133 158 199 257 316
#
# _framework density 17.066240000000001
#
# number of rings (size 3 to 8) (size 9 to 14) (size 15 to 20)
#    1.200    0.800    2.000    3.000    0.000    1.600 
#    0.000    0.000    0.000    3.000    0.000    0.000 
#    0.000    0.000    0.000    0.000    0.000    0.000 
#
# Total GULP energy -111365.291634 kJ/mol
# GULP energy per Si atom -5568.264582 kJ/mol
# Density = 1.702740 g / cm^3
# Si number density = 17.066240 Si / 1000 Ang^3
#
#
#
# Elastic Constant Matrix: (Units=GPa)
#
#
# Indices 1 2 3 4 5 6 
#
# 1 41.8164 37.0758 4.0027 0.0002 -7.1397 0.0001
# 2 37.0758 80.1950 21.5349 0.0000 -5.5854 0.0001
# 3 4.0027 21.5349 54.6964 0.0002 -3.2459 0.0001
# 4 0.0002 0.0000 0.0002 4.0307 0.0002 6.7656
# 5 -7.1397 -5.5854 -3.2459 0.0002 13.6026 0.0001
# 6 0.0001 0.0001 0.0001 6.7656 0.0001 10.6922
#
#
#
# Elastic Compliance Matrix: (Units=1/GPa)
#
#
# Indices 1 2 3 4 5 6 
#
# 1 0.045003 -0.021296 0.006060 0.000029 0.016323 -0.000019
# 2 -0.021296 0.024296 -0.008195 -0.000015 -0.003157 0.000010
# 3 0.006060 -0.008195 0.021357 0.000017 0.004912 -0.000011
# 4 0.000029 -0.000015 0.000017 -3.994932 0.000044 2.527832
# 5 0.016323 -0.003157 0.004912 0.000044 0.081959 -0.000029
# 6 -0.000019 0.000010 -0.000011 2.527832 -0.000029 -1.505984
#
#
# Mechanical properties :
#
#
# Convention : Reuss Voigt Hill
#
# Bulk Modulus (GPa) = 22.83399 33.54827 28.19113
# Shear Modulus (GPa) = -0.94934 13.27138 6.16102
#
# Velocity S-wave (km/s) = -0.74664 2.79164 1.90208
# Velocity P-wave (km/s) = 3.55884 5.48556 4.62368
#
# Compressibility (1/GPa) = 0.04379436
#
# Stress axis : x y z
#
# Youngs Moduli (GPa) = 22.22079 41.15918 46.82269
#
# Poissons Ratio (x) = 0.87654 -0.28375
# Poissons Ratio (y) = 0.47322 0.38370
# Poissons Ratio (z) = -0.13466 0.33728
#
# Static dielectric constant tensor:
#      x y z
#    x 1.568020 0.000000 0.014880 
#    y 0.000000 1.570260 0.000000 
#    z 0.014880 0.000000 1.596720 
# 
# From -- ./inp_files/277691.got.cif
#   From: 2010.05.17/outbox.cif.g08.bks.cpg/sg12_139_cif.got.tgz:277691.got - 2010.06.03 13:09:07.
