data_PCOD9191534
_publ_section_title
;
Structure prediction by ZEFSAII (Michael W. Deem and Ramdas Pophale) SiO2 
 PCOD9191534
Probable space group: C 2/M
;
_chemical_formula_sum "Si O2"
_cell_formula_units_Z 56
_cell_length_a 32.056987
_cell_length_b 8.559836
_cell_length_c 20.275777
_cell_angle_alpha 90.000000
_cell_angle_beta 143.989934
_cell_angle_gamma 90.000000
_cell_volume 3271.066200
_symmetry_space_group_name_H-M "C 2/M"
_symmetry_group_IT_number 12
_symmetry_cell_setting 'monoclinic'
loop_
_space_group_symop_operation_xyz
x,y,z
-x,y,-z
-x,-y,-z
x,-y,z
1/2+x,1/2+y,z
1/2-x,1/2+y,-z
1/2-x,1/2-y,-z
1/2+x,1/2-y,z
loop_
_atom_site_type_symbol
_atom_site_label
_atom_site_fract_x
_atom_site_fract_y
_atom_site_fract_z
Si Si1 0.098921 0.310742 0.389323
Si Si2 0.443809 0.811396 0.238384
Si Si3 0.073176 0.687947 0.629902
Si Si4 0.182059 0.688215 0.373242
Si Si5 0.298111 0.314714 0.001561
Si Si6 0.278080 0.313849 0.224811
Si Si7 0.735526 0.310841 0.643718
O O1 0.100761 0.500000 0.395409
O O2 0.116722 0.263337 0.336326
O O3 0.162354 0.248967 0.517031
O O4 0.021348 0.258948 0.313337
O O5 0.432619 0.769385 0.300680
O O6 0.441790 0.000000 0.231509
O O7 0.378105 0.744208 0.113912
O O8 0.083377 0.500000 0.638659
O O9 0.140038 0.770437 0.682769
O O10 0.000000 0.726396 0.500000
O O11 0.182203 0.500000 0.373379
O O12 0.250000 0.750000 0.500000
O O13 0.199000 0.738194 0.320110
O O14 0.295631 0.500000 0.002098
O O15 0.266179 0.260137 0.891251
O O16 0.250000 0.250000 0.000000
O O17 0.269194 0.500000 0.210423
O O18 0.257725 0.258580 0.272233
O O19 0.732336 0.500000 0.639578
#
# Coordination Sequence:
#
# PCOD9191534 Si02
#       7
#     8   8   8   8   8   8   8
#     4   9  17  30  52  79 106 137 170 205 249 304
#     4  10  20  34  52  75 103 133 168 210 252 298
#     4  10  20  33  50  73 103 136 165 201 252 303
#     4   8  14  27  47  73 104 136 169 203 245 296
#     4  12  24  39  57  74  95 129 173 217 257 302
#     4  11  22  35  52  74 101 135 173 212 253 298
#     4   9  18  31  49  76 109 139 168 208 252 297
#
# _framework density 17.119800999999999
#
# number of rings (size 3 to 8) (size 9 to 14) (size 15 to 20)
#    0.000    2.143    1.429    2.571    0.000    3.143 
#    0.000    0.000    0.000    0.857    0.000    6.000 
#    0.000    0.000    0.000    0.000    0.000    0.000 
#
# Total GULP energy -156129.815924 kJ/mol
# GULP energy per Si atom -5576.064854 kJ/mol
# Density = 1.708084 g / cm^3
# Si number density = 17.119801 Si / 1000 Ang^3
#
#
#
# Elastic Constant Matrix: (Units=GPa)
#
#
# Indices 1 2 3 4 5 6 
#
# 1 120.8833 20.7117 35.0757 0.0000 -36.3283 0.0000
# 2 20.7117 16.1577 14.3203 0.0000 -7.0928 0.0000
# 3 35.0757 14.3203 82.1228 0.0000 -24.2253 0.0000
# 4 0.0000 0.0000 0.0000 19.8560 0.0000 -1.3538
# 5 -36.3283 -7.0928 -24.2253 0.0000 19.3986 0.0000
# 6 0.0000 0.0000 0.0000 -1.3538 0.0000 17.3438
#
#
#
# Elastic Compliance Matrix: (Units=1/GPa)
#
#
# Indices 1 2 3 4 5 6 
#
# 1 0.022110 -0.014490 0.005913 0.000000 0.043492 0.000000
# 2 -0.014490 0.086485 -0.011983 0.000000 -0.010480 0.000000
# 3 0.005913 -0.011983 0.021714 0.000000 0.033809 0.000000
# 4 0.000000 0.000000 0.000000 0.050632 0.000000 0.003952
# 5 0.043492 -0.010480 0.033809 0.000000 0.171388 0.000000
# 6 0.000000 0.000000 0.000000 0.003952 0.000000 0.057966
#
#
# Mechanical properties :
#
#
# Convention : Reuss Voigt Hill
#
# Bulk Modulus (GPa) = 11.21234 39.93102 25.57168
# Shear Modulus (GPa) = 10.39188 21.25673 15.82430
#
# Velocity S-wave (km/s) = 2.46643 3.52752 3.04357
# Velocity P-wave (km/s) = 3.83074 6.32189 5.22690
#
# Compressibility (1/GPa) = 0.08918746
#
# Stress axis : x y z
#
# Youngs Moduli (GPa) = 45.22897 11.56273 46.05272
#
# Poissons Ratio (x) = 0.16755 -0.27231
# Poissons Ratio (y) = 0.65538 0.55186
# Poissons Ratio (z) = -0.26744 0.13856
#
# Static dielectric constant tensor:
#      x y z
#    x 1.619310 0.000000 -0.016250 
#    y 0.000000 1.570950 0.000000 
#    z -0.016250 0.000000 1.542390 
# 
# From -- ./inp_files/295067.got.cif
#   From: 2010.05.17/outbox.cif.g08.bks.cpg/sg12_148_cif.got.tgz:295067.got - 2010.06.03 13:09:07.
