data_PCOD9191850
_publ_section_title
;
Structure prediction by ZEFSAII (Michael W. Deem and Ramdas Pophale) SiO2 
 PCOD9191850
Probable space group: C 2/M
;
_chemical_formula_sum "Si O2"
_cell_formula_units_Z 56
_cell_length_a 14.678928
_cell_length_b 14.713596
_cell_length_c 25.402029
_cell_angle_alpha 90.000000
_cell_angle_beta 29.952762
_cell_angle_gamma 90.000000
_cell_volume 2739.244599
_symmetry_space_group_name_H-M "C 2/M"
_symmetry_group_IT_number 12
_symmetry_cell_setting 'monoclinic'
loop_
_space_group_symop_operation_xyz
x,y,z
-x,y,-z
-x,-y,-z
x,-y,z
1/2+x,1/2+y,z
1/2-x,1/2+y,-z
1/2-x,1/2-y,-z
1/2+x,1/2-y,z
loop_
_atom_site_type_symbol
_atom_site_label
_atom_site_fract_x
_atom_site_fract_y
_atom_site_fract_z
Si Si1 0.500857 0.283317 0.210687
Si Si2 0.126868 0.660776 0.570496
Si Si3 0.201666 0.398410 0.420050
Si Si4 0.270088 0.734829 0.746727
Si Si5 0.709850 0.105608 0.877981
Si Si6 0.909136 0.899252 0.597490
Si Si7 0.539894 0.097861 0.724531
O O1 0.340504 0.324163 0.328181
O O2 0.403548 0.264298 0.202778
O O3 0.663545 0.355056 0.138130
O O4 0.565050 0.187752 0.204344
O O5 0.250000 0.750000 0.500000
O O6 0.181458 0.602780 0.492803
O O7 0.151007 0.615511 0.615041
O O8 0.908310 0.680817 0.683133
O O9 0.254864 0.500000 0.375489
O O10 0.000000 0.377853 0.500000
O O11 0.226752 0.676590 0.820664
O O12 0.404765 0.667197 0.647610
O O13 0.762183 0.000000 0.838409
O O14 0.500000 0.104292 0.000000
O O15 0.696387 0.908480 0.690039
O O16 0.000000 0.859082 0.500000
O O17 0.983214 0.000000 0.569918
O O18 0.444021 0.000000 0.769029
#
# Coordination Sequence:
#
# PCOD9191850 Si02
#       7
#     8   8   8   8   8   8   8
#     4  11  22  40  65  92 130 166 212 267 324 386
#     4  12  20  32  54  82 124 172 212 250 301 372
#     4  11  22  35  54  85 129 173 211 249 301 380
#     4  11  22  36  62  91 124 166 208 260 316 381
#     4  11  25  47  72  96 123 163 220 282 339 389
#     4   9  18  30  49  80 117 155 198 243 292 359
#     4  10  20  33  51  79 114 159 202 247 305 367
#
# _framework density 20.443591999999999
#
# number of rings (size 3 to 8) (size 9 to 14) (size 15 to 20)
#    0.000    1.286    4.286    2.143    2.000    1.143 
#    0.000    4.286    0.000    0.429    0.000    0.000 
#    0.000    0.000    0.000    0.000    0.000    0.000 
#
# Total GULP energy -156050.079445 kJ/mol
# GULP energy per Si atom -5573.217123 kJ/mol
# Density = 2.039706 g / cm^3
# Si number density = 20.443592 Si / 1000 Ang^3
#
#
#
# Elastic Constant Matrix: (Units=GPa)
#
#
# Indices 1 2 3 4 5 6 
#
# 1 90.2121 29.1990 15.3807 0.0004 -16.1061 -0.0001
# 2 29.1990 103.7164 18.6589 -0.0005 -11.6770 -0.0006
# 3 15.3807 18.6589 42.4088 0.0154 -12.5917 -0.0133
# 4 0.0004 -0.0005 0.0154 -12.4129 -0.0054 29.1322
# 5 -16.1061 -11.6770 -12.5917 -0.0054 20.6709 0.0038
# 6 -0.0001 -0.0006 -0.0133 29.1322 0.0038 -7.1698
#
#
#
# Elastic Compliance Matrix: (Units=1/GPa)
#
#
# Indices 1 2 3 4 5 6 
#
# 1 0.013661 -0.002673 -0.001302 -0.000001 0.008341 0.000001
# 2 -0.002673 0.011243 -0.003308 -0.000001 0.002254 0.000002
# 3 -0.001302 -0.003308 0.030095 0.000009 0.015449 -0.000009
# 4 -0.000001 -0.000001 0.000009 0.009438 -0.000001 0.038348
# 5 0.008341 0.002254 0.015449 -0.000001 0.065560 0.000004
# 6 0.000001 0.000002 -0.000009 0.038348 0.000004 0.016340
#
#
# Mechanical properties :
#
#
# Convention : Reuss Voigt Hill
#
# Bulk Modulus (GPa) = 24.73223 40.31272 32.52248
# Shear Modulus (GPa) = 28.67300 11.75756 20.21528
#
# Velocity S-wave (km/s) = 3.74912 2.40077 3.14798
# Velocity P-wave (km/s) = 5.55565 5.23896 5.39963
#
# Compressibility (1/GPa) = 0.04043306
#
# Stress axis : x y z
#
# Youngs Moduli (GPa) = 73.19953 88.94440 33.22845
#
# Poissons Ratio (x) = 0.23772 0.04327
# Poissons Ratio (y) = 0.19564 0.10993
# Poissons Ratio (z) = 0.09531 0.29425
#
# Static dielectric constant tensor:
#      x y z
#    x 1.801300 0.000000 -0.037490 
#    y 0.000000 1.858380 0.000000 
#    z -0.037490 0.000000 1.697690 
# 
# From -- ./inp_files/361395.got.cif
#   From: 2010.05.17/outbox.cif.g08.bks.cpg/sg12_181_cif.got.tgz:361395.got - 2010.06.03 13:09:07.
