data_PCOD9191128
_publ_section_title
;
Structure prediction by ZEFSAII (Michael W. Deem and Ramdas Pophale) SiO2 
 PCOD9191128
Probable space group: C 2/M
;
_chemical_formula_sum "Si O2"
_cell_formula_units_Z 44
_cell_length_a 30.793881
_cell_length_b 9.712005
_cell_length_c 18.802683
_cell_angle_alpha 90.000000
_cell_angle_beta 159.232400
_cell_angle_gamma 90.000000
_cell_volume 1993.908710
_symmetry_space_group_name_H-M "C 2/M"
_symmetry_group_IT_number 12
_symmetry_cell_setting 'monoclinic'
loop_
_space_group_symop_operation_xyz
x,y,z
-x,y,-z
-x,-y,-z
x,-y,z
1/2+x,1/2+y,z
1/2-x,1/2+y,-z
1/2-x,1/2-y,-z
1/2+x,1/2-y,z
loop_
_atom_site_type_symbol
_atom_site_label
_atom_site_fract_x
_atom_site_fract_y
_atom_site_fract_z
Si Si1 0.059925 0.658731 0.520396
Si Si2 0.635540 0.244324 0.895801
Si Si3 0.773358 0.000000 0.062151
Si Si4 0.484137 0.157200 0.895432
Si Si5 0.424668 0.337690 0.677951
Si Si6 0.232085 0.153642 0.699433
O O1 0.091254 0.500000 0.582169
O O2 0.174264 0.739186 0.664906
O O3 0.000000 0.717988 0.500000
O O4 0.955965 0.669511 0.300969
O O5 0.733255 0.123737 0.057058
O O6 0.548991 0.291155 0.827576
O O7 0.689627 0.378387 0.939787
O O8 0.622926 0.151297 0.079126
O O9 0.435453 0.000000 0.824666
O O10 0.500000 0.210060 0.000000
O O11 0.410835 0.250694 0.728376
O O12 0.430227 0.500000 0.701547
O O13 0.317935 0.313081 0.456470
O O14 0.182571 0.000000 0.639160
#
# Coordination Sequence:
#
# PCOD9191128 Si02
#       6
#     8   8   4   8   8   8
#     4  10  21  37  54  80 119 160 202 247 295 352
#     4  10  20  37  52  82 117 161 203 249 295 359
#     4  10  20  32  54  78 116 152 200 248 286 340
#     4  10  23  43  65  94 124 154 202 257 313 375
#     4  10  21  39  62  86 122 161 201 251 305 364
#     4   9  21  41  62  87 122 163 201 249 306 363
#
# _framework density 22.067208999999998
#
# number of rings (size 3 to 8) (size 9 to 14) (size 15 to 20)
#    0.000    2.182    1.818    0.000    2.545    5.818 
#    3.273    0.000    0.000    0.000    0.000    0.000 
#    0.000    0.000    0.000    0.000    0.000    0.000 
#
# Total GULP energy -122472.098753 kJ/mol
# GULP energy per Si atom -5566.913580 kJ/mol
# Density = 2.201698 g / cm^3
# Si number density = 22.067209 Si / 1000 Ang^3
#
#
#
# Elastic Constant Matrix: (Units=GPa)
#
#
# Indices 1 2 3 4 5 6 
#
# 1 50.1803 12.7092 8.4801 0.0000 -21.1479 0.0000
# 2 12.7092 94.1903 17.1678 0.0000 -10.3798 0.0000
# 3 8.4801 17.1678 45.8849 0.0000 -13.8295 0.0000
# 4 0.0000 0.0000 0.0000 -37.1071 0.0000 -0.3059
# 5 -21.1479 -10.3798 -13.8295 0.0000 33.3465 0.0000
# 6 0.0000 0.0000 0.0000 -0.3059 0.0000 40.2737
#
#
#
# Elastic Compliance Matrix: (Units=1/GPa)
#
#
# Indices 1 2 3 4 5 6 
#
# 1 0.027532 -0.001972 0.000831 0.000000 0.017191 0.000000
# 2 -0.001972 0.011657 -0.003749 0.000000 0.000823 0.000000
# 3 0.000831 -0.003749 0.026114 0.000000 0.010190 0.000000
# 4 0.000000 0.000000 0.000000 -0.026947 0.000000 -0.000205
# 5 0.017191 0.000823 0.010190 0.000000 0.045373 0.000000
# 6 0.000000 0.000000 0.000000 -0.000205 0.000000 0.024829
#
#
# Mechanical properties :
#
#
# Convention : Reuss Voigt Hill
#
# Bulk Modulus (GPa) = 18.01044 29.66331 23.83688
# Shear Modulus (GPa) = 36.53770 17.42917 26.98344
#
# Velocity S-wave (km/s) = 4.07350 2.81343 3.50063
# Velocity P-wave (km/s) = 5.50490 4.90156 5.21197
#
# Compressibility (1/GPa) = 0.05552335
#
# Stress axis : x y z
#
# Youngs Moduli (GPa) = 36.32103 85.78624 38.29369
#
# Poissons Ratio (x) = 0.16916 -0.03182
# Poissons Ratio (y) = 0.07162 0.14356
# Poissons Ratio (z) = -0.03018 0.32160
#
# Static dielectric constant tensor:
#      x y z
#    x 1.810050 0.000000 -0.006560 
#    y 0.000000 1.772490 0.000000 
#    z -0.006560 0.000000 1.908720 
# 
# From -- ./inp_files/295236.got.cif
#   From: 2010.05.17/outbox.cif.g08.bks.cpg/sg12_148_cif.got.tgz:295236.got - 2010.06.03 13:09:07.
