data_PCOD9191131
_publ_section_title
;
Structure prediction by ZEFSAII (Michael W. Deem and Ramdas Pophale) SiO2 
 PCOD9191131
Probable space group: C 2/M
;
_chemical_formula_sum "Si O2"
_cell_formula_units_Z 44
_cell_length_a 14.100358
_cell_length_b 9.596662
_cell_length_c 15.099312
_cell_angle_alpha 90.000000
_cell_angle_beta 107.363855
_cell_angle_gamma 90.000000
_cell_volume 1950.073712
_symmetry_space_group_name_H-M "C 2/M"
_symmetry_group_IT_number 12
_symmetry_cell_setting 'monoclinic'
loop_
_space_group_symop_operation_xyz
x,y,z
-x,y,-z
-x,-y,-z
x,-y,z
1/2+x,1/2+y,z
1/2-x,1/2+y,-z
1/2-x,1/2-y,-z
1/2+x,1/2-y,z
loop_
_atom_site_type_symbol
_atom_site_label
_atom_site_fract_x
_atom_site_fract_y
_atom_site_fract_z
Si Si1 0.702933 0.340946 0.065074
Si Si2 0.218990 0.500000 0.518950
Si Si3 0.088065 0.663680 0.164321
Si Si4 0.510416 0.339928 0.600437
Si Si5 0.695941 0.253138 0.371971
Si Si6 0.099509 0.345216 0.768950
O O1 0.678500 0.500000 0.031720
O O2 0.614288 0.259597 0.088584
O O3 0.791486 0.348303 0.161702
O O4 0.750000 0.250000 0.000000
O O5 0.223939 0.375099 0.596049
O O6 0.218465 0.621934 0.440674
O O7 0.097742 0.500000 0.144803
O O8 0.162453 0.701319 0.266268
O O9 0.978477 0.688524 0.173913
O O10 0.500000 0.275929 0.500000
O O11 0.541022 0.500000 0.598525
O O12 0.401962 0.329759 0.614183
O O13 0.583104 0.263086 0.686680
O O14 0.068897 0.500000 0.728995
#
# Coordination Sequence:
#
# PCOD9191131 Si02
#       6
#     8   4   8   8   8   8
#     4  11  25  45  68  99 128 159 211 265 323 389
#     4  10  20  32  54  80 120 156 210 256 298 352
#     4  10  21  41  66  89 125 169 207 258 321 377
#     4  10  21  37  55  83 123 166 211 256 307 365
#     4  10  20  37  53  84 120 168 210 260 305 374
#     4   9  22  43  65  91 126 169 210 257 316 378
#
# _framework density 22.56325
#
# number of rings (size 3 to 8) (size 9 to 14) (size 15 to 20)
#    0.000    2.000    1.818    0.545    2.545    6.182 
#    3.273    3.636    0.000    0.000    0.000    0.000 
#    0.000    0.000    0.000    0.000    0.000    0.000 
#
# Total GULP energy -122519.174856 kJ/mol
# GULP energy per Si atom -5569.053403 kJ/mol
# Density = 2.251190 g / cm^3
# Si number density = 22.563250 Si / 1000 Ang^3
#
#
#
# Elastic Constant Matrix: (Units=GPa)
#
#
# Indices 1 2 3 4 5 6 
#
# 1 60.9431 20.3775 4.7938 0.0000 -15.4170 0.0000
# 2 20.3775 123.2584 18.8891 0.0000 -11.7886 0.0000
# 3 4.7938 18.8891 35.9385 0.0000 -10.4164 0.0000
# 4 0.0000 0.0000 0.0000 38.8943 0.0000 -6.8312
# 5 -15.4170 -11.7886 -10.4164 0.0000 31.2007 0.0000
# 6 0.0000 0.0000 0.0000 -6.8312 0.0000 8.9963
#
#
#
# Elastic Compliance Matrix: (Units=1/GPa)
#
#
# Indices 1 2 3 4 5 6 
#
# 1 0.019460 -0.002559 0.001390 0.000000 0.009113 0.000000
# 2 -0.002559 0.009272 -0.004299 0.000000 0.000804 0.000000
# 3 0.001390 -0.004299 0.032802 0.000000 0.010014 0.000000
# 4 0.000000 0.000000 0.000000 0.029667 0.000000 0.022527
# 5 0.009113 0.000804 0.010014 0.000000 0.040200 0.000000
# 6 0.000000 0.000000 0.000000 0.022527 0.000000 0.128262
#
#
# Mechanical properties :
#
#
# Convention : Reuss Voigt Hill
#
# Bulk Modulus (GPa) = 19.76308 34.25122 27.00715
# Shear Modulus (GPa) = 17.39345 27.55690 22.47518
#
# Velocity S-wave (km/s) = 2.77948 3.49853 3.15952
# Velocity P-wave (km/s) = 4.36791 5.61539 5.03047
#
# Compressibility (1/GPa) = 0.05059940
#
# Stress axis : x y z
#
# Youngs Moduli (GPa) = 51.38651 107.85485 30.48617
#
# Poissons Ratio (x) = 0.27597 -0.04239
# Poissons Ratio (y) = 0.13148 0.13106
# Poissons Ratio (z) = -0.07145 0.46366
#
# Static dielectric constant tensor:
#      x y z
#    x 1.926670 0.000000 0.006990 
#    y 0.000000 1.807680 0.000000 
#    z 0.006990 0.000000 1.823590 
# 
# From -- ./inp_files/221125.got.cif
#   From: 2010.05.17/outbox.cif.g08.bks.cpg/sg12_111_cif.got.tgz:221125.got - 2010.06.03 13:09:07.
