data_PCOD9191547
_publ_section_title
;
Structure prediction by ZEFSAII (Michael W. Deem and Ramdas Pophale) SiO2 
 PCOD9191547
Probable space group: C 2/M
;
_chemical_formula_sum "Si O2"
_cell_formula_units_Z 48
_cell_length_a 23.030526
_cell_length_b 8.693012
_cell_length_c 29.761818
_cell_angle_alpha 90.000000
_cell_angle_beta 28.528891
_cell_angle_gamma 90.000000
_cell_volume 2845.768588
_symmetry_space_group_name_H-M "C 2/M"
_symmetry_group_IT_number 12
_symmetry_cell_setting 'monoclinic'
loop_
_space_group_symop_operation_xyz
x,y,z
-x,y,-z
-x,-y,-z
x,-y,z
1/2+x,1/2+y,z
1/2-x,1/2+y,-z
1/2-x,1/2-y,-z
1/2+x,1/2-y,z
loop_
_atom_site_type_symbol
_atom_site_label
_atom_site_fract_x
_atom_site_fract_y
_atom_site_fract_z
Si Si1 0.358832 0.684317 0.092168
Si Si2 0.792190 0.813413 0.722090
Si Si3 0.291403 0.184130 0.042121
Si Si4 0.202747 0.686437 0.682981
Si Si5 0.953465 0.178779 0.479837
Si Si6 0.940664 0.816052 0.859680
O O1 0.354051 0.500000 0.095949
O O2 0.283284 0.749060 0.185345
O O3 0.307008 0.745854 0.080496
O O4 0.500000 0.732288 0.000000
O O5 0.731659 0.772038 0.715304
O O6 0.932777 0.756410 0.625213
O O7 0.794347 0.000000 0.722535
O O8 0.162555 0.225459 0.106646
O O9 0.299986 0.000000 0.038477
O O10 0.394584 0.246433 0.938188
O O11 0.200856 0.500000 0.682176
O O12 0.317270 0.743493 0.575250
O O13 0.072908 0.752409 0.758161
O O14 0.000000 0.178853 0.500000
O O15 0.941395 0.000000 0.474570
O O16 0.944153 0.000000 0.861112
#
# Coordination Sequence:
#
# PCOD9191547 Si02
#       6
#     8   8   8   8   8   8
#     4  11  23  35  48  70 100 128 155 194 241 284
#     4   9  17  30  49  72  99 130 162 195 231 278
#     4  10  21  36  52  69  92 127 165 195 231 282
#     4   9  16  28  50  76  99 127 161 193 232 283
#     4   7  12  25  45  70  97 124 158 197 231 269
#     4  10  20  33  50  73  99 123 153 199 243 277
#
# _framework density 16.867148
#
# number of rings (size 3 to 8) (size 9 to 14) (size 15 to 20)
#    0.000    2.667    0.000    4.500    0.000    6.667 
#    0.000    0.833    0.000    4.000    0.000    0.000 
#    0.000    0.000    0.000    0.000    0.000    0.000 
#
# Total GULP energy -133759.231923 kJ/mol
# GULP energy per Si atom -5573.301330 kJ/mol
# Density = 1.682876 g / cm^3
# Si number density = 16.867148 Si / 1000 Ang^3
#
#
#
# Elastic Constant Matrix: (Units=GPa)
#
#
# Indices 1 2 3 4 5 6 
#
# 1 54.8615 20.4422 53.8718 0.0002 1.9204 -0.0049
# 2 20.4422 19.5174 30.9215 0.0003 -0.9949 -0.0002
# 3 53.8718 30.9215 172.5039 0.0002 -12.6795 -0.0016
# 4 0.0002 0.0003 0.0002 19.8285 0.0001 -4.0191
# 5 1.9204 -0.9949 -12.6795 0.0001 27.0732 0.0010
# 6 -0.0049 -0.0002 -0.0016 -4.0191 0.0010 59.7281
#
#
#
# Elastic Compliance Matrix: (Units=1/GPa)
#
#
# Indices 1 2 3 4 5 6 
#
# 1 0.034731 -0.026208 -0.006628 0.000001 -0.006531 0.000003
# 2 -0.026208 0.091655 -0.008141 -0.000002 0.001414 -0.000002
# 3 -0.006628 -0.008141 0.009672 0.000000 0.004701 0.000000
# 4 0.000001 -0.000002 0.000000 0.051130 0.000000 0.003441
# 5 -0.006531 0.001414 0.004701 0.000000 0.039654 -0.000001
# 6 0.000003 -0.000002 0.000000 0.003441 -0.000001 0.016974
#
#
# Mechanical properties :
#
#
# Convention : Reuss Voigt Hill
#
# Bulk Modulus (GPa) = 18.48300 50.81709 34.65005
# Shear Modulus (GPa) = 14.54317 30.76910 22.65613
#
# Velocity S-wave (km/s) = 2.93954 4.27570 3.66896
# Velocity P-wave (km/s) = 4.74373 7.38707 6.20773
#
# Compressibility (1/GPa) = 0.05410376
#
# Stress axis : x y z
#
# Youngs Moduli (GPa) = 28.79307 10.91043 103.39399
#
# Poissons Ratio (x) = 0.28594 0.68534
# Poissons Ratio (y) = 0.75460 0.84171
# Poissons Ratio (z) = 0.19085 0.08882
#
# Static dielectric constant tensor:
#      x y z
#    x 1.546640 0.000000 -0.024260 
#    y 0.000000 1.569190 0.000000 
#    z -0.024260 0.000000 1.589820 
# 
# From -- ./inp_files/365347.got.cif
#   From: 2010.05.17/outbox.cif.g08.bks.cpg/sg12_183_cif.got.tgz:365347.got - 2010.06.03 13:09:07.
