data_PCOD9191430
_publ_section_title
;
Structure prediction by ZEFSAII (Michael W. Deem and Ramdas Pophale) SiO2 
 PCOD9191430
Probable space group: C 2/M
;
_chemical_formula_sum "Si O2"
_cell_formula_units_Z 64
_cell_length_a 23.001206
_cell_length_b 9.077906
_cell_length_c 18.055073
_cell_angle_alpha 90.000000
_cell_angle_beta 96.503516
_cell_angle_gamma 90.000000
_cell_volume 3745.689567
_symmetry_space_group_name_H-M "C 2/M"
_symmetry_group_IT_number 12
_symmetry_cell_setting 'monoclinic'
loop_
_space_group_symop_operation_xyz
x,y,z
-x,y,-z
-x,-y,-z
x,-y,z
1/2+x,1/2+y,z
1/2-x,1/2+y,-z
1/2-x,1/2-y,-z
1/2+x,1/2-y,z
loop_
_atom_site_type_symbol
_atom_site_label
_atom_site_fract_x
_atom_site_fract_y
_atom_site_fract_z
Si Si1 0.287348 0.327358 0.756374
Si Si2 0.189209 0.674352 0.969667
Si Si3 0.509330 0.323097 0.086644
Si Si4 0.849972 0.675113 0.297335
Si Si5 0.797742 0.174665 0.593718
Si Si6 0.827086 0.173600 0.440966
Si Si7 0.392571 0.676695 0.160403
Si Si8 0.870123 0.327538 0.881923
O O1 0.292227 0.500000 0.776002
O O2 0.218526 0.295608 0.733713
O O3 0.318127 0.302961 0.680757
O O4 0.318035 0.233790 0.823738
O O5 0.197207 0.500000 0.957084
O O6 0.159297 0.751787 0.895526
O O7 0.250000 0.750000 0.000000
O O8 0.147373 0.693716 0.034809
O O9 0.514530 0.500000 0.086894
O O10 0.453225 0.284673 0.128095
O O11 0.569417 0.255223 0.124315
O O12 0.500000 0.274510 0.000000
O O13 0.858407 0.500000 0.296001
O O14 0.859207 0.735910 0.381604
O O15 0.888227 0.757615 0.241770
O O16 0.839930 0.201890 0.529886
O O17 0.740762 0.276422 0.576021
O O18 0.780093 0.000000 0.586603
O O19 0.832990 0.000000 0.427575
O O20 0.386551 0.500000 0.160447
O O21 0.877228 0.500000 0.869644
#
# Coordination Sequence:
#
# PCOD9191430 Si02
#       8
#     8   8   8   8   8   8   8   8
#     4   9  18  32  49  70 102 139 170 202 244 298
#     4  11  23  36  51  73 102 135 167 202 247 298
#     4  10  21  39  59  75  93 125 166 210 257 304
#     4  10  20  33  49  73 106 140 169 203 252 303
#     4   8  15  27  43  67  99 136 172 205 247 295
#     4   9  15  25  44  69  99 134 171 208 244 292
#     4  11  22  36  55  76  97 126 168 211 253 301
#     4  11  23  35  51  75 100 128 166 210 252 294
#
# _framework density 17.086306
#
# number of rings (size 3 to 8) (size 9 to 14) (size 15 to 20)
#    0.000    2.125    1.250    3.375    0.000    7.750 
#    0.000    0.000    0.000    0.000    0.000    0.875 
#    0.000    7.000    0.000    0.000    0.000    0.000 
#
# Total GULP energy -178458.276421 kJ/mol
# GULP energy per Si atom -5576.821138 kJ/mol
# Density = 1.704742 g / cm^3
# Si number density = 17.086306 Si / 1000 Ang^3
#
#
#
# Elastic Constant Matrix: (Units=GPa)
#
#
# Indices 1 2 3 4 5 6 
#
# 1 46.9303 24.7327 5.3145 0.0000 -19.3710 0.0000
# 2 24.7327 43.8673 33.2142 0.0000 -18.5983 0.0000
# 3 5.3145 33.2142 78.1332 0.0000 -30.4150 0.0000
# 4 0.0000 0.0000 0.0000 29.6730 0.0000 -1.9401
# 5 -19.3710 -18.5983 -30.4150 0.0000 22.8721 0.0000
# 6 0.0000 0.0000 0.0000 -1.9401 0.0000 20.4878
#
#
#
# Elastic Compliance Matrix: (Units=1/GPa)
#
#
# Indices 1 2 3 4 5 6 
#
# 1 0.079627 -0.040304 0.052267 0.000000 0.104169 0.000000
# 2 -0.040304 0.057665 -0.034843 0.000000 -0.033579 0.000000
# 3 0.052267 -0.034843 0.062730 0.000000 0.099351 0.000000
# 4 0.000000 0.000000 0.000000 0.033911 0.000000 0.003211
# 5 0.104169 -0.033579 0.099351 0.000000 0.236757 0.000000
# 6 0.000000 0.000000 0.000000 0.003211 0.000000 0.049114
#
#
# Mechanical properties :
#
#
# Convention : Reuss Voigt Hill
#
# Bulk Modulus (GPa) = 6.48248 32.82819 19.65533
# Shear Modulus (GPa) = 8.10393 21.65120 14.87756
#
# Velocity S-wave (km/s) = 2.18019 3.56359 2.95402
# Velocity P-wave (km/s) = 3.18431 6.01557 4.81284
#
# Compressibility (1/GPa) = 0.15426195
#
# Stress axis : x y z
#
# Youngs Moduli (GPa) = 12.55852 17.34146 15.94138
#
# Poissons Ratio (x) = 0.69894 -0.83321
# Poissons Ratio (y) = 0.50616 0.55545
# Poissons Ratio (z) = -0.65640 0.60423
#
# Static dielectric constant tensor:
#      x y z
#    x 1.553790 0.000000 -0.033610 
#    y 0.000000 1.566990 0.000000 
#    z -0.033610 0.000000 1.613060 
# 
# From -- ./inp_files/281225.got.cif
#   From: 2010.05.17/outbox.cif.g08.bks.cpg/sg12_141_cif.got.tgz:281225.got - 2010.06.03 13:09:07.
