data_PCOD9191050
_publ_section_title
;
Structure prediction by ZEFSAII (Michael W. Deem and Ramdas Pophale) SiO2 
 PCOD9191050
Probable space group: C 2/M
;
_chemical_formula_sum "Si O2"
_cell_formula_units_Z 64
_cell_length_a 15.887883
_cell_length_b 26.857242
_cell_length_c 9.434053
_cell_angle_alpha 90.000000
_cell_angle_beta 114.179873
_cell_angle_gamma 90.000000
_cell_volume 3672.369079
_symmetry_space_group_name_H-M "C 2/M"
_symmetry_group_IT_number 12
_symmetry_cell_setting 'monoclinic'
loop_
_space_group_symop_operation_xyz
x,y,z
-x,y,-z
-x,-y,-z
x,-y,z
1/2+x,1/2+y,z
1/2-x,1/2+y,-z
1/2-x,1/2-y,-z
1/2+x,1/2-y,z
loop_
_atom_site_type_symbol
_atom_site_label
_atom_site_fract_x
_atom_site_fract_y
_atom_site_fract_z
Si Si1 0.096332 0.120623 0.648555
Si Si2 0.713661 0.859185 0.600505
Si Si3 0.488256 0.558262 0.158143
Si Si4 0.274095 0.290818 0.183423
Si Si5 0.319244 0.443165 0.539142
Si Si6 0.348938 0.183881 0.149878
Si Si7 0.330317 0.731510 0.659823
Si Si8 0.039623 0.697979 0.368480
O O1 0.072932 0.095092 0.785042
O O2 0.155980 0.171045 0.696127
O O3 0.153771 0.082644 0.590007
O O4 0.000000 0.129322 0.500000
O O5 0.739770 0.912927 0.564390
O O6 0.681373 0.850034 0.738744
O O7 0.807717 0.826264 0.657114
O O8 0.631340 0.835750 0.448078
O O9 0.455474 0.500000 0.141514
O O10 0.588924 0.558713 0.300516
O O11 0.500000 0.572044 0.000000
O O12 0.332973 0.242708 0.174977
O O13 0.193855 0.263395 0.217928
O O14 0.219989 0.322119 0.027507
O O15 0.293877 0.500000 0.498713
O O16 0.458625 0.177395 0.213312
O O17 0.250000 0.750000 0.500000
O O18 0.426516 0.748712 0.664241
O O19 0.000000 0.702328 0.500000
#
# Coordination Sequence:
#
# PCOD9191050 Si02
#       8
#     8   8   8   8   8   8   8   8
#     4  10  20  32  52  78 105 139 174 210 257 311
#     4   9  18  32  52  74  98 134 173 208 253 309
#     4   9  19  34  51  75 105 137 172 213 263 314
#     4  10  20  33  50  76 108 136 167 213 256 300
#     4  10  20  34  53  77 103 132 173 221 263 306
#     4   9  20  34  49  74 108 137 169 211 255 304
#     4   9  17  30  48  71  98 129 169 205 241 302
#     4   9  17  30  50  72  98 134 169 203 248 303
#
# _framework density 17.427441000000002
#
# number of rings (size 3 to 8) (size 9 to 14) (size 15 to 20)
#    0.000    2.625    0.000    2.625    1.750    7.500 
#    0.000    0.000    0.000    3.375    0.000    0.875 
#    0.000    0.000    0.000    0.000    0.000    0.000 
#
# Total GULP energy -178191.427614 kJ/mol
# GULP energy per Si atom -5568.482113 kJ/mol
# Density = 1.738778 g / cm^3
# Si number density = 17.427441 Si / 1000 Ang^3
#
#
#
# Elastic Constant Matrix: (Units=GPa)
#
#
# Indices 1 2 3 4 5 6 
#
# 1 56.2564 32.8774 10.7794 0.0000 9.8080 0.0000
# 2 32.8774 74.7123 14.6407 0.0000 0.8317 0.0000
# 3 10.7794 14.6407 60.7784 0.0000 -3.5812 0.0000
# 4 0.0000 0.0000 0.0000 18.0486 0.0000 -0.9476
# 5 9.8080 0.8317 -3.5812 0.0000 14.7174 0.0000
# 6 0.0000 0.0000 0.0000 -0.9476 0.0000 17.1963
#
#
#
# Elastic Compliance Matrix: (Units=1/GPa)
#
#
# Indices 1 2 3 4 5 6 
#
# 1 0.028629 -0.011720 -0.003388 0.000000 -0.019241 0.000000
# 2 -0.011720 0.018885 -0.002103 0.000000 0.006232 0.000000
# 3 -0.003388 -0.002103 0.017958 0.000000 0.006746 0.000000
# 4 0.000000 0.000000 0.000000 0.055567 0.000000 0.003062
# 5 -0.019241 0.006232 0.006746 0.000000 0.082058 0.000000
# 6 0.000000 0.000000 0.000000 0.003062 0.000000 0.058321
#
#
# Mechanical properties :
#
#
# Convention : Reuss Voigt Hill
#
# Bulk Modulus (GPa) = 32.20688 34.26022 33.23355
# Shear Modulus (GPa) = 16.32968 18.88911 17.60939
#
# Velocity S-wave (km/s) = 3.06438 3.29579 3.18219
# Velocity P-wave (km/s) = 5.57147 5.84675 5.71077
#
# Compressibility (1/GPa) = 0.03104927
#
# Stress axis : x y z
#
# Youngs Moduli (GPa) = 34.92961 52.95211 55.68462
#
# Poissons Ratio (x) = 0.62061 0.18866
# Poissons Ratio (y) = 0.40938 0.11712
# Poissons Ratio (z) = 0.11834 0.11138
#
# Static dielectric constant tensor:
#      x y z
#    x 1.403160 0.000000 0.100040 
#    y 0.000000 0.373610 0.000000 
#    z 0.100040 0.000000 1.569440 
# 
# From -- ./inp_files/67015.got.cif
#   From: 2010.05.17/outbox.cif.g08.bks.cpg/sg12_34_cif.got.tgz:67015.got - 2010.06.03 13:09:07.
