data_PCOD9191315
_publ_section_title
;
Structure prediction by ZEFSAII (Michael W. Deem and Ramdas Pophale) SiO2 
 PCOD9191315
Probable space group: C 2/M
;
_chemical_formula_sum "Si O2"
_cell_formula_units_Z 50
_cell_length_a 18.925915
_cell_length_b 7.579495
_cell_length_c 19.450067
_cell_angle_alpha 90.000000
_cell_angle_beta 48.030516
_cell_angle_gamma 90.000000
_cell_volume 2074.435206
_symmetry_space_group_name_H-M "C 2/M"
_symmetry_group_IT_number 12
_symmetry_cell_setting 'monoclinic'
loop_
_space_group_symop_operation_xyz
x,y,z
-x,y,-z
-x,-y,-z
x,-y,z
1/2+x,1/2+y,z
1/2-x,1/2+y,-z
1/2-x,1/2-y,-z
1/2+x,1/2-y,z
loop_
_atom_site_type_symbol
_atom_site_label
_atom_site_fract_x
_atom_site_fract_y
_atom_site_fract_z
Si Si1 0.772032 0.703311 0.782312
Si Si2 0.426454 0.294689 0.960418
Si Si3 0.148674 0.714506 0.130807
Si Si4 0.946529 0.707694 0.326249
Si Si5 0.472293 0.704844 0.592528
Si Si6 0.500000 0.000000 0.000000
Si Si7 0.628214 0.711431 0.763375
O O1 0.740551 0.500000 0.811819
O O2 0.781198 0.774928 0.853961
O O3 0.879307 0.703202 0.683553
O O4 0.707361 0.781640 0.764063
O O5 0.433410 0.500000 0.976139
O O6 0.350580 0.281929 0.947730
O O7 0.424923 0.157215 0.023077
O O8 0.526039 0.231451 0.859787
O O9 0.149831 0.500000 0.127519
O O10 0.045092 0.774237 0.227726
O O11 0.955496 0.500000 0.328729
O O12 0.867452 0.739878 0.319724
O O13 0.945000 0.783086 0.403911
O O14 0.500000 0.775744 0.500000
O O15 0.446625 0.500000 0.600975
O O16 0.629840 0.500000 0.763858
#
# Coordination Sequence:
#
# PCOD9191315 Si02
#       7
#     8   8   8   8   8   2   8
#     4   9  18  32  54  80 104 135 173 219 265 313
#     4  10  20  34  56  82 107 141 177 217 266 314
#     4   8  14  29  50  76 103 131 172 219 260 299
#     4   9  17  29  50  73 100 133 173 220 261 305
#     4  10  20  33  48  71 104 140 177 219 265 315
#     4  12  22  36  56  82 112 140 174 218 256 326
#     4   9  18  33  53  81 107 131 170 223 265 305
#
# _framework density 24.102945999999999
#
# number of rings (size 3 to 8) (size 9 to 14) (size 15 to 20)
#    0.000    2.720    0.800    2.160    1.120    5.760 
#    0.000    0.800    0.000    0.960    0.000    0.000 
#    0.000    0.000    0.000    0.000    0.000    0.000 
#
# Total GULP energy -139335.081208 kJ/mol
# GULP energy per Si atom -5573.403248 kJ/mol
# Density = 2.404809 g / cm^3
# Si number density = 24.102946 Si / 1000 Ang^3
#
#
#
# Elastic Constant Matrix: (Units=GPa)
#
#
# Indices 1 2 3 4 5 6 
#
# 1 190.9528 20.0341 52.4171 -0.0012 61.1449 0.0005
# 2 20.0341 83.5668 -1.3672 -0.0039 8.2542 0.0023
# 3 52.4171 -1.3672 119.6381 0.0001 50.2793 0.0000
# 4 -0.0012 -0.0039 0.0001 -37.0452 -0.0001 18.4142
# 5 61.1449 8.2542 50.2793 -0.0001 42.1136 0.0000
# 6 0.0005 0.0023 0.0000 18.4142 0.0000 18.9205
#
#
#
# Elastic Compliance Matrix: (Units=1/GPa)
#
#
# Indices 1 2 3 4 5 6 
#
# 1 0.010543 -0.000551 0.003537 0.000000 -0.019422 0.000000
# 2 -0.000551 0.012554 0.002173 -0.000001 -0.004255 0.000000
# 3 0.003537 0.002173 0.018406 0.000000 -0.027536 0.000000
# 4 0.000000 -0.000001 0.000000 -0.018193 0.000001 0.017706
# 5 -0.019422 -0.004255 -0.027536 0.000001 0.085653 0.000000
# 6 0.000000 0.000000 0.000000 0.017706 0.000000 0.035621
#
#
# Mechanical properties :
#
#
# Convention : Reuss Voigt Hill
#
# Bulk Modulus (GPa) = 19.29732 59.59171 39.44451
# Shear Modulus (GPa) = 32.99444 26.33603 29.66523
#
# Velocity S-wave (km/s) = 3.70387 3.30911 3.51204
# Velocity P-wave (km/s) = 5.12983 6.27517 5.73118
#
# Compressibility (1/GPa) = 0.05182067
#
# Stress axis : x y z
#
# Youngs Moduli (GPa) = 94.85022 79.65306 54.32966
#
# Poissons Ratio (x) = 0.04391 -0.19215
# Poissons Ratio (y) = 0.05229 -0.11806
# Poissons Ratio (z) = -0.33546 -0.17309
#
# Static dielectric constant tensor:
#      x y z
#    x 2.007840 0.000000 0.016510 
#    y 0.000000 1.887560 0.000000 
#    z 0.016510 0.000000 1.997660 
# 
# From -- ./inp_files/274247.got.cif
#   From: 2010.05.17/outbox.cif.g08.bks.cpg/sg12_138_cif.got.tgz:274247.got - 2010.06.03 13:09:07.
