data_PCOD9191506
_publ_section_title
;
Structure prediction by ZEFSAII (Michael W. Deem and Ramdas Pophale) SiO2 
 PCOD9191506
Probable space group: C 2/M
;
_chemical_formula_sum "Si O2"
_cell_formula_units_Z 64
_cell_length_a 16.156039
_cell_length_b 7.485030
_cell_length_c 21.048154
_cell_angle_alpha 90.000000
_cell_angle_beta 112.839155
_cell_angle_gamma 90.000000
_cell_volume 2345.762441
_symmetry_space_group_name_H-M "C 2/M"
_symmetry_group_IT_number 12
_symmetry_cell_setting 'monoclinic'
loop_
_space_group_symop_operation_xyz
x,y,z
-x,y,-z
-x,-y,-z
x,-y,z
1/2+x,1/2+y,z
1/2-x,1/2+y,-z
1/2-x,1/2-y,-z
1/2+x,1/2-y,z
loop_
_atom_site_type_symbol
_atom_site_label
_atom_site_fract_x
_atom_site_fract_y
_atom_site_fract_z
Si Si1 0.793967 0.712775 0.647445
Si Si2 0.389748 0.716341 0.022874
Si Si3 0.997411 0.284514 0.734808
Si Si4 0.727134 0.288214 0.893592
Si Si5 0.553878 0.293857 0.144774
Si Si6 0.974002 0.717916 0.391854
Si Si7 0.139392 0.286015 0.519619
Si Si8 0.255121 0.295287 0.235689
O O1 0.797163 0.500000 0.656465
O O2 0.895946 0.772053 0.684699
O O3 0.742038 0.742011 0.566409
O O4 0.741483 0.790110 0.693499
O O5 0.393295 0.500000 0.025119
O O6 0.329599 0.784128 0.064466
O O7 0.490181 0.776212 0.069637
O O8 0.331346 0.764404 0.944313
O O9 0.001581 0.500000 0.740716
O O10 0.006893 0.211506 0.808620
O O11 0.050728 0.227676 0.687173
O O12 0.710999 0.500000 0.885566
O O13 0.707055 0.211319 0.817955
O O14 0.576375 0.500000 0.138505
O O15 0.646893 0.199973 0.189163
O O16 0.973758 0.500000 0.391506
O O17 0.074496 0.775251 0.443715
O O18 0.911123 0.777157 0.430766
O O19 0.135480 0.500000 0.516200
O O20 0.284753 0.500000 0.248179
#
# Coordination Sequence:
#
# PCOD9191506 Si02
#       8
#     8   8   8   8   8   8   8   8
#     4   9  18  31  47  69  97 126 156 195 240 280
#     4   9  19  34  50  72 101 127 154 197 247 282
#     4   9  18  34  52  68  93 129 164 195 231 281
#     4   9  18  34  54  72  93 127 167 197 228 282
#     4  10  20  33  50  73 100 126 155 197 244 284
#     4   8  16  32  51  70  94 126 161 196 235 279
#     4   9  17  31  51  72  95 124 159 197 236 282
#     4   9  19  35  52  70  96 130 163 195 233 282
#
# _framework density 27.283242000000001
#
# number of rings (size 3 to 8) (size 9 to 14) (size 15 to 20)
#    0.000    3.000    0.000    1.875    0.000    5.500 
#    0.000    6.250    0.000    0.000    0.000    0.000 
#    0.000    0.000    0.000    0.000    0.000    0.000 
#
# Total GULP energy -178902.652109 kJ/mol
# GULP energy per Si atom -5590.707878 kJ/mol
# Density = 2.722114 g / cm^3
# Si number density = 27.283242 Si / 1000 Ang^3
#
#
#
# Elastic Constant Matrix: (Units=GPa)
#
#
# Indices 1 2 3 4 5 6 
#
# 1 55.6420 3.0365 9.1012 0.0000 4.6804 0.0000
# 2 3.0365 93.6585 0.1915 0.0000 2.3803 0.0000
# 3 9.1012 0.1915 194.2978 0.0000 3.8800 0.0000
# 4 0.0000 0.0000 0.0000 22.5040 0.0000 12.8035
# 5 4.6804 2.3803 3.8800 0.0000 59.2278 0.0000
# 6 0.0000 0.0000 0.0000 12.8035 0.0000 10.3113
#
#
#
# Elastic Compliance Matrix: (Units=1/GPa)
#
#
# Indices 1 2 3 4 5 6 
#
# 1 0.018253 -0.000555 -0.000827 0.000000 -0.001366 0.000000
# 2 -0.000555 0.010705 0.000023 0.000000 -0.000388 0.000000
# 3 -0.000827 0.000023 0.005191 0.000000 -0.000276 0.000000
# 4 0.000000 0.000000 0.000000 0.151381 0.000000 -0.187970
# 5 -0.001366 -0.000388 -0.000276 0.000000 0.017026 0.000000
# 6 0.000000 0.000000 0.000000 -0.187970 0.000000 0.330384
#
#
# Mechanical properties :
#
#
# Convention : Reuss Voigt Hill
#
# Bulk Modulus (GPa) = 31.81693 40.91740 36.36716
# Shear Modulus (GPa) = 9.15526 40.49322 24.82424
#
# Velocity S-wave (km/s) = 1.83383 3.85668 3.01968
# Velocity P-wave (km/s) = 4.02131 5.90439 5.05137
#
# Compressibility (1/GPa) = 0.03142981
#
# Stress axis : x y z
#
# Youngs Moduli (GPa) = 54.78690 93.41513 192.64242
#
# Poissons Ratio (x) = 0.05188 0.15934
# Poissons Ratio (y) = 0.03043 -0.00447
# Poissons Ratio (z) = 0.04532 -0.00217
#
# Static dielectric constant tensor:
#      x y z
#    x 2.290750 0.000000 -0.033410 
#    y 0.000000 1.995130 0.000000 
#    z -0.033410 0.000000 2.108720 
# 
# From -- ./inp_files/345583.got.cif
#   From: 2010.05.17/outbox.cif.g08.bks.cpg/sg12_173_cif.got.tgz:345583.got - 2010.06.03 13:09:07.
