data_PCOD9191215
_publ_section_title
;
Structure prediction by ZEFSAII (Michael W. Deem and Ramdas Pophale) SiO2 
 PCOD9191215
Probable space group: C 2/M
;
_chemical_formula_sum "Si O2"
_cell_formula_units_Z 44
_cell_length_a 20.478223
_cell_length_b 10.917268
_cell_length_c 13.708765
_cell_angle_alpha 90.000000
_cell_angle_beta 45.250508
_cell_angle_gamma 90.000000
_cell_volume 2176.607460
_symmetry_space_group_name_H-M "C 2/M"
_symmetry_group_IT_number 12
_symmetry_cell_setting 'monoclinic'
loop_
_space_group_symop_operation_xyz
x,y,z
-x,y,-z
-x,-y,-z
x,-y,z
1/2+x,1/2+y,z
1/2-x,1/2+y,-z
1/2-x,1/2-y,-z
1/2+x,1/2-y,z
loop_
_atom_site_type_symbol
_atom_site_label
_atom_site_fract_x
_atom_site_fract_y
_atom_site_fract_z
Si Si1 0.549765 0.238959 0.345329
Si Si2 0.414034 0.000000 0.165821
Si Si3 0.609238 0.735781 0.866540
Si Si4 0.022516 0.500000 0.253116
Si Si5 0.754025 0.758505 0.114426
Si Si6 0.939414 0.000000 0.163602
Si Si7 0.428816 0.500000 0.790097
Si Si8 0.270625 0.000000 0.049476
O O1 0.500000 0.253751 0.500000
O O2 0.507974 0.126706 0.326956
O O3 0.655404 0.195753 0.250961
O O4 0.553428 0.371487 0.286530
O O5 0.363640 0.869960 0.201608
O O6 0.459619 0.000000 0.224188
O O7 0.500000 0.000000 0.000000
O O8 0.660583 0.694888 0.912606
O O9 0.619154 0.624446 0.780437
O O10 0.500000 0.746821 0.000000
O O11 0.130112 0.500000 0.105062
O O12 0.760364 0.615101 0.128715
O O13 0.750000 0.750000 0.000000
O O14 0.007216 0.000000 0.183377
O O15 0.000000 0.000000 0.000000
O O16 0.318339 0.500000 0.928304
#
# Coordination Sequence:
#
# PCOD9191215 Si02
#       8
#     8   4   8   4   8   4   4   4
#     4  11  25  41  63  89 128 169 209 251 307 370
#     4  10  20  33  57  83 124 156 194 241 314 370
#     4  10  21  33  54  87 126 149 194 246 314 361
#     4  12  21  36  64  93 126 156 206 263 315 356
#     4  11  22  36  62  91 120 161 205 260 308 355
#     4  10  22  31  55  87 124 150 194 249 316 358
#     4  10  23  40  62  87 124 168 208 249 311 368
#     4  10  20  32  60  92 120 148 206 260 312 350
#
# _framework density 20.214945
#
# number of rings (size 3 to 8) (size 9 to 14) (size 15 to 20)
#    0.000    1.455    1.818    4.364   10.182    0.727 
#    0.000    0.000    0.000    6.545    0.000    0.000 
#    0.000    0.000    0.000    0.000    0.000    0.000 
#
# Total GULP energy -122518.339512 kJ/mol
# GULP energy per Si atom -5569.015432 kJ/mol
# Density = 2.016893 g / cm^3
# Si number density = 20.214945 Si / 1000 Ang^3
#
#
#
# Elastic Constant Matrix: (Units=GPa)
#
#
# Indices 1 2 3 4 5 6 
#
# 1 188.0661 46.4990 54.4865 0.0000 34.7893 0.0000
# 2 46.4990 148.9714 6.5386 0.0000 21.9319 0.0000
# 3 54.4865 6.5386 65.7944 0.0000 11.5424 0.0000
# 4 0.0000 0.0000 0.0000 16.9430 0.0000 5.4946
# 5 34.7893 21.9319 11.5424 0.0000 20.3579 0.0000
# 6 0.0000 0.0000 0.0000 5.4946 0.0000 24.2072
#
#
#
# Elastic Compliance Matrix: (Units=1/GPa)
#
#
# Indices 1 2 3 4 5 6 
#
# 1 0.009348 -0.000935 -0.005578 0.000000 -0.011805 0.000000
# 2 -0.000935 0.008109 0.001356 0.000000 -0.007907 0.000000
# 3 -0.005578 0.001356 0.020285 0.000000 -0.003430 0.000000
# 4 0.000000 0.000000 0.000000 0.063711 0.000000 -0.014461
# 5 -0.011805 -0.007907 -0.003430 0.000000 0.079757 0.000000
# 6 0.000000 0.000000 0.000000 -0.014461 0.000000 0.044592
#
#
# Mechanical properties :
#
#
# Convention : Reuss Voigt Hill
#
# Bulk Modulus (GPa) = 36.45917 68.65334 52.55626
# Shear Modulus (GPa) = 20.38649 31.98881 26.18765
#
# Velocity S-wave (km/s) = 3.17911 3.98230 3.60315
# Velocity P-wave (km/s) = 5.61699 7.42835 6.58524
#
# Compressibility (1/GPa) = 0.02742794
#
# Stress axis : x y z
#
# Youngs Moduli (GPa) = 106.97211 123.31805 49.29780
#
# Poissons Ratio (x) = 0.11531 0.27497
# Poissons Ratio (y) = 0.10003 -0.06683
# Poissons Ratio (z) = 0.59665 -0.16717
#
# Static dielectric constant tensor:
#      x y z
#    x 1.929930 0.000000 -0.079280 
#    y 0.000000 1.910470 0.000000 
#    z -0.079280 0.000000 1.716120 
# 
# From -- ./inp_files/154148.got.cif
#   From: 2010.05.17/outbox.cif.g08.bks.cpg/sg12_78_cif.got.tgz:154148.got - 2010.06.03 13:09:07.
