data_PCOD9191074
_publ_section_title
;
Structure prediction by ZEFSAII (Michael W. Deem and Ramdas Pophale) SiO2 
 PCOD9191074
Probable space group: C 2/M
;
_chemical_formula_sum "Si O2"
_cell_formula_units_Z 44
_cell_length_a 26.621517
_cell_length_b 21.012887
_cell_length_c 8.301771
_cell_angle_alpha 90.000000
_cell_angle_beta 155.931074
_cell_angle_gamma 90.000000
_cell_volume 1893.974467
_symmetry_space_group_name_H-M "C 2/M"
_symmetry_group_IT_number 12
_symmetry_cell_setting 'monoclinic'
loop_
_space_group_symop_operation_xyz
x,y,z
-x,y,-z
-x,-y,-z
x,-y,z
1/2+x,1/2+y,z
1/2-x,1/2+y,-z
1/2-x,1/2-y,-z
1/2+x,1/2-y,z
loop_
_atom_site_type_symbol
_atom_site_label
_atom_site_fract_x
_atom_site_fract_y
_atom_site_fract_z
Si Si1 0.996035 0.775287 0.295318
Si Si2 0.110675 0.000000 0.960381
Si Si3 0.716079 0.366149 0.835868
Si Si4 0.618171 0.383010 0.225260
Si Si5 0.230977 0.000000 0.001979
Si Si6 0.511151 0.000000 0.842649
Si Si7 0.497397 0.133596 0.684979
O O1 0.125938 0.807802 0.617161
O O2 0.961751 0.703839 0.143951
O O3 0.000000 0.777571 0.500000
O O4 0.896468 0.821365 0.926396
O O5 0.000000 0.000000 0.500000
O O6 0.117360 0.059280 0.099617
O O7 0.227174 0.000000 0.182955
O O8 0.724687 0.373583 0.667978
O O9 0.668474 0.435029 0.758534
O O10 0.851901 0.362192 0.306526
O O11 0.500000 0.388410 0.000000
O O12 0.372412 0.000000 0.358545
O O13 0.560078 0.069416 0.934653
O O14 0.500000 0.000000 0.000000
O O15 0.500000 0.129693 0.500000
#
# Coordination Sequence:
#
# PCOD9191074 Si02
#       7
#     8   4   8   8   4   4   8
#     4  10  20  36  56  82 112 143 177 217 269 328
#     4  12  20  31  52  81 116 148 172 214 267 324
#     4  10  20  37  56  80 111 145 180 223 267 316
#     4  10  20  32  52  81 112 145 180 216 262 324
#     4  10  21  35  54  79 109 144 182 217 267 324
#     4  10  23  40  59  80 103 136 183 235 274 306
#     4  10  22  40  60  79 106 144 183 224 273 320
#
# _framework density 23.231570000000001
#
# number of rings (size 3 to 8) (size 9 to 14) (size 15 to 20)
#    0.000    1.818    0.000    5.455    0.000    3.636 
#    0.000    3.636    0.000    0.000    0.000    0.000 
#    0.000    0.000    0.000    0.000    0.000    0.000 
#
# Total GULP energy -122775.370428 kJ/mol
# GULP energy per Si atom -5580.698656 kJ/mol
# Density = 2.317869 g / cm^3
# Si number density = 23.231570 Si / 1000 Ang^3
#
#
#
# Elastic Constant Matrix: (Units=GPa)
#
#
# Indices 1 2 3 4 5 6 
#
# 1 69.7368 62.0432 9.0799 0.0000 -20.1139 0.0000
# 2 62.0432 259.2083 22.6917 0.0000 -35.8485 0.0000
# 3 9.0799 22.6917 50.5472 0.0000 -11.1904 0.0000
# 4 0.0000 0.0000 0.0000 37.5622 0.0000 -2.7167
# 5 -20.1139 -35.8485 -11.1904 0.0000 37.1941 0.0000
# 6 0.0000 0.0000 0.0000 -2.7167 0.0000 30.7893
#
#
#
# Elastic Compliance Matrix: (Units=1/GPa)
#
#
# Indices 1 2 3 4 5 6 
#
# 1 0.019705 -0.003724 -0.000325 0.000000 0.006969 0.000000
# 2 -0.003724 0.005215 -0.001077 0.000000 0.002689 0.000000
# 3 -0.000325 -0.001077 0.021488 0.000000 0.005251 0.000000
# 4 0.000000 0.000000 0.000000 0.026793 0.000000 0.002364
# 5 0.006969 0.002689 0.005251 0.000000 0.034826 0.000000
# 6 0.000000 0.000000 0.000000 0.002364 0.000000 0.032687
#
#
# Mechanical properties :
#
#
# Convention : Reuss Voigt Hill
#
# Bulk Modulus (GPa) = 27.65794 63.01354 45.33574
# Shear Modulus (GPa) = 30.67100 40.15430 35.41265
#
# Velocity S-wave (km/s) = 3.63744 4.16196 3.90851
# Velocity P-wave (km/s) = 5.43806 7.09076 6.31867
#
# Compressibility (1/GPa) = 0.03615598
#
# Stress axis : x y z
#
# Youngs Moduli (GPa) = 50.74742 191.73657 46.53783
#
# Poissons Ratio (x) = 0.71410 0.01512
# Poissons Ratio (y) = 0.18900 0.05013
# Poissons Ratio (z) = 0.01649 0.20652
#
# Static dielectric constant tensor:
#      x y z
#    x 1.882080 0.000000 0.093580 
#    y 0.000000 1.904030 0.000000 
#    z 0.093580 0.000000 1.984780 
# 
# From -- ./inp_files/112711.got.cif
#   From: 2010.05.17/outbox.cif.g08.bks.cpg/sg12_57_cif.got.tgz:112711.got - 2010.06.03 13:09:07.
