data_PCOD9191965
_publ_section_title
;
Structure prediction by ZEFSAII (Michael W. Deem and Ramdas Pophale) SiO2 
 PCOD9191965
Probable space group: C 2/M
;
_chemical_formula_sum "Si O2"
_cell_formula_units_Z 48
_cell_length_a 23.195487
_cell_length_b 13.845875
_cell_length_c 13.424346
_cell_angle_alpha 90.000000
_cell_angle_beta 39.738017
_cell_angle_gamma 90.000000
_cell_volume 2756.175875
_symmetry_space_group_name_H-M "C 2/M"
_symmetry_group_IT_number 12
_symmetry_cell_setting 'monoclinic'
loop_
_space_group_symop_operation_xyz
x,y,z
-x,y,-z
-x,-y,-z
x,-y,z
1/2+x,1/2+y,z
1/2-x,1/2+y,-z
1/2-x,1/2-y,-z
1/2+x,1/2-y,z
loop_
_atom_site_type_symbol
_atom_site_label
_atom_site_fract_x
_atom_site_fract_y
_atom_site_fract_z
Si Si1 0.392658 0.391963 0.121963
Si Si2 0.252405 0.387827 0.597216
Si Si3 0.924280 0.114237 0.681669
Si Si4 0.878561 0.751920 0.321571
Si Si5 0.278471 0.110561 0.128176
Si Si6 0.082826 0.773121 0.103069
O O1 0.355129 0.500000 0.182102
O O2 0.359091 0.317374 0.249436
O O3 0.500000 0.397944 0.000000
O O4 0.381606 0.349327 0.026633
O O5 0.275383 0.500000 0.547900
O O6 0.174965 0.346639 0.627160
O O7 0.336446 0.316628 0.465680
O O8 0.219531 0.380056 0.754589
O O9 0.824461 0.126515 0.768916
O O10 0.929762 0.175363 0.774840
O O11 0.000000 0.141199 0.500000
O O12 0.937221 0.000000 0.686894
O O13 0.984571 0.738891 0.195430
O O14 0.302432 0.000000 0.071046
O O15 0.346747 0.185817 0.988891
#
# Coordination Sequence:
#
# PCOD9191965 Si02
#       6
#     8   8   8   8   8   8
#     4   9  17  29  47  74 106 137 171 213 260 311
#     4  10  20  35  54  78 111 146 181 220 262 317
#     4  10  21  37  58  82 105 137 179 223 273 322
#     4  10  20  33  52  78 109 145 181 217 267 319
#     4  10  21  36  55  80 109 142 181 222 266 317
#     4  11  20  34  54  80 109 140 177 223 272 317
#
# _framework density 17.415434999999999
#
# number of rings (size 3 to 8) (size 9 to 14) (size 15 to 20)
#    0.000    2.000    1.667    2.500    0.000    4.000 
#    0.000    1.667    0.000    0.500    0.000    0.000 
#    0.000    0.000    0.000    0.000    0.000    0.000 
#
# Total GULP energy -133886.120300 kJ/mol
# GULP energy per Si atom -5578.588346 kJ/mol
# Density = 1.737580 g / cm^3
# Si number density = 17.415435 Si / 1000 Ang^3
#
#
#
# Elastic Constant Matrix: (Units=GPa)
#
#
# Indices 1 2 3 4 5 6 
#
# 1 63.5398 43.0271 34.7601 0.0000 1.2145 0.0000
# 2 43.0271 69.0744 40.1790 0.0000 3.7950 0.0000
# 3 34.7601 40.1790 93.8451 0.0000 7.0942 0.0000
# 4 0.0000 0.0000 0.0000 32.2229 0.0000 -0.3315
# 5 1.2145 3.7950 7.0942 0.0000 27.4769 0.0000
# 6 0.0000 0.0000 0.0000 -0.3315 0.0000 19.8202
#
#
#
# Elastic Compliance Matrix: (Units=1/GPa)
#
#
# Indices 1 2 3 4 5 6 
#
# 1 0.028353 -0.015412 -0.004049 0.000000 0.001921 0.000000
# 2 -0.015412 0.027663 -0.006016 0.000000 -0.001586 0.000000
# 3 -0.004049 -0.006016 0.014946 0.000000 -0.002849 0.000000
# 4 0.000000 0.000000 0.000000 0.031039 0.000000 0.000519
# 5 0.001921 -0.001586 -0.002849 0.000000 0.037264 0.000000
# 6 0.000000 0.000000 0.000000 0.000519 0.000000 0.050462
#
#
# Mechanical properties :
#
#
# Convention : Reuss Voigt Hill
#
# Bulk Modulus (GPa) = 49.97282 51.37686 50.67484
# Shear Modulus (GPa) = 20.21432 23.13686 21.67559
#
# Velocity S-wave (km/s) = 3.41062 3.64885 3.53174
# Velocity P-wave (km/s) = 6.65332 6.87873 6.76696
#
# Compressibility (1/GPa) = 0.02001088
#
# Stress axis : x y z
#
# Youngs Moduli (GPa) = 35.27024 36.14885 66.90604
#
# Poissons Ratio (x) = 0.55711 0.27088
# Poissons Ratio (y) = 0.54357 0.40247
# Poissons Ratio (z) = 0.14279 0.21745
#
# Static dielectric constant tensor:
#      x y z
#    x 1.583220 0.000000 0.003620 
#    y 0.000000 1.591820 0.000000 
#    z 0.003620 0.000000 1.594660 
# 
# From -- ./inp_files/165459.got.cif
#   From: 2010.05.17/outbox.cif.g08.bks.cpg/sg12_83_cif.got.tgz:165459.got - 2010.06.03 13:09:07.
