data_PCOD9191445
_publ_section_title
;
Structure prediction by ZEFSAII (Michael W. Deem and Ramdas Pophale) SiO2 
 PCOD9191445
Probable space group: C 2/M
;
_chemical_formula_sum "Si O2"
_cell_formula_units_Z 56
_cell_length_a 13.055458
_cell_length_b 26.443250
_cell_length_c 12.624673
_cell_angle_alpha 90.000000
_cell_angle_beta 137.523391
_cell_angle_gamma 90.000000
_cell_volume 2943.180232
_symmetry_space_group_name_H-M "C 2/M"
_symmetry_group_IT_number 12
_symmetry_cell_setting 'monoclinic'
loop_
_space_group_symop_operation_xyz
x,y,z
-x,y,-z
-x,-y,-z
x,-y,z
1/2+x,1/2+y,z
1/2-x,1/2+y,-z
1/2-x,1/2-y,-z
1/2+x,1/2-y,z
loop_
_atom_site_type_symbol
_atom_site_label
_atom_site_fract_x
_atom_site_fract_y
_atom_site_fract_z
Si Si1 0.298225 0.365107 0.497047
Si Si2 0.326777 0.828581 0.376747
Si Si3 0.673105 0.232036 0.332150
Si Si4 0.344629 0.364005 0.180666
Si Si5 0.657362 0.652419 0.056285
Si Si6 0.620315 0.229631 0.997377
Si Si7 0.317521 0.557348 0.342761
O O1 0.212075 0.356328 0.542494
O O2 0.249456 0.321975 0.375910
O O3 0.476795 0.357366 0.656732
O O4 0.261825 0.416791 0.409011
O O5 0.500000 0.812889 0.500000
O O6 0.221781 0.778287 0.295038
O O7 0.283976 0.859752 0.239745
O O8 0.750000 0.250000 0.500000
O O9 0.492675 0.224583 0.190539
O O10 0.287107 0.406756 0.218279
O O11 0.337232 0.377330 0.049820
O O12 0.247695 0.312344 0.113620
O O13 0.500000 0.645961 0.000000
O O14 0.670870 0.712025 0.035299
O O15 0.500000 0.222027 0.000000
O O16 0.500000 0.556586 0.500000
O O17 0.265226 0.500000 0.287641
#
# Coordination Sequence:
#
# PCOD9191445 Si02
#       7
#     8   8   8   8   8   8   8
#     4  10  21  38  57  83 113 151 198 240 286 339
#     4  11  23  34  54  83 118 159 193 229 276 345
#     4  10  20  33  49  77 115 154 192 227 266 332
#     4  11  22  35  60  83 112 153 194 240 290 339
#     4  11  20  36  51  80 121 154 187 230 281 341
#     4  11  21  34  51  80 117 156 194 232 277 334
#     4   9  20  39  64  89 111 142 191 251 301 343
#
# _framework density 19.027038000000001
#
# number of rings (size 3 to 8) (size 9 to 14) (size 15 to 20)
#    0.000    1.571    4.286    2.143    6.000    0.571 
#    0.000    0.000    0.000    5.571    0.000    0.000 
#    0.000    0.000    0.000    0.000    0.000    0.000 
#
# Total GULP energy -156078.560672 kJ/mol
# GULP energy per Si atom -5574.234310 kJ/mol
# Density = 1.898373 g / cm^3
# Si number density = 19.027038 Si / 1000 Ang^3
#
#
#
# Elastic Constant Matrix: (Units=GPa)
#
#
# Indices 1 2 3 4 5 6 
#
# 1 89.0590 43.7354 37.8621 0.0000 -12.7721 0.0000
# 2 43.7354 79.5584 21.7457 0.0000 -18.0218 0.0000
# 3 37.8621 21.7457 87.1141 0.0000 -20.9836 0.0000
# 4 0.0000 0.0000 0.0000 16.0283 0.0000 -2.9438
# 5 -12.7721 -18.0218 -20.9836 0.0000 35.3283 0.0000
# 6 0.0000 0.0000 0.0000 -2.9438 0.0000 14.4140
#
#
#
# Elastic Compliance Matrix: (Units=1/GPa)
#
#
# Indices 1 2 3 4 5 6 
#
# 1 0.017679 -0.008422 -0.005924 0.000000 -0.001424 0.000000
# 2 -0.008422 0.018561 0.000670 0.000000 0.006822 0.000000
# 3 -0.005924 0.000670 0.015699 0.000000 0.007525 0.000000
# 4 0.000000 0.000000 0.000000 0.064821 0.000000 0.013238
# 5 -0.001424 0.006822 0.007525 0.000000 0.035741 0.000000
# 6 0.000000 0.000000 0.000000 0.013238 0.000000 0.072081
#
#
# Mechanical properties :
#
#
# Convention : Reuss Voigt Hill
#
# Bulk Modulus (GPa) = 40.67082 51.37978 46.02530
# Shear Modulus (GPa) = 19.22125 23.31335 21.26730
#
# Velocity S-wave (km/s) = 3.18182 3.50419 3.34689
# Velocity P-wave (km/s) = 5.90934 6.59050 6.25919
#
# Compressibility (1/GPa) = 0.02458765
#
# Stress axis : x y z
#
# Youngs Moduli (GPa) = 56.56518 53.87608 63.69716
#
# Poissons Ratio (x) = 0.45373 0.37736
# Poissons Ratio (y) = 0.47637 -0.04269
# Poissons Ratio (z) = 0.33511 -0.03611
#
# Static dielectric constant tensor:
#      x y z
#    x 1.744200 0.000000 -0.042000 
#    y 0.000000 1.670510 0.000000 
#    z -0.042000 0.000000 1.730940 
# 
# From -- ./inp_files/218809.got.cif
#   From: 2010.05.17/outbox.cif.g08.bks.cpg/sg12_110_cif.got.tgz:218809.got - 2010.06.03 13:09:07.
