data_PCOD9191861
_publ_section_title
;
Structure prediction by ZEFSAII (Michael W. Deem and Ramdas Pophale) SiO2 
 PCOD9191861
Probable space group: C 2/M
;
_chemical_formula_sum "Si O2"
_cell_formula_units_Z 64
_cell_length_a 13.002246
_cell_length_b 19.126109
_cell_length_c 17.608167
_cell_angle_alpha 90.000000
_cell_angle_beta 52.477513
_cell_angle_gamma 90.000000
_cell_volume 3472.921487
_symmetry_space_group_name_H-M "C 2/M"
_symmetry_group_IT_number 12
_symmetry_cell_setting 'monoclinic'
loop_
_space_group_symop_operation_xyz
x,y,z
-x,y,-z
-x,-y,-z
x,-y,z
1/2+x,1/2+y,z
1/2-x,1/2+y,-z
1/2-x,1/2-y,-z
1/2+x,1/2-y,z
loop_
_atom_site_type_symbol
_atom_site_label
_atom_site_fract_x
_atom_site_fract_y
_atom_site_fract_z
Si Si1 0.427021 0.080964 0.783788
Si Si2 0.473026 0.419832 0.802585
Si Si3 0.868605 0.304257 0.085533
Si Si4 0.382141 0.771397 0.609081
Si Si5 0.588937 0.720113 0.234868
Si Si6 0.222846 0.419309 0.306981
Si Si7 0.288130 0.082088 0.002261
Si Si8 0.378063 0.809786 0.259234
O O1 0.338752 0.087697 0.749038
O O2 0.557768 0.126185 0.724860
O O3 0.461547 0.000000 0.775979
O O4 0.343797 0.101623 0.895291
O O5 0.458090 0.500000 0.782931
O O6 0.433016 0.363306 0.757034
O O7 0.621342 0.411365 0.761930
O O8 0.366634 0.408761 0.916875
O O9 0.733351 0.263231 0.140476
O O10 0.854187 0.370493 0.036570
O O11 0.872329 0.325402 0.172238
O O12 0.000000 0.266943 0.000000
O O13 0.500000 0.758009 0.500000
O O14 0.424968 0.754079 0.676311
O O15 0.336296 0.852402 0.622759
O O16 0.259084 0.720370 0.651788
O O17 0.482991 0.749130 0.225184
O O18 0.194800 0.500000 0.345617
O O19 0.315673 0.000000 0.002068
#
# Coordination Sequence:
#
# PCOD9191861 Si02
#       8
#     8   8   8   8   8   8   8   8
#     4  10  20  35  57  84 119 156 192 237 280 335
#     4   9  18  36  59  84 118 156 194 233 275 333
#     4  10  20  33  51  81 114 152 193 234 269 323
#     4  11  24  41  63  87 110 143 191 243 294 355
#     4  10  21  38  58  82 116 150 192 233 286 347
#     4  10  20  37  60  87 117 149 188 238 291 337
#     4   9  18  33  54  82 114 158 203 229 269 331
#     4  11  21  38  57  81 117 150 191 232 291 341
#
# _framework density 18.428288999999999
#
# number of rings (size 3 to 8) (size 9 to 14) (size 15 to 20)
#    0.000    2.000    3.750    0.000    0.000    2.500 
#    0.000    4.375    0.000    1.500    0.000    0.000 
#    0.000    0.000    0.000    0.000    0.000    0.000 
#
# Total GULP energy -178336.860079 kJ/mol
# GULP energy per Si atom -5573.026877 kJ/mol
# Density = 1.838635 g / cm^3
# Si number density = 18.428289 Si / 1000 Ang^3
#
#
#
# Elastic Constant Matrix: (Units=GPa)
#
#
# Indices 1 2 3 4 5 6 
#
# 1 73.0713 30.1426 35.2496 0.0000 -22.6002 0.0000
# 2 30.1426 91.3411 40.3301 0.0000 -7.8501 0.0000
# 3 35.2496 40.3301 101.5255 0.0000 -27.1397 0.0000
# 4 0.0000 0.0000 0.0000 17.6622 0.0000 -1.6505
# 5 -22.6002 -7.8501 -27.1397 0.0000 16.9249 0.0000
# 6 0.0000 0.0000 0.0000 -1.6505 0.0000 30.6831
#
#
#
# Elastic Compliance Matrix: (Units=1/GPa)
#
#
# Indices 1 2 3 4 5 6 
#
# 1 0.026717 -0.007227 0.003913 0.000000 0.038598 0.000000
# 2 -0.007227 0.015390 -0.007484 0.000000 -0.014513 0.000000
# 3 0.003913 -0.007484 0.020886 0.000000 0.035244 0.000000
# 4 0.000000 0.000000 0.000000 0.056904 0.000000 0.003061
# 5 0.038598 -0.014513 0.035244 0.000000 0.160409 0.000000
# 6 0.000000 0.000000 0.000000 0.003061 0.000000 0.032756
#
#
# Mechanical properties :
#
#
# Convention : Reuss Voigt Hill
#
# Bulk Modulus (GPa) = 24.15688 53.04248 38.59968
# Shear Modulus (GPa) = 14.34900 23.73509 19.04205
#
# Velocity S-wave (km/s) = 2.79344 3.59272 3.21799
# Velocity P-wave (km/s) = 4.85195 6.78645 5.89904
#
# Compressibility (1/GPa) = 0.04139607
#
# Stress axis : x y z
#
# Youngs Moduli (GPa) = 37.42962 64.97729 47.87973
#
# Poissons Ratio (x) = 0.46959 -0.18734
# Poissons Ratio (y) = 0.27050 0.35833
# Poissons Ratio (z) = -0.14645 0.48628
#
# Static dielectric constant tensor:
#      x y z
#    x 1.638450 0.000000 -0.022490 
#    y 0.000000 1.695530 0.000000 
#    z -0.022490 0.000000 1.616550 
# 
# From -- ./inp_files/265055.got.cif
#   From: 2010.05.17/outbox.cif.g08.bks.cpg/sg12_133_cif.got.tgz:265055.got - 2010.06.03 13:09:07.
