data_PCOD9191973
_publ_section_title
;
Structure prediction by ZEFSAII (Michael W. Deem and Ramdas Pophale) SiO2 
 PCOD9191973
Probable space group: C 2/M
;
_chemical_formula_sum "Si O2"
_cell_formula_units_Z 56
_cell_length_a 8.587384
_cell_length_b 30.164819
_cell_length_c 10.026607
_cell_angle_alpha 90.000000
_cell_angle_beta 68.870906
_cell_angle_gamma 90.000000
_cell_volume 2422.648768
_symmetry_space_group_name_H-M "C 2/M"
_symmetry_group_IT_number 12
_symmetry_cell_setting 'monoclinic'
loop_
_space_group_symop_operation_xyz
x,y,z
-x,y,-z
-x,-y,-z
x,-y,z
1/2+x,1/2+y,z
1/2-x,1/2+y,-z
1/2-x,1/2-y,-z
1/2+x,1/2-y,z
loop_
_atom_site_type_symbol
_atom_site_label
_atom_site_fract_x
_atom_site_fract_y
_atom_site_fract_z
Si Si1 0.818606 0.755556 0.791688
Si Si2 0.658268 0.178280 0.044278
Si Si3 0.587275 0.451248 0.201618
Si Si4 0.865621 0.550229 0.353765
Si Si5 0.863094 0.885463 0.421313
Si Si6 0.143729 0.421138 0.072447
Si Si7 0.141297 0.784033 0.618281
O O1 0.781380 0.790905 0.919292
O O2 0.661135 0.735941 0.761813
O O3 0.944450 0.780177 0.654939
O O4 0.892646 0.709033 0.818528
O O5 0.500000 0.172125 0.000000
O O6 0.707680 0.129243 0.068988
O O7 0.507563 0.500000 0.233684
O O8 0.726953 0.449151 0.276875
O O9 0.457985 0.411996 0.273771
O O10 0.696300 0.446764 0.033761
O O11 0.869359 0.500000 0.404603
O O12 0.793292 0.585560 0.480019
O O13 0.043250 0.562421 0.232539
O O14 0.811024 0.835304 0.404551
O O15 0.000000 0.883307 0.500000
O O16 0.000000 0.423217 0.000000
O O17 0.250000 0.750000 0.500000
#
# Coordination Sequence:
#
# PCOD9191973 Si02
#       7
#     8   8   8   8   8   8   8
#     4  11  23  40  59  84 115 156 202 246 295 345
#     4  10  20  37  61  84 116 153 195 246 296 353
#     4   9  16  29  49  78 111 144 187 240 295 349
#     4   9  17  29  48  79 115 148 187 237 293 351
#     4  10  20  33  52  78 112 156 194 240 293 349
#     4   9  17  27  49  78 111 145 183 235 292 346
#     4  12  25  39  58  83 120 159 202 244 289 351
#
# _framework density 23.115195
#
# number of rings (size 3 to 8) (size 9 to 14) (size 15 to 20)
#    0.000    2.000    1.429    3.000    2.000    5.714 
#    0.000    0.000    0.000    0.000    0.000    6.000 
#    0.000    0.000    0.000    0.000    0.000    0.000 
#
# Total GULP energy -156221.374877 kJ/mol
# GULP energy per Si atom -5579.334817 kJ/mol
# Density = 2.306258 g / cm^3
# Si number density = 23.115195 Si / 1000 Ang^3
#
#
#
# Elastic Constant Matrix: (Units=GPa)
#
#
# Indices 1 2 3 4 5 6 
#
# 1 21.7626 21.1807 10.6293 0.0000 -6.6171 0.0000
# 2 21.1807 201.3713 66.9382 0.0000 -25.4080 0.0000
# 3 10.6293 66.9382 90.6006 0.0000 -35.0180 0.0000
# 4 0.0000 0.0000 0.0000 31.2477 0.0000 -9.9310
# 5 -6.6171 -25.4080 -35.0180 0.0000 24.8934 0.0000
# 6 0.0000 0.0000 0.0000 -9.9310 0.0000 10.6996
#
#
#
# Elastic Compliance Matrix: (Units=1/GPa)
#
#
# Indices 1 2 3 4 5 6 
#
# 1 0.053265 -0.004709 0.001852 0.000000 0.011957 0.000000
# 2 -0.004709 0.007000 -0.005132 0.000000 -0.001326 0.000000
# 3 0.001852 -0.005132 0.028003 0.000000 0.034647 0.000000
# 4 0.000000 0.000000 0.000000 0.045393 0.000000 0.042132
# 5 0.011957 -0.001326 0.034647 0.000000 0.090734 0.000000
# 6 0.000000 0.000000 0.000000 0.042132 0.000000 0.132568
#
#
# Mechanical properties :
#
#
# Convention : Reuss Voigt Hill
#
# Bulk Modulus (GPa) = 13.83329 56.80342 35.31836
# Shear Modulus (GPa) = 12.59329 27.70056 20.14692
#
# Velocity S-wave (km/s) = 2.33664 3.46550 2.95547
# Velocity P-wave (km/s) = 3.64381 6.37498 5.19219
#
# Compressibility (1/GPa) = 0.07228939
#
# Stress axis : x y z
#
# Youngs Moduli (GPa) = 18.77400 142.86091 35.71066
#
# Poissons Ratio (x) = 0.67280 -0.06614
# Poissons Ratio (y) = 0.08842 0.18326
# Poissons Ratio (z) = -0.03477 0.73313
#
# Static dielectric constant tensor:
#      x y z
#    x 1.835790 0.000000 0.021660 
#    y 0.000000 1.835650 0.000000 
#    z 0.021660 0.000000 1.892430 
# 
# From -- ./inp_files/125582.got.cif
#   From: 2010.05.17/outbox.cif.g08.bks.cpg/sg12_63_cif.got.tgz:125582.got - 2010.06.03 13:09:07.
