data_PCOD9191918
_publ_section_title
;
Structure prediction by ZEFSAII (Michael W. Deem and Ramdas Pophale) SiO2 
 PCOD9191918
Probable space group: C 2/M
;
_chemical_formula_sum "Si O2"
_cell_formula_units_Z 64
_cell_length_a 15.649943
_cell_length_b 8.723251
_cell_length_c 31.634526
_cell_angle_alpha 90.000000
_cell_angle_beta 137.208901
_cell_angle_gamma 90.000000
_cell_volume 2933.806961
_symmetry_space_group_name_H-M "C 2/M"
_symmetry_group_IT_number 12
_symmetry_cell_setting 'monoclinic'
loop_
_space_group_symop_operation_xyz
x,y,z
-x,y,-z
-x,-y,-z
x,-y,z
1/2+x,1/2+y,z
1/2-x,1/2+y,-z
1/2-x,1/2-y,-z
1/2+x,1/2-y,z
loop_
_atom_site_type_symbol
_atom_site_label
_atom_site_fract_x
_atom_site_fract_y
_atom_site_fract_z
Si Si1 0.875684 0.185604 0.025671
Si Si2 0.622582 0.319851 0.598647
Si Si3 0.249331 0.675454 0.897069
Si Si4 0.867138 0.178479 0.847543
Si Si5 0.119988 0.316325 0.351952
Si Si6 0.610450 0.816265 0.444814
Si Si7 0.246832 0.675604 0.722931
Si Si8 0.484837 0.329426 0.225228
O O1 0.995535 0.247663 0.094675
O O2 0.884601 0.000000 0.031162
O O3 0.750000 0.250000 0.000000
O O4 0.854294 0.226722 0.968765
O O5 0.606788 0.500000 0.585022
O O6 0.737661 0.261904 0.610090
O O7 0.484798 0.244295 0.553446
O O8 0.674599 0.283479 0.664481
O O9 0.216821 0.500000 0.896444
O O10 0.307717 0.677537 0.871962
O O11 0.121853 0.768394 0.844942
O O12 0.770951 0.241780 0.778183
O O13 0.882038 0.000000 0.839410
O O14 0.126748 0.500000 0.353367
O O15 0.078747 0.271654 0.384302
O O16 0.020964 0.265798 0.280154
O O17 0.750000 0.750000 0.500000
O O18 0.612049 0.000000 0.447753
O O19 0.192770 0.500000 0.703568
O O20 0.386417 0.665638 0.754210
O O21 0.449660 0.500000 0.225998
#
# Coordination Sequence:
#
# PCOD9191918 Si02
#       8
#     8   8   8   8   8   8   8   8
#     4  10  20  35  54  74 100 138 184 231 281 337
#     4  10  21  39  62  89 121 156 198 246 291 342
#     4  10  20  33  52  77 105 141 184 229 280 344
#     4   9  18  33  53  75 102 140 184 226 273 337
#     4   9  21  41  63  86 120 164 201 236 288 355
#     4  11  24  42  64  91 123 160 200 240 287 346
#     4   9  18  34  55  79 108 146 187 230 283 342
#     4  10  20  34  55  83 114 144 183 236 287 333
#
# _framework density 21.81466
#
# number of rings (size 3 to 8) (size 9 to 14) (size 15 to 20)
#    0.000    2.250    0.000    2.250    1.750    5.500 
#    0.000    3.750    0.000    1.500    0.000    0.000 
#    0.000    0.000    0.000    0.000    0.000    0.000 
#
# Total GULP energy -178439.295154 kJ/mol
# GULP energy per Si atom -5576.227974 kJ/mol
# Density = 2.176501 g / cm^3
# Si number density = 21.814660 Si / 1000 Ang^3
#
#
#
# Elastic Constant Matrix: (Units=GPa)
#
#
# Indices 1 2 3 4 5 6 
#
# 1 61.5941 11.7516 -3.8335 0.0000 11.2978 0.0000
# 2 11.7516 19.3926 -3.8626 0.0000 7.1323 0.0000
# 3 -3.8335 -3.8626 26.9447 0.0000 3.0678 0.0000
# 4 0.0000 0.0000 0.0000 24.4797 0.0000 5.8584
# 5 11.2978 7.1323 3.0678 0.0000 42.2368 0.0000
# 6 0.0000 0.0000 0.0000 5.8584 0.0000 21.1149
#
#
#
# Elastic Compliance Matrix: (Units=1/GPa)
#
#
# Indices 1 2 3 4 5 6 
#
# 1 0.018853 -0.009800 0.001677 0.000000 -0.003510 0.000000
# 2 -0.009800 0.062335 0.008512 0.000000 -0.008523 0.000000
# 3 0.001677 0.008512 0.039110 0.000000 -0.004727 0.000000
# 4 0.000000 0.000000 0.000000 0.043756 0.000000 -0.012140
# 5 -0.003510 -0.008523 -0.004727 0.000000 0.026397 0.000000
# 6 0.000000 0.000000 0.000000 -0.012140 0.000000 0.050728
#
#
# Mechanical properties :
#
#
# Convention : Reuss Voigt Hill
#
# Bulk Modulus (GPa) = 8.25925 12.89360 10.57643
# Shear Modulus (GPa) = 17.80885 24.49134 21.15009
#
# Velocity S-wave (km/s) = 2.86032 3.35431 3.11712
# Velocity P-wave (km/s) = 3.83444 4.57441 4.22067
#
# Compressibility (1/GPa) = 0.12107635
#
# Stress axis : x y z
#
# Youngs Moduli (GPa) = 53.04140 16.04247 25.56886
#
# Poissons Ratio (x) = 0.15721 -0.04288
# Poissons Ratio (y) = 0.51979 -0.21764
# Poissons Ratio (z) = -0.08896 -0.13655
#
# Static dielectric constant tensor:
#      x y z
#    x 1.838890 0.000000 0.045880 
#    y 0.000000 1.784890 0.000000 
#    z 0.045880 0.000000 1.749290 
# 
# From -- ./inp_files/375655.got.cif
#   From: 2010.05.17/outbox.cif.g08.bks.cpg/sg12_188_cif.got.tgz:375655.got - 2010.06.03 13:09:07.
