data_PCOD9191115
_publ_section_title
;
Structure prediction by ZEFSAII (Michael W. Deem and Ramdas Pophale) SiO2 
 PCOD9191115
Probable space group: C 2/M
;
_chemical_formula_sum "Si O2"
_cell_formula_units_Z 64
_cell_length_a 20.244238
_cell_length_b 12.097713
_cell_length_c 16.444115
_cell_angle_alpha 90.000000
_cell_angle_beta 129.790685
_cell_angle_gamma 90.000000
_cell_volume 3094.536104
_symmetry_space_group_name_H-M "C 2/M"
_symmetry_group_IT_number 12
_symmetry_cell_setting 'monoclinic'
loop_
_space_group_symop_operation_xyz
x,y,z
-x,y,-z
-x,-y,-z
x,-y,z
1/2+x,1/2+y,z
1/2-x,1/2+y,-z
1/2-x,1/2-y,-z
1/2+x,1/2-y,z
loop_
_atom_site_type_symbol
_atom_site_label
_atom_site_fract_x
_atom_site_fract_y
_atom_site_fract_z
Si Si1 0.550429 0.681568 0.117163
Si Si2 0.681945 0.700387 0.346815
Si Si3 0.012414 0.804591 0.415269
Si Si4 0.403016 0.784521 0.106307
Si Si5 0.837711 0.870918 0.189208
Si Si6 0.842111 0.627710 0.888254
Si Si7 0.949936 0.374985 0.675549
Si Si8 0.197575 0.882269 0.534933
O O1 0.629808 0.637405 0.235054
O O2 0.473668 0.704480 0.119775
O O3 0.596368 0.792049 0.115504
O O4 0.500000 0.629297 0.000000
O O5 0.616089 0.794023 0.329961
O O6 0.761835 0.778125 0.386394
O O7 0.712107 0.631724 0.449111
O O8 0.033510 0.683318 0.397072
O O9 0.095649 0.876957 0.462110
O O10 0.000000 0.802923 0.500000
O O11 0.928971 0.851234 0.304286
O O12 0.341213 0.711276 0.114496
O O13 0.459725 0.865573 0.206171
O O14 0.363184 0.850051 0.999829
O O15 0.759876 0.847538 0.190693
O O16 0.829193 0.000000 0.158490
O O17 0.857523 0.500000 0.878764
O O18 0.919943 0.500000 0.648103
O O19 0.230978 0.000000 0.591021
#
# Coordination Sequence:
#
# PCOD9191115 Si02
#       8
#     8   8   8   8   8   8   8   8
#     4   9  19  33  52  79 113 141 167 215 276 322
#     4   9  19  34  53  81 107 133 175 220 265 317
#     4  10  22  35  47  72 105 137 171 217 262 305
#     4   9  18  34  54  78 108 139 173 219 261 312
#     4  10  21  36  54  76 103 143 184 216 259 316
#     4  10  20  32  53  84 111 137 169 214 273 321
#     4   9  17  32  54  75  99 133 173 211 257 314
#     4  10  20  34  55  77 102 140 179 219 263 311
#
# _framework density 20.681614
#
# number of rings (size 3 to 8) (size 9 to 14) (size 15 to 20)
#    0.000    2.500    0.000    2.250    1.750    6.000 
#    0.000    0.000    0.000    6.750    0.000    0.000 
#    0.000    0.000    0.000    0.000    0.000    0.000 
#
# Total GULP energy -178330.011612 kJ/mol
# GULP energy per Si atom -5572.812863 kJ/mol
# Density = 2.063454 g / cm^3
# Si number density = 20.681614 Si / 1000 Ang^3
#
#
#
# Elastic Constant Matrix: (Units=GPa)
#
#
# Indices 1 2 3 4 5 6 
#
# 1 63.3342 17.0490 5.2832 0.0000 1.9056 0.0000
# 2 17.0490 70.3681 -2.0542 0.0000 -2.7433 0.0000
# 3 5.2832 -2.0542 86.7921 0.0000 2.4053 0.0000
# 4 0.0000 0.0000 0.0000 6.4221 0.0000 6.0796
# 5 1.9056 -2.7433 2.4053 0.0000 37.4066 0.0000
# 6 0.0000 0.0000 0.0000 6.0796 0.0000 25.4036
#
#
#
# Elastic Compliance Matrix: (Units=1/GPa)
#
#
# Indices 1 2 3 4 5 6 
#
# 1 0.017047 -0.004206 -0.001107 0.000000 -0.001106 0.000000
# 2 -0.004206 0.015298 0.000582 0.000000 0.001299 0.000000
# 3 -0.001107 0.000582 0.011621 0.000000 -0.000648 0.000000
# 4 0.000000 0.000000 0.000000 0.201326 0.000000 -0.048182
# 5 -0.001106 0.001299 -0.000648 0.000000 0.026927 0.000000
# 6 0.000000 0.000000 0.000000 -0.048182 0.000000 0.050895
#
#
# Mechanical properties :
#
#
# Convention : Reuss Voigt Hill
#
# Bulk Modulus (GPa) = 28.98116 29.00561 28.99339
# Shear Modulus (GPa) = 14.53170 27.19420 20.86295
#
# Velocity S-wave (km/s) = 2.65361 3.63009 3.17956
# Velocity P-wave (km/s) = 4.84069 5.62364 5.24679
#
# Compressibility (1/GPa) = 0.03450517
#
# Stress axis : x y z
#
# Youngs Moduli (GPa) = 58.66155 65.36989 86.05201
#
# Poissons Ratio (x) = 0.27492 0.09522
# Poissons Ratio (y) = 0.24671 -0.05009
# Poissons Ratio (z) = 0.06491 -0.03805
#
# Static dielectric constant tensor:
#      x y z
#    x 1.722860 0.000000 0.031760 
#    y 0.000000 1.735320 0.000000 
#    z 0.031760 0.000000 1.808790 
# 
# From -- ./inp_files/283313.got.cif
#   From: 2010.05.17/outbox.cif.g08.bks.cpg/sg12_142_cif.got.tgz:283313.got - 2010.06.03 13:09:07.
