data_PCOD9191272
_publ_section_title
;
Structure prediction by ZEFSAII (Michael W. Deem and Ramdas Pophale) SiO2 
 PCOD9191272
Probable space group: C 2/M
;
_chemical_formula_sum "Si O2"
_cell_formula_units_Z 56
_cell_length_a 21.927329
_cell_length_b 12.965821
_cell_length_c 12.763771
_cell_angle_alpha 90.000000
_cell_angle_beta 35.733572
_cell_angle_gamma 90.000000
_cell_volume 2119.289109
_symmetry_space_group_name_H-M "C 2/M"
_symmetry_group_IT_number 12
_symmetry_cell_setting 'monoclinic'
loop_
_space_group_symop_operation_xyz
x,y,z
-x,y,-z
-x,-y,-z
x,-y,z
1/2+x,1/2+y,z
1/2-x,1/2+y,-z
1/2-x,1/2-y,-z
1/2+x,1/2-y,z
loop_
_atom_site_type_symbol
_atom_site_label
_atom_site_fract_x
_atom_site_fract_y
_atom_site_fract_z
Si Si1 0.114184 0.880073 0.862993
Si Si2 0.356840 0.338380 0.403653
Si Si3 0.688884 0.384529 0.307659
Si Si4 0.400807 0.890564 0.385573
Si Si5 0.118925 0.340668 0.359313
Si Si6 0.899143 0.118566 0.893021
Si Si7 0.140087 0.658601 0.105680
O O1 0.171772 0.875808 0.672326
O O2 0.096969 0.000000 0.911000
O O3 0.149196 0.842543 0.927436
O O4 0.000000 0.831297 0.000000
O O5 0.287846 0.370445 0.599938
O O6 0.367740 0.215425 0.378825
O O7 0.474278 0.378714 0.266557
O O8 0.642984 0.500000 0.359024
O O9 0.621692 0.282308 0.377953
O O10 0.783320 0.374848 0.093563
O O11 0.351718 0.890051 0.571007
O O12 0.525233 0.879758 0.233784
O O13 0.381322 0.000000 0.359834
O O14 0.174066 0.375525 0.175062
O O15 0.000000 0.369041 0.500000
O O16 0.872693 0.217368 0.860017
O O17 0.874935 0.000000 0.897701
#
# Coordination Sequence:
#
# PCOD9191272 Si02
#       7
#     8   8   8   8   8   8   8
#     4   8  13  25  49  76  96 121 159 199 240 281
#     4   9  17  30  50  75  99 121 159 206 241 283
#     4  11  21  32  48  71 100 129 153 191 250 299
#     4   9  18  33  52  70  92 129 170 202 234 279
#     4   9  20  35  51  71  92 122 166 206 235 278
#     4   9  17  31  53  75  96 127 164 202 239 277
#     4  10  20  33  47  71 102 127 161 197 237 291
#
# _framework density 26.423954999999999
#
# number of rings (size 3 to 8) (size 9 to 14) (size 15 to 20)
#    0.000    2.714    0.000    3.857    0.000    4.000 
#    0.000    3.571    0.000   11.571    0.000    0.000 
#    0.000    0.000    0.000    0.000    0.000    0.000 
#
# Total GULP energy -156552.963447 kJ/mol
# GULP energy per Si atom -5591.177266 kJ/mol
# Density = 2.636381 g / cm^3
# Si number density = 26.423955 Si / 1000 Ang^3
#
#
#
# Elastic Constant Matrix: (Units=GPa)
#
#
# Indices 1 2 3 4 5 6 
#
# 1 80.7268 8.6189 23.2297 0.0000 31.5621 0.0000
# 2 8.6189 195.9602 -1.7998 0.0000 2.9033 0.0000
# 3 23.2297 -1.7998 137.7920 0.0000 24.0707 0.0000
# 4 0.0000 0.0000 0.0000 27.5185 0.0000 -7.1102
# 5 31.5621 2.9033 24.0707 0.0000 56.8392 0.0000
# 6 0.0000 0.0000 0.0000 -7.1102 0.0000 -5.4512
#
#
#
# Elastic Compliance Matrix: (Units=1/GPa)
#
#
# Indices 1 2 3 4 5 6 
#
# 1 0.016085 -0.000595 -0.001258 0.000000 -0.008369 0.000000
# 2 -0.000595 0.005131 0.000168 0.000000 -0.000003 0.000000
# 3 -0.001258 0.000168 0.007938 0.000000 -0.002672 0.000000
# 4 0.000000 0.000000 0.000000 0.027180 0.000000 -0.035451
# 5 -0.008369 -0.000003 -0.002672 0.000000 0.023372 0.000000
# 6 0.000000 0.000000 0.000000 -0.035451 0.000000 -0.137206
#
#
# Mechanical properties :
#
#
# Convention : Reuss Voigt Hill
#
# Bulk Modulus (GPa) = 38.78298 52.73073 45.75685
# Shear Modulus (GPa) = -109.80433 41.40997 -34.19718
#
# Velocity S-wave (km/s) = -6.45330 3.96300 -3.60136
# Velocity P-wave (km/s) = 6.38887 6.39840 0.24681
#
# Compressibility (1/GPa) = 0.02578451
#
# Stress axis : x y z
#
# Youngs Moduli (GPa) = 62.17043 194.90029 125.97188
#
# Poissons Ratio (x) = 0.11597 0.15841
# Poissons Ratio (y) = 0.03699 -0.02114
# Poissons Ratio (z) = 0.07818 -0.03271
#
# Static dielectric constant tensor:
#      x y z
#    x 2.082370 0.000000 -0.047360 
#    y 0.000000 2.013280 0.000000 
#    z -0.047360 0.000000 2.159050 
# 
# From -- ./inp_files/251021.got.cif
#   From: 2010.05.17/outbox.cif.g08.bks.cpg/sg12_126_cif.got.tgz:251021.got - 2010.06.03 13:09:07.
