data_PCOD9191557
_publ_section_title
;
Structure prediction by ZEFSAII (Michael W. Deem and Ramdas Pophale) SiO2 
 PCOD9191557
Probable space group: C 2/M
;
_chemical_formula_sum "Si O2"
_cell_formula_units_Z 56
_cell_length_a 16.672483
_cell_length_b 7.332036
_cell_length_c 23.156765
_cell_angle_alpha 90.000000
_cell_angle_beta 132.375982
_cell_angle_gamma 90.000000
_cell_volume 2091.188411
_symmetry_space_group_name_H-M "C 2/M"
_symmetry_group_IT_number 12
_symmetry_cell_setting 'monoclinic'
loop_
_space_group_symop_operation_xyz
x,y,z
-x,y,-z
-x,-y,-z
x,-y,z
1/2+x,1/2+y,z
1/2-x,1/2+y,-z
1/2-x,1/2-y,-z
1/2+x,1/2-y,z
loop_
_atom_site_type_symbol
_atom_site_label
_atom_site_fract_x
_atom_site_fract_y
_atom_site_fract_z
Si Si1 0.868889 0.719378 0.757762
Si Si2 0.330882 0.221694 0.613527
Si Si3 0.903369 0.790682 0.094650
Si Si4 0.379235 0.720905 0.957404
Si Si5 0.625440 0.723991 0.669700
Si Si6 0.848473 0.210303 0.192014
Si Si7 0.406243 0.706883 0.522107
O O1 0.870411 0.500000 0.761877
O O2 0.890376 0.771599 0.701400
O O3 0.746967 0.778731 0.712572
O O4 0.965430 0.789213 0.844366
O O5 0.379403 0.295827 0.577975
O O6 0.204981 0.284854 0.557258
O O7 0.329715 0.000000 0.608313
O O8 0.858206 0.714776 0.013051
O O9 0.876191 0.704142 0.143382
O O10 0.867560 0.000000 0.079586
O O11 0.378188 0.500000 0.956397
O O12 0.500000 0.780567 0.000000
O O13 0.282770 0.785358 0.869713
O O14 0.622869 0.500000 0.667932
O O15 0.607222 0.787896 0.726782
O O16 0.527816 0.784737 0.580541
O O17 0.883398 0.000000 0.207287
O O18 0.411164 0.500000 0.502472
#
# Coordination Sequence:
#
# PCOD9191557 Si02
#       7
#     8   8   8   8   8   8   8
#     4  10  20  33  50  74 102 129 163 207 248 288
#     4   9  18  31  49  75 101 127 164 206 245 288
#     4  10  21  36  53  74 100 131 167 202 242 296
#     4  10  21  36  53  75 103 131 161 201 248 295
#     4   9  18  32  50  73  99 129 166 204 244 292
#     4  10  20  34  53  75  98 128 168 206 240 289
#     4   9  17  32  53  72  97 134 167 199 243 292
#
# _framework density 26.779029999999999
#
# number of rings (size 3 to 8) (size 9 to 14) (size 15 to 20)
#    0.000    2.429    0.000    2.143    0.000    3.714 
#    0.000    4.286    0.000    0.000    0.000    5.000 
#    0.000    0.000    0.000    0.000    0.000    0.000 
#
# Total GULP energy -156720.136672 kJ/mol
# GULP energy per Si atom -5597.147738 kJ/mol
# Density = 2.671808 g / cm^3
# Si number density = 26.779030 Si / 1000 Ang^3
#
#
#
# Elastic Constant Matrix: (Units=GPa)
#
#
# Indices 1 2 3 4 5 6 
#
# 1 81.0660 6.4535 3.2730 0.0000 7.7560 0.0000
# 2 6.4535 121.7372 -0.9262 0.0000 -0.0727 0.0000
# 3 3.2730 -0.9262 150.3182 0.0000 10.3064 0.0000
# 4 0.0000 0.0000 0.0000 5.0196 0.0000 1.6486
# 5 7.7560 -0.0727 10.3064 0.0000 59.3633 0.0000
# 6 0.0000 0.0000 0.0000 1.6486 0.0000 -2.8139
#
#
#
# Elastic Compliance Matrix: (Units=1/GPa)
#
#
# Indices 1 2 3 4 5 6 
#
# 1 0.012550 -0.000668 -0.000167 0.000000 -0.001611 0.000000
# 2 -0.000668 0.008250 0.000059 0.000000 0.000087 0.000000
# 3 -0.000167 0.000059 0.006735 0.000000 -0.001147 0.000000
# 4 0.000000 0.000000 0.000000 0.167073 0.000000 0.097882
# 5 -0.001611 0.000087 -0.001147 0.000000 0.017255 0.000000
# 6 0.000000 0.000000 0.000000 0.097882 0.000000 -0.298033
#
#
# Mechanical properties :
#
#
# Convention : Reuss Voigt Hill
#
# Bulk Modulus (GPa) = 38.48338 41.19134 39.83736
# Shear Modulus (GPa) = -65.82641 35.26854 -15.27893
#
# Velocity S-wave (km/s) = -4.96333 3.63302 -2.39122
# Velocity P-wave (km/s) = 4.29469 5.74576 2.69902
#
# Compressibility (1/GPa) = 0.02598524
#
# Stress axis : x y z
#
# Youngs Moduli (GPa) = 79.68327 121.20768 148.47309
#
# Poissons Ratio (x) = 0.08091 0.02478
# Poissons Ratio (y) = 0.05319 -0.00882
# Poissons Ratio (z) = 0.01330 -0.00720
#
# Static dielectric constant tensor:
#      x y z
#    x 2.162850 0.000000 0.026040 
#    y 0.000000 2.036720 0.000000 
#    z 0.026040 0.000000 2.007210 
# 
# From -- ./inp_files/342313.got.cif
#   From: 2010.05.17/outbox.cif.g08.bks.cpg/sg12_172_cif.got.tgz:342313.got - 2010.06.03 13:09:07.
