data_PCOD9191552
_publ_section_title
;
Structure prediction by ZEFSAII (Michael W. Deem and Ramdas Pophale) SiO2 
 PCOD9191552
Probable space group: C 2/M
;
_chemical_formula_sum "Si O2"
_cell_formula_units_Z 64
_cell_length_a 26.591303
_cell_length_b 7.448240
_cell_length_c 18.145502
_cell_angle_alpha 90.000000
_cell_angle_beta 55.303959
_cell_angle_gamma 90.000000
_cell_volume 2954.819519
_symmetry_space_group_name_H-M "C 2/M"
_symmetry_group_IT_number 12
_symmetry_cell_setting 'monoclinic'
loop_
_space_group_symop_operation_xyz
x,y,z
-x,y,-z
-x,-y,-z
x,-y,z
1/2+x,1/2+y,z
1/2-x,1/2+y,-z
1/2-x,1/2-y,-z
1/2+x,1/2-y,z
loop_
_atom_site_type_symbol
_atom_site_label
_atom_site_fract_x
_atom_site_fract_y
_atom_site_fract_z
Si Si1 0.685516 0.717358 0.846266
Si Si2 0.555666 0.209012 0.907206
Si Si3 0.724908 0.785429 0.101714
Si Si4 0.030209 0.280238 0.625461
Si Si5 0.232875 0.215081 0.646366
Si Si6 0.135286 0.719071 0.428556
Si Si7 0.108777 0.280705 0.283639
Si Si8 0.101319 0.286440 0.710739
O O1 0.685532 0.500000 0.846175
O O2 0.616137 0.780185 0.906337
O O3 0.726977 0.782351 0.878106
O O4 0.712804 0.775131 0.745012
O O5 0.575865 0.285579 0.810482
O O6 0.540243 0.000000 0.906567
O O7 0.500000 0.289728 0.000000
O O8 0.657528 0.721326 0.181390
O O9 0.722788 0.000000 0.111724
O O10 0.750000 0.750000 0.000000
O O11 0.029550 0.500000 0.626475
O O12 0.074342 0.225296 0.521886
O O13 0.062707 0.219395 0.673733
O O14 0.960423 0.221323 0.673651
O O15 0.302808 0.278503 0.580961
O O16 0.174818 0.261578 0.644107
O O17 0.235324 0.000000 0.643347
O O18 0.136220 0.500000 0.427790
O O19 0.132297 0.773025 0.345385
O O20 0.107486 0.500000 0.285024
O O21 0.092902 0.500000 0.719547
#
# Coordination Sequence:
#
# PCOD9191552 Si02
#       8
#     8   8   8   8   8   8   8   8
#     4   9  17  31  48  67  94 124 157 198 240 284
#     4   9  18  31  48  68  92 125 165 202 238 286
#     4  10  20  33  50  74 100 127 161 202 246 292
#     4   9  17  27  44  71 101 129 157 200 251 291
#     4   9  16  29  50  70  92 125 161 197 234 280
#     4   9  15  26  47  73  96 123 163 203 242 289
#     4   9  16  29  48  70  98 129 162 201 243 288
#     4   9  18  31  44  67 101 127 155 198 245 288
#
# _framework density 21.659528000000002
#
# number of rings (size 3 to 8) (size 9 to 14) (size 15 to 20)
#    0.000    2.875    1.250    0.375    0.000    3.750 
#    0.000    2.500    0.000    0.750    0.000    0.000 
#    0.000    3.000    0.000    0.000    0.000    0.000 
#
# Total GULP energy -178528.870744 kJ/mol
# GULP energy per Si atom -5579.027211 kJ/mol
# Density = 2.161023 g / cm^3
# Si number density = 21.659528 Si / 1000 Ang^3
#
#
#
# Elastic Constant Matrix: (Units=GPa)
#
#
# Indices 1 2 3 4 5 6 
#
# 1 130.4918 -0.9464 70.7997 0.0002 -23.4682 -0.0001
# 2 -0.9464 62.5645 2.5009 0.0016 -0.2655 -0.0015
# 3 70.7997 2.5009 132.5379 0.0006 -31.6159 -0.0001
# 4 0.0002 0.0016 0.0006 23.1277 -0.0001 -7.2286
# 5 -23.4682 -0.2655 -31.6159 -0.0001 36.3846 0.0000
# 6 -0.0001 -0.0015 -0.0001 -7.2286 0.0000 16.9232
#
#
#
# Elastic Compliance Matrix: (Units=1/GPa)
#
#
# Indices 1 2 3 4 5 6 
#
# 1 0.010978 0.000388 -0.005275 0.000000 0.002500 0.000000
# 2 0.000388 0.016010 -0.000532 -0.000001 -0.000095 0.000001
# 3 -0.005275 -0.000532 0.012060 0.000000 0.007073 0.000000
# 4 0.000000 -0.000001 0.000000 0.049900 0.000000 0.021315
# 5 0.002500 -0.000095 0.007073 0.000000 0.035242 0.000000
# 6 0.000000 0.000001 0.000000 0.021315 0.000000 0.068195
#
#
# Mechanical properties :
#
#
# Convention : Reuss Voigt Hill
#
# Bulk Modulus (GPa) = 35.44941 52.25582 43.85261
# Shear Modulus (GPa) = 23.51532 32.16976 27.84254
#
# Velocity S-wave (km/s) = 3.29854 3.85807 3.58923
# Velocity P-wave (km/s) = 5.55962 6.63511 6.12103
#
# Compressibility (1/GPa) = 0.02820922
#
# Stress axis : x y z
#
# Youngs Moduli (GPa) = 91.09288 62.46008 82.91716
#
# Poissons Ratio (x) = -0.02421 0.43740
# Poissons Ratio (y) = -0.03530 0.04410
# Poissons Ratio (z) = 0.48053 0.03322
#
# Static dielectric constant tensor:
#      x y z
#    x 1.770990 0.000000 -0.001980 
#    y 0.000000 1.866430 0.000000 
#    z -0.001980 0.000000 1.784690 
# 
# From -- ./inp_files/292739.got.cif
#   From: 2010.05.17/outbox.cif.g08.bks.cpg/sg12_147_cif.got.tgz:292739.got - 2010.06.03 13:09:07.
