data_PCOD9191530
_publ_section_title
;
Structure prediction by ZEFSAII (Michael W. Deem and Ramdas Pophale) SiO2 
 PCOD9191530
Probable space group: C 2/M
;
_chemical_formula_sum "Si O2"
_cell_formula_units_Z 64
_cell_length_a 21.076523
_cell_length_b 7.761965
_cell_length_c 24.109300
_cell_angle_alpha 90.000000
_cell_angle_beta 122.658908
_cell_angle_gamma 90.000000
_cell_volume 3320.586030
_symmetry_space_group_name_H-M "C 2/M"
_symmetry_group_IT_number 12
_symmetry_cell_setting 'monoclinic'
loop_
_space_group_symop_operation_xyz
x,y,z
-x,y,-z
-x,-y,-z
x,-y,z
1/2+x,1/2+y,z
1/2-x,1/2+y,-z
1/2-x,1/2-y,-z
1/2+x,1/2-y,z
loop_
_atom_site_type_symbol
_atom_site_label
_atom_site_fract_x
_atom_site_fract_y
_atom_site_fract_z
Si Si1 0.662286 0.796895 0.960869
Si Si2 0.278533 0.210206 0.826053
Si Si3 0.086012 0.288401 0.037146
Si Si4 0.371560 0.702225 0.579472
Si Si5 0.367311 0.293593 0.175287
Si Si6 0.959851 0.788895 0.323899
Si Si7 0.686236 0.708103 0.677216
Si Si8 0.723118 0.795764 0.568832
O O1 0.624017 0.752488 0.884456
O O2 0.658970 0.000000 0.965369
O O3 0.750000 0.750000 0.000000
O O4 0.622623 0.725338 0.996933
O O5 0.359424 0.265902 0.886770
O O6 0.213938 0.264925 0.839444
O O7 0.248836 0.265681 0.751800
O O8 0.278601 0.000000 0.825655
O O9 0.085962 0.500000 0.037422
O O10 0.000000 0.232294 0.000000
O O11 0.378216 0.500000 0.596053
O O12 0.455751 0.774219 0.624882
O O13 0.338977 0.719631 0.502109
O O14 0.305234 0.773043 0.588056
O O15 0.366106 0.500000 0.177772
O O16 0.429652 0.235089 0.248959
O O17 0.895423 0.735464 0.337574
O O18 0.960160 0.000000 0.325557
O O19 0.685835 0.500000 0.677568
O O20 0.704589 0.764250 0.623933
O O21 0.723125 0.000000 0.558534
#
# Coordination Sequence:
#
# PCOD9191530 Si02
#       8
#     8   8   8   8   8   8   8   8
#     4  11  20  31  51  76  98 128 168 206 247 291
#     4   8  14  28  49  70  93 127 164 197 236 285
#     4   9  17  30  48  70  98 129 164 205 244 284
#     4   9  18  35  55  72  95 131 171 201 232 287
#     4   9  16  31  53  75  98 125 162 206 249 289
#     4   8  16  32  55  76  94 126 169 207 238 279
#     4   9  17  31  53  75  94 124 169 206 236 285
#     4  10  20  33  50  73 103 133 159 195 248 295
#
# _framework density 19.273705
#
# number of rings (size 3 to 8) (size 9 to 14) (size 15 to 20)
#    0.000    2.875    1.250    2.250    0.000    1.000 
#    2.250    6.250    0.000    1.500    0.000    0.000 
#    0.000    0.000    0.000    0.000    0.000    0.000 
#
# Total GULP energy -178381.181965 kJ/mol
# GULP energy per Si atom -5574.411936 kJ/mol
# Density = 1.922984 g / cm^3
# Si number density = 19.273705 Si / 1000 Ang^3
#
#
#
# Elastic Constant Matrix: (Units=GPa)
#
#
# Indices 1 2 3 4 5 6 
#
# 1 139.1662 1.6063 110.1200 0.0000 19.1055 0.0000
# 2 1.6063 21.0738 -4.0839 0.0000 4.6525 0.0000
# 3 110.1200 -4.0839 147.7947 0.0000 12.4822 0.0000
# 4 0.0000 0.0000 0.0000 19.1359 0.0000 -6.8556
# 5 19.1055 4.6525 12.4822 0.0000 37.6734 0.0000
# 6 0.0000 0.0000 0.0000 -6.8556 0.0000 13.4784
#
#
#
# Elastic Compliance Matrix: (Units=1/GPa)
#
#
# Indices 1 2 3 4 5 6 
#
# 1 0.018535 -0.003026 -0.013510 0.000000 -0.004550 0.000000
# 2 -0.003026 0.049806 0.004137 0.000000 -0.005987 0.000000
# 3 -0.013510 0.004137 0.016883 0.000000 0.000747 0.000000
# 4 0.000000 0.000000 0.000000 0.063903 0.000000 0.032503
# 5 -0.004550 -0.005987 0.000747 0.000000 0.029343 0.000000
# 6 0.000000 0.000000 0.000000 0.032503 0.000000 0.090725
#
#
# Mechanical properties :
#
#
# Convention : Reuss Voigt Hill
#
# Bulk Modulus (GPa) = 16.54908 58.14662 37.34785
# Shear Modulus (GPa) = 15.91661 27.41700 21.66681
#
# Velocity S-wave (km/s) = 2.87683 3.77571 3.35649
# Velocity P-wave (km/s) = 4.43168 7.01729 5.86865
#
# Compressibility (1/GPa) = 0.06042632
#
# Stress axis : x y z
#
# Youngs Moduli (GPa) = 53.95102 20.07777 59.22982
#
# Poissons Ratio (x) = 0.06076 0.80018
# Poissons Ratio (y) = 0.16327 -0.24502
# Poissons Ratio (z) = 0.72887 -0.08306
#
# Static dielectric constant tensor:
#      x y z
#    x 1.668310 0.000000 0.004580 
#    y 0.000000 1.717090 0.000000 
#    z 0.004580 0.000000 1.661330 
# 
# From -- ./inp_files/320159.got.cif
#   From: 2010.05.17/outbox.cif.g08.bks.cpg/sg12_161_cif.got.tgz:320159.got - 2010.06.03 13:09:07.
