data_PCOD9191542
_publ_section_title
;
Structure prediction by ZEFSAII (Michael W. Deem and Ramdas Pophale) SiO2 
 PCOD9191542
Probable space group: C 2/M
;
_chemical_formula_sum "Si O2"
_cell_formula_units_Z 64
_cell_length_a 14.697316
_cell_length_b 7.876323
_cell_length_c 32.876674
_cell_angle_alpha 90.000000
_cell_angle_beta 117.192837
_cell_angle_gamma 90.000000
_cell_volume 3385.185285
_symmetry_space_group_name_H-M "C 2/M"
_symmetry_group_IT_number 12
_symmetry_cell_setting 'monoclinic'
loop_
_space_group_symop_operation_xyz
x,y,z
-x,y,-z
-x,-y,-z
x,-y,z
1/2+x,1/2+y,z
1/2-x,1/2+y,-z
1/2-x,1/2-y,-z
1/2+x,1/2-y,z
loop_
_atom_site_type_symbol
_atom_site_label
_atom_site_fract_x
_atom_site_fract_y
_atom_site_fract_z
Si Si1 0.017237 0.703858 0.874112
Si Si2 0.227085 0.796158 0.873575
Si Si3 0.296995 0.794673 0.800171
Si Si4 0.524196 0.796279 0.375242
Si Si5 0.452595 0.705653 0.447845
Si Si6 0.301258 0.201379 0.305216
Si Si7 0.729669 0.201312 0.376403
Si Si8 0.947570 0.292239 0.947843
O O1 0.011647 0.500000 0.874037
O O2 0.914855 0.762753 0.829719
O O3 0.006465 0.761695 0.918787
O O4 0.122158 0.750111 0.873853
O O5 0.237906 0.737078 0.828981
O O6 0.329480 0.738255 0.918110
O O7 0.232672 0.000000 0.873492
O O8 0.245711 0.737425 0.748163
O O9 0.296847 0.000000 0.799984
O O10 0.517618 0.758125 0.421757
O O11 0.417567 0.731714 0.334106
O O12 0.626621 0.727563 0.375210
O O13 0.524388 0.000000 0.369940
O O14 0.500000 0.764676 0.500000
O O15 0.450147 0.500000 0.448016
O O16 0.336628 0.769076 0.416467
O O17 0.235727 0.274168 0.329195
O O18 0.304355 0.000000 0.311997
O O19 0.730303 0.000000 0.384671
O O20 0.948452 0.500000 0.948756
O O21 0.000000 0.233108 0.000000
#
# Coordination Sequence:
#
# PCOD9191542 Si02
#       8
#     8   8   8   8   8   8   8   8
#     4   9  18  32  50  71  95 125 160 196 235 283
#     4   9  18  32  50  72  97 126 161 199 237 281
#     4   9  19  35  50  66  94 130 160 187 234 295
#     4   9  19  34  50  70  96 126 159 194 236 285
#     4   9  18  32  50  73  99 127 161 198 234 276
#     4  10  20  33  50  73  96 119 157 204 239 274
#     4   9  18  34  52  69  97 133 160 189 237 290
#     4   8  15  30  50  70  96 131 164 192 232 289
#
# _framework density 18.905909000000001
#
# number of rings (size 3 to 8) (size 9 to 14) (size 15 to 20)
#    0.000    3.000    0.000    1.875    0.000    4.250 
#    0.000    5.625    0.000    0.750    0.000    0.000 
#    0.000    0.000    0.000    0.000    0.000    0.000 
#
# Total GULP energy -178391.165449 kJ/mol
# GULP energy per Si atom -5574.723920 kJ/mol
# Density = 1.886288 g / cm^3
# Si number density = 18.905909 Si / 1000 Ang^3
#
#
#
# Elastic Constant Matrix: (Units=GPa)
#
#
# Indices 1 2 3 4 5 6 
#
# 1 195.6854 1.8820 90.0822 0.0000 -9.4964 0.0000
# 2 1.8820 9.4992 -9.2637 0.0000 3.7000 0.0000
# 3 90.0822 -9.2637 161.2828 0.0000 -7.2448 0.0000
# 4 0.0000 0.0000 0.0000 14.0875 0.0000 -4.6828
# 5 -9.4964 3.7000 -7.2448 0.0000 7.9332 0.0000
# 6 0.0000 0.0000 0.0000 -4.6828 0.0000 18.6585
#
#
#
# Elastic Compliance Matrix: (Units=1/GPa)
#
#
# Indices 1 2 3 4 5 6 
#
# 1 0.007708 -0.009605 -0.004422 0.000000 0.009668 0.000000
# 2 -0.009605 0.144427 0.010551 0.000000 -0.069222 0.000000
# 3 -0.004422 0.010551 0.009195 0.000000 -0.001818 0.000000
# 4 0.000000 0.000000 0.000000 0.077446 0.000000 0.019437
# 5 0.009668 -0.069222 -0.001818 0.000000 0.168250 0.000000
# 6 0.000000 0.000000 0.000000 0.019437 0.000000 0.058473
#
#
# Mechanical properties :
#
#
# Convention : Reuss Voigt Hill
#
# Bulk Modulus (GPa) = 6.47770 59.09648 32.78709
# Shear Modulus (GPa) = 9.54361 27.05362 18.29862
#
# Velocity S-wave (km/s) = 2.24920 3.78691 3.11445
# Velocity P-wave (km/s) = 3.19044 7.10260 5.50572
#
# Compressibility (1/GPa) = 0.15437579
#
# Stress axis : x y z
#
# Youngs Moduli (GPa) = 129.74198 6.92391 108.75792
#
# Poissons Ratio (x) = 0.06651 0.48097
# Poissons Ratio (y) = 1.24622 -1.14751
# Poissons Ratio (z) = 0.57377 -0.07305
#
# Static dielectric constant tensor:
#      x y z
#    x 1.654120 0.000000 0.015760 
#    y 0.000000 1.687670 0.000000 
#    z 0.015760 0.000000 1.636710 
# 
# From -- ./inp_files/375099.got.cif
#   From: 2010.05.17/outbox.cif.g08.bks.cpg/sg12_188_cif.got.tgz:375099.got - 2010.06.03 13:09:07.
