data_PCOD9191846
_publ_section_title
;
Structure prediction by ZEFSAII (Michael W. Deem and Ramdas Pophale) SiO2 
 PCOD9191846
Probable space group: C 2/M
;
_chemical_formula_sum "Si O2"
_cell_formula_units_Z 64
_cell_length_a 30.053582
_cell_length_b 9.771869
_cell_length_c 19.620270
_cell_angle_alpha 90.000000
_cell_angle_beta 142.673659
_cell_angle_gamma 90.000000
_cell_volume 3493.857087
_symmetry_space_group_name_H-M "C 2/M"
_symmetry_group_IT_number 12
_symmetry_cell_setting 'monoclinic'
loop_
_space_group_symop_operation_xyz
x,y,z
-x,y,-z
-x,-y,-z
x,-y,z
1/2+x,1/2+y,z
1/2-x,1/2+y,-z
1/2-x,1/2-y,-z
1/2+x,1/2-y,z
loop_
_atom_site_type_symbol
_atom_site_label
_atom_site_fract_x
_atom_site_fract_y
_atom_site_fract_z
Si Si1 0.247949 0.838725 0.817919
Si Si2 0.530093 0.162812 0.232480
Si Si3 0.864146 0.659109 0.079287
Si Si4 0.779344 0.838460 0.723626
Si Si5 0.375388 0.837721 0.520543
Si Si6 0.057595 0.836466 0.130747
Si Si7 0.635677 0.342433 0.793570
Si Si8 0.026095 0.840895 0.456546
O O1 0.261998 0.749106 0.769179
O O2 0.174532 0.801419 0.770275
O O3 0.244579 0.000000 0.796194
O O4 0.313165 0.818278 0.951811
O O5 0.448359 0.186206 0.161818
O O6 0.587802 0.198927 0.362449
O O7 0.540719 0.250997 0.177762
O O8 0.537095 0.000000 0.226463
O O9 0.858030 0.500000 0.091189
O O10 0.841851 0.751101 0.115702
O O11 0.711899 0.815415 0.589529
O O12 0.859517 0.805331 0.792339
O O13 0.779499 0.000000 0.740959
O O14 0.414113 0.751712 0.507757
O O15 0.389393 0.000000 0.526852
O O16 0.052476 0.000000 0.137824
O O17 0.000000 0.804707 0.000000
O O18 0.657723 0.500000 0.832212
O O19 0.548342 0.336414 0.678327
O O20 0.000000 0.797005 0.500000
O O21 0.050747 0.000000 0.491784
#
# Coordination Sequence:
#
# PCOD9191846 Si02
#       8
#     8   8   8   8   8   8   8   8
#     4  10  21  36  55  81 112 147 187 232 279 328
#     4  10  21  37  58  84 113 146 186 232 278 332
#     4  10  20  35  55  80 112 148 186 228 276 331
#     4  10  22  39  58  82 111 145 185 229 279 334
#     4  10  21  38  57  80 113 148 186 231 278 332
#     4  10  22  40  61  86 114 143 181 230 283 340
#     4  10  20  33  51  79 112 146 187 231 276 327
#     4  10  20  34  53  78 111 151 193 234 275 325
#
# _framework density 18.317865000000001
#
# number of rings (size 3 to 8) (size 9 to 14) (size 15 to 20)
#    0.000    2.000    1.250    1.875    0.000    5.000 
#    0.000    0.000    0.000    0.000    0.000    0.000 
#    0.000    0.000    0.000    0.000    0.000    0.000 
#
# Total GULP energy -178679.111750 kJ/mol
# GULP energy per Si atom -5583.722242 kJ/mol
# Density = 1.827617 g / cm^3
# Si number density = 18.317865 Si / 1000 Ang^3
#
#
#
# Elastic Constant Matrix: (Units=GPa)
#
#
# Indices 1 2 3 4 5 6 
#
# 1 80.5646 48.4921 43.2024 0.0000 -4.6783 0.0000
# 2 48.4921 40.7977 33.3764 0.0000 -8.8393 0.0000
# 3 43.2024 33.3764 81.1408 0.0000 8.2005 0.0000
# 4 0.0000 0.0000 0.0000 22.6909 0.0000 -9.1153
# 5 -4.6783 -8.8393 8.2005 0.0000 32.9205 0.0000
# 6 0.0000 0.0000 0.0000 -9.1153 0.0000 36.3011
#
#
#
# Elastic Compliance Matrix: (Units=1/GPa)
#
#
# Indices 1 2 3 4 5 6 
#
# 1 0.045823 -0.055752 -0.000626 0.000000 -0.008302 0.000000
# 2 -0.055752 0.112432 -0.019300 0.000000 0.027073 0.000000
# 3 -0.000626 -0.019300 0.021675 0.000000 -0.010670 0.000000
# 4 0.000000 0.000000 0.000000 0.049015 0.000000 0.012308
# 5 -0.008302 0.027073 -0.010670 0.000000 0.039124 0.000000
# 6 0.000000 0.000000 0.000000 0.012308 0.000000 0.030638
#
#
# Mechanical properties :
#
#
# Convention : Reuss Voigt Hill
#
# Bulk Modulus (GPa) = 34.99548 50.29387 42.64468
# Shear Modulus (GPa) = 10.87936 23.54467 17.21202
#
# Velocity S-wave (km/s) = 2.43969 3.58905 3.06866
# Velocity P-wave (km/s) = 5.20405 6.68512 5.99054
#
# Compressibility (1/GPa) = 0.02857511
#
# Stress axis : x y z
#
# Youngs Moduli (GPa) = 21.82301 8.89426 46.13691
#
# Poissons Ratio (x) = 0.49587 0.02888
# Poissons Ratio (y) = 1.21667 0.89042
# Poissons Ratio (z) = 0.01366 0.17166
#
# Static dielectric constant tensor:
#      x y z
#    x 1.594840 0.000000 0.026710 
#    y 0.000000 1.610730 0.000000 
#    z 0.026710 0.000000 1.650430 
# 
# From -- ./inp_files/295871.got.cif
#   From: 2010.05.17/outbox.cif.g08.bks.cpg/sg12_148_cif.got.tgz:295871.got - 2010.06.03 13:09:07.
