data_PCOD9191560
_publ_section_title
;
Structure prediction by ZEFSAII (Michael W. Deem and Ramdas Pophale) SiO2 
 PCOD9191560
Probable space group: C 2/M
;
_chemical_formula_sum "Si O2"
_cell_formula_units_Z 56
_cell_length_a 15.257877
_cell_length_b 9.418295
_cell_length_c 24.978588
_cell_angle_alpha 90.000000
_cell_angle_beta 62.120791
_cell_angle_gamma 90.000000
_cell_volume 3172.888393
_symmetry_space_group_name_H-M "C 2/M"
_symmetry_group_IT_number 12
_symmetry_cell_setting 'monoclinic'
loop_
_space_group_symop_operation_xyz
x,y,z
-x,y,-z
-x,-y,-z
x,-y,z
1/2+x,1/2+y,z
1/2-x,1/2+y,-z
1/2-x,1/2-y,-z
1/2+x,1/2-y,z
loop_
_atom_site_type_symbol
_atom_site_label
_atom_site_fract_x
_atom_site_fract_y
_atom_site_fract_z
Si Si1 0.472178 0.837176 0.066354
Si Si2 0.400262 0.170670 0.494704
Si Si3 0.663482 0.667366 0.814675
Si Si4 0.633792 0.831435 0.192975
Si Si5 0.068276 0.829352 0.729546
Si Si6 0.314336 0.161985 0.939853
Si Si7 0.674556 0.670001 0.588395
O O1 0.393617 0.750127 0.122587
O O2 0.573501 0.839778 0.070842
O O3 0.437338 0.000000 0.068545
O O4 0.500000 0.778165 0.000000
O O5 0.500000 0.211283 0.500000
O O6 0.383540 0.249273 0.442647
O O7 0.293315 0.200135 0.553605
O O8 0.406668 0.000000 0.484679
O O9 0.642543 0.500000 0.827456
O O10 0.780140 0.687201 0.788478
O O11 0.626729 0.711130 0.766772
O O12 0.536846 0.746937 0.236503
O O13 0.678368 0.783039 0.122883
O O14 0.611800 0.000000 0.193422
O O15 0.127458 0.791969 0.658935
O O16 0.055754 0.000000 0.733428
O O17 0.276428 0.000000 0.949017
O O18 0.250000 0.250000 0.000000
O O19 0.664299 0.500000 0.583119
#
# Coordination Sequence:
#
# PCOD9191560 Si02
#       7
#     8   8   8   8   8   8   8
#     4  10  20  34  52  75 104 136 173 221 277 332
#     4   9  18  34  58  86 114 147 186 223 265 315
#     4  10  21  36  55  78 104 137 178 224 274 324
#     4  10  21  37  55  77 105 138 180 229 273 324
#     4  10  21  37  55  78 110 147 183 222 273 326
#     4  10  20  33  50  74 102 133 172 221 274 328
#     4   9  19  35  54  80 115 148 182 225 267 317
#
# _framework density 17.649533999999999
#
# number of rings (size 3 to 8) (size 9 to 14) (size 15 to 20)
#    0.000    2.286    1.429    0.857    0.000    4.000 
#    0.000    2.857    0.000    0.000    0.000    0.000 
#    0.000    0.000    0.000    0.000    0.000    0.000 
#
# Total GULP energy -156126.204003 kJ/mol
# GULP energy per Si atom -5575.935857 kJ/mol
# Density = 1.760936 g / cm^3
# Si number density = 17.649534 Si / 1000 Ang^3
#
#
#
# Elastic Constant Matrix: (Units=GPa)
#
#
# Indices 1 2 3 4 5 6 
#
# 1 120.0551 41.8219 75.9868 0.0000 4.0863 0.0000
# 2 41.8219 29.2067 55.5072 0.0000 -1.1151 0.0000
# 3 75.9868 55.5072 160.4322 0.0000 1.3747 0.0000
# 4 0.0000 0.0000 0.0000 30.3265 0.0000 -1.6629
# 5 4.0863 -1.1151 1.3747 0.0000 17.9840 0.0000
# 6 0.0000 0.0000 0.0000 -1.6629 0.0000 -129.2384
#
#
#
# Elastic Compliance Matrix: (Units=1/GPa)
#
#
# Indices 1 2 3 4 5 6 
#
# 1 0.017248 -0.027697 0.001463 0.000000 -0.005748 0.000000
# 2 -0.027697 0.145885 -0.037512 0.000000 0.018207 0.000000
# 3 0.001463 -0.037512 0.018554 0.000000 -0.004077 0.000000
# 4 0.000000 0.000000 0.000000 0.032951 0.000000 -0.000424
# 5 -0.005748 0.018207 -0.004077 0.000000 0.058352 0.000000
# 6 0.000000 0.000000 0.000000 -0.000424 0.000000 -0.007732
#
#
# Mechanical properties :
#
#
# Convention : Reuss Voigt Hill
#
# Bulk Modulus (GPa) = 18.45208 72.92508 45.68858
# Shear Modulus (GPa) = 12.17097 -7.09371 2.53863
#
# Velocity S-wave (km/s) = 2.62886 -2.00697 1.20061
# Velocity P-wave (km/s) = 4.43756 6.00313 5.27871
#
# Compressibility (1/GPa) = 0.05419444
#
# Stress axis : x y z
#
# Youngs Moduli (GPa) = 57.97858 6.85472 53.89772
#
# Poissons Ratio (x) = 0.18986 -0.07885
# Poissons Ratio (y) = 1.60585 2.02179
# Poissons Ratio (z) = -0.08482 0.25713
#
# Static dielectric constant tensor:
#      x y z
#    x 1.604440 0.000000 0.015600 
#    y 0.000000 1.606980 0.000000 
#    z 0.015600 0.000000 1.585640 
# 
# From -- ./inp_files/338531.got.cif
#   From: 2010.05.17/outbox.cif.g08.bks.cpg/sg12_170_cif.got.tgz:338531.got - 2010.06.03 13:09:07.
