data_PCOD9191208
_publ_section_title
;
Structure prediction by ZEFSAII (Michael W. Deem and Ramdas Pophale) SiO2 
 PCOD9191208
Probable space group: C 2/M
;
_chemical_formula_sum "Si O2"
_cell_formula_units_Z 52
_cell_length_a 9.465109
_cell_length_b 16.683223
_cell_length_c 21.682178
_cell_angle_alpha 90.000000
_cell_angle_beta 131.094525
_cell_angle_gamma 90.000000
_cell_volume 2580.265952
_symmetry_space_group_name_H-M "C 2/M"
_symmetry_group_IT_number 12
_symmetry_cell_setting 'monoclinic'
loop_
_space_group_symop_operation_xyz
x,y,z
-x,y,-z
-x,-y,-z
x,-y,z
1/2+x,1/2+y,z
1/2-x,1/2+y,-z
1/2-x,1/2-y,-z
1/2+x,1/2-y,z
loop_
_atom_site_type_symbol
_atom_site_label
_atom_site_fract_x
_atom_site_fract_y
_atom_site_fract_z
Si Si1 0.716964 0.680471 0.040143
Si Si2 0.064165 0.279315 0.679861
Si Si3 0.488957 0.093973 0.568388
Si Si4 0.075539 0.155021 0.455291
Si Si5 0.127710 0.000000 0.598308
Si Si6 0.072409 0.678624 0.225113
Si Si7 0.780302 0.000000 0.946543
Si Si8 0.044239 0.500000 0.233020
O O1 0.872099 0.697654 0.137124
O O2 0.759369 0.586793 0.033619
O O3 0.500000 0.683390 0.000000
O O4 0.750000 0.750000 0.000000
O O5 0.955978 0.306173 0.709904
O O6 0.254775 0.231551 0.748460
O O7 0.113137 0.355020 0.650662
O O8 0.935138 0.223403 0.598870
O O9 0.500000 0.117941 0.500000
O O10 0.275880 0.115296 0.524594
O O11 0.526885 0.000000 0.582730
O O12 0.000000 0.183596 0.500000
O O13 0.944765 0.082637 0.393675
O O14 0.000000 0.000000 0.500000
O O15 0.353393 0.000000 0.670328
O O16 0.108375 0.584417 0.223403
O O17 0.674633 0.000000 0.849061
O O18 0.000000 0.000000 0.000000
#
# Coordination Sequence:
#
# PCOD9191208 Si02
#       8
#     8   8   8   8   4   8   4   4
#     4  10  20  40  66  92 126 157 197 245 306 382
#     4  12  23  37  59  86 122 152 207 254 311 352
#     4  11  24  38  53  78 118 162 201 254 316 358
#     4  11  21  37  59  80 109 158 215 255 294 356
#     4  10  20  32  59  81 113 155 221 246 289 337
#     4  11  24  38  64  92 120 157 200 250 311 364
#     4   8  18  36  65  96 120 161 203 246 312 377
#     4  10  20  40  60  89 122 161 209 256 287 370
#
# _framework density 20.152961999999999
#
# number of rings (size 3 to 8) (size 9 to 14) (size 15 to 20)
#    0.000    1.385    2.308    3.692    3.231    0.000 
#    0.000    0.385    1.692    0.000    0.000    0.000 
#    0.000    0.000    0.000    0.000    0.000    0.000 
#
# Total GULP energy -144904.843157 kJ/mol
# GULP energy per Si atom -5573.263198 kJ/mol
# Density = 2.010709 g / cm^3
# Si number density = 20.152962 Si / 1000 Ang^3
#
#
#
# Elastic Constant Matrix: (Units=GPa)
#
#
# Indices 1 2 3 4 5 6 
#
# 1 49.4445 31.4483 1.6095 0.0000 1.0602 0.0000
# 2 31.4483 145.6032 31.5528 0.0000 -8.6254 0.0000
# 3 1.6095 31.5528 102.7575 0.0000 20.6126 0.0000
# 4 0.0000 0.0000 0.0000 26.2655 0.0000 -2.3996
# 5 1.0602 -8.6254 20.6126 0.0000 38.2124 0.0000
# 6 0.0000 0.0000 0.0000 -2.3996 0.0000 13.5830
#
#
#
# Elastic Compliance Matrix: (Units=1/GPa)
#
#
# Indices 1 2 3 4 5 6 
#
# 1 0.023900 -0.005779 0.002013 0.000000 -0.003053 0.000000
# 2 -0.005779 0.009128 -0.003541 0.000000 0.004131 0.000000
# 3 0.002013 -0.003541 0.012289 0.000000 -0.007484 0.000000
# 4 0.000000 0.000000 0.000000 0.038697 0.000000 0.006836
# 5 -0.003053 0.004131 -0.007484 0.000000 0.031224 0.000000
# 6 0.000000 0.000000 0.000000 0.006836 0.000000 0.074829
#
#
# Mechanical properties :
#
#
# Convention : Reuss Voigt Hill
#
# Bulk Modulus (GPa) = 32.57090 47.44737 40.00914
# Shear Modulus (GPa) = 23.26482 31.15849 27.21166
#
# Velocity S-wave (km/s) = 3.40135 3.93631 3.67857
# Velocity P-wave (km/s) = 5.62339 6.65238 6.15941
#
# Compressibility (1/GPa) = 0.03070225
#
# Stress axis : x y z
#
# Youngs Moduli (GPa) = 41.84028 109.54961 81.37576
#
# Poissons Ratio (x) = 0.63311 -0.16378
# Poissons Ratio (y) = 0.24180 0.28816
# Poissons Ratio (z) = -0.08421 0.38792
#
# Static dielectric constant tensor:
#      x y z
#    x 1.742740 0.000000 -0.009950 
#    y 0.000000 1.804050 0.000000 
#    z -0.009950 0.000000 1.763670 
# 
# From -- ./inp_files/301218.got.cif
#   From: 2010.05.17/outbox.cif.g08.bks.cpg/sg12_151_cif.got.tgz:301218.got - 2010.06.03 13:09:07.
