data_PCOD9191704
_publ_section_title
;
Structure prediction by ZEFSAII (Michael W. Deem and Ramdas Pophale) SiO2 
 PCOD9191704
Probable space group: C 2/M
;
_chemical_formula_sum "Si O2"
_cell_formula_units_Z 64
_cell_length_a 28.992195
_cell_length_b 8.713696
_cell_length_c 15.928494
_cell_angle_alpha 90.000000
_cell_angle_beta 90.042964
_cell_angle_gamma 90.000000
_cell_volume 4024.001145
_symmetry_space_group_name_H-M "C 2/M"
_symmetry_group_IT_number 12
_symmetry_cell_setting 'monoclinic'
loop_
_space_group_symop_operation_xyz
x,y,z
-x,y,-z
-x,-y,-z
x,-y,z
1/2+x,1/2+y,z
1/2-x,1/2+y,-z
1/2-x,1/2-y,-z
1/2+x,1/2-y,z
loop_
_atom_site_type_symbol
_atom_site_label
_atom_site_fract_x
_atom_site_fract_y
_atom_site_fract_z
Si Si1 0.859065 0.816747 0.663102
Si Si2 0.549707 0.183257 0.407535
Si Si3 0.049059 0.816475 0.594875
Si Si4 0.858851 0.317605 0.338722
Si Si5 0.695777 0.183704 0.179731
Si Si6 0.694921 0.684189 0.817856
Si Si7 0.801312 0.183837 0.494259
Si Si8 0.801700 0.816176 0.995296
O O1 0.908352 0.737102 0.650235
O O2 0.832381 0.756544 0.744337
O O3 0.828671 0.781977 0.580174
O O4 0.864946 0.000000 0.667434
O O5 0.557761 0.253961 0.500415
O O6 0.500258 0.247995 0.378804
O O7 0.547952 0.000000 0.414149
O O8 0.091184 0.759849 0.651430
O O9 0.047034 0.000000 0.592135
O O10 0.863353 0.500000 0.344332
O O11 0.833685 0.268849 0.253273
O O12 0.828035 0.257065 0.416114
O O13 0.750426 0.223544 0.188065
O O14 0.678283 0.244575 0.089478
O O15 0.692542 0.000000 0.181805
O O16 0.691435 0.500000 0.805980
O O17 0.678144 0.720313 0.912677
O O18 0.750000 0.250000 0.500000
O O19 0.799862 0.000000 0.483543
O O20 0.799994 0.000000 0.987561
O O21 0.750000 0.750000 0.000000
#
# Coordination Sequence:
#
# PCOD9191704 Si02
#       8
#     8   8   8   8   8   8   8   8
#     4  11  22  35  51  73 101 138 175 209 254 305
#     4  11  21  35  55  77 100 128 168 215 260 303
#     4  11  21  36  55  74 100 132 168 211 259 306
#     4  12  23  34  51  75 102 134 173 213 255 302
#     4  10  20  33  51  75 104 137 173 215 257 302
#     4   9  19  34  51  73 103 137 173 211 256 305
#     4  11  23  36  50  68  99 138 176 211 248 298
#     4   9  17  31  51  73  99 132 170 213 258 304
#
# _framework density 15.904569
#
# number of rings (size 3 to 8) (size 9 to 14) (size 15 to 20)
#    0.000    1.500    1.250    7.125    0.000    6.500 
#    0.000    0.000    0.000    0.000    0.000    0.875 
#    0.000    7.000    0.000    0.000    0.000    0.000 
#
# Total GULP energy -178703.538211 kJ/mol
# GULP energy per Si atom -5584.485569 kJ/mol
# Density = 1.586837 g / cm^3
# Si number density = 15.904569 Si / 1000 Ang^3
#
#
#
# Elastic Constant Matrix: (Units=GPa)
#
#
# Indices 1 2 3 4 5 6 
#
# 1 103.9829 54.9262 57.0162 0.0000 0.4460 0.0000
# 2 54.9262 107.0245 64.5992 0.0000 -0.1222 0.0000
# 3 57.0162 64.5992 122.5776 0.0000 2.1600 0.0000
# 4 0.0000 0.0000 0.0000 27.5295 0.0000 -2.3080
# 5 0.4460 -0.1222 2.1600 0.0000 4.1045 0.0000
# 6 0.0000 0.0000 0.0000 -2.3080 0.0000 26.3447
#
#
#
# Elastic Compliance Matrix: (Units=1/GPa)
#
#
# Indices 1 2 3 4 5 6 
#
# 1 0.014498 -0.004934 -0.004151 0.000000 0.000463 0.000000
# 2 -0.004934 0.015455 -0.005922 0.000000 0.004113 0.000000
# 3 -0.004151 -0.005922 0.013329 0.000000 -0.006740 0.000000
# 4 0.000000 0.000000 0.000000 0.036593 0.000000 0.003206
# 5 0.000463 0.004113 -0.006740 0.000000 0.247256 0.000000
# 6 0.000000 0.000000 0.000000 0.003206 0.000000 0.038239
#
#
# Mechanical properties :
#
#
# Convention : Reuss Voigt Hill
#
# Bulk Modulus (GPa) = 75.37978 76.29645 75.83812
# Shear Modulus (GPa) = 12.50599 22.06530 17.28564
#
# Velocity S-wave (km/s) = 2.80717 3.72876 3.30029
# Velocity P-wave (km/s) = 7.61609 8.16173 7.89363
#
# Compressibility (1/GPa) = 0.01326616
#
# Stress axis : x y z
#
# Youngs Moduli (GPa) = 68.97729 64.70254 75.02439
#
# Poissons Ratio (x) = 0.31925 0.31145
# Poissons Ratio (y) = 0.34034 0.44433
# Poissons Ratio (z) = 0.28635 0.38320
#
# Static dielectric constant tensor:
#      x y z
#    x 1.515550 0.000000 0.005000 
#    y 0.000000 1.528450 0.000000 
#    z 0.005000 0.000000 1.528790 
# 
# From -- ./inp_files/248423.got.cif
#   From: 2010.05.17/outbox.cif.g08.bks.cpg/sg12_125_cif.got.tgz:248423.got - 2010.06.03 13:09:07.
