data_PCOD9191780
_publ_section_title
;
Structure prediction by ZEFSAII (Michael W. Deem and Ramdas Pophale) SiO2 
 PCOD9191780
Probable space group: C 2/M
;
_chemical_formula_sum "Si O2"
_cell_formula_units_Z 64
_cell_length_a 23.213785
_cell_length_b 7.516834
_cell_length_c 23.011900
_cell_angle_alpha 90.000000
_cell_angle_beta 131.753446
_cell_angle_gamma 90.000000
_cell_volume 2995.589562
_symmetry_space_group_name_H-M "C 2/M"
_symmetry_group_IT_number 12
_symmetry_cell_setting 'monoclinic'
loop_
_space_group_symop_operation_xyz
x,y,z
-x,y,-z
-x,-y,-z
x,-y,z
1/2+x,1/2+y,z
1/2-x,1/2+y,-z
1/2-x,1/2-y,-z
1/2+x,1/2-y,z
loop_
_atom_site_type_symbol
_atom_site_label
_atom_site_fract_x
_atom_site_fract_y
_atom_site_fract_z
Si Si1 0.579300 0.296168 0.030565
Si Si2 0.050142 0.709231 0.881600
Si Si3 0.388925 0.784395 0.200331
Si Si4 0.566141 0.290429 0.501820
Si Si5 0.386091 0.284520 0.717437
Si Si6 0.227673 0.284840 0.670515
Si Si7 0.947519 0.208464 0.636467
Si Si8 0.745612 0.282035 0.179587
O O1 0.579322 0.500000 0.052890
O O2 0.659921 0.218529 0.106316
O O3 0.500000 0.211325 0.000000
O O4 0.574744 0.296637 0.958035
O O5 0.065280 0.500000 0.897986
O O6 0.095238 0.776405 0.854831
O O7 0.959470 0.733771 0.806264
O O8 0.462109 0.725595 0.287630
O O9 0.309701 0.724800 0.176234
O O10 0.390174 0.000000 0.200310
O O11 0.500000 0.215372 0.500000
O O12 0.547788 0.500000 0.482525
O O13 0.649286 0.273150 0.587115
O O14 0.567236 0.214154 0.437206
O O15 0.385393 0.500000 0.715687
O O16 0.304918 0.224211 0.689105
O O17 0.403207 0.218030 0.663423
O O18 0.228448 0.500000 0.670637
O O19 0.231286 0.227851 0.739999
O O20 0.926580 0.000000 0.620372
O O21 0.745224 0.500000 0.177856
#
# Coordination Sequence:
#
# PCOD9191780 Si02
#       8
#     8   8   8   8   8   8   8   8
#     4  10  20  35  55  75  98 133 172 206 245 296
#     4  10  20  33  51  77 105 131 162 203 250 297
#     4   9  18  33  52  74 101 131 164 204 248 294
#     4  10  21  35  50  72 104 137 167 204 253 304
#     4   9  18  34  54  75 100 132 170 207 245 295
#     4  10  20  34  54  77  98 126 169 214 249 290
#     4   9  18  33  52  73 100 134 168 203 246 298
#     4   9  18  33  52  73  98 129 166 208 250 292
#
# _framework density 21.364743000000001
#
# number of rings (size 3 to 8) (size 9 to 14) (size 15 to 20)
#    0.000    2.500    0.000    1.875    0.000    5.000 
#    0.000    1.250    0.000    0.000    0.000    0.000 
#    0.000    0.000    0.000    0.000    0.000    0.000 
#
# Total GULP energy -178710.406749 kJ/mol
# GULP energy per Si atom -5584.700211 kJ/mol
# Density = 2.131612 g / cm^3
# Si number density = 21.364743 Si / 1000 Ang^3
#
#
#
# Elastic Constant Matrix: (Units=GPa)
#
#
# Indices 1 2 3 4 5 6 
#
# 1 98.6781 -11.6021 21.1824 0.0000 10.6451 -0.0001
# 2 -11.6021 54.7811 -19.0474 0.0000 -4.5147 0.0000
# 3 21.1824 -19.0474 90.9201 0.0000 -15.1207 -0.0001
# 4 0.0000 0.0000 0.0000 18.9488 0.0000 -4.0102
# 5 10.6451 -4.5147 -15.1207 0.0000 22.9721 0.0000
# 6 -0.0001 0.0000 -0.0001 -4.0102 0.0000 34.9965
#
#
#
# Elastic Compliance Matrix: (Units=1/GPa)
#
#
# Indices 1 2 3 4 5 6 
#
# 1 0.011925 0.000459 -0.004027 0.000000 -0.008086 0.000000
# 2 0.000459 0.020892 0.005522 0.000000 0.007528 0.000000
# 3 -0.004027 0.005522 0.015254 0.000000 0.012992 0.000000
# 4 0.000000 0.000000 0.000000 0.054086 0.000000 0.006198
# 5 -0.008086 0.007528 0.012992 0.000000 0.057309 0.000000
# 6 0.000000 0.000000 0.000000 0.006198 0.000000 0.029284
#
#
# Mechanical properties :
#
#
# Convention : Reuss Voigt Hill
#
# Bulk Modulus (GPa) = 19.23860 25.04945 22.14403
# Shear Modulus (GPa) = 24.73187 32.30656 28.51922
#
# Velocity S-wave (km/s) = 3.40605 3.89285 3.65755
# Velocity P-wave (km/s) = 4.94900 5.65295 5.31265
#
# Compressibility (1/GPa) = 0.05197882
#
# Stress axis : x y z
#
# Youngs Moduli (GPa) = 83.86001 47.86524 65.55541
#
# Poissons Ratio (x) = -0.02197 0.26398
# Poissons Ratio (y) = -0.03849 -0.36198
# Poissons Ratio (z) = 0.33769 -0.26430
#
# Static dielectric constant tensor:
#      x y z
#    x 1.771250 0.000000 -0.025150 
#    y 0.000000 1.801170 0.000000 
#    z -0.025150 0.000000 1.715940 
# 
# From -- ./inp_files/324278.got.cif
#   From: 2010.05.17/outbox.cif.g08.bks.cpg/sg12_163_cif.got.tgz:324278.got - 2010.06.03 13:09:07.
