data_PCOD9191409
_publ_section_title
;
Structure prediction by ZEFSAII (Michael W. Deem and Ramdas Pophale) SiO2 
 PCOD9191409
Probable space group: C 2/M
;
_chemical_formula_sum "Si O2"
_cell_formula_units_Z 56
_cell_length_a 14.689077
_cell_length_b 11.612837
_cell_length_c 17.023232
_cell_angle_alpha 90.000000
_cell_angle_beta 127.170952
_cell_angle_gamma 90.000000
_cell_volume 2313.896803
_symmetry_space_group_name_H-M "C 2/M"
_symmetry_group_IT_number 12
_symmetry_cell_setting 'monoclinic'
loop_
_space_group_symop_operation_xyz
x,y,z
-x,y,-z
-x,-y,-z
x,-y,z
1/2+x,1/2+y,z
1/2-x,1/2+y,-z
1/2-x,1/2-y,-z
1/2+x,1/2-y,z
loop_
_atom_site_type_symbol
_atom_site_label
_atom_site_fract_x
_atom_site_fract_y
_atom_site_fract_z
Si Si1 0.976472 0.131967 0.214547
Si Si2 0.882718 0.127094 0.990921
Si Si3 0.715675 0.375183 0.302554
Si Si4 0.637560 0.371299 0.518159
Si Si5 0.178450 0.180307 0.719424
Si Si6 0.361779 0.124201 0.927784
Si Si7 0.636495 0.873438 0.462438
O O1 0.913297 0.133230 0.098747
O O2 0.903441 0.170868 0.249471
O O3 0.098660 0.189537 0.262445
O O4 0.003651 0.000000 0.249425
O O5 0.828595 0.000000 0.948713
O O6 0.826350 0.251154 0.943739
O O7 0.000000 0.126386 0.000000
O O8 0.686134 0.500000 0.255185
O O9 0.791771 0.311855 0.280082
O O10 0.787513 0.383187 0.419119
O O11 0.636766 0.364021 0.612497
O O12 0.583565 0.254619 0.450873
O O13 0.769585 0.366740 0.557662
O O14 0.297952 0.124264 0.810533
O O15 0.096048 0.000000 0.473077
O O16 0.327902 0.000000 0.947773
O O17 0.500000 0.124841 0.000000
O O18 0.575276 0.000000 0.423963
#
# Coordination Sequence:
#
# PCOD9191409 Si02
#       7
#     8   8   8   8   8   8   8
#     4  10  20  35  56  82 108 138 181 227 271 323
#     4   9  18  34  54  73  97 134 178 218 259 317
#     4   9  18  34  56  80 109 144 182 225 268 314
#     4   9  16  28  48  75 106 140 177 216 265 323
#     4  11  21  34  54  77 108 143 178 219 274 328
#     4  10  20  33  49  72 103 136 170 215 271 319
#     4   8  15  28  48  75 105 139 179 220 261 310
#
# _framework density 24.201599000000002
#
# number of rings (size 3 to 8) (size 9 to 14) (size 15 to 20)
#    0.000    2.571    0.000    3.000    0.000    2.286 
#    0.000    1.429    0.000    8.571    0.000    0.000 
#    0.000   32.000    0.000    0.000    0.000    0.000 
#
# Total GULP energy -156076.020925 kJ/mol
# GULP energy per Si atom -5574.143604 kJ/mol
# Density = 2.414652 g / cm^3
# Si number density = 24.201599 Si / 1000 Ang^3
#
#
#
# Elastic Constant Matrix: (Units=GPa)
#
#
# Indices 1 2 3 4 5 6 
#
# 1 42.1142 46.2924 30.9151 0.0000 -24.9221 0.0000
# 2 46.2924 233.1310 43.8005 0.0000 -14.6909 0.0000
# 3 30.9151 43.8005 104.1913 0.0000 -28.0070 0.0000
# 4 0.0000 0.0000 0.0000 -18.0494 0.0000 -15.5445
# 5 -24.9221 -14.6909 -28.0070 0.0000 41.2332 0.0000
# 6 0.0000 0.0000 0.0000 -15.5445 0.0000 46.0296
#
#
#
# Elastic Compliance Matrix: (Units=1/GPa)
#
#
# Indices 1 2 3 4 5 6 
#
# 1 0.049947 -0.007419 -0.005256 0.000000 0.023975 0.000000
# 2 -0.007419 0.005765 -0.001071 0.000000 -0.003158 0.000000
# 3 -0.005256 -0.001071 0.013030 0.000000 0.005292 0.000000
# 4 0.000000 0.000000 0.000000 -0.042921 0.000000 -0.014495
# 5 0.023975 -0.003158 0.005292 0.000000 0.041212 0.000000
# 6 0.000000 0.000000 0.000000 -0.014495 0.000000 0.016830
#
#
# Mechanical properties :
#
#
# Convention : Reuss Voigt Hill
#
# Bulk Modulus (GPa) = 24.24340 69.05030 46.64685
# Shear Modulus (GPa) = 39.96581 31.07124 35.51852
#
# Velocity S-wave (km/s) = 4.06811 3.58697 3.83510
# Velocity P-wave (km/s) = 5.66614 6.76376 6.23913
#
# Compressibility (1/GPa) = 0.04124834
#
# Stress axis : x y z
#
# Youngs Moduli (GPa) = 20.02127 173.46341 76.74583
#
# Poissons Ratio (x) = 1.28701 0.40341
# Poissons Ratio (y) = 0.14855 0.08218
# Poissons Ratio (z) = 0.10524 0.18575
#
# Static dielectric constant tensor:
#      x y z
#    x 2.001230 0.000000 0.011670 
#    y 0.000000 2.065900 0.000000 
#    z 0.011670 0.000000 1.910890 
# 
# From -- ./inp_files/213399.got.cif
#   From: 2010.05.17/outbox.cif.g08.bks.cpg/sg12_107_cif.got.tgz:213399.got - 2010.06.03 13:09:07.
