data_PCOD9191814
_publ_section_title
;
Structure prediction by ZEFSAII (Michael W. Deem and Ramdas Pophale) SiO2 
 PCOD9191814
Probable space group: C 2/M
;
_chemical_formula_sum "Si O2"
_cell_formula_units_Z 56
_cell_length_a 33.403413
_cell_length_b 7.681580
_cell_length_c 11.717115
_cell_angle_alpha 90.000000
_cell_angle_beta 118.815939
_cell_angle_gamma 90.000000
_cell_volume 2634.218376
_symmetry_space_group_name_H-M "C 2/M"
_symmetry_group_IT_number 12
_symmetry_cell_setting 'monoclinic'
loop_
_space_group_symop_operation_xyz
x,y,z
-x,y,-z
-x,-y,-z
x,-y,z
1/2+x,1/2+y,z
1/2-x,1/2+y,-z
1/2-x,1/2-y,-z
1/2+x,1/2-y,z
loop_
_atom_site_type_symbol
_atom_site_label
_atom_site_fract_x
_atom_site_fract_y
_atom_site_fract_z
Si Si1 0.815424 0.707036 0.834597
Si Si2 0.119047 0.289206 0.666585
Si Si3 0.284268 0.210373 0.299922
Si Si4 0.180988 0.298554 0.414639
Si Si5 0.416158 0.705264 0.622915
Si Si6 0.102121 0.291631 0.897149
Si Si7 0.505598 0.710022 0.877798
O O1 0.823656 0.500000 0.835160
O O2 0.764715 0.733635 0.813227
O O3 0.815381 0.781872 0.705729
O O4 0.855915 0.777589 0.968966
O O5 0.118542 0.500000 0.664748
O O6 0.171047 0.233497 0.708735
O O7 0.087775 0.231354 0.518066
O O8 0.103960 0.225536 0.769845
O O9 0.291131 0.277381 0.439826
O O10 0.285235 0.000000 0.304383
O O11 0.195265 0.500000 0.425523
O O12 0.128261 0.292305 0.381927
O O13 0.412136 0.500000 0.641555
O O14 0.463116 0.770590 0.742234
O O15 0.108114 0.500000 0.897356
O O16 0.054110 0.258590 0.891615
O O17 0.503789 0.500000 0.877660
O O18 0.500000 0.772927 0.000000
#
# Coordination Sequence:
#
# PCOD9191814 Si02
#       7
#     8   8   8   8   8   8   8
#     4  10  20  33  51  78 108 138 177 222 262 304
#     4   9  20  39  56  75 107 141 176 218 262 307
#     4   9  18  32  51  74 103 142 179 213 261 315
#     4   9  18  33  52  77 110 141 171 214 265 314
#     4  10  20  34  56  82 105 135 176 218 259 310
#     4  10  22  38  56  78 105 140 181 220 256 306
#     4  10  22  39  57  81 112 139 166 210 267 318
#
# _framework density 21.258679000000001
#
# number of rings (size 3 to 8) (size 9 to 14) (size 15 to 20)
#    0.000    2.429    0.000    2.571    0.000    6.571 
#    0.000    2.857    0.000    0.000    0.000    0.000 
#    0.000    0.000    0.000    0.000    0.000    0.000 
#
# Total GULP energy -156359.635005 kJ/mol
# GULP energy per Si atom -5584.272679 kJ/mol
# Density = 2.121029 g / cm^3
# Si number density = 21.258679 Si / 1000 Ang^3
#
#
#
# Elastic Constant Matrix: (Units=GPa)
#
#
# Indices 1 2 3 4 5 6 
#
# 1 113.4529 -7.9953 103.5944 0.0000 0.6630 0.0000
# 2 -7.9953 36.9381 -6.6498 0.0000 -4.1671 0.0000
# 3 103.5944 -6.6498 133.2846 0.0000 15.1445 0.0000
# 4 0.0000 0.0000 0.0000 16.0659 0.0000 6.2619
# 5 0.6630 -4.1671 15.1445 0.0000 43.6234 0.0000
# 6 0.0000 0.0000 0.0000 6.2619 0.0000 20.1967
#
#
#
# Elastic Compliance Matrix: (Units=1/GPa)
#
#
# Indices 1 2 3 4 5 6 
#
# 1 0.033776 0.003469 -0.027128 0.000000 0.009236 0.000000
# 2 0.003469 0.027883 -0.001668 0.000000 0.003190 0.000000
# 3 -0.027128 -0.001668 0.029645 0.000000 -0.010039 0.000000
# 4 0.000000 0.000000 0.000000 0.070799 0.000000 -0.021951
# 5 0.009236 0.003190 -0.010039 0.000000 0.026573 0.000000
# 6 0.000000 0.000000 0.000000 -0.021951 0.000000 0.056319
#
#
# Mechanical properties :
#
#
# Convention : Reuss Voigt Hill
#
# Bulk Modulus (GPa) = 24.60006 51.28603 37.94304
# Shear Modulus (GPa) = 16.17081 28.95895 22.56488
#
# Velocity S-wave (km/s) = 2.76101 3.69483 3.26151
# Velocity P-wave (km/s) = 4.66489 6.50995 5.66307
#
# Compressibility (1/GPa) = 0.04065031
#
# Stress axis : x y z
#
# Youngs Moduli (GPa) = 29.60708 35.86435 33.73199
#
# Poissons Ratio (x) = -0.12441 0.91509
# Poissons Ratio (y) = -0.10271 0.05625
# Poissons Ratio (z) = 0.80319 0.05981
#
# Static dielectric constant tensor:
#      x y z
#    x 1.735930 0.000000 -0.010690 
#    y 0.000000 1.795200 0.000000 
#    z -0.010690 0.000000 1.776820 
# 
# From -- ./inp_files/186448.got.cif
#   From: 2010.05.17/outbox.cif.g08.bks.cpg/sg12_94_cif.got.tgz:186448.got - 2010.06.03 13:09:07.
