data_PCOD9191719
_publ_section_title
;
Structure prediction by ZEFSAII (Michael W. Deem and Ramdas Pophale) SiO2 
 PCOD9191719
Probable space group: C 2/M
;
_chemical_formula_sum "Si O2"
_cell_formula_units_Z 64
_cell_length_a 29.497452
_cell_length_b 15.372423
_cell_length_c 8.448086
_cell_angle_alpha 90.000000
_cell_angle_beta 110.394956
_cell_angle_gamma 90.000000
_cell_volume 3590.621643
_symmetry_space_group_name_H-M "C 2/M"
_symmetry_group_IT_number 12
_symmetry_cell_setting 'monoclinic'
loop_
_space_group_symop_operation_xyz
x,y,z
-x,y,-z
-x,-y,-z
x,-y,z
1/2+x,1/2+y,z
1/2-x,1/2+y,-z
1/2-x,1/2-y,-z
1/2+x,1/2-y,z
loop_
_atom_site_type_symbol
_atom_site_label
_atom_site_fract_x
_atom_site_fract_y
_atom_site_fract_z
Si Si1 0.787659 0.824281 0.609848
Si Si2 0.232255 0.403145 0.110724
Si Si3 0.331607 0.601578 0.349306
Si Si4 0.854825 0.290076 0.898575
Si Si5 0.127405 0.267256 0.708247
Si Si6 0.554609 0.101852 0.125183
Si Si7 0.204510 0.403639 0.710431
Si Si8 0.554379 0.904032 0.505140
O O1 0.750000 0.750000 0.500000
O O2 0.809829 0.880349 0.495233
O O3 0.833139 0.785226 0.761617
O O4 0.753372 0.881611 0.679135
O O5 0.236760 0.500000 0.181657
O O6 0.286307 0.366623 0.184836
O O7 0.190877 0.355471 0.155914
O O8 0.215980 0.406515 0.910505
O O9 0.343035 0.500000 0.337758
O O10 0.373378 0.670298 0.361635
O O11 0.903250 0.337254 0.894996
O O12 0.861731 0.264383 0.091036
O O13 0.166854 0.324047 0.655521
O O14 0.080633 0.325672 0.624134
O O15 0.556130 0.107037 0.317856
O O16 0.563441 0.000000 0.091243
O O17 0.500000 0.123409 0.000000
O O18 0.186796 0.500000 0.639631
O O19 0.500000 0.905719 0.500000
O O20 0.575673 0.000000 0.570372
#
# Coordination Sequence:
#
# PCOD9191719 Si02
#       8
#     8   8   8   8   8   8   8   8
#     4  12  21  34  50  75 109 145 185 234 279 333
#     4   9  18  32  49  73 103 142 184 223 270 326
#     4  11  22  36  53  75 107 145 188 235 279 326
#     4  11  21  34  54  77 108 149 186 231 281 335
#     4  11  21  36  56  80 108 145 192 231 275 337
#     4  10  21  36  55  83 118 151 186 228 275 332
#     4  10  20  33  51  75 108 144 181 224 273 330
#     4  10  21  37  59  86 117 149 183 227 278 333
#
# _framework density 17.824210999999998
#
# number of rings (size 3 to 8) (size 9 to 14) (size 15 to 20)
#    0.000    1.500    2.500    3.375    0.000    4.500 
#    0.000    0.625    0.000    0.375    0.000    0.000 
#    0.000    6.000    0.000    0.000    0.000    0.000 
#
# Total GULP energy -178466.539158 kJ/mol
# GULP energy per Si atom -5577.079349 kJ/mol
# Density = 1.778364 g / cm^3
# Si number density = 17.824211 Si / 1000 Ang^3
#
#
#
# Elastic Constant Matrix: (Units=GPa)
#
#
# Indices 1 2 3 4 5 6 
#
# 1 81.3642 48.9580 16.4133 0.0000 -4.7172 0.0000
# 2 48.9580 102.5807 25.6574 0.0000 0.9578 0.0000
# 3 16.4133 25.6574 37.8177 0.0000 2.0790 0.0000
# 4 0.0000 0.0000 0.0000 15.2687 0.0000 -1.3765
# 5 -4.7172 0.9578 2.0790 0.0000 29.6161 0.0000
# 6 0.0000 0.0000 0.0000 -1.3765 0.0000 31.1475
#
#
#
# Elastic Compliance Matrix: (Units=1/GPa)
#
#
# Indices 1 2 3 4 5 6 
#
# 1 0.017715 -0.007849 -0.002542 0.000000 0.003254 0.000000
# 2 -0.007849 0.015220 -0.006850 0.000000 -0.001262 0.000000
# 3 -0.002542 -0.006850 0.032328 0.000000 -0.002453 0.000000
# 4 0.000000 0.000000 0.000000 0.065756 0.000000 0.002906
# 5 0.003254 -0.001262 -0.002453 0.000000 0.034497 0.000000
# 6 0.000000 0.000000 0.000000 0.002906 0.000000 0.032234
#
#
# Mechanical properties :
#
#
# Convention : Reuss Voigt Hill
#
# Bulk Modulus (GPa) = 32.48815 44.86891 38.67853
# Shear Modulus (GPa) = 20.61935 23.92204 22.27069
#
# Velocity S-wave (km/s) = 3.40489 3.66746 3.53861
# Velocity P-wave (km/s) = 5.80726 6.56973 6.20022
#
# Compressibility (1/GPa) = 0.03078045
#
# Stress axis : x y z
#
# Youngs Moduli (GPa) = 56.44976 65.70467 30.93294
#
# Poissons Ratio (x) = 0.51573 0.07863
# Poissons Ratio (y) = 0.44309 0.21188
# Poissons Ratio (z) = 0.14350 0.45006
#
# Static dielectric constant tensor:
#      x y z
#    x 1.610980 0.000000 0.016670 
#    y 0.000000 1.644530 0.000000 
#    z 0.016670 0.000000 1.634290 
# 
# From -- ./inp_files/104586.got.cif
#   From: 2010.05.17/outbox.cif.g08.bks.cpg/sg12_53_cif.got.tgz:104586.got - 2010.06.03 13:09:07.
