data_PCOD9191487
_publ_section_title
;
Structure prediction by ZEFSAII (Michael W. Deem and Ramdas Pophale) SiO2 
 PCOD9191487
Probable space group: C 2/M
;
_chemical_formula_sum "Si O2"
_cell_formula_units_Z 58
_cell_length_a 22.902848
_cell_length_b 9.746334
_cell_length_c 27.236510
_cell_angle_alpha 90.000000
_cell_angle_beta 30.690437
_cell_angle_gamma 90.000000
_cell_volume 3103.075847
_symmetry_space_group_name_H-M "C 2/M"
_symmetry_group_IT_number 12
_symmetry_cell_setting 'monoclinic'
loop_
_space_group_symop_operation_xyz
x,y,z
-x,y,-z
-x,-y,-z
x,-y,z
1/2+x,1/2+y,z
1/2-x,1/2+y,-z
1/2-x,1/2-y,-z
1/2+x,1/2-y,z
loop_
_atom_site_type_symbol
_atom_site_label
_atom_site_fract_x
_atom_site_fract_y
_atom_site_fract_z
Si Si1 0.452210 0.341085 0.235590
Si Si2 0.862580 0.159167 0.412456
Si Si3 0.654541 0.844577 0.122346
Si Si4 0.057803 0.650709 0.303291
Si Si5 0.500000 0.500000 0.000000
Si Si6 0.109112 0.655181 0.804512
Si Si7 0.657620 0.152070 0.975339
Si Si8 0.197480 0.766664 0.840302
O O1 0.474323 0.500000 0.206758
O O2 0.398301 0.337350 0.329028
O O3 0.566989 0.250238 0.156308
O O4 0.376887 0.265959 0.248739
O O5 0.750000 0.250000 0.500000
O O6 0.963585 0.230250 0.371021
O O7 0.845752 0.000000 0.438147
O O8 0.601535 0.854022 0.215327
O O9 0.773334 0.767326 0.045090
O O10 0.664612 0.000000 0.096087
O O11 0.008906 0.500000 0.350586
O O12 0.173321 0.676358 0.250125
O O13 0.401252 0.381331 0.082399
O O14 0.130553 0.500000 0.771434
O O15 0.179647 0.689633 0.802115
O O16 0.976584 0.662340 0.917600
O O17 0.681504 0.173837 0.900391
O O18 0.699189 0.000000 0.958778
#
# Coordination Sequence:
#
# PCOD9191487 Si02
#       8
#     8   8   8   8   2   8   8   8
#     4  10  22  37  55  79 108 140 178 221 278 340
#     4  10  21  39  64  91 112 137 173 224 287 354
#     4   9  18  32  52  74 103 139 183 230 278 328
#     4   9  18  32  54  84 112 143 180 229 279 327
#     4  12  20  32  54  84 116 154 214 244 276 312
#     4  11  23  35  50  73 109 151 192 231 276 326
#     4  10  20  33  50  72 104 144 192 239 277 316
#     4  11  21  33  55  79 115 153 201 240 276 317
#
# _framework density 18.691130999999999
#
# number of rings (size 3 to 8) (size 9 to 14) (size 15 to 20)
#    0.000    1.931    2.069    1.655    1.931    7.724 
#    0.000    0.000    0.000    0.828    0.000    4.828 
#    0.000    0.000    0.000    0.000    0.000    0.000 
#
# Total GULP energy -161590.913771 kJ/mol
# GULP energy per Si atom -5572.100475 kJ/mol
# Density = 1.864859 g / cm^3
# Si number density = 18.691131 Si / 1000 Ang^3
#
#
#
# Elastic Constant Matrix: (Units=GPa)
#
#
# Indices 1 2 3 4 5 6 
#
# 1 95.0838 52.0582 17.5453 0.0000 -8.2489 0.0000
# 2 52.0582 182.2560 45.6988 -0.0002 -16.1826 0.0003
# 3 17.5453 45.6988 41.5337 -0.0001 -22.0665 0.0001
# 4 0.0000 -0.0002 -0.0001 26.8654 0.0000 -1.6433
# 5 -8.2489 -16.1826 -22.0665 0.0000 22.4091 0.0000
# 6 0.0000 0.0003 0.0001 -1.6433 0.0000 10.1190
#
#
#
# Elastic Compliance Matrix: (Units=1/GPa)
#
#
# Indices 1 2 3 4 5 6 
#
# 1 0.012585 -0.003194 -0.001187 0.000000 0.001157 0.000000
# 2 -0.003194 0.008757 -0.011641 0.000000 -0.006315 0.000000
# 3 -0.001187 -0.011641 0.068554 0.000000 0.058662 0.000000
# 4 0.000000 0.000000 0.000000 0.037596 0.000000 0.006106
# 5 0.001157 -0.006315 0.058662 0.000000 0.098256 0.000000
# 6 0.000000 0.000000 0.000000 0.006106 0.000000 0.099816
#
#
# Mechanical properties :
#
#
# Convention : Reuss Voigt Hill
#
# Bulk Modulus (GPa) = 17.28581 61.05312 39.16947
# Shear Modulus (GPa) = 13.26633 25.45010 19.35821
#
# Velocity S-wave (km/s) = 2.66703 3.69401 3.22170
# Velocity P-wave (km/s) = 4.33039 7.13648 5.90261
#
# Compressibility (1/GPa) = 0.05785091
#
# Stress axis : x y z
#
# Youngs Moduli (GPa) = 79.45718 114.18832 14.58707
#
# Poissons Ratio (x) = 0.36477 0.01732
# Poissons Ratio (y) = 0.25382 0.16981
# Poissons Ratio (z) = 0.09432 1.32932
#
# Static dielectric constant tensor:
#      x y z
#    x 1.670400 0.000000 0.006450 
#    y 0.000000 1.671430 0.000000 
#    z 0.006450 0.000000 1.624780 
# 
# From -- ./inp_files/237550.got.cif
#   From: 2010.05.17/outbox.cif.g08.bks.cpg/sg12_119_cif.got.tgz:237550.got - 2010.06.03 13:09:07.
