data_PCOD9191566
_publ_section_title
;
Structure prediction by ZEFSAII (Michael W. Deem and Ramdas Pophale) SiO2 
 PCOD9191566
Probable space group: C 2/M
;
_chemical_formula_sum "Si O2"
_cell_formula_units_Z 32
_cell_length_a 16.385376
_cell_length_b 15.312123
_cell_length_c 12.400575
_cell_angle_alpha 90.000000
_cell_angle_beta 156.345396
_cell_angle_gamma 90.000000
_cell_volume 1248.298815
_symmetry_space_group_name_H-M "C 2/M"
_symmetry_group_IT_number 12
_symmetry_cell_setting 'monoclinic'
loop_
_space_group_symop_operation_xyz
x,y,z
-x,y,-z
-x,-y,-z
x,-y,z
1/2+x,1/2+y,z
1/2-x,1/2+y,-z
1/2-x,1/2-y,-z
1/2+x,1/2-y,z
loop_
_atom_site_type_symbol
_atom_site_label
_atom_site_fract_x
_atom_site_fract_y
_atom_site_fract_z
Si Si1 0.747107 0.598113 0.282775
Si Si2 0.258751 0.403016 0.238738
Si Si3 0.155414 0.231441 0.000153
Si Si4 0.788433 0.899465 0.528174
O O1 0.796583 0.500000 0.308418
O O2 0.783282 0.668799 0.234781
O O3 0.836817 0.612999 0.511479
O O4 0.500000 0.602471 0.000000
O O5 0.500000 0.394140 0.500000
O O6 0.195711 0.500000 0.123803
O O7 0.142746 0.323334 0.044830
O O8 0.227076 0.399527 0.328789
O O9 0.250000 0.250000 0.000000
O O10 0.950326 0.178267 0.731509
O O11 0.870286 0.000000 0.641065
#
# Coordination Sequence:
#
# PCOD9191566 Si02
#       4
#     8   8   8   8
#     4   8  16  31  52  75  98 128 168 210 249 294
#     4  10  20  33  50  74 103 134 170 209 248 297
#     4  11  19  28  51  79 102 130 168 210 252 294
#     4   9  18  36  57  75  99 132 171 211 249 296
#
# _framework density 25.634889000000001
#
# number of rings (size 3 to 8) (size 9 to 14) (size 15 to 20)
#    0.000    2.500    2.500    2.250    0.000    2.000 
#    0.000    0.000    0.000   12.750    0.000    0.000 
#    0.000    0.000    0.000    0.000    0.000    0.000 
#
# Total GULP energy -89497.911681 kJ/mol
# GULP energy per Si atom -5593.619480 kJ/mol
# Density = 2.557654 g / cm^3
# Si number density = 25.634889 Si / 1000 Ang^3
#
#
#
# Elastic Constant Matrix: (Units=GPa)
#
#
# Indices 1 2 3 4 5 6 
#
# 1 162.7080 86.1534 45.7578 0.0000 -42.0118 0.0000
# 2 86.1534 238.6750 74.4804 0.0000 -39.9571 0.0000
# 3 45.7578 74.4804 85.4906 0.0000 -33.9807 0.0000
# 4 0.0000 0.0000 0.0000 42.7365 0.0000 -37.9516
# 5 -42.0118 -39.9571 -33.9807 0.0000 65.7885 0.0000
# 6 0.0000 0.0000 0.0000 -37.9516 0.0000 -24.1832
#
#
#
# Elastic Compliance Matrix: (Units=1/GPa)
#
#
# Indices 1 2 3 4 5 6 
#
# 1 0.008525 -0.002064 -0.001383 0.000000 0.003476 0.000000
# 2 -0.002064 0.006322 -0.004280 0.000000 0.000312 0.000000
# 3 -0.001383 -0.004280 0.018601 0.000000 0.006125 0.000000
# 4 0.000000 0.000000 0.000000 0.009776 0.000000 -0.015341
# 5 0.003476 0.000312 0.006125 0.000000 0.020773 0.000000
# 6 0.000000 0.000000 0.000000 -0.015341 0.000000 -0.017275
#
#
# Mechanical properties :
#
#
# Convention : Reuss Voigt Hill
#
# Bulk Modulus (GPa) = 55.57211 99.96186 77.76698
# Shear Modulus (GPa) = 73.34238 35.56715 54.45476
#
# Velocity S-wave (km/s) = 5.35467 3.72889 4.61395
# Velocity P-wave (km/s) = 7.74308 7.59069 7.66727
#
# Compressibility (1/GPa) = 0.01799464
#
# Stress axis : x y z
#
# Youngs Moduli (GPa) = 117.29765 158.16780 53.76144
#
# Poissons Ratio (x) = 0.32641 0.07438
# Poissons Ratio (y) = 0.24206 0.23009
# Poissons Ratio (z) = 0.16228 0.67692
#
# Static dielectric constant tensor:
#      x y z
#    x 2.007870 0.000000 0.048630 
#    y 0.000000 1.988160 0.000000 
#    z 0.048630 0.000000 2.044070 
# 
# From -- ./inp_files/139411.got.cif
#   From: 2010.05.17/outbox.cif.g08.bks.cpg/sg12_70_cif.got.tgz:139411.got - 2010.06.03 13:09:07.
