data_PCOD9191649
_publ_section_title
;
Structure prediction by ZEFSAII (Michael W. Deem and Ramdas Pophale) SiO2 
 PCOD9191649
Probable space group: C 2/M
;
_chemical_formula_sum "Si O2"
_cell_formula_units_Z 42
_cell_length_a 31.574254
_cell_length_b 7.573416
_cell_length_c 6.727166
_cell_angle_alpha 90.000000
_cell_angle_beta 69.183164
_cell_angle_gamma 90.000000
_cell_volume 1503.623797
_symmetry_space_group_name_H-M "C 2/M"
_symmetry_group_IT_number 12
_symmetry_cell_setting 'monoclinic'
loop_
_space_group_symop_operation_xyz
x,y,z
-x,y,-z
-x,-y,-z
x,-y,z
1/2+x,1/2+y,z
1/2-x,1/2+y,-z
1/2-x,1/2-y,-z
1/2+x,1/2-y,z
loop_
_atom_site_type_symbol
_atom_site_label
_atom_site_fract_x
_atom_site_fract_y
_atom_site_fract_z
Si Si1 0.237937 0.709485 0.751335
Si Si2 0.500000 0.500000 0.500000
Si Si3 0.334235 0.285841 0.676950
Si Si4 0.931338 0.293167 0.622259
Si Si5 0.547691 0.794024 0.857867
Si Si6 0.359454 0.293810 0.184915
O O1 0.236537 0.500000 0.775087
O O2 0.250000 0.750000 0.500000
O O3 0.282441 0.778147 0.794207
O O4 0.186816 0.776693 0.862864
O O5 0.466637 0.656222 0.653347
O O6 0.333956 0.500000 0.682805
O O7 0.376955 0.223773 0.734421
O O8 0.345395 0.228785 0.430150
O O9 0.943655 0.500000 0.626103
O O10 0.937147 0.223934 0.381371
O O11 0.590804 0.786500 0.932556
O O12 0.539730 0.000000 0.834412
O O13 0.500000 0.714652 0.000000
O O14 0.368930 0.500000 0.179520
#
# Coordination Sequence:
#
# PCOD9191649 Si02
#       6
#     8   2   8   8   8   8
#     4   9  15  22  36  56  85 121 151 182 221 274
#     4  12  22  36  50  66 100 124 166 218 238 278
#     4   8  14  26  40  59  88 121 154 188 231 280
#     4  10  20  33  51  71  94 131 163 198 249 288
#     4   9  18  32  49  69  95 128 162 197 236 291
#     4   9  16  24  37  60  90 123 156 182 221 277
#
# _framework density 27.932518999999999
#
# number of rings (size 3 to 8) (size 9 to 14) (size 15 to 20)
#    0.000    2.857    0.952    2.571    1.333    5.714 
#    0.000    0.000    0.000    0.000    0.000    0.000 
#    0.000    1.524    2.667    0.571    0.000    0.381 
#
# Total GULP energy -117195.836622 kJ/mol
# GULP energy per Si atom -5580.754125 kJ/mol
# Density = 2.786894 g / cm^3
# Si number density = 27.932519 Si / 1000 Ang^3
#
#
#
# Elastic Constant Matrix: (Units=GPa)
#
#
# Indices 1 2 3 4 5 6 
#
# 1 236.7201 21.4542 75.5102 0.0000 -28.4054 0.0000
# 2 21.4542 150.6244 5.5460 0.0000 -21.9471 0.0000
# 3 75.5102 5.5460 87.1042 0.0000 -33.7579 0.0000
# 4 0.0000 0.0000 0.0000 7.2359 0.0000 -12.0322
# 5 -28.4054 -21.9471 -33.7579 0.0000 80.2373 0.0000
# 6 0.0000 0.0000 0.0000 -12.0322 0.0000 36.9707
#
#
#
# Elastic Compliance Matrix: (Units=1/GPa)
#
#
# Indices 1 2 3 4 5 6 
#
# 1 0.005908 -0.000691 -0.005186 0.000000 -0.000279 0.000000
# 2 -0.000691 0.007004 0.000957 0.000000 0.002074 0.000000
# 3 -0.005186 0.000957 0.018287 0.000000 0.006120 0.000000
# 4 0.000000 0.000000 0.000000 0.301204 0.000000 0.098028
# 5 -0.000279 0.002074 0.006120 0.000000 0.015506 0.000000
# 6 0.000000 0.000000 0.000000 0.098028 0.000000 0.058952
#
#
# Mechanical properties :
#
#
# Convention : Reuss Voigt Hill
#
# Bulk Modulus (GPa) = 46.81859 75.49662 61.15761
# Shear Modulus (GPa) = 11.79746 49.68468 30.74107
#
# Velocity S-wave (km/s) = 2.05736 4.22209 3.32105
# Velocity P-wave (km/s) = 4.73723 7.13126 6.05377
#
# Compressibility (1/GPa) = 0.02135904
#
# Stress axis : x y z
#
# Youngs Moduli (GPa) = 169.27230 142.76706 54.68476
#
# Poissons Ratio (x) = 0.09868 0.28357
# Poissons Ratio (y) = 0.11701 -0.05233
# Poissons Ratio (z) = 0.87777 -0.13662
#
# Static dielectric constant tensor:
#      x y z
#    x 2.118270 0.000000 -0.087170 
#    y 0.000000 2.009550 0.000000 
#    z -0.087170 0.000000 2.213940 
# 
# From -- ./inp_files/107848.got.cif
#   From: 2010.05.17/outbox.cif.g08.bks.cpg/sg12_54_cif.got.tgz:107848.got - 2010.06.03 13:09:07.
