data_PCOD9191980
_publ_section_title
;
Structure prediction by ZEFSAII (Michael W. Deem and Ramdas Pophale) SiO2 
 PCOD9191980
Probable space group: C 2/M
;
_chemical_formula_sum "Si O2"
_cell_formula_units_Z 56
_cell_length_a 19.767599
_cell_length_b 8.901462
_cell_length_c 19.115981
_cell_angle_alpha 90.000000
_cell_angle_beta 104.645365
_cell_angle_gamma 90.000000
_cell_volume 3254.370520
_symmetry_space_group_name_H-M "C 2/M"
_symmetry_group_IT_number 12
_symmetry_cell_setting 'monoclinic'
loop_
_space_group_symop_operation_xyz
x,y,z
-x,y,-z
-x,-y,-z
x,-y,z
1/2+x,1/2+y,z
1/2-x,1/2+y,-z
1/2-x,1/2-y,-z
1/2+x,1/2-y,z
loop_
_atom_site_type_symbol
_atom_site_label
_atom_site_fract_x
_atom_site_fract_y
_atom_site_fract_z
Si Si1 0.394025 0.820135 0.279685
Si Si2 0.882442 0.181029 0.845274
Si Si3 0.755579 0.680791 0.725677
Si Si4 0.531520 0.178634 0.846762
Si Si5 0.063282 0.180867 0.567604
Si Si6 0.919420 0.172525 0.005806
Si Si7 0.718775 0.679653 0.561232
O O1 0.318207 0.742620 0.265082
O O2 0.432519 0.783206 0.217321
O O3 0.437514 0.760961 0.357688
O O4 0.385806 0.000000 0.281731
O O5 0.819602 0.249009 0.784434
O O6 0.956801 0.240711 0.836511
O O7 0.882393 0.000000 0.842567
O O8 0.877282 0.224297 0.926335
O O9 0.756302 0.500000 0.730661
O O10 0.757380 0.722555 0.643639
O O11 0.579975 0.229479 0.924408
O O12 0.520585 0.000000 0.847058
O O13 0.137486 0.220151 0.551590
O O14 0.000000 0.221025 0.500000
O O15 0.062474 0.000000 0.578165
O O16 0.900876 0.000000 0.017574
O O17 0.000000 0.172101 0.000000
O O18 0.722523 0.500000 0.556340
O O19 0.750000 0.750000 0.500000
#
# Coordination Sequence:
#
# PCOD9191980 Si02
#       7
#     8   8   8   8   8   8   8
#     4  10  21  36  53  76 106 138 173 212 256 306
#     4  10  20  34  54  79 105 135 173 214 256 305
#     4  10  21  37  55  76 104 137 173 212 257 308
#     4  10  20  33  52  79 107 135 172 215 255 302
#     4   9  19  36  55  75 100 132 172 213 253 301
#     4   8  16  31  50  74 103 134 170 212 256 302
#     4   9  19  34  52  75 101 130 165 206 251 301
#
# _framework density 17.207628
#
# number of rings (size 3 to 8) (size 9 to 14) (size 15 to 20)
#    0.000    2.571    0.000    3.429    0.000    9.714 
#    0.000    3.571    0.000    0.000    0.000    0.000 
#    0.000    0.000    0.000    0.000    0.000    0.000 
#
# Total GULP energy -156140.366575 kJ/mol
# GULP energy per Si atom -5576.441663 kJ/mol
# Density = 1.716846 g / cm^3
# Si number density = 17.207628 Si / 1000 Ang^3
#
#
#
# Elastic Constant Matrix: (Units=GPa)
#
#
# Indices 1 2 3 4 5 6 
#
# 1 68.7281 42.7070 97.8703 0.0000 5.4436 0.0000
# 2 42.7070 54.6914 71.6122 0.0000 -3.6669 0.0000
# 3 97.8703 71.6122 195.5690 0.0000 5.6588 0.0000
# 4 0.0000 0.0000 0.0000 35.5524 0.0000 0.1254
# 5 5.4436 -3.6669 5.6588 0.0000 34.0263 0.0000
# 6 0.0000 0.0000 0.0000 0.1254 0.0000 25.1932
#
#
#
# Elastic Compliance Matrix: (Units=1/GPa)
#
#
# Indices 1 2 3 4 5 6 
#
# 1 0.056805 -0.015106 -0.022695 0.000000 -0.006941 0.000000
# 2 -0.015106 0.040386 -0.007460 0.000000 0.008010 0.000000
# 3 -0.022695 -0.007460 0.019213 0.000000 -0.000368 0.000000
# 4 0.000000 0.000000 0.000000 0.028128 0.000000 -0.000140
# 5 -0.006941 0.008010 -0.000368 0.000000 0.031424 0.000000
# 6 0.000000 0.000000 0.000000 -0.000140 0.000000 0.039694
#
#
# Mechanical properties :
#
#
# Convention : Reuss Voigt Hill
#
# Bulk Modulus (GPa) = 38.63847 82.59638 60.61742
# Shear Modulus (GPa) = 15.88312 26.07433 20.97872
#
# Velocity S-wave (km/s) = 3.04143 3.89688 3.49542
# Velocity P-wave (km/s) = 5.90227 8.26750 7.18291
#
# Compressibility (1/GPa) = 0.02588094
#
# Stress axis : x y z
#
# Youngs Moduli (GPa) = 17.60411 24.76119 52.04765
#
# Poissons Ratio (x) = 0.37405 1.18122
# Poissons Ratio (y) = 0.26593 0.38829
# Poissons Ratio (z) = 0.39953 0.18472
#
# Static dielectric constant tensor:
#      x y z
#    x 1.556960 0.000000 0.007720 
#    y 0.000000 1.576670 0.000000 
#    z 0.007720 0.000000 1.588320 
# 
# From -- ./inp_files/237849.got.cif
#   From: 2010.05.17/outbox.cif.g08.bks.cpg/sg12_119_cif.got.tgz:237849.got - 2010.06.03 13:09:07.
