data_PCOD9191261
_publ_section_title
;
Structure prediction by ZEFSAII (Michael W. Deem and Ramdas Pophale) SiO2 
 PCOD9191261
Probable space group: C 2/M
;
_chemical_formula_sum "Si O2"
_cell_formula_units_Z 64
_cell_length_a 14.648588
_cell_length_b 7.722605
_cell_length_c 32.133088
_cell_angle_alpha 90.000000
_cell_angle_beta 45.140491
_cell_angle_gamma 90.000000
_cell_volume 2576.673247
_symmetry_space_group_name_H-M "C 2/M"
_symmetry_group_IT_number 12
_symmetry_cell_setting 'monoclinic'
loop_
_space_group_symop_operation_xyz
x,y,z
-x,y,-z
-x,-y,-z
x,-y,z
1/2+x,1/2+y,z
1/2-x,1/2+y,-z
1/2-x,1/2-y,-z
1/2+x,1/2-y,z
loop_
_atom_site_type_symbol
_atom_site_label
_atom_site_fract_x
_atom_site_fract_y
_atom_site_fract_z
Si Si1 0.174509 0.292219 0.982848
Si Si2 0.663511 0.201073 0.354890
Si Si3 0.060704 0.302759 0.891910
Si Si4 0.359390 0.304589 0.546108
Si Si5 0.586399 0.704289 0.615426
Si Si6 0.326449 0.700602 0.856879
Si Si7 0.212752 0.204248 0.768319
Si Si8 0.464921 0.300069 0.736259
O O1 0.162292 0.500000 0.977393
O O2 0.033798 0.226303 0.042249
O O3 0.250000 0.250000 0.000000
O O4 0.267274 0.218411 0.917293
O O5 0.670720 0.302941 0.395171
O O6 0.520125 0.217110 0.381048
O O7 0.766952 0.255676 0.286231
O O8 0.687209 0.000000 0.357364
O O9 0.017389 0.500000 0.899474
O O10 0.198436 0.303665 0.869615
O O11 0.085070 0.229084 0.837659
O O12 0.500000 0.216768 0.500000
O O13 0.374576 0.500000 0.525125
O O14 0.238270 0.228432 0.560258
O O15 0.558967 0.500000 0.624631
O O16 0.557387 0.775917 0.671446
O O17 0.364956 0.500000 0.853117
O O18 0.433849 0.778509 0.791565
O O19 0.329166 0.298133 0.754855
O O20 0.241156 0.000000 0.760305
O O21 0.502797 0.500000 0.731600
#
# Coordination Sequence:
#
# PCOD9191261 Si02
#       8
#     8   8   8   8   8   8   8   8
#     4  10  20  33  47  66  98 135 173 218 269 324
#     4  10  21  39  63  90 121 157 198 244 295 350
#     4   9  17  31  52  73  95 130 180 223 265 323
#     4  11  25  43  62  88 122 160 202 242 285 344
#     4  10  20  37  63  92 123 157 195 243 297 351
#     4   8  14  29  53  74  92 127 175 220 259 313
#     4   9  17  30  52  82 110 136 173 224 279 329
#     4   8  15  30  54  81 106 136 178 222 272 334
#
# _framework density 24.838229999999999
#
# number of rings (size 3 to 8) (size 9 to 14) (size 15 to 20)
#    0.000    2.625    0.000    2.625    0.000    5.500 
#    2.250    2.500    0.000    3.750    0.000    0.000 
#    0.000    0.000    0.000    0.000    0.000    0.000 
#
# Total GULP energy -178401.700980 kJ/mol
# GULP energy per Si atom -5575.053156 kJ/mol
# Density = 2.478170 g / cm^3
# Si number density = 24.838230 Si / 1000 Ang^3
#
#
#
# Elastic Constant Matrix: (Units=GPa)
#
#
# Indices 1 2 3 4 5 6 
#
# 1 58.9929 1.2990 36.3407 -0.0009 -20.8289 -0.0028
# 2 1.2990 49.6247 -0.7820 -0.0023 -4.7494 0.0000
# 3 36.3407 -0.7820 37.9485 -0.0052 -6.3874 -0.0086
# 4 -0.0009 -0.0023 -0.0052 16.4738 -0.0011 -2.8054
# 5 -20.8289 -4.7494 -6.3874 -0.0011 42.1531 -0.0019
# 6 -0.0028 0.0000 -0.0086 -2.8054 -0.0019 -0.4204
#
#
#
# Elastic Compliance Matrix: (Units=1/GPa)
#
#
# Indices 1 2 3 4 5 6 
#
# 1 0.052851 -0.000323 -0.047439 0.000037 0.018890 0.000282
# 2 -0.000323 0.020398 0.001118 -0.000001 0.002308 -0.000025
# 3 -0.047439 0.001118 0.069656 -0.000075 -0.012760 -0.000548
# 4 0.000037 -0.000001 -0.000075 0.028412 -0.000001 -0.189615
# 5 0.018890 0.002308 -0.012760 -0.000001 0.031384 -0.000001
# 6 0.000282 -0.000025 -0.000548 -0.189615 -0.000001 -1.113473
#
#
# Mechanical properties :
#
#
# Convention : Reuss Voigt Hill
#
# Bulk Modulus (GPa) = 20.15419 24.47571 22.31495
# Shear Modulus (GPa) = -6.24263 18.95522 6.35629
#
# Velocity S-wave (km/s) = -1.58706 2.76551 1.60145
# Velocity P-wave (km/s) = 2.18482 4.48027 3.52465
#
# Compressibility (1/GPa) = 0.04961748
#
# Stress axis : x y z
#
# Youngs Moduli (GPa) = 18.92100 49.02389 14.35630
#
# Poissons Ratio (x) = 0.01584 0.68105
# Poissons Ratio (y) = 0.00611 -0.01605
# Poissons Ratio (z) = 0.89760 -0.05482
#
# Static dielectric constant tensor:
#      x y z
#    x 1.983920 0.000000 -0.058170 
#    y 0.000000 1.925860 0.000000 
#    z -0.058170 0.000000 2.151490 
# 
# From -- ./inp_files/375504.got.cif
#   From: 2010.05.17/outbox.cif.g08.bks.cpg/sg12_188_cif.got.tgz:375504.got - 2010.06.03 13:09:07.
