data_PCOD9191027
_publ_section_title
;
Structure prediction by ZEFSAII (Michael W. Deem and Ramdas Pophale) SiO2 
 PCOD9191027
Probable space group: C 2/M
;
_chemical_formula_sum "Si O2"
_cell_formula_units_Z 56
_cell_length_a 21.119584
_cell_length_b 14.492122
_cell_length_c 9.874342
_cell_angle_alpha 90.000000
_cell_angle_beta 56.347805
_cell_angle_gamma 90.000000
_cell_volume 2515.743311
_symmetry_space_group_name_H-M "C 2/M"
_symmetry_group_IT_number 12
_symmetry_cell_setting 'monoclinic'
loop_
_space_group_symop_operation_xyz
x,y,z
-x,y,-z
-x,-y,-z
x,-y,z
1/2+x,1/2+y,z
1/2-x,1/2+y,-z
1/2-x,1/2-y,-z
1/2+x,1/2-y,z
loop_
_atom_site_type_symbol
_atom_site_label
_atom_site_fract_x
_atom_site_fract_y
_atom_site_fract_z
Si Si1 0.053595 0.257392 0.063244
Si Si2 0.804575 0.352570 0.812888
Si Si3 0.163785 0.395786 0.785048
Si Si4 0.970486 0.397732 0.681908
Si Si5 0.652052 0.399773 0.424202
Si Si6 0.324062 0.210682 0.489178
Si Si7 0.347814 0.648835 0.869054
O O1 0.124222 0.319558 0.925265
O O2 0.014710 0.322859 0.221084
O O3 0.087314 0.168685 0.098369
O O4 0.000000 0.238209 0.000000
O O5 0.879729 0.404206 0.770872
O O6 0.802392 0.340952 0.653553
O O7 0.820947 0.249290 0.847198
O O8 0.727177 0.389983 0.969111
O O9 0.136397 0.500000 0.845180
O O10 0.255121 0.395466 0.696068
O O11 0.145746 0.363519 0.653732
O O12 0.001258 0.500000 0.674263
O O13 0.000000 0.366484 0.500000
O O14 0.632941 0.500000 0.508993
O O15 0.630145 0.304652 0.526180
O O16 0.625069 0.398133 0.300674
O O17 0.250000 0.250000 0.500000
#
# Coordination Sequence:
#
# PCOD9191027 Si02
#       7
#     8   8   8   8   8   8   8
#     4  11  23  37  55  78 114 160 202 236 293 355
#     4   9  17  31  52  73 105 149 195 238 287 329
#     4  10  20  32  51  82 118 156 195 230 280 355
#     4  10  22  37  52  79 121 159 192 230 276 350
#     4   9  17  32  57  85 111 143 191 246 302 356
#     4   9  17  30  49  78 115 150 185 241 293 342
#     4   9  17  33  54  78 103 142 197 255 290 336
#
# _framework density 22.259823999999998
#
# number of rings (size 3 to 8) (size 9 to 14) (size 15 to 20)
#    0.000    2.429    0.000    4.714    2.000    3.429 
#    0.000    0.000    0.000    3.000    0.000    1.000 
#    0.000    0.000    0.000    0.000    0.000    0.000 
#
# Total GULP energy -156307.805429 kJ/mol
# GULP energy per Si atom -5582.421622 kJ/mol
# Density = 2.220916 g / cm^3
# Si number density = 22.259824 Si / 1000 Ang^3
#
#
#
# Elastic Constant Matrix: (Units=GPa)
#
#
# Indices 1 2 3 4 5 6 
#
# 1 97.7066 10.1691 25.8385 0.0000 29.1814 0.0000
# 2 10.1691 73.9126 8.1809 0.0000 12.1364 0.0000
# 3 25.8385 8.1809 80.9114 0.0000 31.8440 0.0000
# 4 0.0000 0.0000 0.0000 -81.0053 0.0000 16.6895
# 5 29.1814 12.1364 31.8440 0.0000 31.3915 0.0000
# 6 0.0000 0.0000 0.0000 16.6895 0.0000 10.3114
#
#
#
# Elastic Compliance Matrix: (Units=1/GPa)
#
#
# Indices 1 2 3 4 5 6 
#
# 1 0.014233 0.000296 0.001127 0.000000 -0.014489 0.000000
# 2 0.000296 0.014526 0.001257 0.000000 -0.007167 0.000000
# 3 0.001127 0.001257 0.020767 0.000000 -0.022600 0.000000
# 4 0.000000 0.000000 0.000000 -0.009258 0.000000 0.014984
# 5 -0.014489 -0.007167 -0.022600 0.000000 0.071021 0.000000
# 6 0.000000 0.000000 0.000000 0.014984 0.000000 0.072728
#
#
# Mechanical properties :
#
#
# Convention : Reuss Voigt Hill
#
# Bulk Modulus (GPa) = 18.21913 37.87863 28.04888
# Shear Modulus (GPa) = 25.38690 6.02900 15.70795
#
# Velocity S-wave (km/s) = 3.38076 1.64753 2.65931
# Velocity P-wave (km/s) = 4.84169 4.54672 4.69652
#
# Compressibility (1/GPa) = 0.05488737
#
# Stress axis : x y z
#
# Youngs Moduli (GPa) = 70.25852 68.84028 48.15397
#
# Poissons Ratio (x) = -0.02038 -0.05428
# Poissons Ratio (y) = -0.02080 -0.06054
# Poissons Ratio (z) = -0.07919 -0.08655
#
# Static dielectric constant tensor:
#      x y z
#    x 1.861620 0.000000 -0.027850 
#    y 0.000000 1.860700 0.000000 
#    z -0.027850 0.000000 1.850530 
# 
# From -- ./inp_files/96271.got.cif
#   From: 2010.05.17/outbox.cif.g08.bks.cpg/sg12_49_cif.got.tgz:96271.got - 2010.06.03 13:09:07.
