data_PCOD9191200
_publ_section_title
;
Structure prediction by ZEFSAII (Michael W. Deem and Ramdas Pophale) SiO2 
 PCOD9191200
Probable space group: C 2/M
;
_chemical_formula_sum "Si O2"
_cell_formula_units_Z 60
_cell_length_a 29.572665
_cell_length_b 9.102138
_cell_length_c 12.724526
_cell_angle_alpha 90.000000
_cell_angle_beta 72.656279
_cell_angle_gamma 90.000000
_cell_volume 3269.389880
_symmetry_space_group_name_H-M "C 2/M"
_symmetry_group_IT_number 12
_symmetry_cell_setting 'monoclinic'
loop_
_space_group_symop_operation_xyz
x,y,z
-x,y,-z
-x,-y,-z
x,-y,z
1/2+x,1/2+y,z
1/2-x,1/2+y,-z
1/2-x,1/2-y,-z
1/2+x,1/2-y,z
loop_
_atom_site_type_symbol
_atom_site_label
_atom_site_fract_x
_atom_site_fract_y
_atom_site_fract_z
Si Si1 0.098848 0.673499 0.113415
Si Si2 0.900230 0.827069 0.311270
Si Si3 0.161954 0.175436 0.246778
Si Si4 0.500000 0.751067 0.500000
Si Si5 0.861061 0.173715 0.111479
Si Si6 0.246478 0.174850 0.888186
Si Si7 0.605981 0.834113 0.467955
Si Si8 0.509968 0.663185 0.256630
O O1 0.106490 0.500000 0.117784
O O2 0.135241 0.760633 0.163093
O O3 0.046907 0.718517 0.189635
O O4 0.108161 0.730031 0.989665
O O5 0.872665 0.791141 0.224046
O O6 0.887140 0.728914 0.420144
O O7 0.956694 0.810067 0.254403
O O8 0.892692 0.000000 0.341942
O O9 0.213677 0.248282 0.210223
O O10 0.131639 0.229261 0.367059
O O11 0.164475 0.000000 0.239516
O O12 0.549544 0.833928 0.483505
O O13 0.507427 0.666120 0.385378
O O14 0.806033 0.195999 0.121293
O O15 0.871755 0.000000 0.088383
O O16 0.255298 0.000000 0.891047
O O17 0.250000 0.250000 0.000000
O O18 0.623812 0.000000 0.444499
O O19 0.525704 0.500000 0.212458
#
# Coordination Sequence:
#
# PCOD9191200 Si02
#       8
#     8   8   8   4   8   8   8   8
#     4  12  24  36  57  88 123 156 196 246 299 354
#     4   9  21  41  62  86 117 160 205 241 285 351
#     4  12  24  39  60  88 122 156 196 246 301 354
#     4  10  20  32  58  84 120 156 196 242 292 346
#     4  10  22  42  65  86 117 158 199 242 294 355
#     4  11  22  38  63  92 120 152 195 246 301 357
#     4  11  22  37  59  89 123 156 195 244 298 349
#     4  10  20  35  57  85 119 158 202 242 288 347
#
# _framework density 18.352046999999999
#
# number of rings (size 3 to 8) (size 9 to 14) (size 15 to 20)
#    0.000    1.333    2.667    3.600    0.000    4.800 
#    0.000    3.333    0.000    0.000    0.000    0.000 
#    0.000    0.000    0.000    0.000    0.000    0.000 
#
# Total GULP energy -167587.860033 kJ/mol
# GULP energy per Si atom -5586.262001 kJ/mol
# Density = 1.831028 g / cm^3
# Si number density = 18.352047 Si / 1000 Ang^3
#
#
#
# Elastic Constant Matrix: (Units=GPa)
#
#
# Indices 1 2 3 4 5 6 
#
# 1 80.5225 46.0237 50.7815 0.0000 15.1086 0.0000
# 2 46.0237 121.5867 51.6080 0.0000 2.0991 0.0000
# 3 50.7815 51.6080 91.3720 0.0000 4.3937 0.0000
# 4 0.0000 0.0000 0.0000 26.6949 0.0000 -8.6534
# 5 15.1086 2.0991 4.3937 0.0000 33.2082 0.0000
# 6 0.0000 0.0000 0.0000 -8.6534 0.0000 3.4591
#
#
#
# Elastic Compliance Matrix: (Units=1/GPa)
#
#
# Indices 1 2 3 4 5 6 
#
# 1 0.022661 -0.004288 -0.009752 0.000000 -0.008749 0.000000
# 2 -0.004288 0.011630 -0.004271 0.000000 0.001781 0.000000
# 3 -0.009752 -0.004271 0.018669 0.000000 0.002237 0.000000
# 4 0.000000 0.000000 0.000000 0.198109 0.000000 0.495588
# 5 -0.008749 0.001781 0.002237 0.000000 0.033685 0.000000
# 6 0.000000 0.000000 0.000000 0.495588 0.000000 1.528846
#
#
# Mechanical properties :
#
#
# Convention : Reuss Voigt Hill
#
# Bulk Modulus (GPa) = 61.20626 65.58974 63.39800
# Shear Modulus (GPa) = 2.69445 22.34364 12.51904
#
# Velocity S-wave (km/s) = 1.21301 3.49306 2.61465
# Velocity P-wave (km/s) = 5.94857 7.21706 6.61330
#
# Compressibility (1/GPa) = 0.01633820
#
# Stress axis : x y z
#
# Youngs Moduli (GPa) = 44.12854 85.98605 53.56449
#
# Poissons Ratio (x) = 0.36867 0.52236
# Poissons Ratio (y) = 0.18920 0.22880
# Poissons Ratio (z) = 0.43034 0.36728
#
# Static dielectric constant tensor:
#      x y z
#    x 1.627030 0.000000 -0.011740 
#    y 0.000000 1.625810 0.000000 
#    z -0.011740 0.000000 1.616620 
# 
# From -- ./inp_files/187381.got.cif
#   From: 2010.05.17/outbox.cif.g08.bks.cpg/sg12_94_cif.got.tgz:187381.got - 2010.06.03 13:09:07.
