data_PCOD9191375
_publ_section_title
;
Structure prediction by ZEFSAII (Michael W. Deem and Ramdas Pophale) SiO2 
 PCOD9191375
Probable space group: C 2/M
;
_chemical_formula_sum "Si O2"
_cell_formula_units_Z 48
_cell_length_a 28.880341
_cell_length_b 8.976602
_cell_length_c 11.631674
_cell_angle_alpha 90.000000
_cell_angle_beta 102.248351
_cell_angle_gamma 90.000000
_cell_volume 2946.839652
_symmetry_space_group_name_H-M "C 2/M"
_symmetry_group_IT_number 12
_symmetry_cell_setting 'monoclinic'
loop_
_space_group_symop_operation_xyz
x,y,z
-x,y,-z
-x,-y,-z
x,-y,z
1/2+x,1/2+y,z
1/2-x,1/2+y,-z
1/2-x,1/2-y,-z
1/2+x,1/2-y,z
loop_
_atom_site_type_symbol
_atom_site_label
_atom_site_fract_x
_atom_site_fract_y
_atom_site_fract_z
Si Si1 0.157967 0.678413 0.276126
Si Si2 0.856107 0.679314 0.463256
Si Si3 0.044669 0.320374 0.601385
Si Si4 0.025130 0.179654 0.836070
Si Si5 0.926957 0.179140 0.901780
Si Si6 0.739234 0.678617 0.618633
O O1 0.153133 0.500000 0.266750
O O2 0.145804 0.721246 0.402282
O O3 0.121096 0.752962 0.171374
O O4 0.213399 0.715261 0.284447
O O5 0.850697 0.500000 0.455396
O O6 0.906086 0.721230 0.433962
O O7 0.811561 0.754545 0.375956
O O8 0.043571 0.500000 0.609386
O O9 0.039912 0.251750 0.724750
O O10 0.000000 0.273696 0.500000
O O11 0.971625 0.222883 0.844899
O O12 0.026178 0.000000 0.827643
O O13 0.058731 0.222558 0.960943
O O14 0.924192 0.000000 0.897607
O O15 0.736435 0.500000 0.607588
O O16 0.750000 0.750000 0.500000
#
# Coordination Sequence:
#
# PCOD9191375 Si02
#       6
#     8   8   8   8   8   8
#     4   9  17  29  47  71  95 119 152 192 231 274
#     4   9  18  31  46  68  98 126 153 189 231 275
#     4  10  20  33  49  70  97 126 154 187 229 276
#     4   9  19  34  48  67  95 124 156 191 229 273
#     4   9  18  32  49  68  93 123 154 193 233 270
#     4   9  17  29  45  67  95 124 154 191 233 274
#
# _framework density 16.288637000000001
#
# number of rings (size 3 to 8) (size 9 to 14) (size 15 to 20)
#    0.000    2.833    0.000    3.500    0.000    7.000 
#    0.000    1.667    0.000    1.000    0.000    0.000 
#    0.000    0.000    0.000    0.000    0.000    0.000 
#
# Total GULP energy -133714.244481 kJ/mol
# GULP energy per Si atom -5571.426853 kJ/mol
# Density = 1.625156 g / cm^3
# Si number density = 16.288637 Si / 1000 Ang^3
#
#
#
# Elastic Constant Matrix: (Units=GPa)
#
#
# Indices 1 2 3 4 5 6 
#
# 1 152.8948 41.4138 78.1772 0.0000 26.5666 0.0000
# 2 41.4138 16.8060 26.9461 0.0000 10.0182 0.0000
# 3 78.1772 26.9461 89.3228 0.0000 18.9116 0.0000
# 4 0.0000 0.0000 0.0000 29.6664 0.0000 2.6861
# 5 26.5666 10.0182 18.9116 0.0000 33.5826 0.0000
# 6 0.0000 0.0000 0.0000 2.6861 0.0000 26.1998
#
#
#
# Elastic Compliance Matrix: (Units=1/GPa)
#
#
# Indices 1 2 3 4 5 6 
#
# 1 0.020926 -0.042563 -0.005289 0.000000 -0.000879 0.000000
# 2 -0.042563 0.210822 -0.022889 0.000000 -0.016331 0.000000
# 3 -0.005289 -0.022889 0.023159 0.000000 -0.002030 0.000000
# 4 0.000000 0.000000 0.000000 0.034024 0.000000 -0.003488
# 5 -0.000879 -0.016331 -0.002030 0.000000 0.036487 0.000000
# 6 0.000000 0.000000 0.000000 -0.003488 0.000000 0.038526
#
#
# Mechanical properties :
#
#
# Convention : Reuss Voigt Hill
#
# Bulk Modulus (GPa) = 8.81642 61.34420 35.08031
# Shear Modulus (GPa) = 9.20410 25.38886 17.29648
#
# Velocity S-wave (km/s) = 2.37968 3.95230 3.26218
# Velocity P-wave (km/s) = 3.60207 7.65311 5.98101
#
# Compressibility (1/GPa) = 0.11342469
#
# Stress axis : x y z
#
# Youngs Moduli (GPa) = 47.78669 4.74333 43.17940
#
# Poissons Ratio (x) = 0.20189 0.22838
# Poissons Ratio (y) = 2.03395 0.98835
# Poissons Ratio (z) = 0.25274 0.10857
#
# Static dielectric constant tensor:
#      x y z
#    x 1.566990 0.000000 0.014010 
#    y 0.000000 1.545840 0.000000 
#    z 0.014010 0.000000 1.527260 
# 
# From -- ./inp_files/179157.got.cif
#   From: 2010.05.17/outbox.cif.g08.bks.cpg/sg12_90_cif.got.tgz:179157.got - 2010.06.03 13:09:07.
