data_PCOD9191502
_publ_section_title
;
Structure prediction by ZEFSAII (Michael W. Deem and Ramdas Pophale) SiO2 
 PCOD9191502
Probable space group: C 2/M
;
_chemical_formula_sum "Si O2"
_cell_formula_units_Z 44
_cell_length_a 10.627068
_cell_length_b 28.325471
_cell_length_c 10.462075
_cell_angle_alpha 90.000000
_cell_angle_beta 131.262526
_cell_angle_gamma 90.000000
_cell_volume 2367.284540
_symmetry_space_group_name_H-M "C 2/M"
_symmetry_group_IT_number 12
_symmetry_cell_setting 'monoclinic'
loop_
_space_group_symop_operation_xyz
x,y,z
-x,y,-z
-x,-y,-z
x,-y,z
1/2+x,1/2+y,z
1/2-x,1/2+y,-z
1/2-x,1/2-y,-z
1/2+x,1/2-y,z
loop_
_atom_site_type_symbol
_atom_site_label
_atom_site_fract_x
_atom_site_fract_y
_atom_site_fract_z
Si Si1 0.917037 0.697264 0.676241
Si Si2 0.605799 0.947038 0.203533
Si Si3 0.430674 0.694077 0.695475
Si Si4 0.500000 0.637989 0.000000
Si Si5 0.270174 0.356451 0.227943
Si Si6 0.157131 0.382199 0.865650
O O1 0.762316 0.693124 0.475386
O O2 0.978877 0.750801 0.726164
O O3 0.838477 0.679165 0.758309
O O4 0.064683 0.661825 0.738668
O O5 0.749714 0.907673 0.281151
O O6 0.472582 0.925171 0.213587
O O7 0.661855 0.000000 0.271116
O O8 0.500000 0.949046 0.000000
O O9 0.547242 0.664865 0.675493
O O10 0.460966 0.670814 0.852614
O O11 0.664820 0.608098 0.077783
O O12 0.192647 0.364639 0.034945
#
# Coordination Sequence:
#
# PCOD9191502 Si02
#       6
#     8   8   8   4   8   8
#     4  10  20  33  50  72  98 140 176 212 248 294
#     4   8  14  29  55  80 100 128 167 213 260 303
#     4  10  22  32  49  73 103 139 175 209 251 298
#     4  10  22  34  47  72 104 138 171 206 256 304
#     4   9  18  33  51  76 104 130 168 220 252 297
#     4   9  19  33  51  74 104 134 171 207 256 303
#
# _framework density 18.586696
#
# number of rings (size 3 to 8) (size 9 to 14) (size 15 to 20)
#    0.000    2.727    0.000    2.182    5.091    2.182 
#    0.000    0.455    0.000    9.818    0.000    5.091 
#    0.000    0.000    0.000    0.000    0.000    0.000 
#
# Total GULP energy -122636.444483 kJ/mol
# GULP energy per Si atom -5574.383840 kJ/mol
# Density = 1.854439 g / cm^3
# Si number density = 18.586696 Si / 1000 Ang^3
#
#
#
# Elastic Constant Matrix: (Units=GPa)
#
#
# Indices 1 2 3 4 5 6 
#
# 1 101.0680 48.6024 17.2812 0.0000 9.1608 0.0000
# 2 48.6024 137.7395 15.4208 0.0000 9.3925 0.0000
# 3 17.2812 15.4208 21.0480 0.0000 -2.0380 0.0000
# 4 0.0000 0.0000 0.0000 -17.5314 0.0000 11.3729
# 5 9.1608 9.3925 -2.0380 0.0000 16.9918 0.0000
# 6 0.0000 0.0000 0.0000 11.3729 0.0000 7.1242
#
#
#
# Elastic Compliance Matrix: (Units=1/GPa)
#
#
# Indices 1 2 3 4 5 6 
#
# 1 0.013720 -0.003323 -0.009478 0.000000 -0.006697 0.000000
# 2 -0.003323 0.009181 -0.004367 0.000000 -0.003807 0.000000
# 3 -0.009478 -0.004367 0.059916 0.000000 0.014710 0.000000
# 4 0.000000 0.000000 0.000000 -0.028022 0.000000 0.044733
# 5 -0.006697 -0.003807 0.014710 0.000000 0.066331 0.000000
# 6 0.000000 0.000000 0.000000 0.044733 0.000000 0.068956
#
#
# Mechanical properties :
#
#
# Convention : Reuss Voigt Hill
#
# Bulk Modulus (GPa) = 20.62674 46.94049 33.78362
# Shear Modulus (GPa) = 20.78308 13.22032 17.00170
#
# Velocity S-wave (km/s) = 3.34753 2.66987 3.02772
# Velocity P-wave (km/s) = 5.10519 5.90034 5.51711
#
# Compressibility (1/GPa) = 0.04848076
#
# Stress axis : x y z
#
# Youngs Moduli (GPa) = 72.88529 108.91754 16.69003
#
# Poissons Ratio (x) = 0.36198 0.15819
# Poissons Ratio (y) = 0.24223 0.07288
# Poissons Ratio (z) = 0.69083 0.47560
#
# Static dielectric constant tensor:
#      x y z
#    x 1.670210 0.000000 0.005570 
#    y 0.000000 1.627560 0.000000 
#    z 0.005570 0.000000 1.657550 
# 
# From -- ./inp_files/137492.got.cif
#   From: 2010.05.17/outbox.cif.g08.bks.cpg/sg12_69_cif.got.tgz:137492.got - 2010.06.03 13:09:07.
