data_PCOD9191142
_publ_section_title
;
Structure prediction by ZEFSAII (Michael W. Deem and Ramdas Pophale) SiO2 
 PCOD9191142
Probable space group: C 2/M
;
_chemical_formula_sum "Si O2"
_cell_formula_units_Z 58
_cell_length_a 28.125488
_cell_length_b 7.386791
_cell_length_c 12.923762
_cell_angle_alpha 90.000000
_cell_angle_beta 89.421059
_cell_angle_gamma 90.000000
_cell_volume 2684.866268
_symmetry_space_group_name_H-M "C 2/M"
_symmetry_group_IT_number 12
_symmetry_cell_setting 'monoclinic'
loop_
_space_group_symop_operation_xyz
x,y,z
-x,y,-z
-x,-y,-z
x,-y,z
1/2+x,1/2+y,z
1/2-x,1/2+y,-z
1/2-x,1/2-y,-z
1/2+x,1/2-y,z
loop_
_atom_site_type_symbol
_atom_site_label
_atom_site_fract_x
_atom_site_fract_y
_atom_site_fract_z
Si Si1 0.000000 0.500000 0.500000
Si Si2 0.226346 0.784842 0.110037
Si Si3 0.020022 0.779621 0.109561
Si Si4 0.738384 0.292637 0.668657
Si Si5 0.123456 0.211438 0.162875
Si Si6 0.842639 0.282142 0.611169
Si Si7 0.636060 0.707551 0.617728
Si Si8 0.031108 0.221134 0.674923
O O1 0.004101 0.339903 0.590230
O O2 0.254144 0.708034 0.208079
O O3 0.172396 0.712662 0.115567
O O4 0.224784 0.000000 0.127763
O O5 0.250000 0.750000 0.000000
O O6 0.073617 0.712403 0.127248
O O7 0.988630 0.736908 0.210625
O O8 0.021379 0.000000 0.106344
O O9 0.000000 0.718048 0.000000
O O10 0.736897 0.500000 0.630690
O O11 0.787701 0.215968 0.621389
O O12 0.687472 0.208079 0.643185
O O13 0.129890 0.225868 0.286277
O O14 0.122827 0.000000 0.134764
O O15 0.841958 0.500000 0.609371
O O16 0.866715 0.215895 0.506314
O O17 0.638787 0.500000 0.653828
O O18 0.586732 0.776971 0.663866
O O19 0.027462 0.000000 0.658380
#
# Coordination Sequence:
#
# PCOD9191142 Si02
#       8
#     2   8   8   8   8   8   8   8
#     4  12  26  44  66  90 136 164 210 266 320 374
#     4  10  20  34  54  81 110 145 187 235 291 350
#     4   9  19  39  65  88 115 154 208 263 312 370
#     4   9  19  36  54  79 114 152 191 239 290 353
#     4   9  19  35  57  81 107 146 193 239 293 358
#     4  10  20  32  54  83 116 153 195 240 293 356
#     4  10  21  36  56  83 118 156 194 238 298 365
#     4  10  24  42  65  96 125 165 212 261 322 377
#
# _framework density 21.602567000000001
#
# number of rings (size 3 to 8) (size 9 to 14) (size 15 to 20)
#    0.000    2.345    0.000    1.448    2.897    2.759 
#    0.000    4.483    0.000    0.000    0.000    0.000 
#    0.000    0.000    0.000    0.000    0.000    0.000 
#
# Total GULP energy -161638.171988 kJ/mol
# GULP energy per Si atom -5573.730069 kJ/mol
# Density = 2.155340 g / cm^3
# Si number density = 21.602567 Si / 1000 Ang^3
#
#
#
# Elastic Constant Matrix: (Units=GPa)
#
#
# Indices 1 2 3 4 5 6 
#
# 1 123.1197 3.7290 105.6266 0.0000 -0.1631 0.0000
# 2 3.7290 92.9666 3.7538 0.0000 3.2842 0.0000
# 3 105.6266 3.7538 149.2569 0.0000 -3.0696 0.0000
# 4 0.0000 0.0000 0.0000 10.9675 0.0000 3.8410
# 5 -0.1631 3.2842 -3.0696 0.0000 18.9189 0.0000
# 6 0.0000 0.0000 0.0000 3.8410 0.0000 -7.2486
#
#
#
# Elastic Compliance Matrix: (Units=1/GPa)
#
#
# Indices 1 2 3 4 5 6 
#
# 1 0.020768 -0.000161 -0.014738 0.000000 -0.002184 0.000000
# 2 -0.000161 0.010839 -0.000198 0.000000 -0.001915 0.000000
# 3 -0.014738 -0.000198 0.017190 0.000000 0.002696 0.000000
# 4 0.000000 0.000000 0.000000 0.076906 0.000000 0.040752
# 5 -0.002184 -0.001915 0.002696 0.000000 0.053608 0.000000
# 6 0.000000 0.000000 0.000000 0.040752 0.000000 -0.116364
#
#
# Mechanical properties :
#
#
# Convention : Reuss Voigt Hill
#
# Bulk Modulus (GPa) = 53.75527 65.72910 59.74219
# Shear Modulus (GPa) = 50.33021 21.34317 35.83669
#
# Velocity S-wave (km/s) = 4.83206 3.14664 4.07739
# Velocity P-wave (km/s) = 7.48796 6.61017 7.06272
#
# Compressibility (1/GPa) = 0.01860283
#
# Stress axis : x y z
#
# Youngs Moduli (GPa) = 48.14997 92.26236 58.17210
#
# Poissons Ratio (x) = 0.01483 0.85736
# Poissons Ratio (y) = 0.00774 0.01153
# Poissons Ratio (z) = 0.70965 0.01829
#
# Static dielectric constant tensor:
#      x y z
#    x 1.821300 0.000000 0.003320 
#    y 0.000000 1.869930 0.000000 
#    z 0.003320 0.000000 1.722430 
# 
# From -- ./inp_files/180960.got.cif
#   From: 2010.05.17/outbox.cif.g08.bks.cpg/sg12_91_cif.got.tgz:180960.got - 2010.06.03 13:09:07.
