data_PCOD9191489
_publ_section_title
;
Structure prediction by ZEFSAII (Michael W. Deem and Ramdas Pophale) SiO2 
 PCOD9191489
Probable space group: C 2/M
;
_chemical_formula_sum "Si O2"
_cell_formula_units_Z 64
_cell_length_a 11.627495
_cell_length_b 25.385300
_cell_length_c 23.228961
_cell_angle_alpha 90.000000
_cell_angle_beta 32.228490
_cell_angle_gamma 90.000000
_cell_volume 3656.515061
_symmetry_space_group_name_H-M "C 2/M"
_symmetry_group_IT_number 12
_symmetry_cell_setting 'monoclinic'
loop_
_space_group_symop_operation_xyz
x,y,z
-x,y,-z
-x,-y,-z
x,-y,z
1/2+x,1/2+y,z
1/2-x,1/2+y,-z
1/2-x,1/2-y,-z
1/2+x,1/2-y,z
loop_
_atom_site_type_symbol
_atom_site_label
_atom_site_fract_x
_atom_site_fract_y
_atom_site_fract_z
Si Si1 0.881483 0.563537 0.491886
Si Si2 0.045982 0.223984 0.120029
Si Si3 0.860199 0.560965 0.727603
Si Si4 0.753979 0.884832 0.110387
Si Si5 0.050077 0.438891 0.089296
Si Si6 0.445741 0.561838 0.732209
Si Si7 0.427122 0.602612 0.862652
Si Si8 0.784513 0.761173 0.122848
O O1 0.911147 0.500000 0.477755
O O2 0.628817 0.573755 0.607762
O O3 0.000000 0.582075 0.500000
O O4 0.992283 0.583146 0.386620
O O5 0.055882 0.160471 0.116528
O O6 0.082722 0.238155 0.172062
O O7 0.840877 0.242021 0.167402
O O8 0.250000 0.250000 0.000000
O O9 0.912854 0.500000 0.714255
O O10 0.870648 0.590881 0.782995
O O11 0.612866 0.567384 0.812470
O O12 0.630432 0.901070 0.105589
O O13 0.772265 0.822872 0.113055
O O14 0.000000 0.905527 0.000000
O O15 0.096060 0.500000 0.083803
O O16 0.796795 0.433509 0.186859
O O17 0.193955 0.422135 0.973878
O O18 0.479895 0.500000 0.735622
O O19 0.470698 0.599390 0.776474
O O20 0.000000 0.738647 0.000000
#
# Coordination Sequence:
#
# PCOD9191489 Si02
#       8
#     8   8   8   8   8   8   8   8
#     4   9  17  32  53  74 101 142 184 223 260 305
#     4  10  20  33  50  72 105 140 176 224 272 325
#     4  11  20  31  54  82 108 140 182 221 260 310
#     4  11  20  34  51  74 109 144 184 216 258 328
#     4  11  22  32  46  74 115 151 172 208 267 328
#     4  10  21  35  50  76 114 146 180 224 269 319
#     4  12  20  32  52  80 110 138 179 218 272 333
#     4   9  18  33  49  70 101 137 177 223 264 317
#
# _framework density 17.503005000000002
#
# number of rings (size 3 to 8) (size 9 to 14) (size 15 to 20)
#    0.000    1.625    3.750    3.375    0.000    5.500 
#    0.000    0.625    0.000    3.000    0.000    0.875 
#    7.500    0.000    0.000    0.000    0.000    0.000 
#
# Total GULP energy -178284.693737 kJ/mol
# GULP energy per Si atom -5571.396679 kJ/mol
# Density = 1.746317 g / cm^3
# Si number density = 17.503005 Si / 1000 Ang^3
#
#
#
# Elastic Constant Matrix: (Units=GPa)
#
#
# Indices 1 2 3 4 5 6 
#
# 1 82.3883 13.2342 8.3021 0.0002 4.6750 -0.0223
# 2 13.2342 23.8049 8.0854 -0.0066 2.5524 -0.0212
# 3 8.3021 8.0854 90.2712 -0.0707 10.9261 -0.2249
# 4 0.0002 -0.0066 -0.0707 13.1895 0.0085 28.6710
# 5 4.6750 2.5524 10.9261 0.0085 23.6323 0.0572
# 6 -0.0223 -0.0212 -0.2249 28.6710 0.0572 72.8205
#
#
#
# Elastic Compliance Matrix: (Units=1/GPa)
#
#
# Indices 1 2 3 4 5 6 
#
# 1 0.013421 -0.007147 -0.000388 -0.000066 -0.001704 0.000028
# 2 -0.007147 0.047341 -0.003321 0.000006 -0.002164 0.000001
# 3 -0.000388 -0.003321 0.012032 -0.000146 -0.005127 0.000098
# 4 -0.000066 0.000006 -0.000146 0.526027 0.000392 -0.207109
# 5 -0.001704 -0.002164 -0.005127 0.000392 0.045257 -0.000207
# 6 0.000028 0.000001 0.000098 -0.207109 -0.000207 0.095276
#
#
# Mechanical properties :
#
#
# Convention : Reuss Voigt Hill
#
# Bulk Modulus (GPa) = 19.57625 28.41199 23.99412
# Shear Modulus (GPa) = 6.42596 33.05131 19.73863
#
# Velocity S-wave (km/s) = 1.91815 4.35020 3.36181
# Velocity P-wave (km/s) = 4.01429 6.44206 5.36725
#
# Compressibility (1/GPa) = 0.05108230
#
# Stress axis : x y z
#
# Youngs Moduli (GPa) = 74.50749 21.12312 83.11444
#
# Poissons Ratio (x) = 0.15097 0.03224
# Poissons Ratio (y) = 0.53251 0.27603
# Poissons Ratio (z) = 0.02891 0.07015
#
# Static dielectric constant tensor:
#      x y z
#    x 1.646170 0.000000 0.020910 
#    y 0.000000 1.597730 0.000090 
#    z 0.020910 0.000090 1.881100 
# 
# From -- ./inp_files/337080.got.cif
#   From: 2010.05.17/outbox.cif.g08.bks.cpg/sg12_169_cif.got.tgz:337080.got - 2010.06.03 13:09:07.
