data_PCOD9191705
_publ_section_title
;
Structure prediction by ZEFSAII (Michael W. Deem and Ramdas Pophale) SiO2 
 PCOD9191705
Probable space group: C 2/M
;
_chemical_formula_sum "Si O2"
_cell_formula_units_Z 56
_cell_length_a 15.382169
_cell_length_b 13.212966
_cell_length_c 13.074484
_cell_angle_alpha 90.000000
_cell_angle_beta 88.893155
_cell_angle_gamma 90.000000
_cell_volume 2656.815596
_symmetry_space_group_name_H-M "C 2/M"
_symmetry_group_IT_number 12
_symmetry_cell_setting 'monoclinic'
loop_
_space_group_symop_operation_xyz
x,y,z
-x,y,-z
-x,-y,-z
x,-y,z
1/2+x,1/2+y,z
1/2-x,1/2+y,-z
1/2-x,1/2-y,-z
1/2+x,1/2-y,z
loop_
_atom_site_type_symbol
_atom_site_label
_atom_site_fract_x
_atom_site_fract_y
_atom_site_fract_z
Si Si1 0.399538 0.113660 0.036061
Si Si2 0.091352 0.793946 0.440048
Si Si3 0.792059 0.617268 0.229991
Si Si4 0.829984 0.809487 0.352219
Si Si5 0.351090 0.113408 0.693475
Si Si6 0.635367 0.734353 0.125133
Si Si7 0.991305 0.118027 0.751210
O O1 0.356245 0.210461 0.982789
O O2 0.366550 0.000000 0.006417
O O3 0.500000 0.117080 0.000000
O O4 0.378147 0.120514 0.156669
O O5 0.157687 0.824895 0.527067
O O6 0.112398 0.682941 0.397929
O O7 0.000000 0.794461 0.500000
O O8 0.078670 0.862160 0.339393
O O9 0.774838 0.500000 0.256536
O O10 0.803555 0.694383 0.323720
O O11 0.715097 0.664538 0.161219
O O12 0.752901 0.879710 0.314193
O O13 0.919240 0.834204 0.291349
O O14 0.373573 0.171262 0.796793
O O15 0.383278 0.000000 0.690617
O O16 0.548473 0.669748 0.147496
O O17 0.003218 0.000000 0.765467
#
# Coordination Sequence:
#
# PCOD9191705 Si02
#       7
#     8   8   8   8   8   8   8
#     4  10  20  35  57  82 107 140 177 214 263 316
#     4   9  20  35  51  76 105 137 177 218 261 312
#     4  10  21  36  56  80 106 141 179 216 264 315
#     4  10  20  35  53  78 107 136 177 221 260 309
#     4  10  20  33  51  75 104 138 173 214 264 311
#     4  10  20  36  55  78 108 137 174 220 260 310
#     4  10  20  35  56  79 105 140 178 217 264 315
#
# _framework density 21.077864000000002
#
# number of rings (size 3 to 8) (size 9 to 14) (size 15 to 20)
#    0.000    2.143    0.000    3.000    0.000    4.000 
#    0.000    7.143    0.000   10.286    0.000    0.000 
#    0.000    0.000    0.000    0.000    0.000    0.000 
#
# Total GULP energy -156285.622447 kJ/mol
# GULP energy per Si atom -5581.629373 kJ/mol
# Density = 2.102989 g / cm^3
# Si number density = 21.077864 Si / 1000 Ang^3
#
#
#
# Elastic Constant Matrix: (Units=GPa)
#
#
# Indices 1 2 3 4 5 6 
#
# 1 16.1640 -5.4534 -4.5947 0.0000 0.6953 0.0000
# 2 -5.4534 118.3951 7.2531 0.0000 9.9069 0.0000
# 3 -4.5947 7.2531 37.1364 0.0000 -7.3325 0.0000
# 4 0.0000 0.0000 0.0000 15.9530 0.0000 -5.0367
# 5 0.6953 9.9069 -7.3325 0.0000 24.5187 0.0000
# 6 0.0000 0.0000 0.0000 -5.0367 0.0000 19.9145
#
#
#
# Elastic Compliance Matrix: (Units=1/GPa)
#
#
# Indices 1 2 3 4 5 6 
#
# 1 0.064869 0.002592 0.007386 0.000000 -0.000678 0.000000
# 2 0.002592 0.009080 -0.002329 0.000000 -0.004439 0.000000
# 3 0.007386 -0.002329 0.030226 0.000000 0.009771 0.000000
# 4 0.000000 0.000000 0.000000 0.068124 0.000000 0.017230
# 5 -0.000678 -0.004439 0.009771 0.000000 0.045520 0.000000
# 6 0.000000 0.000000 0.000000 0.017230 0.000000 0.054572
#
#
# Mechanical properties :
#
#
# Convention : Reuss Voigt Hill
#
# Bulk Modulus (GPa) = 8.37018 18.45618 13.41318
# Shear Modulus (GPa) = 16.83973 23.70993 20.27483
#
# Velocity S-wave (km/s) = 2.82960 3.35755 3.10482
# Velocity P-wave (km/s) = 3.82821 4.87915 4.38528
#
# Compressibility (1/GPa) = 0.11947180
#
# Stress axis : x y z
#
# Youngs Moduli (GPa) = 15.41573 110.13458 33.08445
#
# Poissons Ratio (x) = -0.28549 -0.24435
# Poissons Ratio (y) = -0.03996 0.07706
# Poissons Ratio (z) = -0.11386 0.25651
#
# Static dielectric constant tensor:
#      x y z
#    x 1.800040 0.000000 0.021630 
#    y 0.000000 1.735950 0.000000 
#    z 0.021630 0.000000 1.775960 
# 
# From -- ./inp_files/213381.got.cif
#   From: 2010.05.17/outbox.cif.g08.bks.cpg/sg12_107_cif.got.tgz:213381.got - 2010.06.03 13:09:07.
