data_PCOD9191766
_publ_section_title
;
Structure prediction by ZEFSAII (Michael W. Deem and Ramdas Pophale) SiO2 
 PCOD9191766
Probable space group: C 2/M
;
_chemical_formula_sum "Si O2"
_cell_formula_units_Z 64
_cell_length_a 28.139449
_cell_length_b 14.653450
_cell_length_c 7.935103
_cell_angle_alpha 90.000000
_cell_angle_beta 69.553775
_cell_angle_gamma 90.000000
_cell_volume 3065.828453
_symmetry_space_group_name_H-M "C 2/M"
_symmetry_group_IT_number 12
_symmetry_cell_setting 'monoclinic'
loop_
_space_group_symop_operation_xyz
x,y,z
-x,y,-z
-x,-y,-z
x,-y,z
1/2+x,1/2+y,z
1/2-x,1/2+y,-z
1/2-x,1/2-y,-z
1/2+x,1/2-y,z
loop_
_atom_site_type_symbol
_atom_site_label
_atom_site_fract_x
_atom_site_fract_y
_atom_site_fract_z
Si Si1 0.750673 0.392993 0.137360
Si Si2 0.698404 0.731206 0.716492
Si Si3 0.276120 0.899478 0.713200
Si Si4 0.043661 0.745381 0.838943
Si Si5 0.111485 0.107376 0.961151
Si Si6 0.370174 0.812164 0.487402
Si Si7 0.032555 0.094938 0.627785
Si Si8 0.629362 0.640968 0.317180
O O1 0.761998 0.500000 0.158765
O O2 0.783838 0.321365 0.204332
O O3 0.689836 0.379630 0.243691
O O4 0.765052 0.375705 0.922556
O O5 0.748252 0.671498 0.626697
O O6 0.664380 0.752882 0.598331
O O7 0.665011 0.658732 0.864997
O O8 0.335307 0.893799 0.593310
O O9 0.255990 0.000000 0.708802
O O10 0.079891 0.678443 0.687991
O O11 0.018224 0.813180 0.737349
O O12 0.073862 0.821649 0.913922
O O13 0.000000 0.698608 0.000000
O O14 0.106403 0.108974 0.169023
O O15 0.110386 0.000000 0.909239
O O16 0.378103 0.748507 0.640327
O O17 0.092558 0.099867 0.506755
O O18 0.000000 0.092442 0.500000
O O19 0.022292 0.000000 0.735273
#
# Coordination Sequence:
#
# PCOD9191766 Si02
#       8
#     8   8   8   8   8   8   8   8
#     4  11  22  35  57  83 114 155 194 229 277 336
#     4  11  21  37  54  80 117 152 191 231 279 331
#     4  11  21  36  56  80 110 148 188 230 277 333
#     4  10  22  38  56  78 109 146 191 239 287 339
#     4  11  21  34  56  83 114 154 193 231 278 335
#     4  10  23  38  55  80 113 149 187 236 288 335
#     4  10  20  33  51  76 109 145 186 235 280 333
#     4  11  20  35  52  76 114 150 192 229 276 333
#
# _framework density 20.875271000000001
#
# number of rings (size 3 to 8) (size 9 to 14) (size 15 to 20)
#    0.000    1.375    2.500    4.125    0.000    2.500 
#    0.000    2.500    0.000    0.375    0.000    0.000 
#    0.000   25.000    0.000    0.000    0.000    0.500 
#
# Total GULP energy -178398.112372 kJ/mol
# GULP energy per Si atom -5574.941012 kJ/mol
# Density = 2.082776 g / cm^3
# Si number density = 20.875271 Si / 1000 Ang^3
#
#
#
# Elastic Constant Matrix: (Units=GPa)
#
#
# Indices 1 2 3 4 5 6 
#
# 1 60.8032 15.5514 18.9346 0.0000 -8.1648 0.0000
# 2 15.5514 46.8540 11.9585 0.0000 -0.0328 0.0000
# 3 18.9346 11.9585 92.5761 0.0000 -31.1010 0.0000
# 4 0.0000 0.0000 0.0000 -6.1058 0.0000 -0.2758
# 5 -8.1648 -0.0328 -31.1010 0.0000 44.7931 0.0000
# 6 0.0000 0.0000 0.0000 -0.2758 0.0000 7.3782
#
#
#
# Elastic Compliance Matrix: (Units=1/GPa)
#
#
# Indices 1 2 3 4 5 6 
#
# 1 0.018910 -0.005614 -0.002590 0.000000 0.001644 0.000000
# 2 -0.005614 0.023965 -0.002981 0.000000 -0.003075 0.000000
# 3 -0.002590 -0.002981 0.015073 0.000000 0.009992 0.000000
# 4 0.000000 0.000000 0.000000 -0.163502 0.000000 -0.006112
# 5 0.001644 -0.003075 0.009992 0.000000 0.029560 0.000000
# 6 0.000000 0.000000 0.000000 -0.006112 0.000000 0.135305
#
#
# Mechanical properties :
#
#
# Convention : Reuss Voigt Hill
#
# Bulk Modulus (GPa) = 28.10676 32.56915 30.33796
# Shear Modulus (GPa) = 53.45317 19.46569 36.45943
#
# Velocity S-wave (km/s) = 5.06572 3.05696 4.18369
# Velocity P-wave (km/s) = 6.90715 5.30053 6.15648
#
# Compressibility (1/GPa) = 0.03557863
#
# Stress axis : x y z
#
# Youngs Moduli (GPa) = 52.88268 41.72770 66.34243
#
# Poissons Ratio (x) = 0.23427 0.17182
# Poissons Ratio (y) = 0.29689 0.19773
# Poissons Ratio (z) = 0.13696 0.12437
#
# Static dielectric constant tensor:
#      x y z
#    x 1.805820 0.000000 -0.042470 
#    y 0.000000 1.746990 0.000000 
#    z -0.042470 0.000000 1.851960 
# 
# From -- ./inp_files/111633.got.cif
#   From: 2010.05.17/outbox.cif.g08.bks.cpg/sg12_56_cif.got.tgz:111633.got - 2010.06.03 13:09:07.
