data_PCOD9191572
_publ_section_title
;
Structure prediction by ZEFSAII (Michael W. Deem and Ramdas Pophale) SiO2 
 PCOD9191572
Probable space group: C 2/M
;
_chemical_formula_sum "Si O2"
_cell_formula_units_Z 64
_cell_length_a 19.240501
_cell_length_b 7.801790
_cell_length_c 21.831120
_cell_angle_alpha 90.000000
_cell_angle_beta 77.972014
_cell_angle_gamma 90.000000
_cell_volume 3205.131849
_symmetry_space_group_name_H-M "C 2/M"
_symmetry_group_IT_number 12
_symmetry_cell_setting 'monoclinic'
loop_
_space_group_symop_operation_xyz
x,y,z
-x,y,-z
-x,-y,-z
x,-y,z
1/2+x,1/2+y,z
1/2-x,1/2+y,-z
1/2-x,1/2-y,-z
1/2+x,1/2-y,z
loop_
_atom_site_type_symbol
_atom_site_label
_atom_site_fract_x
_atom_site_fract_y
_atom_site_fract_z
Si Si1 0.308983 0.794136 0.573351
Si Si2 0.096848 0.790069 0.801848
Si Si3 0.208419 0.698982 0.946829
Si Si4 0.372146 0.206601 0.689883
Si Si5 0.744293 0.792663 0.192622
Si Si6 0.465095 0.293588 0.316005
Si Si7 0.946467 0.198634 0.059366
Si Si8 0.348347 0.293342 0.433205
O O1 0.344001 0.729191 0.629323
O O2 0.352257 0.753128 0.503863
O O3 0.228308 0.730290 0.577468
O O4 0.304656 0.000000 0.578825
O O5 0.179745 0.741241 0.792148
O O6 0.061451 0.731538 0.745519
O O7 0.058198 0.728139 0.870997
O O8 0.095543 0.000000 0.802961
O O9 0.190144 0.500000 0.953262
O O10 0.254896 0.731335 0.877454
O O11 0.133936 0.795950 0.951140
O O12 0.250000 0.750000 0.000000
O O13 0.320483 0.268438 0.753685
O O14 0.453640 0.250248 0.686263
O O15 0.366287 0.000000 0.690111
O O16 0.743200 0.000000 0.191385
O O17 0.459063 0.500000 0.316013
O O18 0.412349 0.230301 0.379062
O O19 0.968246 0.000000 0.063016
O O20 0.000000 0.277541 0.000000
O O21 0.347299 0.500000 0.429852
#
# Coordination Sequence:
#
# PCOD9191572 Si02
#       8
#     8   8   8   8   8   8   8   8
#     4   9  18  34  55  76  99 131 171 211 254 305
#     4   8  15  31  54  74  95 130 173 211 249 300
#     4  11  22  36  55  80 110 142 178 219 263 311
#     4  10  21  35  52  76 105 135 167 209 261 312
#     4   9  18  36  58  76  98 133 177 218 257 306
#     4  10  20  33  50  74 104 137 172 210 255 309
#     4   9  18  34  56  81 108 139 176 217 264 318
#     4   9  18  33  53  75  98 130 174 217 253 296
#
# _framework density 19.967977000000001
#
# number of rings (size 3 to 8) (size 9 to 14) (size 15 to 20)
#    0.000    2.625    0.000    2.625    0.000    6.250 
#    0.000    6.250    0.000    6.000    0.000    0.000 
#    0.000    0.000    0.000    0.000    0.000    0.000 
#
# Total GULP energy -178566.708347 kJ/mol
# GULP energy per Si atom -5580.209636 kJ/mol
# Density = 1.992253 g / cm^3
# Si number density = 19.967977 Si / 1000 Ang^3
#
#
#
# Elastic Constant Matrix: (Units=GPa)
#
#
# Indices 1 2 3 4 5 6 
#
# 1 106.2899 -2.9588 119.8533 0.0000 -10.9275 0.0000
# 2 -2.9588 28.7941 1.3635 0.0000 -1.7154 0.0000
# 3 119.8533 1.3635 205.1820 0.0000 -10.4276 0.0000
# 4 0.0000 0.0000 0.0000 17.9740 0.0000 0.4512
# 5 -10.9275 -1.7154 -10.4276 0.0000 39.6960 0.0000
# 6 0.0000 0.0000 0.0000 0.4512 0.0000 22.1746
#
#
#
# Elastic Compliance Matrix: (Units=1/GPa)
#
#
# Indices 1 2 3 4 5 6 
#
# 1 0.028460 0.003923 -0.016464 0.000000 0.003679 0.000000
# 2 0.003923 0.035365 -0.002427 0.000000 0.001971 0.000000
# 3 -0.016464 -0.002427 0.014464 0.000000 -0.000837 0.000000
# 4 0.000000 0.000000 0.000000 0.055664 0.000000 -0.001133
# 5 0.003679 0.001971 -0.000837 0.000000 0.026069 0.000000
# 6 0.000000 0.000000 0.000000 -0.001133 0.000000 0.045120
#
#
# Mechanical properties :
#
#
# Convention : Reuss Voigt Hill
#
# Bulk Modulus (GPa) = 20.68024 64.08688 42.38356
# Shear Modulus (GPa) = 19.90489 30.76945 25.33717
#
# Velocity S-wave (km/s) = 3.16070 3.92974 3.56601
# Velocity P-wave (km/s) = 4.86819 7.26326 6.18281
#
# Compressibility (1/GPa) = 0.04835534
#
# Stress axis : x y z
#
# Youngs Moduli (GPa) = 35.13693 28.27674 69.13644
#
# Poissons Ratio (x) = -0.11094 1.13823
# Poissons Ratio (y) = -0.13785 0.16776
# Poissons Ratio (z) = 0.57848 0.06861
#
# Static dielectric constant tensor:
#      x y z
#    x 1.678290 0.000000 -0.008690 
#    y 0.000000 1.751910 0.000000 
#    z -0.008690 0.000000 1.707080 
# 
# From -- ./inp_files/319133.got.cif
#   From: 2010.05.17/outbox.cif.g08.bks.cpg/sg12_160_cif.got.tgz:319133.got - 2010.06.03 13:09:07.
