data_PCOD9191313
_publ_section_title
;
Structure prediction by ZEFSAII (Michael W. Deem and Ramdas Pophale) SiO2 
 PCOD9191313
Probable space group: C 2/M
;
_chemical_formula_sum "Si O2"
_cell_formula_units_Z 56
_cell_length_a 19.848295
_cell_length_b 7.377175
_cell_length_c 17.815076
_cell_angle_alpha 90.000000
_cell_angle_beta 94.545298
_cell_angle_gamma 90.000000
_cell_volume 2600.356903
_symmetry_space_group_name_H-M "C 2/M"
_symmetry_group_IT_number 12
_symmetry_cell_setting 'monoclinic'
loop_
_space_group_symop_operation_xyz
x,y,z
-x,y,-z
-x,-y,-z
x,-y,z
1/2+x,1/2+y,z
1/2-x,1/2+y,-z
1/2-x,1/2-y,-z
1/2+x,1/2-y,z
loop_
_atom_site_type_symbol
_atom_site_label
_atom_site_fract_x
_atom_site_fract_y
_atom_site_fract_z
Si Si1 0.841065 0.219030 0.625506
Si Si2 0.134965 0.221255 0.203876
Si Si3 0.075003 0.290036 0.514730
Si Si4 0.825494 0.284976 0.034907
Si Si5 0.211248 0.279544 0.807823
Si Si6 0.187909 0.721356 0.637628
Si Si7 0.445628 0.704745 0.939853
O O1 0.869479 0.274773 0.709568
O O2 0.885764 0.283667 0.560639
O O3 0.762347 0.276936 0.614843
O O4 0.841313 0.000000 0.623920
O O5 0.209879 0.276278 0.182833
O O6 0.077547 0.285830 0.141581
O O7 0.133984 0.000000 0.201371
O O8 0.065169 0.500000 0.536075
O O9 0.126637 0.212611 0.580972
O O10 0.000000 0.209944 0.500000
O O11 0.838382 0.500000 0.034509
O O12 0.827831 0.220457 0.121371
O O13 0.750000 0.250000 0.000000
O O14 0.877877 0.196911 0.983203
O O15 0.211572 0.500000 0.809014
O O16 0.183045 0.224352 0.724372
O O17 0.188381 0.500000 0.635794
O O18 0.470583 0.500000 0.926086
O O19 0.500000 0.793145 0.000000
#
# Coordination Sequence:
#
# PCOD9191313 Si02
#       7
#     8   8   8   8   8   8   8
#     4   9  17  31  55  75  89 123 171 209 236 283
#     4   8  14  29  51  73  95 125 167 204 244 297
#     4  10  20  33  48  71 104 132 154 192 250 304
#     4  11  20  32  54  79 104 135 174 215 255 301
#     4   8  14  27  50  74  94 124 167 207 241 291
#     4   8  15  30  52  73  93 126 168 200 237 295
#     4  10  20  35  53  73 103 141 175 211 257 306
#
# _framework density 21.535505000000001
#
# number of rings (size 3 to 8) (size 9 to 14) (size 15 to 20)
#    0.000    2.857    1.429    2.571    0.000    0.571 
#    2.571    0.714    0.000    1.714    0.000    0.000 
#    0.000    0.000    0.000    0.000    0.000    0.000 
#
# Total GULP energy -156249.696797 kJ/mol
# GULP energy per Si atom -5580.346314 kJ/mol
# Density = 2.148649 g / cm^3
# Si number density = 21.535505 Si / 1000 Ang^3
#
#
#
# Elastic Constant Matrix: (Units=GPa)
#
#
# Indices 1 2 3 4 5 6 
#
# 1 94.6197 -1.5158 71.4104 0.0000 32.8730 0.0000
# 2 -1.5158 80.1639 -1.9246 0.0000 5.8516 0.0000
# 3 71.4104 -1.9246 155.5752 0.0000 35.6362 0.0000
# 4 0.0000 0.0000 0.0000 8.5637 0.0000 -10.1620
# 5 32.8730 5.8516 35.6362 0.0000 42.1116 0.0000
# 6 0.0000 0.0000 0.0000 -10.1620 0.0000 -3.3042
#
#
#
# Elastic Compliance Matrix: (Units=1/GPa)
#
#
# Indices 1 2 3 4 5 6 
#
# 1 0.018645 0.000872 -0.006433 0.000000 -0.009232 0.000000
# 2 0.000872 0.012703 0.000393 0.000000 -0.002779 0.000000
# 3 -0.006433 0.000393 0.010231 0.000000 -0.003691 0.000000
# 4 0.000000 0.000000 0.000000 0.025115 0.000000 -0.077241
# 5 -0.009232 -0.002779 -0.003691 0.000000 0.034463 0.000000
# 6 0.000000 0.000000 0.000000 -0.077241 0.000000 -0.065093
#
#
# Mechanical properties :
#
#
# Convention : Reuss Voigt Hill
#
# Bulk Modulus (GPa) = 32.00588 51.81099 41.90844
# Shear Modulus (GPa) = 88.00825 26.96680 57.48753
#
# Velocity S-wave (km/s) = 6.39963 3.54249 5.17226
# Velocity P-wave (km/s) = 8.33674 6.39085 7.42779
#
# Compressibility (1/GPa) = 0.03124426
#
# Stress axis : x y z
#
# Youngs Moduli (GPa) = 53.63427 78.72024 97.74535
#
# Poissons Ratio (x) = -0.06864 0.62876
# Poissons Ratio (y) = -0.04677 -0.03845
# Poissons Ratio (z) = 0.34501 -0.03097
#
# Static dielectric constant tensor:
#      x y z
#    x 1.744820 0.000000 0.033300 
#    y 0.000000 1.820360 0.000000 
#    z 0.033300 0.000000 1.785920 
# 
# From -- ./inp_files/280431.got.cif
#   From: 2010.05.17/outbox.cif.g08.bks.cpg/sg12_141_cif.got.tgz:280431.got - 2010.06.03 13:09:07.
