data_PCOD9191225
_publ_section_title
;
Structure prediction by ZEFSAII (Michael W. Deem and Ramdas Pophale) SiO2 
 PCOD9191225
Probable space group: C 2/M
;
_chemical_formula_sum "Si O2"
_cell_formula_units_Z 38
_cell_length_a 18.114034
_cell_length_b 13.860289
_cell_length_c 11.144859
_cell_angle_alpha 90.000000
_cell_angle_beta 138.417019
_cell_angle_gamma 90.000000
_cell_volume 1857.105245
_symmetry_space_group_name_H-M "C 2/M"
_symmetry_group_IT_number 12
_symmetry_cell_setting 'monoclinic'
loop_
_space_group_symop_operation_xyz
x,y,z
-x,y,-z
-x,-y,-z
x,-y,z
1/2+x,1/2+y,z
1/2-x,1/2+y,-z
1/2-x,1/2-y,-z
1/2+x,1/2-y,z
loop_
_atom_site_type_symbol
_atom_site_label
_atom_site_fract_x
_atom_site_fract_y
_atom_site_fract_z
Si Si1 0.256348 0.500000 0.468769
Si Si2 0.173070 0.500000 0.623003
Si Si3 0.587800 0.209889 0.894153
Si Si4 0.577226 0.339910 0.417161
Si Si5 0.490626 0.000000 0.785787
Si Si6 0.000000 0.000000 0.500000
Si Si7 0.187809 0.293441 0.748497
O O1 0.258331 0.500000 0.615197
O O2 0.319326 0.406073 0.497464
O O3 0.124938 0.500000 0.279912
O O4 0.054881 0.500000 0.408023
O O5 0.189117 0.405262 0.718751
O O6 0.483595 0.283045 0.763851
O O7 0.554994 0.099892 0.883359
O O8 0.631336 0.215997 0.809597
O O9 0.689506 0.247934 0.096334
O O10 0.499509 0.415211 0.394534
O O11 0.620297 0.260736 0.563206
#
# Coordination Sequence:
#
# PCOD9191225 Si02
#       7
#     4   4   8   8   4   2   8
#     4   9  24  39  65  90 123 174 216 246 313 384
#     4  10  22  42  65  86 130 170 205 257 310 375
#     4  11  23  39  65  98 124 162 214 264 318 372
#     4  11  20  41  61  90 127 165 208 263 314 378
#     4  10  22  42  65  86 130 170 205 257 310 375
#     4  10  20  32  64  82 122 166 190 260 334 358
#     4  11  23  39  65  98 124 162 214 264 318 372
#
# _framework density 20.461953000000001
#
# number of rings (size 3 to 8) (size 9 to 14) (size 15 to 20)
#    0.632    0.842    4.211    0.632    0.000    7.579 
#    0.000    6.316    0.000    0.000    0.000    0.000 
#    0.000    0.000    0.000    0.000    0.000    0.000 
#
# Total GULP energy -105816.516753 kJ/mol
# GULP energy per Si atom -5569.290355 kJ/mol
# Density = 2.041538 g / cm^3
# Si number density = 20.461953 Si / 1000 Ang^3
#
#
#
# Elastic Constant Matrix: (Units=GPa)
#
#
# Indices 1 2 3 4 5 6 
#
# 1 23.0006 13.3432 -2.3817 0.0000 12.8150 0.0000
# 2 13.3432 178.3761 52.0424 0.0000 35.4457 0.0000
# 3 -2.3817 52.0424 58.1361 0.0000 17.8001 0.0000
# 4 0.0000 0.0000 0.0000 -99.4139 0.0000 -5.2014
# 5 12.8150 35.4457 17.8001 0.0000 19.6106 0.0000
# 6 0.0000 0.0000 0.0000 -5.2014 0.0000 17.1880
#
#
#
# Elastic Compliance Matrix: (Units=1/GPa)
#
#
# Indices 1 2 3 4 5 6 
#
# 1 0.101507 0.003084 0.032426 0.000000 -0.101338 0.000000
# 2 0.003084 0.009626 -0.003527 0.000000 -0.016213 0.000000
# 3 0.032426 -0.003527 0.036315 0.000000 -0.047777 0.000000
# 4 0.000000 0.000000 0.000000 -0.009902 0.000000 -0.002997
# 5 -0.101338 -0.016213 -0.047777 0.000000 0.189885 0.000000
# 6 0.000000 0.000000 0.000000 -0.002997 0.000000 0.057273
#
#
# Mechanical properties :
#
#
# Convention : Reuss Voigt Hill
#
# Bulk Modulus (GPa) = 4.73008 42.83563 23.78286
# Shear Modulus (GPa) = 12.78087 0.57753 6.67920
#
# Velocity S-wave (km/s) = 2.50194 0.53185 1.80867
# Velocity P-wave (km/s) = 3.26542 4.62135 4.00124
#
# Compressibility (1/GPa) = 0.21141282
#
# Stress axis : x y z
#
# Youngs Moduli (GPa) = 9.85156 103.88375 27.53691
#
# Poissons Ratio (x) = -0.32034 -0.89290
# Poissons Ratio (y) = -0.03038 0.09712
# Poissons Ratio (z) = -0.31944 0.36637
#
# Static dielectric constant tensor:
#      x y z
#    x 1.786700 0.000000 0.032280 
#    y 0.000000 1.686420 0.000000 
#    z 0.032280 0.000000 1.722300 
# 
# From -- ./inp_files/165921.got.cif
#   From: 2010.05.17/outbox.cif.g08.bks.cpg/sg12_83_cif.got.tgz:165921.got - 2010.06.03 13:09:07.
