data_PCOD9191441
_publ_section_title
;
Structure prediction by ZEFSAII (Michael W. Deem and Ramdas Pophale) SiO2 
 PCOD9191441
Probable space group: C 2/M
;
_chemical_formula_sum "Si O2"
_cell_formula_units_Z 64
_cell_length_a 9.056911
_cell_length_b 25.624469
_cell_length_c 29.550870
_cell_angle_alpha 90.000000
_cell_angle_beta 148.121486
_cell_angle_gamma 90.000000
_cell_volume 3621.911253
_symmetry_space_group_name_H-M "C 2/M"
_symmetry_group_IT_number 12
_symmetry_cell_setting 'monoclinic'
loop_
_space_group_symop_operation_xyz
x,y,z
-x,y,-z
-x,-y,-z
x,-y,z
1/2+x,1/2+y,z
1/2-x,1/2+y,-z
1/2-x,1/2-y,-z
1/2+x,1/2-y,z
loop_
_atom_site_type_symbol
_atom_site_label
_atom_site_fract_x
_atom_site_fract_y
_atom_site_fract_z
Si Si1 0.623627 0.289467 0.711384
Si Si2 0.925202 0.063422 0.078144
Si Si3 0.878295 0.805039 0.547183
Si Si4 0.350922 0.859555 0.373726
Si Si5 0.304825 0.062763 0.884041
Si Si6 0.910563 0.938184 0.270681
Si Si7 0.530423 0.873783 0.791811
Si Si8 0.514778 0.828941 0.319304
O O1 0.488734 0.300149 0.626925
O O2 0.392106 0.315678 0.683451
O O3 0.635237 0.227712 0.722057
O O4 0.917104 0.321076 0.787442
O O5 0.873057 0.077442 0.117690
O O6 0.174310 0.097998 0.122503
O O7 0.975219 0.000000 0.087907
O O8 0.629679 0.075474 0.977225
O O9 0.750000 0.750000 0.500000
O O10 0.627302 0.844886 0.473432
O O11 0.154687 0.817167 0.590581
O O12 0.422556 0.859635 0.339549
O O13 0.212498 0.912601 0.354417
O O14 0.198516 0.080289 0.807450
O O15 0.292630 0.000000 0.880343
O O16 0.705833 0.915069 0.255135
O O17 0.912940 0.000000 0.272425
O O18 0.528236 0.859710 0.738305
#
# Coordination Sequence:
#
# PCOD9191441 Si02
#       8
#     8   8   8   8   8   8   8   8
#     4  10  20  33  49  76 111 136 168 220 272 315
#     4   9  16  31  55  85 113 136 170 218 261 315
#     4  11  19  31  53  79 109 131 164 223 276 304
#     4  11  20  30  53  79 105 139 175 212 269 321
#     4   8  16  31  55  82 108 138 174 219 269 303
#     4  10  21  37  52  75 111 145 177 216 260 321
#     4  10  21  32  50  78 108 141 179 214 268 322
#     4  11  20  33  50  77 107 136 173 228 268 311
#
# _framework density 17.670228000000002
#
# number of rings (size 3 to 8) (size 9 to 14) (size 15 to 20)
#    0.000    2.000    2.500    3.375    0.000    0.500 
#    0.000    2.500    0.000   18.000    0.000   29.750 
#    0.000    0.000    0.000    0.000    0.000    0.000 
#
# Total GULP energy -178391.598497 kJ/mol
# GULP energy per Si atom -5574.737453 kJ/mol
# Density = 1.763001 g / cm^3
# Si number density = 17.670228 Si / 1000 Ang^3
#
#
#
# Elastic Constant Matrix: (Units=GPa)
#
#
# Indices 1 2 3 4 5 6 
#
# 1 84.1141 29.2457 23.6591 -0.0016 20.0843 0.0047
# 2 29.2457 76.2743 37.8925 0.0022 11.3633 -0.0005
# 3 23.6591 37.8925 58.7478 0.0078 20.7751 0.0108
# 4 -0.0016 0.0022 0.0078 30.3361 0.0031 7.4521
# 5 20.0843 11.3633 20.7751 0.0031 31.8514 -0.0024
# 6 0.0047 -0.0005 0.0108 7.4521 -0.0024 24.9240
#
#
#
# Elastic Compliance Matrix: (Units=1/GPa)
#
#
# Indices 1 2 3 4 5 6 
#
# 1 0.015468 -0.004479 -0.000593 0.000003 -0.007769 -0.000004
# 2 -0.004479 0.020653 -0.012882 -0.000001 0.003858 0.000007
# 3 -0.000593 -0.012882 0.030951 -0.000002 -0.015218 -0.000014
# 4 0.000003 -0.000001 -0.000002 0.035577 -0.000005 -0.010637
# 5 -0.007769 0.003858 -0.015218 -0.000005 0.044844 0.000014
# 6 -0.000004 0.000007 -0.000014 -0.010637 0.000014 0.043302
#
#
# Mechanical properties :
#
#
# Convention : Reuss Voigt Hill
#
# Bulk Modulus (GPa) = 32.08801 44.52563 38.30682
# Shear Modulus (GPa) = 21.08904 25.97824 23.53364
#
# Velocity S-wave (km/s) = 3.45842 3.83844 3.65338
# Velocity P-wave (km/s) = 5.84349 6.70057 6.28665
#
# Compressibility (1/GPa) = 0.03116429
#
# Stress axis : x y z
#
# Youngs Moduli (GPa) = 64.65135 48.42020 32.30893
#
# Poissons Ratio (x) = 0.21686 0.01917
# Poissons Ratio (y) = 0.28955 0.41619
# Poissons Ratio (z) = 0.03835 0.62373
#
# Static dielectric constant tensor:
#      x y z
#    x 1.663770 0.000000 -0.006070 
#    y 0.000000 1.618750 0.000000 
#    z -0.006070 0.000000 1.609560 
# 
# From -- ./inp_files/373300.got.cif
#   From: 2010.05.17/outbox.cif.g08.bks.cpg/sg12_187_cif.got.tgz:373300.got - 2010.06.03 13:09:07.
