data_PCOD9191642
_publ_section_title
;
Structure prediction by ZEFSAII (Michael W. Deem and Ramdas Pophale) SiO2 
 PCOD9191642
Probable space group: C 2/M
;
_chemical_formula_sum "Si O2"
_cell_formula_units_Z 58
_cell_length_a 20.548339
_cell_length_b 15.515938
_cell_length_c 27.787501
_cell_angle_alpha 90.000000
_cell_angle_beta 20.032567
_cell_angle_gamma 90.000000
_cell_volume 3034.824343
_symmetry_space_group_name_H-M "C 2/M"
_symmetry_group_IT_number 12
_symmetry_cell_setting 'monoclinic'
loop_
_space_group_symop_operation_xyz
x,y,z
-x,y,-z
-x,-y,-z
x,-y,z
1/2+x,1/2+y,z
1/2-x,1/2+y,-z
1/2-x,1/2-y,-z
1/2+x,1/2-y,z
loop_
_atom_site_type_symbol
_atom_site_label
_atom_site_fract_x
_atom_site_fract_y
_atom_site_fract_z
Si Si1 0.279979 0.732848 0.721802
Si Si2 0.625069 0.187387 0.730116
Si Si3 0.000000 0.500000 0.500000
Si Si4 0.433481 0.404789 0.101310
Si Si5 0.566486 0.398645 0.553988
Si Si6 0.122392 0.397475 0.582798
Si Si7 0.645676 0.160987 0.457844
Si Si8 0.658899 0.899279 0.138153
O O1 0.155422 0.690213 0.766125
O O2 0.179742 0.816126 0.814630
O O3 0.374957 0.657396 0.687141
O O4 0.466865 0.778149 0.570741
O O5 0.789111 0.130246 0.589403
O O6 0.667231 0.285091 0.684271
O O7 0.427872 0.153052 0.845866
O O8 0.119213 0.575018 0.446411
O O9 0.337678 0.500000 0.179109
O O10 0.500000 0.410646 0.000000
O O11 0.617779 0.396745 0.007161
O O12 0.528973 0.500000 0.575530
O O13 0.688623 0.382484 0.517288
O O14 0.099498 0.500000 0.591125
O O15 0.131961 0.354776 0.524479
O O16 0.949115 0.369546 0.737888
O O17 0.605401 0.000000 0.168872
#
# Coordination Sequence:
#
# PCOD9191642 Si02
#       8
#     8   8   2   8   8   8   8   8
#     4  11  22  33  52  80 109 140 176 219 270 318
#     4  10  20  33  50  80 110 136 174 217 270 324
#     4  12  20  32  48  72 116 152 168 208 264 354
#     4  10  22  38  57  80 104 137 182 228 272 319
#     4   9  19  35  54  83 111 138 179 221 267 319
#     4   9  17  30  53  76 103 138 173 219 261 314
#     4  11  20  31  49  77 110 144 174 207 270 333
#     4   9  19  36  54  76 101 134 178 224 267 304
#
# _framework density 19.111484999999998
#
# number of rings (size 3 to 8) (size 9 to 14) (size 15 to 20)
#    0.000    2.069    2.069    3.310    0.966    9.379 
#    0.000    0.000    0.000    0.414    1.793    0.000 
#    0.000    0.000    0.000    0.000    0.000    0.000 
#
# Total GULP energy -161440.925315 kJ/mol
# GULP energy per Si atom -5566.928459 kJ/mol
# Density = 1.906799 g / cm^3
# Si number density = 19.111485 Si / 1000 Ang^3
#
#
#
# Elastic Constant Matrix: (Units=GPa)
#
#
# Indices 1 2 3 4 5 6 
#
# 1 64.7894 46.3270 14.5258 0.0473 -5.3521 -0.3366
# 2 46.3270 120.6085 30.9678 -0.0056 -18.6475 0.0871
# 3 14.5258 30.9678 26.7187 -0.0869 -15.0965 0.3880
# 4 0.0473 -0.0056 -0.0869 20.4425 -0.0382 46.1303
# 5 -5.3521 -18.6475 -15.0965 -0.0382 17.9833 0.2389
# 6 -0.3366 0.0871 0.3880 46.1303 0.2389 -233.8494
#
#
#
# Elastic Compliance Matrix: (Units=1/GPa)
#
#
# Indices 1 2 3 4 5 6 
#
# 1 0.021976 -0.007753 -0.007242 0.000017 -0.007578 -0.000051
# 2 -0.007753 0.014559 -0.010336 -0.000016 0.004113 0.000001
# 3 -0.007242 -0.010336 0.087629 0.000012 0.060686 0.000216
# 4 0.000017 -0.000016 0.000012 0.033850 -0.000018 0.006677
# 5 -0.007578 0.004113 0.060686 -0.000018 0.108558 0.000220
# 6 -0.000051 0.000001 0.000216 0.006677 0.000220 -0.002958
#
#
# Mechanical properties :
#
#
# Convention : Reuss Voigt Hill
#
# Bulk Modulus (GPa) = 13.60495 43.97308 28.78902
# Shear Modulus (GPa) = 14.75904 -31.06498 -8.15297
#
# Velocity S-wave (km/s) = 2.78197 -4.03607 -2.06767
# Velocity P-wave (km/s) = 4.17772 1.15707 3.06530
#
# Compressibility (1/GPa) = 0.07350265
#
# Stress axis : x y z
#
# Youngs Moduli (GPa) = 45.50438 68.68553 11.41176
#
# Poissons Ratio (x) = 0.53254 0.08264
# Poissons Ratio (y) = 0.35281 0.11795
# Poissons Ratio (z) = 0.32953 0.70990
#
# Static dielectric constant tensor:
#      x y z
#    x 1.699190 0.000000 -0.008820 
#    y 0.000000 1.723850 0.000030 
#    z -0.008820 0.000030 1.734550 
# 
# From -- ./inp_files/284071.got.cif
#   From: 2010.05.17/outbox.cif.g08.bks.cpg/sg12_143_cif.got.tgz:284071.got - 2010.06.03 13:09:07.
