data_PCOD9191219
_publ_section_title
;
Structure prediction by ZEFSAII (Michael W. Deem and Ramdas Pophale) SiO2 
 PCOD9191219
Probable space group: C 2/M
;
_chemical_formula_sum "Si O2"
_cell_formula_units_Z 38
_cell_length_a 9.851513
_cell_length_b 27.312187
_cell_length_c 9.538717
_cell_angle_alpha 90.000000
_cell_angle_beta 131.455886
_cell_angle_gamma 90.000000
_cell_volume 1923.539558
_symmetry_space_group_name_H-M "C 2/M"
_symmetry_group_IT_number 12
_symmetry_cell_setting 'monoclinic'
loop_
_space_group_symop_operation_xyz
x,y,z
-x,y,-z
-x,-y,-z
x,-y,z
1/2+x,1/2+y,z
1/2-x,1/2+y,-z
1/2-x,1/2-y,-z
1/2+x,1/2-y,z
loop_
_atom_site_type_symbol
_atom_site_label
_atom_site_fract_x
_atom_site_fract_y
_atom_site_fract_z
Si Si1 0.659493 0.401022 0.501582
Si Si2 0.931557 0.588027 0.140986
Si Si3 0.683442 0.555651 0.213655
Si Si4 0.802144 0.213108 0.414314
Si Si5 0.500000 0.821947 0.000000
Si Si6 0.500000 0.000000 0.000000
O O1 0.500000 0.415189 0.500000
O O2 0.854507 0.419433 0.686096
O O3 0.637246 0.420611 0.330500
O O4 0.674272 0.342237 0.513026
O O5 0.886018 0.543165 0.007937
O O6 0.828278 0.584214 0.217242
O O7 0.906684 0.640011 0.046125
O O8 0.749907 0.500000 0.280732
O O9 0.500000 0.554289 0.000000
O O10 0.750000 0.250000 0.500000
O O11 0.000000 0.228810 0.500000
O O12 0.650727 0.208505 0.188081
#
# Coordination Sequence:
#
# PCOD9191219 Si02
#       6
#     8   8   8   8   4   2
#     4  10  24  42  63  89 125 168 210 261 320 385
#     4  10  21  38  63  84 129 165 211 258 314 367
#     4  11  25  38  58  93 130 165 218 266 309 372
#     4  10  23  43  67  95 126 164 213 263 326 393
#     4   9  22  41  66  96 130 166 211 264 321 384
#     4  10  20  32  62  88 112 170 214 248 310 364
#
# _framework density 19.755248999999999
#
# number of rings (size 3 to 8) (size 9 to 14) (size 15 to 20)
#    0.000    1.895    1.053    0.632   13.263    5.474 
#    1.895    0.000    0.000    0.000    0.000    0.000 
#    0.000    0.000    0.000    0.000    0.000    0.000 
#
# Total GULP energy -105835.390575 kJ/mol
# GULP energy per Si atom -5570.283714 kJ/mol
# Density = 1.971028 g / cm^3
# Si number density = 19.755249 Si / 1000 Ang^3
#
#
#
# Elastic Constant Matrix: (Units=GPa)
#
#
# Indices 1 2 3 4 5 6 
#
# 1 184.9129 60.0782 78.0841 0.0000 -19.7834 0.0000
# 2 60.0782 35.2843 55.8823 0.0000 -2.9451 0.0000
# 3 78.0841 55.8823 142.9869 0.0000 -13.9701 0.0000
# 4 0.0000 0.0000 0.0000 -44.6550 0.0000 -6.6142
# 5 -19.7834 -2.9451 -13.9701 0.0000 37.1564 0.0000
# 6 0.0000 0.0000 0.0000 -6.6142 0.0000 9.7954
#
#
#
# Elastic Compliance Matrix: (Units=1/GPa)
#
#
# Indices 1 2 3 4 5 6 
#
# 1 0.014616 -0.033505 0.005828 0.000000 0.007317 0.000000
# 2 -0.033505 0.152180 -0.043334 0.000000 -0.022070 0.000000
# 3 0.005828 -0.043334 0.021505 0.000000 0.007754 0.000000
# 4 0.000000 0.000000 0.000000 -0.020358 0.000000 -0.013746
# 5 0.007317 -0.022070 0.007754 0.000000 0.031975 0.000000
# 6 0.000000 0.000000 0.000000 -0.013746 0.000000 0.092807
#
#
# Mechanical properties :
#
#
# Convention : Reuss Voigt Hill
#
# Bulk Modulus (GPa) = 21.60918 83.47481 52.54199
# Shear Modulus (GPa) = 11.10684 11.73533 11.42108
#
# Velocity S-wave (km/s) = 2.37369 2.43993 2.40704
# Velocity P-wave (km/s) = 4.29823 7.09111 5.86339
#
# Compressibility (1/GPa) = 0.04627663
#
# Stress axis : x y z
#
# Youngs Moduli (GPa) = 68.41947 6.57117 46.50189
#
# Poissons Ratio (x) = 0.22017 -0.27101
# Poissons Ratio (y) = 2.29243 2.01513
# Poissons Ratio (z) = -0.39875 0.28476
#
# Static dielectric constant tensor:
#      x y z
#    x 1.649060 0.000000 -0.037790 
#    y 0.000000 1.670000 0.000000 
#    z -0.037790 0.000000 1.705710 
# 
# From -- ./inp_files/41927.got.cif
#   From: 2010.05.17/outbox.cif.g08.bks.cpg/sg12_21_cif.got.tgz:41927.got - 2010.06.03 13:09:07.
