data_PCOD9191991
_publ_section_title
;
Structure prediction by ZEFSAII (Michael W. Deem and Ramdas Pophale) SiO2 
 PCOD9191991
Probable space group: C 2/M
;
_chemical_formula_sum "Si O2"
_cell_formula_units_Z 56
_cell_length_a 18.197155
_cell_length_b 20.006914
_cell_length_c 9.994486
_cell_angle_alpha 90.000000
_cell_angle_beta 56.685335
_cell_angle_gamma 90.000000
_cell_volume 3040.725509
_symmetry_space_group_name_H-M "C 2/M"
_symmetry_group_IT_number 12
_symmetry_cell_setting 'monoclinic'
loop_
_space_group_symop_operation_xyz
x,y,z
-x,y,-z
-x,-y,-z
x,-y,z
1/2+x,1/2+y,z
1/2-x,1/2+y,-z
1/2-x,1/2-y,-z
1/2+x,1/2-y,z
loop_
_atom_site_type_symbol
_atom_site_label
_atom_site_fract_x
_atom_site_fract_y
_atom_site_fract_z
Si Si1 0.500001 0.423072 0.338815
Si Si2 0.605473 0.076154 0.248910
Si Si3 0.894529 0.423846 0.459851
Si Si4 0.654338 0.187888 0.692417
Si Si5 0.866500 0.807233 0.787607
Si Si6 0.845662 0.312112 0.001091
Si Si7 0.866500 0.192766 0.479390
O O1 0.500000 0.428730 0.500000
O O2 0.500001 0.500000 0.286933
O O3 0.584474 0.376145 0.221656
O O4 0.415527 0.376146 0.390602
O O5 0.636385 0.102895 0.363616
O O6 0.500001 0.074507 0.358911
O O7 0.636900 0.000000 0.204843
O O8 0.631218 0.120759 0.099515
O O9 0.863102 0.500000 0.478637
O O10 0.868785 0.379241 0.361946
O O11 0.624476 0.190209 0.875525
O O12 0.760752 0.189264 0.585842
O O13 0.614663 0.248341 0.644283
O O14 0.760752 0.810734 0.892653
O O15 0.893476 0.791583 0.606522
O O16 0.885338 0.748340 0.873604
#
# Coordination Sequence:
#
# PCOD9191991 Si02
#       7
#     8   8   8   8   8   8   8
#     4   9  18  34  57  81 102 133 182 227 259 306
#     4   9  19  35  53  74 102 138 177 213 255 314
#     4   9  19  35  53  74 102 138 177 213 255 314
#     4  10  20  33  52  79 109 138 172 219 268 312
#     4   9  19  35  54  77 105 139 177 216 261 315
#     4  10  20  33  52  79 109 138 172 219 268 312
#     4   9  19  35  54  77 105 139 177 216 261 315
#
# _framework density 18.416658000000002
#
# number of rings (size 3 to 8) (size 9 to 14) (size 15 to 20)
#    0.000    2.714    0.000    1.714    2.000    3.429 
#    0.000    4.286    0.000    1.714    0.000    0.000 
#    0.000    0.000    0.000    0.000    0.000    0.000 
#
# Total GULP energy -155955.969028 kJ/mol
# GULP energy per Si atom -5569.856037 kJ/mol
# Density = 1.837474 g / cm^3
# Si number density = 18.416658 Si / 1000 Ang^3
#
#
#
# Elastic Constant Matrix: (Units=GPa)
#
#
# Indices 1 2 3 4 5 6 
#
# 1 42.0207 42.1625 47.8116 0.0000 9.3699 0.0000
# 2 42.1625 125.5283 71.6343 0.0000 25.5339 0.0000
# 3 47.8116 71.6343 96.9534 0.0000 38.2190 0.0000
# 4 0.0000 0.0000 0.0000 15.1460 0.0000 -7.1052
# 5 9.3699 25.5339 38.2190 0.0000 27.4922 0.0000
# 6 0.0000 0.0000 0.0000 -7.1052 0.0000 23.3520
#
#
#
# Elastic Compliance Matrix: (Units=1/GPa)
#
#
# Indices 1 2 3 4 5 6 
#
# 1 0.091760 -0.006083 -0.067822 0.000000 0.068661 0.000000
# 2 -0.006083 0.014290 -0.006955 0.000000 -0.001530 0.000000
# 3 -0.067822 -0.006955 0.082392 0.000000 -0.084964 0.000000
# 4 0.000000 0.000000 0.000000 0.077017 0.000000 0.023434
# 5 0.068661 -0.001530 -0.084964 0.000000 0.132509 0.000000
# 6 0.000000 0.000000 0.000000 0.023434 0.000000 0.049953
#
#
# Mechanical properties :
#
#
# Convention : Reuss Voigt Hill
#
# Bulk Modulus (GPa) = 37.42423 65.30213 51.36318
# Shear Modulus (GPa) = 8.08343 20.05764 14.07054
#
# Velocity S-wave (km/s) = 2.09731 3.30374 2.76707
# Velocity P-wave (km/s) = 5.12152 7.07729 6.17730
#
# Compressibility (1/GPa) = 0.02672065
#
# Stress axis : x y z
#
# Youngs Moduli (GPa) = 10.89796 69.98008 12.13714
#
# Poissons Ratio (x) = 0.42572 0.82317
# Poissons Ratio (y) = 0.06630 0.08441
# Poissons Ratio (z) = 0.73912 0.48671
#
# Static dielectric constant tensor:
#      x y z
#    x 1.652100 0.000000 -0.008510 
#    y 0.000000 1.641230 0.000000 
#    z -0.008510 0.000000 1.642280 
# 
# From -- ./inp_files/77380.got.cif
#   From: 2010.05.17/outbox.cif.g08.bks.cpg/sg12_39_cif.got.tgz:77380.got - 2010.06.03 13:09:07.
