data_PCOD9191729
_publ_section_title
;
Structure prediction by ZEFSAII (Michael W. Deem and Ramdas Pophale) SiO2 
 PCOD9191729
Probable space group: C 2/M
;
_chemical_formula_sum "Si O2"
_cell_formula_units_Z 64
_cell_length_a 32.912961
_cell_length_b 8.836410
_cell_length_c 26.562833
_cell_angle_alpha 90.000000
_cell_angle_beta 151.290716
_cell_angle_gamma 90.000000
_cell_volume 3710.984354
_symmetry_space_group_name_H-M "C 2/M"
_symmetry_group_IT_number 12
_symmetry_cell_setting 'monoclinic'
loop_
_space_group_symop_operation_xyz
x,y,z
-x,y,-z
-x,-y,-z
x,-y,z
1/2+x,1/2+y,z
1/2-x,1/2+y,-z
1/2-x,1/2-y,-z
1/2+x,1/2-y,z
loop_
_atom_site_type_symbol
_atom_site_label
_atom_site_fract_x
_atom_site_fract_y
_atom_site_fract_z
Si Si1 0.673331 0.681753 0.448253
Si Si2 0.425921 0.682439 0.956883
Si Si3 0.766156 0.319247 0.275291
Si Si4 0.489813 0.818105 0.232070
Si Si5 0.890274 0.682145 0.023584
Si Si6 0.143202 0.818993 0.530215
Si Si7 0.301419 0.317577 0.207968
Si Si8 0.048626 0.817462 0.703747
O O1 0.671716 0.500000 0.442250
O O2 0.750000 0.750000 0.500000
O O3 0.583703 0.748173 0.332675
O O4 0.679858 0.719768 0.514858
O O5 0.428663 0.500000 0.963023
O O6 0.332982 0.725943 0.835380
O O7 0.500000 0.732829 0.000000
O O8 0.433256 0.749131 0.020715
O O9 0.770417 0.500000 0.277922
O O10 0.809551 0.260421 0.372884
O O11 0.808882 0.251332 0.271652
O O12 0.436255 0.772232 0.124886
O O13 0.447504 0.758725 0.237448
O O14 0.495576 0.000000 0.239659
O O15 0.893813 0.500000 0.024141
O O16 0.791226 0.726363 0.913752
O O17 0.043467 0.780297 0.419374
O O18 0.149886 0.000000 0.543816
O O19 0.303620 0.500000 0.214484
O O20 0.376015 0.271508 0.251405
O O21 0.051218 0.000000 0.713043
#
# Coordination Sequence:
#
# PCOD9191729 Si02
#       8
#     8   8   8   8   8   8   8   8
#     4  10  21  37  56  78 104 136 174 212 253 302
#     4   9  19  35  52  72  99 130 166 208 252 300
#     4  10  20  33  51  76 102 129 166 210 256 305
#     4  10  20  34  52  77 108 136 167 210 256 303
#     4   9  19  34  52  76 103 133 169 208 253 304
#     4   9  19  35  52  72 100 133 168 205 248 301
#     4   9  18  35  55  73 100 136 172 211 254 304
#     4   9  19  35  54  75  99 134 177 212 250 304
#
# _framework density 17.246098
#
# number of rings (size 3 to 8) (size 9 to 14) (size 15 to 20)
#    0.000    2.625    0.000    1.875    0.000    6.750 
#    0.000    5.000    0.000    0.000    0.000    0.000 
#    0.000    0.000    0.000    0.000    0.000    0.000 
#
# Total GULP energy -178505.095429 kJ/mol
# GULP energy per Si atom -5578.284232 kJ/mol
# Density = 1.720685 g / cm^3
# Si number density = 17.246098 Si / 1000 Ang^3
#
#
#
# Elastic Constant Matrix: (Units=GPa)
#
#
# Indices 1 2 3 4 5 6 
#
# 1 190.3324 51.1801 109.5091 0.0000 5.3395 0.0000
# 2 51.1801 28.3217 42.8256 0.0000 -5.9932 0.0000
# 3 109.5091 42.8256 117.9844 0.0000 -27.0670 0.0000
# 4 0.0000 0.0000 0.0000 27.0940 0.0000 -4.6250
# 5 5.3395 -5.9932 -27.0670 0.0000 29.9749 0.0000
# 6 0.0000 0.0000 0.0000 -4.6250 0.0000 33.1373
#
#
#
# Elastic Compliance Matrix: (Units=1/GPa)
#
#
# Indices 1 2 3 4 5 6 
#
# 1 0.021669 -0.011619 -0.021838 0.000000 -0.025902 0.000000
# 2 -0.011619 0.088472 -0.021185 0.000000 0.000629 0.000000
# 3 -0.021838 -0.021185 0.045854 0.000000 0.041060 0.000000
# 4 0.000000 0.000000 0.000000 0.037809 0.000000 0.005277
# 5 -0.025902 0.000629 0.041060 0.000000 0.075178 0.000000
# 6 0.000000 0.000000 0.000000 0.005277 0.000000 0.030914
#
#
# Mechanical properties :
#
#
# Convention : Reuss Voigt Hill
#
# Bulk Modulus (GPa) = 21.40747 82.62978 52.01862
# Shear Modulus (GPa) = 11.77163 26.91614 19.34388
#
# Velocity S-wave (km/s) = 2.61543 3.95487 3.35272
# Velocity P-wave (km/s) = 4.64333 8.29884 6.72426
#
# Compressibility (1/GPa) = 0.04671267
#
# Stress axis : x y z
#
# Youngs Moduli (GPa) = 46.14800 11.30301 21.80834
#
# Poissons Ratio (x) = 0.13133 0.47625
# Poissons Ratio (y) = 0.53618 0.46201
# Poissons Ratio (z) = 1.00777 0.23945
#
# Static dielectric constant tensor:
#      x y z
#    x 1.561400 0.000000 0.010220 
#    y 0.000000 1.578840 0.000000 
#    z 0.010220 0.000000 1.569810 
# 
# From -- ./inp_files/353522.got.cif
#   From: 2010.05.17/outbox.cif.g08.bks.cpg/sg12_177_cif.got.tgz:353522.got - 2010.06.03 13:09:07.
