data_PCOD9191886
_publ_section_title
;
Structure prediction by ZEFSAII (Michael W. Deem and Ramdas Pophale) SiO2 
 PCOD9191886
Probable space group: C 2/M
;
_chemical_formula_sum "Si O2"
_cell_formula_units_Z 40
_cell_length_a 14.579391
_cell_length_b 35.624108
_cell_length_c 5.005189
_cell_angle_alpha 90.000000
_cell_angle_beta 124.474429
_cell_angle_gamma 90.000000
_cell_volume 2143.042220
_symmetry_space_group_name_H-M "C 2/M"
_symmetry_group_IT_number 12
_symmetry_cell_setting 'monoclinic'
loop_
_space_group_symop_operation_xyz
x,y,z
-x,y,-z
-x,-y,-z
x,-y,z
1/2+x,1/2+y,z
1/2-x,1/2+y,-z
1/2-x,1/2-y,-z
1/2+x,1/2-y,z
loop_
_atom_site_type_symbol
_atom_site_label
_atom_site_fract_x
_atom_site_fract_y
_atom_site_fract_z
Si Si1 0.614280 0.319754 0.842821
Si Si2 0.754843 0.894500 0.989894
Si Si3 0.371596 0.133821 0.711059
Si Si4 0.422339 0.543260 0.111984
Si Si5 0.730756 0.706969 0.536214
O O1 0.500000 0.313717 0.500000
O O2 0.702090 0.297987 0.799604
O O3 0.648657 0.363241 0.884781
O O4 0.631876 0.306874 0.175176
O O5 0.657782 0.883020 0.624958
O O6 0.704584 0.888889 0.201350
O O7 0.813048 0.933049 0.002417
O O8 0.329550 0.177170 0.643495
O O9 0.500000 0.131460 0.000000
O O10 0.500000 0.543487 0.500000
O O11 0.393922 0.500000 0.997617
O O12 0.500000 0.558629 0.000000
O O13 0.750000 0.750000 0.500000
#
# Coordination Sequence:
#
# PCOD9191886 Si02
#       5
#     8   8   8   8   8
#     4  10  20  33  52  76 101 132 166 207 265 319
#     4  10  20  35  55  78 107 137 175 219 256 315
#     4  10  21  36  55  76 102 143 185 221 262 307
#     4  10  20  34  56  86 115 142 170 209 270 329
#     4  10  21  36  51  75 103 131 174 220 264 315
#
# _framework density 18.665053
#
# number of rings (size 3 to 8) (size 9 to 14) (size 15 to 20)
#    0.000    2.000    0.000    3.600    0.000    4.800 
#    0.000    0.000    0.000    3.600    0.000    0.000 
#    0.000    0.000    0.000    0.000    0.000    0.000 
#
# Total GULP energy -111570.226607 kJ/mol
# GULP energy per Si atom -5578.511330 kJ/mol
# Density = 1.862257 g / cm^3
# Si number density = 18.665053 Si / 1000 Ang^3
#
#
#
# Elastic Constant Matrix: (Units=GPa)
#
#
# Indices 1 2 3 4 5 6 
#
# 1 40.9071 23.8198 4.9229 0.0000 -7.1799 0.0000
# 2 23.8198 78.9913 -4.2991 0.0000 11.5904 0.0000
# 3 4.9229 -4.2991 52.4422 0.0000 -0.6329 0.0000
# 4 0.0000 0.0000 0.0000 -11.6732 0.0000 -0.0679
# 5 -7.1799 11.5904 -0.6329 0.0000 42.4865 0.0000
# 6 0.0000 0.0000 0.0000 -0.0679 0.0000 3.0354
#
#
#
# Elastic Compliance Matrix: (Units=1/GPa)
#
#
# Indices 1 2 3 4 5 6 
#
# 1 0.033124 -0.011475 -0.003946 0.000000 0.008669 0.000000
# 2 -0.011475 0.017220 0.002409 0.000000 -0.006601 0.000000
# 3 -0.003946 0.002409 0.019624 0.000000 -0.001032 0.000000
# 4 0.000000 0.000000 0.000000 -0.085655 0.000000 -0.001915
# 5 0.008669 -0.006601 -0.001032 0.000000 0.026787 0.000000
# 6 0.000000 0.000000 0.000000 -0.001915 0.000000 0.329400
#
#
# Mechanical properties :
#
#
# Convention : Reuss Voigt Hill
#
# Bulk Modulus (GPa) = 22.75603 24.58086 23.66845
# Shear Modulus (GPa) = 13.11745 16.62955 14.87350
#
# Velocity S-wave (km/s) = 2.65388 2.98811 2.82594
# Velocity P-wave (km/s) = 4.64855 5.01030 4.83281
#
# Compressibility (1/GPa) = 0.04394439
#
# Stress axis : x y z
#
# Youngs Moduli (GPa) = 30.18946 58.07304 50.95791
#
# Poissons Ratio (x) = 0.66641 0.20106
# Poissons Ratio (y) = 0.34644 -0.12277
# Poissons Ratio (z) = 0.11911 -0.13991
#
# Static dielectric constant tensor:
#      x y z
#    x 1.652470 0.000000 -0.004790 
#    y 0.000000 1.649240 0.000000 
#    z -0.004790 0.000000 1.635390 
# 
# From -- ./inp_files/8188.got.cif
#   From: 2010.05.17/outbox.cif.g08.bks.cpg/sg12_5_cif.got.tgz:8188.got - 2010.06.03 13:09:07.
