data_PCOD9191107
_publ_section_title
;
Structure prediction by ZEFSAII (Michael W. Deem and Ramdas Pophale) SiO2 
 PCOD9191107
Probable space group: C 2/M
;
_chemical_formula_sum "Si O2"
_cell_formula_units_Z 56
_cell_length_a 15.811385
_cell_length_b 10.685092
_cell_length_c 18.747254
_cell_angle_alpha 90.000000
_cell_angle_beta 52.261663
_cell_angle_gamma 90.000000
_cell_volume 2504.726384
_symmetry_space_group_name_H-M "C 2/M"
_symmetry_group_IT_number 12
_symmetry_cell_setting 'monoclinic'
loop_
_space_group_symop_operation_xyz
x,y,z
-x,y,-z
-x,-y,-z
x,-y,z
1/2+x,1/2+y,z
1/2-x,1/2+y,-z
1/2-x,1/2-y,-z
1/2+x,1/2-y,z
loop_
_atom_site_type_symbol
_atom_site_label
_atom_site_fract_x
_atom_site_fract_y
_atom_site_fract_z
Si Si1 0.422171 0.138112 0.750515
Si Si2 0.151009 0.255893 0.793556
Si Si3 0.187218 0.858559 0.927941
Si Si4 0.409575 0.356414 0.317355
Si Si5 0.056272 0.363938 0.048932
Si Si6 0.627723 0.722079 0.358553
Si Si7 0.387531 0.359464 0.483439
O O1 0.315088 0.146173 0.853108
O O2 0.497049 0.254015 0.729454
O O3 0.390693 0.158376 0.683101
O O4 0.469851 0.000000 0.734459
O O5 0.147861 0.176056 0.867960
O O6 0.262175 0.331771 0.730911
O O7 0.151712 0.167623 0.724299
O O8 0.044418 0.338504 0.848398
O O9 0.154741 0.000000 0.963730
O O10 0.137200 0.752038 0.003788
O O11 0.447063 0.500000 0.299749
O O12 0.347724 0.334871 0.423986
O O13 0.106293 0.500000 0.036597
O O14 0.000000 0.369229 0.000000
O O15 0.640066 0.732149 0.437496
O O16 0.517290 0.645404 0.408968
O O17 0.354813 0.500000 0.521674
#
# Coordination Sequence:
#
# PCOD9191107 Si02
#       7
#     8   8   8   8   8   8   8
#     4   9  19  36  56  80 108 139 180 225 267 313
#     4  10  20  32  53  81 109 141 177 219 268 319
#     4   9  18  35  59  81 103 138 182 224 264 313
#     4  10  21  36  54  79 112 146 178 217 268 322
#     4   9  19  33  50  79 113 139 172 221 269 315
#     4   9  17  32  55  79 104 139 182 222 263 311
#     4   9  18  34  55  79 109 143 181 224 266 316
#
# _framework density 22.357731999999999
#
# number of rings (size 3 to 8) (size 9 to 14) (size 15 to 20)
#    0.000    2.714    0.000    1.286    0.000    7.143 
#    0.000   13.571    0.000    3.429    0.000    0.000 
#    0.000    0.000    0.000    0.000    0.000    0.000 
#
# Total GULP energy -156067.367913 kJ/mol
# GULP energy per Si atom -5573.834568 kJ/mol
# Density = 2.230684 g / cm^3
# Si number density = 22.357732 Si / 1000 Ang^3
#
#
#
# Elastic Constant Matrix: (Units=GPa)
#
#
# Indices 1 2 3 4 5 6 
#
# 1 42.6679 30.3313 25.5627 0.0000 12.0660 0.0000
# 2 30.3313 150.3086 52.4452 0.0000 -21.1308 0.0000
# 3 25.5627 52.4452 99.8818 0.0000 1.1340 0.0000
# 4 0.0000 0.0000 0.0000 -26.9610 0.0000 52.8272
# 5 12.0660 -21.1308 1.1340 0.0000 39.9065 0.0000
# 6 0.0000 0.0000 0.0000 52.8272 0.0000 -46.3016
#
#
#
# Elastic Compliance Matrix: (Units=1/GPa)
#
#
# Indices 1 2 3 4 5 6 
#
# 1 0.036040 -0.007577 -0.005078 0.000000 -0.014765 0.000000
# 2 -0.007577 0.010607 -0.003721 0.000000 0.008013 0.000000
# 3 -0.005078 -0.003721 0.013275 0.000000 -0.000812 0.000000
# 4 0.000000 0.000000 0.000000 0.030020 0.000000 0.034251
# 5 -0.014765 0.008013 -0.000812 0.000000 0.033789 0.000000
# 6 0.000000 0.000000 0.000000 0.034251 0.000000 0.017480
#
#
# Mechanical properties :
#
#
# Convention : Reuss Voigt Hill
#
# Bulk Modulus (GPa) = 36.80502 56.61518 46.71010
# Shear Modulus (GPa) = 27.31968 5.63005 16.47486
#
# Velocity S-wave (km/s) = 3.49941 1.58859 2.71749
# Velocity P-wave (km/s) = 5.72935 5.36118 5.54832
#
# Compressibility (1/GPa) = 0.02717021
#
# Stress axis : x y z
#
# Youngs Moduli (GPa) = 27.74673 94.27945 75.33214
#
# Poissons Ratio (x) = 0.71432 0.38253
# Poissons Ratio (y) = 0.21023 0.28033
# Poissons Ratio (z) = 0.14089 0.35083
#
# Static dielectric constant tensor:
#      x y z
#    x 1.923050 0.000000 0.039280 
#    y 0.000000 1.779590 0.000000 
#    z 0.039280 0.000000 1.843140 
# 
# From -- ./inp_files/276943.got.cif
#   From: 2010.05.17/outbox.cif.g08.bks.cpg/sg12_139_cif.got.tgz:276943.got - 2010.06.03 13:09:07.
