data_PCOD9191351
_publ_section_title
;
Structure prediction by ZEFSAII (Michael W. Deem and Ramdas Pophale) SiO2 
 PCOD9191351
Probable space group: C 2/M
;
_chemical_formula_sum "Si O2"
_cell_formula_units_Z 48
_cell_length_a 23.238798
_cell_length_b 7.880884
_cell_length_c 24.822599
_cell_angle_alpha 90.000000
_cell_angle_beta 35.124350
_cell_angle_gamma 90.000000
_cell_volume 2615.592941
_symmetry_space_group_name_H-M "C 2/M"
_symmetry_group_IT_number 12
_symmetry_cell_setting 'monoclinic'
loop_
_space_group_symop_operation_xyz
x,y,z
-x,y,-z
-x,-y,-z
x,-y,z
1/2+x,1/2+y,z
1/2-x,1/2+y,-z
1/2-x,1/2-y,-z
1/2+x,1/2-y,z
loop_
_atom_site_type_symbol
_atom_site_label
_atom_site_fract_x
_atom_site_fract_y
_atom_site_fract_z
Si Si1 0.651353 0.294335 0.641501
Si Si2 0.584825 0.696373 0.982078
Si Si3 0.230520 0.201872 0.785212
Si Si4 0.546462 0.302997 0.409592
Si Si5 0.119820 0.299768 0.545591
Si Si6 0.426141 0.708503 0.184630
O O1 0.651543 0.500000 0.639675
O O2 0.767819 0.239170 0.554789
O O3 0.607658 0.230850 0.618566
O O4 0.593592 0.238499 0.739215
O O5 0.607628 0.500000 0.978297
O O6 0.680959 0.772855 0.878245
O O7 0.500000 0.695480 0.000000
O O8 0.527801 0.769217 0.077632
O O9 0.347331 0.227856 0.688447
O O10 0.166370 0.262696 0.782823
O O11 0.212307 0.000000 0.801299
O O12 0.500000 0.226858 0.500000
O O13 0.566912 0.500000 0.404598
O O14 0.464763 0.285268 0.425434
O O15 0.115421 0.500000 0.537894
O O16 0.427748 0.500000 0.183091
#
# Coordination Sequence:
#
# PCOD9191351 Si02
#       6
#     8   8   8   8   8   8
#     4   9  17  30  49  71  95 122 152 189 230 271
#     4   7  11  21  41  70  97 119 148 187 226 265
#     4   9  16  28  48  72  97 124 154 188 225 270
#     4  11  23  35  47  66  94 125 154 187 229 274
#     4  10  20  33  49  69  93 122 156 191 227 270
#     4   8  13  24  46  74  98 121 152 187 226 273
#
# _framework density 18.351479999999999
#
# number of rings (size 3 to 8) (size 9 to 14) (size 15 to 20)
#    0.000    3.000    0.000    4.000    0.000    3.333 
#    0.000    0.833    0.000    6.500    0.000    0.000 
#    0.000    0.000    0.000    0.000    0.000    0.000 
#
# Total GULP energy -133693.953889 kJ/mol
# GULP energy per Si atom -5570.581412 kJ/mol
# Density = 1.830971 g / cm^3
# Si number density = 18.351480 Si / 1000 Ang^3
#
#
#
# Elastic Constant Matrix: (Units=GPa)
#
#
# Indices 1 2 3 4 5 6 
#
# 1 66.0846 -6.8783 64.1970 -0.0003 12.9955 0.0003
# 2 -6.8783 14.8047 0.0996 -0.0016 1.7922 0.0020
# 3 64.1970 0.0996 158.4038 -0.0007 26.7871 0.0009
# 4 -0.0003 -0.0016 -0.0007 -25.6858 0.0002 52.8805
# 5 12.9955 1.7922 26.7871 0.0002 32.2678 -0.0002
# 6 0.0003 0.0020 0.0009 52.8805 -0.0002 -71.5273
#
#
#
# Elastic Compliance Matrix: (Units=1/GPa)
#
#
# Indices 1 2 3 4 5 6 
#
# 1 0.027387 0.013153 -0.010608 0.000000 -0.002954 0.000001
# 2 0.013153 0.074386 -0.004401 0.000001 -0.005776 0.000003
# 3 -0.010608 -0.004401 0.011460 0.000000 -0.004997 0.000000
# 4 0.000000 0.000001 0.000000 0.074576 0.000000 0.055135
# 5 -0.002954 -0.005776 -0.004997 0.000000 0.036649 0.000000
# 6 0.000001 0.000003 0.000000 0.055135 0.000000 0.026781
#
#
# Mechanical properties :
#
#
# Convention : Reuss Voigt Hill
#
# Bulk Modulus (GPa) = 9.13060 39.34773 24.23917
# Shear Modulus (GPa) = 17.15518 -0.86407 8.14555
#
# Velocity S-wave (km/s) = 3.06079 -0.68693 2.10909
# Velocity P-wave (km/s) = 4.18060 4.56712 4.37813
#
# Compressibility (1/GPa) = 0.10952184
#
# Stress axis : x y z
#
# Youngs Moduli (GPa) = 36.51356 13.44339 87.26109
#
# Poissons Ratio (x) = -0.17682 0.92566
# Poissons Ratio (y) = -0.48027 0.38402
# Poissons Ratio (z) = 0.38734 0.05916
#
# Static dielectric constant tensor:
#      x y z
#    x 1.592140 0.000000 0.037280 
#    y 0.000000 1.673630 0.000000 
#    z 0.037280 0.000000 1.675970 
# 
# From -- ./inp_files/172304.got.cif
#   From: 2010.05.17/outbox.cif.g08.bks.cpg/sg12_87_cif.got.tgz:172304.got - 2010.06.03 13:09:07.
