data_PCOD9191784
_publ_section_title
;
Structure prediction by ZEFSAII (Michael W. Deem and Ramdas Pophale) SiO2 
 PCOD9191784
Probable space group: C 2/M
;
_chemical_formula_sum "Si O2"
_cell_formula_units_Z 48
_cell_length_a 14.525842
_cell_length_b 8.406862
_cell_length_c 24.124401
_cell_angle_alpha 90.000000
_cell_angle_beta 54.760840
_cell_angle_gamma 90.000000
_cell_volume 2406.142288
_symmetry_space_group_name_H-M "C 2/M"
_symmetry_group_IT_number 12
_symmetry_cell_setting 'monoclinic'
loop_
_space_group_symop_operation_xyz
x,y,z
-x,y,-z
-x,-y,-z
x,-y,z
1/2+x,1/2+y,z
1/2-x,1/2+y,-z
1/2-x,1/2-y,-z
1/2+x,1/2-y,z
loop_
_atom_site_type_symbol
_atom_site_label
_atom_site_fract_x
_atom_site_fract_y
_atom_site_fract_z
Si Si1 0.145808 0.690123 0.107452
Si Si2 0.453443 0.307522 0.255957
Si Si3 0.524343 0.690186 0.626227
Si Si4 0.293939 0.187340 0.657057
Si Si5 0.872310 0.184859 0.519075
Si Si6 0.111731 0.307966 0.992612
O O1 0.147583 0.500000 0.106759
O O2 0.053591 0.748381 0.182838
O O3 0.114517 0.745476 0.055871
O O4 0.271792 0.751561 0.075135
O O5 0.456261 0.500000 0.256107
O O6 0.464488 0.248909 0.315437
O O7 0.328518 0.260194 0.279349
O O8 0.540608 0.500000 0.620997
O O9 0.398080 0.724594 0.648986
O O10 0.610615 0.751377 0.548934
O O11 0.300217 0.218752 0.588609
O O12 0.307668 0.000000 0.661813
O O13 0.000000 0.186180 0.500000
O O14 0.836255 0.000000 0.530733
O O15 0.111149 0.500000 0.992527
O O16 0.000000 0.251751 0.000000
#
# Coordination Sequence:
#
# PCOD9191784 Si02
#       6
#     8   8   8   8   8   8
#     4  10  21  36  56  84 112 136 172 218 254 296
#     4  10  22  38  53  73 108 147 175 208 262 319
#     4   9  19  36  54  71  98 141 183 215 260 322
#     4  10  20  33  51  77 105 134 174 225 273 310
#     4   8  15  30  51  72  97 133 177 221 264 315
#     4   9  19  38  62  84 108 141 174 204 250 310
#
# _framework density 19.948947
#
# number of rings (size 3 to 8) (size 9 to 14) (size 15 to 20)
#    0.000    2.667    0.000    2.000    0.000    8.000 
#    0.000    5.000    0.000    0.000    0.000    0.000 
#    0.000    0.000    0.000    0.000    0.000    0.000 
#
# Total GULP energy -133940.827941 kJ/mol
# GULP energy per Si atom -5580.867831 kJ/mol
# Density = 1.990354 g / cm^3
# Si number density = 19.948947 Si / 1000 Ang^3
#
#
#
# Elastic Constant Matrix: (Units=GPa)
#
#
# Indices 1 2 3 4 5 6 
#
# 1 71.5032 0.3237 34.3808 0.0000 -18.3609 0.0000
# 2 0.3237 4.1204 2.6636 0.0000 -1.6939 0.0000
# 3 34.3808 2.6636 113.4825 0.0000 -22.5406 0.0000
# 4 0.0000 0.0000 0.0000 28.9741 0.0000 0.5763
# 5 -18.3609 -1.6939 -22.5406 0.0000 24.1758 0.0000
# 6 0.0000 0.0000 0.0000 0.5763 0.0000 18.2111
#
#
#
# Elastic Compliance Matrix: (Units=1/GPa)
#
#
# Indices 1 2 3 4 5 6 
#
# 1 0.018520 0.005409 -0.003521 0.000000 0.011162 0.000000
# 2 0.005409 0.252267 -0.003968 0.000000 0.018084 0.000000
# 3 -0.003521 -0.003968 0.011519 0.000000 0.007787 0.000000
# 4 0.000000 0.000000 0.000000 0.034535 0.000000 -0.001093
# 5 0.011162 0.018084 0.007787 0.000000 0.058369 0.000000
# 6 0.000000 0.000000 0.000000 -0.001093 0.000000 0.054946
#
#
# Mechanical properties :
#
#
# Convention : Reuss Voigt Hill
#
# Bulk Modulus (GPa) = 3.59523 29.31582 16.45552
# Shear Modulus (GPa) = 9.48714 24.38806 16.93760
#
# Velocity S-wave (km/s) = 2.18312 3.50025 2.91700
# Velocity P-wave (km/s) = 2.85672 5.57342 4.42854
#
# Compressibility (1/GPa) = 0.27814634
#
# Stress axis : x y z
#
# Youngs Moduli (GPa) = 53.99580 3.96406 86.81665
#
# Poissons Ratio (x) = -0.02144 0.30566
# Poissons Ratio (y) = -0.29209 0.34449
# Poissons Ratio (z) = 0.19011 0.01573
#
# Static dielectric constant tensor:
#      x y z
#    x 1.740710 0.000000 0.011360 
#    y 0.000000 1.678570 0.000000 
#    z 0.011360 0.000000 1.693220 
# 
# From -- ./inp_files/267721.got.cif
#   From: 2010.05.17/outbox.cif.g08.bks.cpg/sg12_134_cif.got.tgz:267721.got - 2010.06.03 13:09:07.
