data_PCOD9191365
_publ_section_title
;
Structure prediction by ZEFSAII (Michael W. Deem and Ramdas Pophale) SiO2 
 PCOD9191365
Probable space group: C 2/M
;
_chemical_formula_sum "Si O2"
_cell_formula_units_Z 48
_cell_length_a 32.267333
_cell_length_b 7.623948
_cell_length_c 10.499325
_cell_angle_alpha 90.000000
_cell_angle_beta 108.740788
_cell_angle_gamma 90.000000
_cell_volume 2445.941171
_symmetry_space_group_name_H-M "C 2/M"
_symmetry_group_IT_number 12
_symmetry_cell_setting 'monoclinic'
loop_
_space_group_symop_operation_xyz
x,y,z
-x,y,-z
-x,-y,-z
x,-y,z
1/2+x,1/2+y,z
1/2-x,1/2+y,-z
1/2-x,1/2-y,-z
1/2+x,1/2-y,z
loop_
_atom_site_type_symbol
_atom_site_label
_atom_site_fract_x
_atom_site_fract_y
_atom_site_fract_z
Si Si1 0.702149 0.210872 0.802635
Si Si2 0.464847 0.215067 0.568908
Si Si3 0.801673 0.210598 0.912033
Si Si4 0.471028 0.795507 0.858803
Si Si5 0.129022 0.207963 0.226130
Si Si6 0.134819 0.288180 0.523652
O O1 0.752112 0.277709 0.841809
O O2 0.670035 0.276928 0.660660
O O3 0.703852 0.000000 0.792767
O O4 0.686145 0.250499 0.929824
O O5 0.500000 0.271821 0.500000
O O6 0.476855 0.277995 0.722646
O O7 0.414780 0.269725 0.493965
O O8 0.464694 0.000000 0.569833
O O9 0.836314 0.276536 0.842735
O O10 0.800020 0.000000 0.896999
O O11 0.419403 0.786115 0.836650
O O12 0.483691 0.000000 0.861485
O O13 0.500000 0.716231 0.000000
O O14 0.144049 0.239026 0.386384
O O15 0.124400 0.000000 0.203301
O O16 0.134836 0.500000 0.528651
#
# Coordination Sequence:
#
# PCOD9191365 Si02
#       6
#     8   8   8   8   8   8
#     4   9  18  33  52  72  95 126 166 209 247 286
#     4   8  14  26  44  66  91 116 145 188 239 282
#     4   9  19  34  49  70 100 130 162 201 245 293
#     4   9  18  32  50  71  94 122 160 203 240 279
#     4  10  20  33  49  70 100 134 162 194 242 297
#     4   9  18  32  50  72  96 124 163 206 243 285
#
# _framework density 19.624347
#
# number of rings (size 3 to 8) (size 9 to 14) (size 15 to 20)
#    0.000    3.000    0.000    1.500    0.000    4.333 
#    0.000    3.333    0.000    8.000    0.000    0.000 
#    0.000    0.000    0.000    0.000    0.000    0.000 
#
# Total GULP energy -133830.463207 kJ/mol
# GULP energy per Si atom -5576.269300 kJ/mol
# Density = 1.957968 g / cm^3
# Si number density = 19.624347 Si / 1000 Ang^3
#
#
#
# Elastic Constant Matrix: (Units=GPa)
#
#
# Indices 1 2 3 4 5 6 
#
# 1 115.0035 -9.4116 112.0645 0.0000 -26.2829 0.0000
# 2 -9.4116 36.6709 -8.2161 0.0000 1.9483 0.0000
# 3 112.0645 -8.2161 178.4239 0.0000 6.4776 0.0000
# 4 0.0000 0.0000 0.0000 14.5716 0.0000 -5.9509
# 5 -26.2829 1.9483 6.4776 0.0000 35.8236 0.0000
# 6 0.0000 0.0000 0.0000 -5.9509 0.0000 28.5032
#
#
#
# Elastic Compliance Matrix: (Units=1/GPa)
#
#
# Indices 1 2 3 4 5 6 
#
# 1 0.053815 0.003476 -0.035298 0.000000 0.045676 0.000000
# 2 0.003476 0.027887 -0.000943 0.000000 0.001204 0.000000
# 3 -0.035298 -0.000943 0.028859 0.000000 -0.031065 0.000000
# 4 0.000000 0.000000 0.000000 0.075024 0.000000 0.015664
# 5 0.045676 0.001204 -0.031065 0.000000 0.066978 0.000000
# 6 0.000000 0.000000 0.000000 0.015664 0.000000 0.038354
#
#
# Mechanical properties :
#
#
# Convention : Reuss Voigt Hill
#
# Bulk Modulus (GPa) = 22.20706 57.66354 39.93530
# Shear Modulus (GPa) = 13.46051 31.49044 22.47548
#
# Velocity S-wave (km/s) = 2.62183 4.01017 3.38788
# Velocity P-wave (km/s) = 4.52835 7.13368 5.97475
#
# Compressibility (1/GPa) = 0.04503072
#
# Stress axis : x y z
#
# Youngs Moduli (GPa) = 18.58212 35.85964 34.65092
#
# Poissons Ratio (x) = -0.12466 1.22312
# Poissons Ratio (y) = -0.06460 0.03268
# Poissons Ratio (z) = 0.65592 0.03382
#
# Static dielectric constant tensor:
#      x y z
#    x 1.672960 0.000000 0.006680 
#    y 0.000000 1.730360 0.000000 
#    z 0.006680 0.000000 1.676370 
# 
# From -- ./inp_files/102059.got.cif
#   From: 2010.05.17/outbox.cif.g08.bks.cpg/sg12_52_cif.got.tgz:102059.got - 2010.06.03 13:09:07.
