data_PCOD9191194
_publ_section_title
;
Structure prediction by ZEFSAII (Michael W. Deem and Ramdas Pophale) SiO2 
 PCOD9191194
Probable space group: C 2/M
;
_chemical_formula_sum "Si O2"
_cell_formula_units_Z 48
_cell_length_a 5.797297
_cell_length_b 23.713219
_cell_length_c 16.150273
_cell_angle_alpha 90.000000
_cell_angle_beta 91.079235
_cell_angle_gamma 90.000000
_cell_volume 2219.825732
_symmetry_space_group_name_H-M "C 2/M"
_symmetry_group_IT_number 12
_symmetry_cell_setting 'monoclinic'
loop_
_space_group_symop_operation_xyz
x,y,z
-x,y,-z
-x,-y,-z
x,-y,z
1/2+x,1/2+y,z
1/2-x,1/2+y,-z
1/2-x,1/2-y,-z
1/2+x,1/2-y,z
loop_
_atom_site_type_symbol
_atom_site_label
_atom_site_fract_x
_atom_site_fract_y
_atom_site_fract_z
Si Si1 0.751526 0.814167 0.030979
Si Si2 0.179563 0.173359 0.776328
Si Si3 0.834192 0.262530 0.370655
Si Si4 0.557318 0.880643 0.662902
Si Si5 0.194959 0.063781 0.561712
Si Si6 0.555250 0.439407 0.262492
O O1 0.762297 0.810577 0.130278
O O2 0.500000 0.838907 0.000000
O O3 0.750000 0.750000 0.000000
O O4 0.000000 0.838897 0.000000
O O5 0.127533 0.226725 0.715419
O O6 0.395057 0.145505 0.731520
O O7 0.002375 0.120251 0.780694
O O8 0.596955 0.238973 0.408905
O O9 0.780277 0.328582 0.359104
O O10 0.417799 0.900000 0.582152
O O11 0.685147 0.933223 0.703558
O O12 0.000000 0.087999 0.500000
O O13 0.087468 0.060202 0.652965
O O14 0.244445 0.000000 0.532951
O O15 0.516162 0.500000 0.219738
#
# Coordination Sequence:
#
# PCOD9191194 Si02
#       6
#     8   8   8   8   8   8
#     4  10  24  35  57  89 126 156 196 251 308 366
#     4  10  22  37  58  86 124 155 202 254 310 360
#     4  10  20  32  57  83 117 152 197 239 301 353
#     4  10  20  32  57  86 119 156 201 248 307 366
#     4   9  19  36  56  85 122 157 202 260 311 358
#     4  10  20  36  61  90 116 156 207 254 305 364
#
# _framework density 21.62332
#
# number of rings (size 3 to 8) (size 9 to 14) (size 15 to 20)
#    0.000    2.167    1.667    0.500   11.667    1.333 
#    0.000    2.500    0.000   10.000    0.000    0.000 
#    0.000    0.000    0.000    0.000    0.000    0.000 
#
# Total GULP energy -133655.224062 kJ/mol
# GULP energy per Si atom -5568.967669 kJ/mol
# Density = 2.157410 g / cm^3
# Si number density = 21.623320 Si / 1000 Ang^3
#
#
#
# Elastic Constant Matrix: (Units=GPa)
#
#
# Indices 1 2 3 4 5 6 
#
# 1 96.9290 11.0181 33.2814 0.0000 14.5330 0.0000
# 2 11.0181 111.5986 33.8361 0.0000 17.5166 0.0000
# 3 33.2814 33.8361 98.5212 0.0000 3.4736 0.0000
# 4 0.0000 0.0000 0.0000 13.3382 0.0000 3.8062
# 5 14.5330 17.5166 3.4736 0.0000 28.1499 0.0000
# 6 0.0000 0.0000 0.0000 3.8062 0.0000 -0.0435
#
#
#
# Elastic Compliance Matrix: (Units=1/GPa)
#
#
# Indices 1 2 3 4 5 6 
#
# 1 0.012726 0.001152 -0.004457 0.000000 -0.006737 0.000000
# 2 0.001152 0.011158 -0.003973 0.000000 -0.007048 0.000000
# 3 -0.004457 -0.003973 0.012908 0.000000 0.003181 0.000000
# 4 0.000000 0.000000 0.000000 0.002884 0.000000 0.252619
# 5 -0.006737 -0.007048 0.003181 0.000000 0.042996 0.000000
# 6 0.000000 0.000000 0.000000 0.252619 0.000000 -0.885250
#
#
# Mechanical properties :
#
#
# Convention : Reuss Voigt Hill
#
# Bulk Modulus (GPa) = 44.97044 51.48000 48.22522
# Shear Modulus (GPa) = -6.40525 23.54981 8.57228
#
# Velocity S-wave (km/s) = -1.72297 3.30372 1.99323
# Velocity P-wave (km/s) = 4.10904 6.19775 5.25815
#
# Compressibility (1/GPa) = 0.02223683
#
# Stress axis : x y z
#
# Youngs Moduli (GPa) = 78.57624 89.62449 77.47048
#
# Poissons Ratio (x) = -0.10329 0.34532
# Poissons Ratio (y) = -0.09056 0.30778
# Poissons Ratio (z) = 0.35025 0.35606
#
# Static dielectric constant tensor:
#      x y z
#    x 1.948900 0.000000 0.037890 
#    y 0.000000 1.799830 0.000000 
#    z 0.037890 0.000000 1.783520 
# 
# From -- ./inp_files/192064.got.cif
#   From: 2010.05.17/outbox.cif.g08.bks.cpg/sg12_97_cif.got.tgz:192064.got - 2010.06.03 13:09:07.
