data_PCOD9191096
_publ_section_title
;
Structure prediction by ZEFSAII (Michael W. Deem and Ramdas Pophale) SiO2 
 PCOD9191096
Probable space group: C 2/M
;
_chemical_formula_sum "Si O2"
_cell_formula_units_Z 56
_cell_length_a 32.607590
_cell_length_b 21.890865
_cell_length_c 13.156896
_cell_angle_alpha 90.000000
_cell_angle_beta 18.251652
_cell_angle_gamma 90.000000
_cell_volume 2941.335750
_symmetry_space_group_name_H-M "C 2/M"
_symmetry_group_IT_number 12
_symmetry_cell_setting 'monoclinic'
loop_
_space_group_symop_operation_xyz
x,y,z
-x,y,-z
-x,-y,-z
x,-y,z
1/2+x,1/2+y,z
1/2-x,1/2+y,-z
1/2-x,1/2-y,-z
1/2+x,1/2-y,z
loop_
_atom_site_type_symbol
_atom_site_label
_atom_site_fract_x
_atom_site_fract_y
_atom_site_fract_z
Si Si1 0.477030 0.855163 0.781344
Si Si2 0.536866 0.346319 0.693581
Si Si3 0.380251 0.842749 0.349720
Si Si4 0.807898 0.928288 0.319316
Si Si5 0.738646 0.571402 0.331575
Si Si6 0.407429 0.746138 0.619124
Si Si7 0.666843 0.255403 0.795173
O O1 0.569759 0.864880 0.659586
O O2 0.549521 0.811966 0.529773
O O3 0.393523 0.914995 0.952889
O O4 0.364001 0.809119 0.086193
O O5 0.663265 0.380283 0.438219
O O6 0.561394 0.311900 0.528660
O O7 0.424822 0.396958 0.980380
O O8 0.469800 0.288845 0.908944
O O9 0.321993 0.897032 0.418590
O O10 0.259607 0.795946 0.648963
O O11 0.500000 0.817183 0.000000
O O12 0.808905 0.918243 0.439144
O O13 0.809722 0.000000 0.298921
O O14 0.709918 0.500000 0.376364
O O15 0.500000 0.738361 0.500000
O O16 0.250000 0.750000 0.000000
O O17 0.750000 0.250000 0.500000
#
# Coordination Sequence:
#
# PCOD9191096 Si02
#       7
#     8   8   8   8   8   8   8
#     4  11  23  37  61  86 124 158 206 250 315 372
#     4  10  22  38  61  86 121 157 205 250 311 364
#     4  11  20  34  51  87 124 164 199 238 295 370
#     4  10  21  36  58  89 129 169 202 232 284 368
#     4  11  22  38  62  96 132 169 202 238 294 378
#     4  11  26  45  68  92 120 159 213 279 335 373
#     4  10  20  32  52  84 120 159 190 240 301 370
#
# _framework density 19.038969000000002
#
# number of rings (size 3 to 8) (size 9 to 14) (size 15 to 20)
#    0.000    1.429    2.857    2.571   10.000    2.000 
#    2.571    0.000    0.000    6.429    0.000    0.000 
#    0.000    0.000    0.000    0.000    0.000    0.000 
#
# Total GULP energy -155983.496788 kJ/mol
# GULP energy per Si atom -5570.839171 kJ/mol
# Density = 1.899564 g / cm^3
# Si number density = 19.038969 Si / 1000 Ang^3
#
#
#
# Elastic Constant Matrix: (Units=GPa)
#
#
# Indices 1 2 3 4 5 6 
#
# 1 116.7288 34.5738 35.9422 0.0001 -10.0495 0.0000
# 2 34.5738 79.2978 16.1883 0.0005 1.3433 -0.0001
# 3 35.9422 16.1883 84.3680 0.0017 4.1683 -0.0003
# 4 0.0001 0.0005 0.0017 26.1858 -0.0005 4.2917
# 5 -10.0495 1.3433 4.1683 -0.0005 26.6451 0.0000
# 6 0.0000 -0.0001 -0.0003 4.2917 0.0000 26.3899
#
#
#
# Elastic Compliance Matrix: (Units=1/GPa)
#
#
# Indices 1 2 3 4 5 6 
#
# 1 0.011642 -0.004267 -0.004403 0.000000 0.005295 0.000000
# 2 -0.004267 0.014691 -0.000892 0.000000 -0.002210 0.000000
# 3 -0.004403 -0.000892 0.014088 -0.000001 -0.003819 0.000000
# 4 0.000000 0.000000 -0.000001 0.039234 0.000001 -0.006381
# 5 0.005295 -0.002210 -0.003819 0.000001 0.040236 0.000000
# 6 0.000000 0.000000 0.000000 -0.006381 0.000000 0.038931
#
#
# Mechanical properties :
#
#
# Convention : Reuss Voigt Hill
#
# Bulk Modulus (GPa) = 46.95210 50.42258 48.68734
# Shear Modulus (GPa) = 27.02050 28.75684 27.88867
#
# Velocity S-wave (km/s) = 3.77134 3.89063 3.83145
# Velocity P-wave (km/s) = 6.60898 6.83550 6.72319
#
# Compressibility (1/GPa) = 0.02129830
#
# Stress axis : x y z
#
# Youngs Moduli (GPa) = 85.89481 68.07093 70.98112
#
# Poissons Ratio (x) = 0.29045 0.31250
# Poissons Ratio (y) = 0.36650 0.06330
# Poissons Ratio (z) = 0.37816 0.06071
#
# Static dielectric constant tensor:
#      x y z
#    x 1.709850 0.000000 -0.036600 
#    y 0.000000 1.676090 0.000000 
#    z -0.036600 0.000000 1.715960 
# 
# From -- ./inp_files/190386.got.cif
#   From: 2010.05.17/outbox.cif.g08.bks.cpg/sg12_96_cif.got.tgz:190386.got - 2010.06.03 13:09:07.
