data_PCOD9191674
_publ_section_title
;
Structure prediction by ZEFSAII (Michael W. Deem and Ramdas Pophale) SiO2 
 PCOD9191674
Probable space group: C 2/M
;
_chemical_formula_sum "Si O2"
_cell_formula_units_Z 56
_cell_length_a 16.385579
_cell_length_b 9.437552
_cell_length_c 20.834648
_cell_angle_alpha 90.000000
_cell_angle_beta 53.443207
_cell_angle_gamma 90.000000
_cell_volume 2588.017261
_symmetry_space_group_name_H-M "C 2/M"
_symmetry_group_IT_number 12
_symmetry_cell_setting 'monoclinic'
loop_
_space_group_symop_operation_xyz
x,y,z
-x,y,-z
-x,-y,-z
x,-y,z
1/2+x,1/2+y,z
1/2-x,1/2+y,-z
1/2-x,1/2-y,-z
1/2+x,1/2-y,z
loop_
_atom_site_type_symbol
_atom_site_label
_atom_site_fract_x
_atom_site_fract_y
_atom_site_fract_z
Si Si1 0.601011 0.334824 0.106484
Si Si2 0.612975 0.672149 0.959501
Si Si3 0.845828 0.666035 0.653734
Si Si4 0.894173 0.840736 0.259146
Si Si5 0.880023 0.338861 0.387404
Si Si6 0.179284 0.329219 0.192873
Si Si7 0.366040 0.337417 0.517839
O O1 0.629515 0.500000 0.102430
O O2 0.641218 0.284992 0.018982
O O3 0.477478 0.329942 0.164436
O O4 0.632994 0.243877 0.152296
O O5 0.608090 0.500000 0.962390
O O6 0.500000 0.726400 0.000000
O O7 0.701160 0.710191 0.868749
O O8 0.872893 0.500000 0.631547
O O9 0.722223 0.673851 0.707276
O O10 0.867882 0.711490 0.716396
O O11 0.885071 0.761504 0.576956
O O12 0.918047 0.732074 0.304547
O O13 0.903899 0.000000 0.282021
O O14 0.914030 0.500000 0.377728
O O15 0.756857 0.338368 0.436079
O O16 0.906229 0.252318 0.438963
O O17 0.171864 0.500000 0.192128
O O18 0.399813 0.500000 0.501285
#
# Coordination Sequence:
#
# PCOD9191674 Si02
#       7
#     8   8   8   8   8   8   8
#     4  10  20  33  51  74 101 133 166 203 247 294
#     4   9  17  32  55  79 100 127 168 210 244 285
#     4   9  17  30  48  70  96 128 168 209 246 288
#     4   9  17  30  48  70  96 128 168 209 246 288
#     4   9  16  26  43  69  99 129 161 201 249 296
#     4  10  20  33  51  74 101 133 166 203 247 294
#     4   9  16  26  43  69  99 129 161 201 249 296
#
# _framework density 21.638186000000001
#
# number of rings (size 3 to 8) (size 9 to 14) (size 15 to 20)
#    0.000    2.714    0.000    2.143    0.000    8.000 
#    0.000    0.000    0.000    4.286    0.000    6.000 
#    0.000    0.000    0.000    0.000    0.000    0.000 
#
# Total GULP energy -156389.061362 kJ/mol
# GULP energy per Si atom -5585.323620 kJ/mol
# Density = 2.158894 g / cm^3
# Si number density = 21.638186 Si / 1000 Ang^3
#
#
#
# Elastic Constant Matrix: (Units=GPa)
#
#
# Indices 1 2 3 4 5 6 
#
# 1 72.0656 15.4541 17.3623 0.0000 9.4224 0.0000
# 2 15.4541 76.7118 52.9369 0.0000 20.2714 0.0000
# 3 17.3623 52.9369 121.8310 0.0000 21.6792 0.0000
# 4 0.0000 0.0000 0.0000 22.2320 0.0000 7.7963
# 5 9.4224 20.2714 21.6792 0.0000 39.8312 0.0000
# 6 0.0000 0.0000 0.0000 7.7963 0.0000 17.7148
#
#
#
# Elastic Compliance Matrix: (Units=1/GPa)
#
#
# Indices 1 2 3 4 5 6 
#
# 1 0.014757 -0.001755 -0.000972 0.000000 -0.002068 0.000000
# 2 -0.001755 0.020036 -0.007435 0.000000 -0.005735 0.000000
# 3 -0.000972 -0.007435 0.012028 0.000000 -0.002533 0.000000
# 4 0.000000 0.000000 0.000000 0.053189 0.000000 -0.023408
# 5 -0.002068 -0.005735 -0.002533 0.000000 0.029892 0.000000
# 6 0.000000 0.000000 0.000000 -0.023408 0.000000 0.066752
#
#
# Mechanical properties :
#
#
# Convention : Reuss Voigt Hill
#
# Bulk Modulus (GPa) = 37.74242 49.12389 43.43315
# Shear Modulus (GPa) = 22.14237 28.27928 25.21083
#
# Velocity S-wave (km/s) = 3.20238 3.61905 3.41707
# Velocity P-wave (km/s) = 5.58158 6.34153 5.97365
#
# Compressibility (1/GPa) = 0.02649539
#
# Stress axis : x y z
#
# Youngs Moduli (GPa) = 67.76271 49.91103 83.13994
#
# Poissons Ratio (x) = 0.08762 0.08083
# Poissons Ratio (y) = 0.11895 0.61815
# Poissons Ratio (z) = 0.06588 0.37109
#
# Static dielectric constant tensor:
#      x y z
#    x 1.854170 0.000000 -0.037440 
#    y 0.000000 1.725950 0.000000 
#    z -0.037440 0.000000 1.754750 
# 
# From -- ./inp_files/275503.got.cif
#   From: 2010.05.17/outbox.cif.g08.bks.cpg/sg12_138_cif.got.tgz:275503.got - 2010.06.03 13:09:07.
