data_PCOD9191400
_publ_section_title
;
Structure prediction by ZEFSAII (Michael W. Deem and Ramdas Pophale) SiO2 
 PCOD9191400
Probable space group: C 2/M
;
_chemical_formula_sum "Si O2"
_cell_formula_units_Z 56
_cell_length_a 16.822590
_cell_length_b 7.296376
_cell_length_c 18.793418
_cell_angle_alpha 90.000000
_cell_angle_beta 67.436764
_cell_angle_gamma 90.000000
_cell_volume 2130.209587
_symmetry_space_group_name_H-M "C 2/M"
_symmetry_group_IT_number 12
_symmetry_cell_setting 'monoclinic'
loop_
_space_group_symop_operation_xyz
x,y,z
-x,y,-z
-x,-y,-z
x,-y,z
1/2+x,1/2+y,z
1/2-x,1/2+y,-z
1/2-x,1/2-y,-z
1/2+x,1/2-y,z
loop_
_atom_site_type_symbol
_atom_site_label
_atom_site_fract_x
_atom_site_fract_y
_atom_site_fract_z
Si Si1 0.037924 0.724152 0.831968
Si Si2 0.351042 0.218260 0.461956
Si Si3 0.264421 0.220887 0.253101
Si Si4 0.995405 0.723153 0.311338
Si Si5 0.271617 0.277119 0.888272
Si Si6 0.612752 0.210325 0.398459
Si Si7 0.394322 0.207582 0.976797
O O1 0.036094 0.500000 0.835695
O O2 0.137075 0.778378 0.790431
O O3 0.993579 0.784640 0.773296
O O4 0.984888 0.787417 0.919322
O O5 0.250000 0.250000 0.500000
O O6 0.401809 0.277496 0.374451
O O7 0.392601 0.291126 0.521027
O O8 0.362182 0.000000 0.459969
O O9 0.215095 0.276364 0.197699
O O10 0.211847 0.287063 0.338956
O O11 0.265187 0.000000 0.256740
O O12 0.000144 0.500000 0.306386
O O13 0.060229 0.789653 0.350159
O O14 0.273183 0.500000 0.892600
O O15 0.338968 0.204284 0.922182
O O16 0.175591 0.214361 0.944770
O O17 0.583537 0.000000 0.413871
O O18 0.409651 0.000000 0.996240
#
# Coordination Sequence:
#
# PCOD9191400 Si02
#       7
#     8   8   8   8   8   8   8
#     4   9  17  29  48  72  96 127 164 198 237 287
#     4  10  20  34  53  76 102 130 160 198 243 288
#     4  10  20  33  49  72 102 131 159 198 249 293
#     4   9  17  31  51  73  97 127 164 201 236 281
#     4   9  18  31  48  72 100 128 159 199 246 290
#     4  10  20  34  53  75  97 127 168 204 235 281
#     4   9  17  31  51  72  95 127 166 202 236 284
#
# _framework density 26.288492000000002
#
# number of rings (size 3 to 8) (size 9 to 14) (size 15 to 20)
#    0.000    2.571    0.000    2.143    0.000    5.714 
#    0.000    4.286    0.000    6.857    0.000    5.000 
#    0.000    0.000    0.000    0.000    0.000    0.000 
#
# Total GULP energy -156618.552831 kJ/mol
# GULP energy per Si atom -5593.519744 kJ/mol
# Density = 2.622866 g / cm^3
# Si number density = 26.288492 Si / 1000 Ang^3
#
#
#
# Elastic Constant Matrix: (Units=GPa)
#
#
# Indices 1 2 3 4 5 6 
#
# 1 78.3433 -6.0038 0.5707 0.0000 -7.6320 0.0000
# 2 -6.0038 115.9802 -4.8426 0.0001 2.8281 0.0001
# 3 0.5707 -4.8426 136.6420 0.0000 -8.0119 0.0000
# 4 0.0000 0.0001 0.0000 4.0951 0.0000 -5.0409
# 5 -7.6320 2.8281 -8.0119 0.0000 53.5396 0.0000
# 6 0.0000 0.0001 0.0000 -5.0409 0.0000 5.2936
#
#
#
# Elastic Compliance Matrix: (Units=1/GPa)
#
#
# Indices 1 2 3 4 5 6 
#
# 1 0.012990 0.000631 0.000075 0.000001 0.001830 0.000001
# 2 0.000631 0.008675 0.000286 0.000002 -0.000326 0.000002
# 3 0.000075 0.000286 0.007393 0.000000 0.001102 0.000000
# 4 0.000001 0.000002 0.000000 -1.418030 0.000001 -1.350351
# 5 0.001830 -0.000326 0.001102 0.000001 0.019121 0.000001
# 6 0.000001 0.000002 0.000000 -1.350351 0.000001 -1.096995
#
#
# Mechanical properties :
#
#
# Convention : Reuss Voigt Hill
#
# Bulk Modulus (GPa) = 32.21434 34.49044 33.35239
# Shear Modulus (GPa) = -2.03377 35.33508 16.65065
#
# Velocity S-wave (km/s) = -0.88052 3.67021 2.51944
# Velocity P-wave (km/s) = 3.35366 5.57755 4.60196
#
# Compressibility (1/GPa) = 0.03104208
#
# Stress axis : x y z
#
# Youngs Moduli (GPa) = 76.98002 115.27790 135.26641
#
# Poissons Ratio (x) = -0.07274 -0.01020
# Poissons Ratio (y) = -0.04857 -0.03865
# Poissons Ratio (z) = -0.00580 -0.03294
#
# Static dielectric constant tensor:
#      x y z
#    x 2.087950 0.000000 -0.022130 
#    y 0.000000 2.444430 0.000000 
#    z -0.022130 0.000000 1.994770 
# 
# From -- ./inp_files/268638.got.cif
#   From: 2010.05.17/outbox.cif.g08.bks.cpg/sg12_135_cif.got.tgz:268638.got - 2010.06.03 13:09:07.
