data_PCOD9191743
_publ_section_title
;
Structure prediction by ZEFSAII (Michael W. Deem and Ramdas Pophale) SiO2 
 PCOD9191743
Probable space group: C 2/M
;
_chemical_formula_sum "Si O2"
_cell_formula_units_Z 48
_cell_length_a 20.112121
_cell_length_b 8.930308
_cell_length_c 21.584377
_cell_angle_alpha 90.000000
_cell_angle_beta 46.054083
_cell_angle_gamma 90.000000
_cell_volume 2791.215843
_symmetry_space_group_name_H-M "C 2/M"
_symmetry_group_IT_number 12
_symmetry_cell_setting 'monoclinic'
loop_
_space_group_symop_operation_xyz
x,y,z
-x,y,-z
-x,-y,-z
x,-y,z
1/2+x,1/2+y,z
1/2-x,1/2+y,-z
1/2-x,1/2-y,-z
1/2+x,1/2-y,z
loop_
_atom_site_type_symbol
_atom_site_label
_atom_site_fract_x
_atom_site_fract_y
_atom_site_fract_z
Si Si1 0.759788 0.821315 0.591620
Si Si2 0.605762 0.180112 0.591144
Si Si3 0.748107 0.678733 0.069052
Si Si4 0.747722 0.321759 0.733464
Si Si5 0.607973 0.679739 0.931131
Si Si6 0.393255 0.819905 0.745780
O O1 0.670545 0.778648 0.607631
O O2 0.847512 0.752590 0.499211
O O3 0.750778 0.761851 0.666743
O O4 0.766629 0.000000 0.587114
O O5 0.499802 0.223604 0.670054
O O6 0.608715 0.000000 0.582543
O O7 0.747426 0.500000 0.065975
O O8 0.836071 0.736124 0.051549
O O9 0.659489 0.738054 0.164549
O O10 0.750000 0.750000 0.000000
O O11 0.747123 0.500000 0.722364
O O12 0.658804 0.284749 0.833388
O O13 0.835610 0.287749 0.720468
O O14 0.618444 0.500000 0.933917
O O15 0.500000 0.715711 0.000000
O O16 0.387740 0.000000 0.759434
#
# Coordination Sequence:
#
# PCOD9191743 Si02
#       6
#     8   8   8   8   8   8
#     4  10  20  33  51  76 105 134 168 212 257 307
#     4   9  19  36  55  74 100 135 173 213 257 306
#     4  11  22  36  55  79 109 142 177 218 264 314
#     4   9  18  33  53  75 102 135 168 208 257 308
#     4   9  19  37  58  80 107 139 177 219 264 315
#     4   9  19  37  57  76 100 134 177 218 258 307
#
# _framework density 17.196805999999999
#
# number of rings (size 3 to 8) (size 9 to 14) (size 15 to 20)
#    0.000    2.500    0.000    3.000    0.000    6.333 
#    0.000    6.667    0.000    0.000    0.000    0.000 
#    0.000    0.000    0.000    0.000    0.000    0.000 
#
# Total GULP energy -133919.585443 kJ/mol
# GULP energy per Si atom -5579.982727 kJ/mol
# Density = 1.715767 g / cm^3
# Si number density = 17.196806 Si / 1000 Ang^3
#
#
#
# Elastic Constant Matrix: (Units=GPa)
#
#
# Indices 1 2 3 4 5 6 
#
# 1 104.2528 58.9897 122.9192 0.0000 -1.3717 0.0000
# 2 58.9897 56.3105 73.4837 0.0000 4.6076 0.0000
# 3 122.9192 73.4837 171.4154 0.0000 -3.4088 0.0000
# 4 0.0000 0.0000 0.0000 30.6357 0.0000 6.6202
# 5 -1.3717 4.6076 -3.4088 0.0000 41.4086 0.0000
# 6 0.0000 0.0000 0.0000 6.6202 0.0000 28.8230
#
#
#
# Elastic Compliance Matrix: (Units=1/GPa)
#
#
# Indices 1 2 3 4 5 6 
#
# 1 0.068935 -0.017691 -0.041832 0.000000 0.000808 0.000000
# 2 -0.017691 0.046350 -0.007310 0.000000 -0.006345 0.000000
# 3 -0.041832 -0.007310 0.039017 0.000000 0.002640 0.000000
# 4 0.000000 0.000000 0.000000 0.034346 0.000000 -0.007889
# 5 0.000808 -0.006345 0.002640 0.000000 0.025100 0.000000
# 6 0.000000 0.000000 0.000000 -0.007889 0.000000 0.036507
#
#
# Mechanical properties :
#
#
# Convention : Reuss Voigt Hill
#
# Bulk Modulus (GPa) = 48.45959 93.64044 71.05001
# Shear Modulus (GPa) = 12.79427 25.27919 19.03673
#
# Velocity S-wave (km/s) = 2.73058 3.83821 3.33076
# Velocity P-wave (km/s) = 6.17916 8.61469 7.49650
#
# Compressibility (1/GPa) = 0.02063575
#
# Stress axis : x y z
#
# Youngs Moduli (GPa) = 14.50634 21.57506 25.62982
#
# Poissons Ratio (x) = 0.38169 1.07215
# Poissons Ratio (y) = 0.25664 0.18734
# Poissons Ratio (z) = 0.60683 0.15770
#
# Static dielectric constant tensor:
#      x y z
#    x 1.566820 0.000000 -0.012630 
#    y 0.000000 1.573080 0.000000 
#    z -0.012630 0.000000 1.557370 
# 
# From -- ./inp_files/229874.got.cif
#   From: 2010.05.17/outbox.cif.g08.bks.cpg/sg12_115_cif.got.tgz:229874.got - 2010.06.03 13:09:07.
