data_PCOD9191470
_publ_section_title
;
Structure prediction by ZEFSAII (Michael W. Deem and Ramdas Pophale) SiO2 
 PCOD9191470
Probable space group: C 2/M
;
_chemical_formula_sum "Si O2"
_cell_formula_units_Z 48
_cell_length_a 22.481387
_cell_length_b 12.979637
_cell_length_c 12.728231
_cell_angle_alpha 90.000000
_cell_angle_beta 53.931383
_cell_angle_gamma 90.000000
_cell_volume 3002.154130
_symmetry_space_group_name_H-M "C 2/M"
_symmetry_group_IT_number 12
_symmetry_cell_setting 'monoclinic'
loop_
_space_group_symop_operation_xyz
x,y,z
-x,y,-z
-x,-y,-z
x,-y,z
1/2+x,1/2+y,z
1/2-x,1/2+y,-z
1/2-x,1/2-y,-z
1/2+x,1/2-y,z
loop_
_atom_site_type_symbol
_atom_site_label
_atom_site_fract_x
_atom_site_fract_y
_atom_site_fract_z
Si Si1 0.084450 0.122054 0.880263
Si Si2 0.550369 0.257821 0.348354
Si Si3 0.570451 0.621359 0.651646
Si Si4 0.171330 0.622166 0.119737
Si Si5 0.671728 0.620820 0.348354
Si Si6 0.293383 0.255780 0.119737
O O1 0.091979 0.144452 0.748458
O O2 0.140386 0.188288 0.890554
O O3 0.098521 0.000000 0.881878
O O4 0.000000 0.141749 0.000000
O O5 0.500000 0.226853 0.500000
O O6 0.497626 0.310868 0.317991
O O7 0.597993 0.165576 0.251542
O O8 0.608801 0.341348 0.332248
O O9 0.549850 0.500000 0.667752
O O10 0.636574 0.636574 0.500000
O O11 0.171326 0.500000 0.109446
O O12 0.240199 0.661279 0.118123
O O13 0.179126 0.679126 0.000000
O O14 0.686757 0.500000 0.317991
O O15 0.742445 0.689972 0.251542
#
# Coordination Sequence:
#
# PCOD9191470 Si02
#       6
#     8   8   8   8   8   8
#     4  10  20  33  50  71  95 124 158 197 239 282
#     4   9  17  30  50  75 100 126 157 194 234 275
#     4   9  17  30  50  75 100 126 157 194 234 275
#     4  10  20  33  50  71  95 124 158 197 239 282
#     4   9  17  30  50  75 100 126 157 194 234 275
#     4  10  20  33  50  71  95 124 158 197 239 282
#
# _framework density 15.988519999999999
#
# number of rings (size 3 to 8) (size 9 to 14) (size 15 to 20)
#    0.000    2.500    0.000    2.500    0.000    3.000 
#    0.000    5.000    0.000    9.000    0.000    0.000 
#    0.000    0.000    0.000    0.000    0.000    0.000 
#
# Total GULP energy -133865.034111 kJ/mol
# GULP energy per Si atom -5577.709755 kJ/mol
# Density = 1.595213 g / cm^3
# Si number density = 15.988520 Si / 1000 Ang^3
#
#
#
# Elastic Constant Matrix: (Units=GPa)
#
#
# Indices 1 2 3 4 5 6 
#
# 1 124.4432 87.2411 75.9632 0.0000 0.3854 0.0000
# 2 87.2411 124.4614 75.9524 0.0000 -0.1517 0.0000
# 3 75.9632 75.9524 88.0354 0.0000 0.4426 0.0000
# 4 0.0000 0.0000 0.0000 21.6194 0.0000 -0.3543
# 5 0.3854 -0.1517 0.4426 0.0000 21.6326 0.0000
# 6 0.0000 0.0000 0.0000 -0.3543 0.0000 18.6233
#
#
#
# Elastic Compliance Matrix: (Units=1/GPa)
#
#
# Indices 1 2 3 4 5 6 
#
# 1 0.019646 -0.007237 -0.010707 0.000000 -0.000182 0.000000
# 2 -0.007237 0.019638 -0.010701 0.000000 0.000486 0.000000
# 3 -0.010707 -0.010701 0.029832 0.000000 -0.000495 0.000000
# 4 0.000000 0.000000 0.000000 0.046269 0.000000 0.000880
# 5 -0.000182 0.000486 -0.000495 0.000000 0.046243 0.000000
# 6 0.000000 0.000000 0.000000 0.000880 0.000000 0.053713
#
#
# Mechanical properties :
#
#
# Convention : Reuss Voigt Hill
#
# Bulk Modulus (GPa) = 84.55393 90.58370 87.56882
# Shear Modulus (GPa) = 18.07843 18.89395 18.48619
#
# Velocity S-wave (km/s) = 3.36626 3.44134 3.40401
# Velocity P-wave (km/s) = 8.25275 8.51874 8.38680
#
# Compressibility (1/GPa) = 0.01182677
#
# Stress axis : x y z
#
# Youngs Moduli (GPa) = 50.90170 50.92223 33.52055
#
# Poissons Ratio (x) = 0.36851 0.35892
# Poissons Ratio (y) = 0.36836 0.35869
# Poissons Ratio (z) = 0.54502 0.54489
#
# Static dielectric constant tensor:
#      x y z
#    x 1.503210 0.000000 -0.000680 
#    y 0.000000 1.503200 0.000000 
#    z -0.000680 0.000000 1.550760 
# 
# From -- ./inp_files/164676.got.cif
#   From: 2010.05.17/outbox.cif.g08.bks.cpg/sg12_83_cif.got.tgz:164676.got - 2010.06.03 13:09:07.
