data_PCOD9191067
_publ_section_title
;
Structure prediction by ZEFSAII (Michael W. Deem and Ramdas Pophale) SiO2 
 PCOD9191067
Probable space group: C 2/M
;
_chemical_formula_sum "Si O2"
_cell_formula_units_Z 64
_cell_length_a 20.411724
_cell_length_b 9.096277
_cell_length_c 24.027228
_cell_angle_alpha 90.000000
_cell_angle_beta 50.847394
_cell_angle_gamma 90.000000
_cell_volume 3459.476380
_symmetry_space_group_name_H-M "C 2/M"
_symmetry_group_IT_number 12
_symmetry_cell_setting 'monoclinic'
loop_
_space_group_symop_operation_xyz
x,y,z
-x,y,-z
-x,-y,-z
x,-y,z
1/2+x,1/2+y,z
1/2-x,1/2+y,-z
1/2-x,1/2-y,-z
1/2+x,1/2-y,z
loop_
_atom_site_type_symbol
_atom_site_label
_atom_site_fract_x
_atom_site_fract_y
_atom_site_fract_z
Si Si1 0.875301 0.826301 0.902094
Si Si2 0.416181 0.676180 0.077002
Si Si3 0.968173 0.821213 0.258021
Si Si4 0.187634 0.672001 0.955675
Si Si5 0.332365 0.324447 0.663147
Si Si6 0.908515 0.667987 0.518748
Si Si7 0.490006 0.677274 0.373496
Si Si8 0.656756 0.323249 0.768258
O O1 0.785920 0.810300 0.918538
O O2 0.950459 0.776119 0.821830
O O3 0.887701 0.000000 0.908176
O O4 0.865562 0.740155 0.964830
O O5 0.413943 0.500000 0.073152
O O6 0.337742 0.744502 0.086338
O O7 0.407504 0.711043 0.146727
O O8 0.500000 0.728964 0.000000
O O9 0.974403 0.773957 0.318553
O O10 0.885813 0.777288 0.267115
O O11 0.969567 0.000000 0.258196
O O12 0.169938 0.500000 0.959646
O O13 0.325805 0.500000 0.664280
O O14 0.350524 0.258545 0.592181
O O15 0.414254 0.288563 0.657402
O O16 0.245831 0.253803 0.730541
O O17 0.879050 0.500000 0.528216
O O18 0.926212 0.746414 0.450775
O O19 0.000000 0.664476 0.500000
O O20 0.480772 0.500000 0.382063
O O21 0.668454 0.500000 0.761258
#
# Coordination Sequence:
#
# PCOD9191067 Si02
#       8
#     8   8   8   8   8   8   8   8
#     4   9  18  34  55  75 104 142 179 219 271 330
#     4  10  21  37  56  75 102 145 190 225 268 330
#     4   9  18  35  57  77 102 142 186 222 262 322
#     4  10  20  32  52  80 106 133 176 231 279 321
#     4  10  20  34  56  83 113 143 175 220 272 325
#     4   9  17  32  55  82 113 143 176 219 265 315
#     4   9  18  33  57  84 108 139 181 221 265 321
#     4  10  21  36  55  79 107 142 184 227 270 318
#
# _framework density 18.49991
#
# number of rings (size 3 to 8) (size 9 to 14) (size 15 to 20)
#    0.000    2.500    0.000    1.875    1.750    5.250 
#    0.000    3.750    0.000    0.000    0.000    0.000 
#    0.000    0.000    0.000    0.000    0.000    0.000 
#
# Total GULP energy -178518.336565 kJ/mol
# GULP energy per Si atom -5578.698018 kJ/mol
# Density = 1.845780 g / cm^3
# Si number density = 18.499910 Si / 1000 Ang^3
#
#
#
# Elastic Constant Matrix: (Units=GPa)
#
#
# Indices 1 2 3 4 5 6 
#
# 1 69.4023 28.6536 41.7967 0.0000 23.3361 0.0003
# 2 28.6536 24.4918 31.2448 0.0000 4.3008 0.0008
# 3 41.7967 31.2448 80.1301 0.0000 12.8762 0.0000
# 4 0.0000 0.0000 0.0000 24.7136 0.0000 0.3552
# 5 23.3361 4.3008 12.8762 0.0000 29.3529 0.0000
# 6 0.0003 0.0008 0.0000 0.3552 0.0000 20.8164
#
#
#
# Elastic Compliance Matrix: (Units=1/GPa)
#
#
# Indices 1 2 3 4 5 6 
#
# 1 0.041396 -0.043097 -0.000553 0.000000 -0.026354 0.000001
# 2 -0.043097 0.126237 -0.031497 0.000000 0.029583 -0.000004
# 3 -0.000553 -0.031497 0.026076 0.000000 -0.006384 0.000001
# 4 0.000000 0.000000 0.000000 0.040473 0.000000 -0.000691
# 5 -0.026354 0.029583 -0.006384 0.000000 0.053486 -0.000001
# 6 0.000001 -0.000004 0.000001 -0.000691 -0.000001 0.048051
#
#
# Mechanical properties :
#
#
# Convention : Reuss Voigt Hill
#
# Bulk Modulus (GPa) = 23.03392 41.93496 32.48444
# Shear Modulus (GPa) = 9.99030 19.79852 14.89441
#
# Velocity S-wave (km/s) = 2.32635 3.27493 2.84052
# Velocity P-wave (km/s) = 4.43776 6.08417 5.32498
#
# Compressibility (1/GPa) = 0.04341424
#
# Stress axis : x y z
#
# Youngs Moduli (GPa) = 24.15673 7.92159 38.34997
#
# Poissons Ratio (x) = 0.34140 0.02122
# Poissons Ratio (y) = 1.04109 1.20791
# Poissons Ratio (z) = 0.01337 0.24951
#
# Static dielectric constant tensor:
#      x y z
#    x 1.639750 0.000000 -0.000680 
#    y 0.000000 1.617870 0.000000 
#    z -0.000680 0.000000 1.634330 
# 
# From -- ./inp_files/346063.got.cif
#   From: 2010.05.17/outbox.cif.g08.bks.cpg/sg12_174_cif.got.tgz:346063.got - 2010.06.03 13:09:07.
