data_PCOD9191355
_publ_section_title
;
Structure prediction by ZEFSAII (Michael W. Deem and Ramdas Pophale) SiO2 
 PCOD9191355
Probable space group: C 2/M
;
_chemical_formula_sum "Si O2"
_cell_formula_units_Z 48
_cell_length_a 14.048384
_cell_length_b 8.965948
_cell_length_c 17.326484
_cell_angle_alpha 90.000000
_cell_angle_beta 69.260431
_cell_angle_gamma 90.000000
_cell_volume 2040.973584
_symmetry_space_group_name_H-M "C 2/M"
_symmetry_group_IT_number 12
_symmetry_cell_setting 'monoclinic'
loop_
_space_group_symop_operation_xyz
x,y,z
-x,y,-z
-x,-y,-z
x,-y,z
1/2+x,1/2+y,z
1/2-x,1/2+y,-z
1/2-x,1/2-y,-z
1/2+x,1/2-y,z
loop_
_atom_site_type_symbol
_atom_site_label
_atom_site_fract_x
_atom_site_fract_y
_atom_site_fract_z
Si Si1 0.648202 0.328973 0.432166
Si Si2 0.925969 0.334450 0.092509
Si Si3 0.760267 0.326220 0.913468
Si Si4 0.687626 0.173694 0.265690
Si Si5 0.431098 0.671772 0.235489
Si Si6 0.608462 0.171473 0.599049
O O1 0.616163 0.500000 0.439494
O O2 0.635564 0.255729 0.352047
O O3 0.598046 0.243495 0.518077
O O4 0.769953 0.326923 0.416347
O O5 0.877776 0.500000 0.118952
O O6 0.852227 0.202237 0.087452
O O7 0.976595 0.279360 0.156757
O O8 0.000000 0.350555 0.000000
O O9 0.784896 0.500000 0.917276
O O10 0.822271 0.267377 0.819797
O O11 0.750000 0.250000 0.000000
O O12 0.808560 0.178521 0.253362
O O13 0.659229 0.000000 0.272523
O O14 0.463358 0.500000 0.220160
O O15 0.443062 0.737119 0.317182
O O16 0.575887 0.000000 0.608414
#
# Coordination Sequence:
#
# PCOD9191355 Si02
#       6
#     8   8   8   8   8   8
#     4   9  15  21  32  51  75 106 142 178 216 262
#     4  10  20  33  49  69  94 124 158 195 235 280
#     4  10  20  33  50  70  94 124 158 196 236 280
#     4   8  15  26  38  55  80 111 144 179 222 269
#     4   9  16  26  40  58  82 112 147 185 225 271
#     4   9  15  22  33  50  76 109 142 177 218 266
#
# _framework density 23.518187999999999
#
# number of rings (size 3 to 8) (size 9 to 14) (size 15 to 20)
#    0.000    2.833    0.000    3.500    0.000   10.000 
#    0.000    0.000    0.000    0.000    0.000    0.000 
#    0.000    1.333    0.000   14.000    0.000   18.000 
#
# Total GULP energy -133974.384525 kJ/mol
# GULP energy per Si atom -5582.266022 kJ/mol
# Density = 2.346466 g / cm^3
# Si number density = 23.518188 Si / 1000 Ang^3
#
#
#
# Elastic Constant Matrix: (Units=GPa)
#
#
# Indices 1 2 3 4 5 6 
#
# 1 61.3265 -3.9492 31.4227 0.0000 20.7367 0.0000
# 2 -3.9492 114.4639 97.9951 0.0000 18.6662 0.0000
# 3 31.4227 97.9951 258.3734 0.0000 34.4939 0.0000
# 4 0.0000 0.0000 0.0000 36.1627 0.0000 5.0438
# 5 20.7367 18.6662 34.4939 0.0000 29.8178 0.0000
# 6 0.0000 0.0000 0.0000 5.0438 0.0000 3.0975
#
#
#
# Elastic Compliance Matrix: (Units=1/GPa)
#
#
# Indices 1 2 3 4 5 6 
#
# 1 0.024017 0.006167 -0.002974 0.000000 -0.017123 0.000000
# 2 0.006167 0.014731 -0.005361 0.000000 -0.007308 0.000000
# 3 -0.002974 -0.005361 0.006553 0.000000 -0.002157 0.000000
# 4 0.000000 0.000000 0.000000 0.035779 0.000000 -0.058261
# 5 -0.017123 -0.007308 -0.002157 0.000000 0.052515 0.000000
# 6 0.000000 0.000000 0.000000 -0.058261 0.000000 0.417714
#
#
# Mechanical properties :
#
#
# Convention : Reuss Voigt Hill
#
# Bulk Modulus (GPa) = 24.41136 76.12232 50.26684
# Shear Modulus (GPa) = 8.78271 34.39528 21.58899
#
# Velocity S-wave (km/s) = 1.93456 3.82841 3.03309
# Velocity P-wave (km/s) = 3.92331 7.20971 5.80398
#
# Compressibility (1/GPa) = 0.04096454
#
# Stress axis : x y z
#
# Youngs Moduli (GPa) = 41.63735 67.88403 152.59161
#
# Poissons Ratio (x) = -0.41864 0.45379
# Poissons Ratio (y) = -0.25678 0.81811
# Poissons Ratio (z) = 0.12382 0.36396
#
# Static dielectric constant tensor:
#      x y z
#    x 2.024390 0.000000 -0.020560 
#    y 0.000000 1.833940 0.000000 
#    z -0.020560 0.000000 1.912100 
# 
# From -- ./inp_files/230454.got.cif
#   From: 2010.05.17/outbox.cif.g08.bks.cpg/sg12_116_cif.got.tgz:230454.got - 2010.06.03 13:09:07.
