data_PCOD9191197
_publ_section_title
;
Structure prediction by ZEFSAII (Michael W. Deem and Ramdas Pophale) SiO2 
 PCOD9191197
Probable space group: C 2/M
;
_chemical_formula_sum "Si O2"
_cell_formula_units_Z 48
_cell_length_a 17.306361
_cell_length_b 22.676588
_cell_length_c 8.988078
_cell_angle_alpha 90.000000
_cell_angle_beta 133.312799
_cell_angle_gamma 90.000000
_cell_volume 2566.579099
_symmetry_space_group_name_H-M "C 2/M"
_symmetry_group_IT_number 12
_symmetry_cell_setting 'monoclinic'
loop_
_space_group_symop_operation_xyz
x,y,z
-x,y,-z
-x,-y,-z
x,-y,z
1/2+x,1/2+y,z
1/2-x,1/2+y,-z
1/2-x,1/2-y,-z
1/2+x,1/2-y,z
loop_
_atom_site_type_symbol
_atom_site_label
_atom_site_fract_x
_atom_site_fract_y
_atom_site_fract_z
Si Si1 0.958790 0.395750 0.604115
Si Si2 0.242349 0.565732 0.495916
Si Si3 0.110210 0.377252 0.064673
Si Si4 0.039479 0.256272 0.386872
Si Si5 0.184080 0.742298 0.064187
Si Si6 0.117874 0.823304 0.233679
O O1 0.853389 0.428838 0.512645
O O2 0.930396 0.325313 0.562499
O O3 0.000000 0.413679 0.500000
O O4 0.057254 0.403821 0.847565
O O5 0.286670 0.500000 0.550054
O O6 0.177170 0.580252 0.258399
O O7 0.329239 0.614878 0.651358
O O8 0.189080 0.323444 0.134861
O O9 0.000000 0.355800 0.000000
O O10 0.113509 0.215755 0.380514
O O11 0.000000 0.236496 0.500000
O O12 0.934919 0.255415 0.150511
O O13 0.189713 0.789625 0.204107
O O14 0.250000 0.750000 0.000000
O O15 0.000000 0.829863 0.000000
#
# Coordination Sequence:
#
# PCOD9191197 Si02
#       6
#     8   8   8   8   8   8
#     4   9  19  35  59  90 124 142 177 236 294 355
#     4  11  24  38  58  80 108 164 209 229 279 332
#     4   9  19  36  55  83 122 146 179 231 294 355
#     4   9  19  35  56  90 118 145 176 230 305 363
#     4  10  20  32  57  91 116 144 180 231 302 364
#     4  10  22  39  57  82 119 150 194 245 289 339
#
# _framework density 18.701937999999998
#
# number of rings (size 3 to 8) (size 9 to 14) (size 15 to 20)
#    0.000    2.333    0.000    3.500    9.333    5.000 
#    0.000    0.000    0.000    0.500    0.000    0.000 
#    0.000    0.000    0.000    0.000    0.000    0.000 
#
# Total GULP energy -133670.249439 kJ/mol
# GULP energy per Si atom -5569.593727 kJ/mol
# Density = 1.865937 g / cm^3
# Si number density = 18.701938 Si / 1000 Ang^3
#
#
#
# Elastic Constant Matrix: (Units=GPa)
#
#
# Indices 1 2 3 4 5 6 
#
# 1 73.4636 37.2449 27.9160 0.0000 -26.7795 0.0000
# 2 37.2449 74.4032 2.9379 0.0000 -9.6338 0.0000
# 3 27.9160 2.9379 73.7841 0.0000 -10.8964 0.0000
# 4 0.0000 0.0000 0.0000 8.1634 0.0000 4.7846
# 5 -26.7795 -9.6338 -10.8964 0.0000 38.2691 0.0000
# 6 0.0000 0.0000 0.0000 4.7846 0.0000 8.7413
#
#
#
# Elastic Compliance Matrix: (Units=1/GPa)
#
#
# Indices 1 2 3 4 5 6 
#
# 1 0.027763 -0.011744 -0.007938 0.000000 0.014211 0.000000
# 2 -0.011744 0.018861 0.003319 0.000000 -0.002525 0.000000
# 3 -0.007938 0.003319 0.016418 0.000000 -0.000044 0.000000
# 4 0.000000 0.000000 0.000000 0.180359 0.000000 -0.098721
# 5 0.014211 -0.002525 -0.000044 0.000000 0.035427 0.000000
# 6 0.000000 0.000000 0.000000 -0.098721 0.000000 0.168435
#
#
# Mechanical properties :
#
#
# Convention : Reuss Voigt Hill
#
# Bulk Modulus (GPa) = 32.98490 39.76096 36.37293
# Shear Modulus (GPa) = 10.20216 21.27156 15.73686
#
# Velocity S-wave (km/s) = 2.33816 3.37619 2.90393
# Velocity P-wave (km/s) = 4.99647 6.04191 5.54389
#
# Compressibility (1/GPa) = 0.03031690
#
# Stress axis : x y z
#
# Youngs Moduli (GPa) = 36.01923 53.01894 60.91038
#
# Poissons Ratio (x) = 0.62266 0.48349
# Poissons Ratio (y) = 0.42302 -0.20219
# Poissons Ratio (z) = 0.28591 -0.17600
#
# Static dielectric constant tensor:
#      x y z
#    x 1.849050 0.000000 -0.102830 
#    y 0.000000 1.673220 0.000000 
#    z -0.102830 0.000000 1.722380 
# 
# From -- ./inp_files/77683.got.cif
#   From: 2010.05.17/outbox.cif.g08.bks.cpg/sg12_39_cif.got.tgz:77683.got - 2010.06.03 13:09:07.
