data_PCOD9191690
_publ_section_title
;
Structure prediction by ZEFSAII (Michael W. Deem and Ramdas Pophale) SiO2 
 PCOD9191690
Probable space group: C 2/M
;
_chemical_formula_sum "Si O2"
_cell_formula_units_Z 64
_cell_length_a 20.709764
_cell_length_b 10.721150
_cell_length_c 16.679918
_cell_angle_alpha 90.000000
_cell_angle_beta 123.975653
_cell_angle_gamma 90.000000
_cell_volume 3071.206855
_symmetry_space_group_name_H-M "C 2/M"
_symmetry_group_IT_number 12
_symmetry_cell_setting 'monoclinic'
loop_
_space_group_symop_operation_xyz
x,y,z
-x,y,-z
-x,-y,-z
x,-y,z
1/2+x,1/2+y,z
1/2-x,1/2+y,-z
1/2-x,1/2-y,-z
1/2+x,1/2-y,z
loop_
_atom_site_type_symbol
_atom_site_label
_atom_site_fract_x
_atom_site_fract_y
_atom_site_fract_z
Si Si1 0.794488 0.859330 0.124398
Si Si2 0.364360 0.717899 0.007498
Si Si3 0.258312 0.643032 0.321074
Si Si4 0.481004 0.262993 0.800065
Si Si5 0.857801 0.362024 0.613722
Si Si6 0.442075 0.644683 0.307345
Si Si7 0.599986 0.350122 0.481171
Si Si8 0.846089 0.138734 0.819117
O O1 0.708275 0.807741 0.059131
O O2 0.858004 0.795841 0.227892
O O3 0.788032 0.000000 0.145394
O O4 0.832517 0.856875 0.062284
O O5 0.374333 0.647439 0.930687
O O6 0.445806 0.774608 0.094255
O O7 0.245887 0.500000 0.284323
O O8 0.215792 0.647416 0.378500
O O9 0.349531 0.663096 0.403069
O O10 0.215717 0.751005 0.241831
O O11 0.432724 0.152735 0.724269
O O12 0.513571 0.343257 0.748152
O O13 0.418910 0.336639 0.810924
O O14 0.857704 0.500000 0.575633
O O15 0.862655 0.245794 0.556968
O O16 0.429393 0.500000 0.317052
O O17 0.508782 0.686816 0.415156
O O18 0.604934 0.500000 0.464271
O O19 0.814075 0.000000 0.782190
#
# Coordination Sequence:
#
# PCOD9191690 Si02
#       8
#     8   8   8   8   8   8   8   8
#     4   9  18  33  52  74 100 129 166 214 262 304
#     4  10  20  33  51  75 101 133 173 215 254 303
#     4   9  19  33  46  67 103 141 173 207 252 309
#     4   9  18  31  47  72 106 138 167 205 256 309
#     4   9  17  28  43  68 103 137 170 211 254 302
#     4   8  14  27  49  75  99 125 166 216 255 293
#     4   9  16  28  49  73  98 133 174 215 258 302
#     4  11  22  34  52  78 106 137 173 213 257 305
#
# _framework density 20.838712999999998
#
# number of rings (size 3 to 8) (size 9 to 14) (size 15 to 20)
#    0.000    2.750    0.000    1.500    0.000    6.500 
#    0.000    0.000    0.000    5.250    0.000    4.375 
#    0.000    0.000    0.000    0.000    0.000    0.000 
#
# Total GULP energy -178209.518364 kJ/mol
# GULP energy per Si atom -5569.047449 kJ/mol
# Density = 2.079128 g / cm^3
# Si number density = 20.838713 Si / 1000 Ang^3
#
#
#
# Elastic Constant Matrix: (Units=GPa)
#
#
# Indices 1 2 3 4 5 6 
#
# 1 69.8952 25.1418 45.2295 0.0000 5.6785 0.0000
# 2 25.1418 75.9463 51.0510 0.0000 3.0911 0.0000
# 3 45.2295 51.0510 152.7525 0.0000 24.5205 0.0000
# 4 0.0000 0.0000 0.0000 14.5821 0.0000 11.2389
# 5 5.6785 3.0911 24.5205 0.0000 47.1883 0.0000
# 6 0.0000 0.0000 0.0000 11.2389 0.0000 -22.5111
#
#
#
# Elastic Compliance Matrix: (Units=1/GPa)
#
#
# Indices 1 2 3 4 5 6 
#
# 1 0.018253 -0.003081 -0.004424 0.000000 0.000304 0.000000
# 2 -0.003081 0.017678 -0.005312 0.000000 0.001973 0.000000
# 3 -0.004424 -0.005312 0.010354 0.000000 -0.004500 0.000000
# 4 0.000000 0.000000 0.000000 0.049521 0.000000 0.024724
# 5 0.000304 0.001973 -0.004500 0.000000 0.023364 0.000000
# 6 0.000000 0.000000 0.000000 0.024724 0.000000 -0.032079
#
#
# Mechanical properties :
#
#
# Convention : Reuss Voigt Hill
#
# Bulk Modulus (GPa) = 48.42539 60.15985 54.29262
# Shear Modulus (GPa) = 41.80197 19.66331 30.73264
#
# Velocity S-wave (km/s) = 4.48367 3.07513 3.84446
# Velocity P-wave (km/s) = 7.07764 6.44519 6.76881
#
# Compressibility (1/GPa) = 0.02065032
#
# Stress axis : x y z
#
# Youngs Moduli (GPa) = 54.78405 56.56736 96.57890
#
# Poissons Ratio (x) = 0.17431 0.42724
# Poissons Ratio (y) = 0.16882 0.51307
# Poissons Ratio (z) = 0.24235 0.30051
#
# Static dielectric constant tensor:
#      x y z
#    x 1.803800 0.000000 0.010590 
#    y 0.000000 1.712650 0.000000 
#    z 0.010590 0.000000 1.797630 
# 
# From -- ./inp_files/283328.got.cif
#   From: 2010.05.17/outbox.cif.g08.bks.cpg/sg12_142_cif.got.tgz:283328.got - 2010.06.03 13:09:07.
