data_PCOD9191610
_publ_section_title
;
Structure prediction by ZEFSAII (Michael W. Deem and Ramdas Pophale) SiO2 
 PCOD9191610
Probable space group: C 2/M
;
_chemical_formula_sum "Si O2"
_cell_formula_units_Z 56
_cell_length_a 25.752098
_cell_length_b 7.801642
_cell_length_c 14.331814
_cell_angle_alpha 90.000000
_cell_angle_beta 105.892995
_cell_angle_gamma 90.000000
_cell_volume 2769.320301
_symmetry_space_group_name_H-M "C 2/M"
_symmetry_group_IT_number 12
_symmetry_cell_setting 'monoclinic'
loop_
_space_group_symop_operation_xyz
x,y,z
-x,y,-z
-x,-y,-z
x,-y,z
1/2+x,1/2+y,z
1/2-x,1/2+y,-z
1/2-x,1/2-y,-z
1/2+x,1/2-y,z
loop_
_atom_site_type_symbol
_atom_site_label
_atom_site_fract_x
_atom_site_fract_y
_atom_site_fract_z
Si Si1 0.691656 0.793046 0.581678
Si Si2 0.413882 0.700969 0.799389
Si Si3 0.082631 0.801212 0.993012
Si Si4 0.811639 0.704649 0.049528
Si Si5 0.976135 0.697469 0.221811
Si Si6 0.814184 0.206038 0.633159
Si Si7 0.129183 0.709496 0.732027
O O1 0.753526 0.730501 0.624050
O O2 0.673758 0.744868 0.468957
O O3 0.653292 0.731653 0.645920
O O4 0.692922 0.000000 0.587121
O O5 0.403301 0.500000 0.811284
O O6 0.426697 0.772163 0.908540
O O7 0.466067 0.716128 0.759884
O O8 0.360852 0.774309 0.723658
O O9 0.146270 0.789062 0.001326
O O10 0.064782 0.000000 0.979865
O O11 0.052424 0.708443 0.893734
O O12 0.818337 0.500000 0.045606
O O13 0.750000 0.750000 0.000000
O O14 0.831323 0.756871 0.162877
O O15 0.985820 0.500000 0.250349
O O16 0.930931 0.769261 0.270054
O O17 0.813073 0.000000 0.642215
O O18 0.127213 0.500000 0.730139
#
# Coordination Sequence:
#
# PCOD9191610 Si02
#       7
#     8   8   8   8   8   8   8
#     4   9  17  34  58  76  98 132 169 211 261 315
#     4  10  21  35  53  76 104 141 179 212 259 319
#     4  10  20  34  53  75 104 142 180 213 256 313
#     4  10  20  33  50  76 109 140 176 216 256 308
#     4  10  20  35  53  77 107 138 175 220 260 305
#     4   9  19  34  53  78 104 129 167 217 263 311
#     4   8  17  33  54  74  98 136 174 205 256 316
#
# _framework density 20.221568999999999
#
# number of rings (size 3 to 8) (size 9 to 14) (size 15 to 20)
#    0.000    2.571    0.000    2.571    2.000    3.429 
#    0.000    5.000    0.000    4.286    0.000    0.000 
#    0.000    0.000    0.000    0.000    0.000    0.000 
#
# Total GULP energy -156238.827980 kJ/mol
# GULP energy per Si atom -5579.958142 kJ/mol
# Density = 2.017554 g / cm^3
# Si number density = 20.221569 Si / 1000 Ang^3
#
#
#
# Elastic Constant Matrix: (Units=GPa)
#
#
# Indices 1 2 3 4 5 6 
#
# 1 74.4074 -7.6915 32.5047 0.0000 -20.4438 0.0000
# 2 -7.6915 31.3071 -2.3702 0.0000 -2.6682 0.0000
# 3 32.5047 -2.3702 51.5308 0.0000 -24.3198 0.0000
# 4 0.0000 0.0000 0.0000 17.4931 0.0000 -0.9247
# 5 -20.4438 -2.6682 -24.3198 0.0000 33.7294 0.0000
# 6 0.0000 0.0000 0.0000 -0.9247 0.0000 23.3475
#
#
#
# Elastic Compliance Matrix: (Units=1/GPa)
#
#
# Indices 1 2 3 4 5 6 
#
# 1 0.019569 0.004525 -0.009654 0.000000 0.005258 0.000000
# 2 0.004525 0.033776 0.001902 0.000000 0.006786 0.000000
# 3 -0.009654 0.001902 0.034701 0.000000 0.019319 0.000000
# 4 0.000000 0.000000 0.000000 0.057285 0.000000 0.002269
# 5 0.005258 0.006786 0.019319 0.000000 0.047301 0.000000
# 6 0.000000 0.000000 0.000000 0.002269 0.000000 0.042921
#
#
# Mechanical properties :
#
#
# Convention : Reuss Voigt Hill
#
# Bulk Modulus (GPa) = 12.25630 22.45902 17.35766
# Shear Modulus (GPa) = 18.57321 23.90084 21.23703
#
# Velocity S-wave (km/s) = 3.03394 3.44168 3.24422
# Velocity P-wave (km/s) = 4.28336 5.18884 4.75769
#
# Compressibility (1/GPa) = 0.08159072
#
# Stress axis : x y z
#
# Youngs Moduli (GPa) = 51.09995 29.60715 28.81793
#
# Poissons Ratio (x) = -0.13397 0.27822
# Poissons Ratio (y) = -0.23123 -0.05480
# Poissons Ratio (z) = 0.49334 -0.05631
#
# Static dielectric constant tensor:
#      x y z
#    x 1.724970 0.000000 -0.006040 
#    y 0.000000 1.750810 0.000000 
#    z -0.006040 0.000000 1.700710 
# 
# From -- ./inp_files/180703.got.cif
#   From: 2010.05.17/outbox.cif.g08.bks.cpg/sg12_91_cif.got.tgz:180703.got - 2010.06.03 13:09:07.
