data_PCOD9191657
_publ_section_title
;
Structure prediction by ZEFSAII (Michael W. Deem and Ramdas Pophale) SiO2 
 PCOD9191657
Probable space group: C 2/M
;
_chemical_formula_sum "Si O2"
_cell_formula_units_Z 48
_cell_length_a 6.941816
_cell_length_b 20.294418
_cell_length_c 13.337424
_cell_angle_alpha 90.000000
_cell_angle_beta 71.473466
_cell_angle_gamma 90.000000
_cell_volume 1781.602830
_symmetry_space_group_name_H-M "C 2/M"
_symmetry_group_IT_number 12
_symmetry_cell_setting 'monoclinic'
loop_
_space_group_symop_operation_xyz
x,y,z
-x,y,-z
-x,-y,-z
x,-y,z
1/2+x,1/2+y,z
1/2-x,1/2+y,-z
1/2-x,1/2-y,-z
1/2+x,1/2-y,z
loop_
_atom_site_type_symbol
_atom_site_label
_atom_site_fract_x
_atom_site_fract_y
_atom_site_fract_z
Si Si1 0.943754 0.674793 0.309125
Si Si2 0.715156 0.075730 0.524517
Si Si3 0.438153 0.500000 0.849582
Si Si4 0.818732 0.500000 0.903356
Si Si5 0.358574 0.685749 0.359274
Si Si6 0.667352 0.853347 0.088772
Si Si7 0.905616 0.146085 0.855229
O O1 0.831588 0.608109 0.360029
O O2 0.840171 0.736440 0.382746
O O3 0.163181 0.669128 0.325041
O O4 0.002433 0.684540 0.182743
O O5 0.500000 0.075165 0.500000
O O6 0.854391 0.128460 0.441899
O O7 0.783240 0.000000 0.516647
O O8 0.680761 0.500000 0.826819
O O9 0.383017 0.571156 0.819579
O O10 0.328321 0.500000 0.975872
O O11 0.915725 0.428659 0.895321
O O12 0.553970 0.684672 0.253575
O O13 0.884752 0.853272 0.112559
O O14 0.732325 0.834935 0.964736
#
# Coordination Sequence:
#
# PCOD9191657 Si02
#       7
#     8   8   4   4   8   8   8
#     4  10  20  33  51  73 101 133 161 197 243 293
#     4   9  19  34  53  77  98 121 162 212 252 283
#     4   7  10  18  34  59  90 118 147 191 238 272
#     4   7  10  18  34  59  90 118 147 191 238 272
#     4  10  20  33  51  73 101 133 161 197 243 293
#     4   8  14  24  41  68  98 126 158 197 241 284
#     4   8  14  24  41  68  98 126 158 197 241 284
#
# _framework density 26.942032000000001
#
# number of rings (size 3 to 8) (size 9 to 14) (size 15 to 20)
#    0.000    3.333    0.000    2.500    2.333    0.667 
#    0.000    0.000    0.000    2.000    0.000    0.000 
#    0.000    4.000    0.000    0.000    0.000    0.000 
#
# Total GULP energy -134024.852436 kJ/mol
# GULP energy per Si atom -5584.368851 kJ/mol
# Density = 2.688071 g / cm^3
# Si number density = 26.942032 Si / 1000 Ang^3
#
#
#
# Elastic Constant Matrix: (Units=GPa)
#
#
# Indices 1 2 3 4 5 6 
#
# 1 108.8999 -4.7388 33.4162 0.0000 -3.4787 0.0000
# 2 -4.7388 170.8381 83.4084 0.0000 -6.3516 0.0000
# 3 33.4162 83.4084 165.5567 0.0000 -3.3388 0.0000
# 4 0.0000 0.0000 0.0000 39.9970 0.0000 -6.6634
# 5 -3.4787 -6.3516 -3.3388 0.0000 31.5192 0.0000
# 6 0.0000 0.0000 0.0000 -6.6634 0.0000 0.8241
#
#
#
# Elastic Compliance Matrix: (Units=1/GPa)
#
#
# Indices 1 2 3 4 5 6 
#
# 1 0.010190 0.001749 -0.002914 0.000000 0.001168 0.000000
# 2 0.001749 0.008105 -0.004409 0.000000 0.001359 0.000000
# 3 -0.002914 -0.004409 0.008844 0.000000 -0.000273 0.000000
# 4 0.000000 0.000000 0.000000 -0.072049 0.000000 -0.582544
# 5 0.001168 0.001359 -0.000273 0.000000 0.032101 0.000000
# 6 0.000000 0.000000 0.000000 -0.582544 0.000000 -3.496715
#
#
# Mechanical properties :
#
#
# Convention : Reuss Voigt Hill
#
# Bulk Modulus (GPa) = 62.53522 74.38515 68.46018
# Shear Modulus (GPa) = -1.43142 36.68200 17.62529
#
# Velocity S-wave (km/s) = -0.72969 3.69388 2.56049
# Velocity P-wave (km/s) = 4.74884 6.77216 5.84866
#
# Compressibility (1/GPa) = 0.01599099
#
# Stress axis : x y z
#
# Youngs Moduli (GPa) = 98.13068 123.37784 113.06739
#
# Poissons Ratio (x) = -0.21579 0.32953
# Poissons Ratio (y) = -0.17164 0.49852
# Poissons Ratio (z) = 0.28600 0.54398
#
# Static dielectric constant tensor:
#      x y z
#    x 2.204670 0.000000 -0.009160 
#    y 0.000000 2.109330 0.000000 
#    z -0.009160 0.000000 2.064390 
# 
# From -- ./inp_files/263796.got.cif
#   From: 2010.05.17/outbox.cif.g08.bks.cpg/sg12_132_cif.got.tgz:263796.got - 2010.06.03 13:09:07.
