data_PCOD9191820
_publ_section_title
;
Structure prediction by ZEFSAII (Michael W. Deem and Ramdas Pophale) SiO2 
 PCOD9191820
Probable space group: C 2/M
;
_chemical_formula_sum "Si O2"
_cell_formula_units_Z 56
_cell_length_a 19.322575
_cell_length_b 8.745624
_cell_length_c 20.830460
_cell_angle_alpha 90.000000
_cell_angle_beta 62.218637
_cell_angle_gamma 90.000000
_cell_volume 3114.344925
_symmetry_space_group_name_H-M "C 2/M"
_symmetry_group_IT_number 12
_symmetry_cell_setting 'monoclinic'
loop_
_space_group_symop_operation_xyz
x,y,z
-x,y,-z
-x,-y,-z
x,-y,z
1/2+x,1/2+y,z
1/2-x,1/2+y,-z
1/2-x,1/2-y,-z
1/2+x,1/2-y,z
loop_
_atom_site_type_symbol
_atom_site_label
_atom_site_fract_x
_atom_site_fract_y
_atom_site_fract_z
Si Si1 0.457465 0.685463 0.421890
Si Si2 0.854993 0.317283 0.127567
Si Si3 0.483771 0.817227 0.870850
Si Si4 0.436457 0.682970 0.285675
Si Si5 0.225629 0.180923 0.716138
Si Si6 0.122193 0.815270 0.416146
Si Si7 0.827498 0.182122 0.999221
O O1 0.453581 0.500000 0.422579
O O2 0.444678 0.738590 0.355043
O O3 0.395115 0.734338 0.502939
O O4 0.543579 0.724355 0.410712
O O5 0.853118 0.500000 0.120822
O O6 0.794783 0.265831 0.208788
O O7 0.835679 0.239218 0.068801
O O8 0.941833 0.274776 0.116145
O O9 0.506746 0.764284 0.789468
O O10 0.475472 0.000000 0.877007
O O11 0.404867 0.739866 0.929092
O O12 0.451518 0.500000 0.277197
O O13 0.348712 0.708137 0.298026
O O14 0.303055 0.241137 0.648603
O O15 0.230959 0.000000 0.725952
O O16 0.130052 0.000000 0.411763
O O17 0.823757 0.000000 0.999019
O O18 0.750000 0.250000 0.000000
#
# Coordination Sequence:
#
# PCOD9191820 Si02
#       7
#     8   8   8   8   8   8   8
#     4   8  16  32  53  74  98 136 182 222 264 320
#     4  10  21  39  61  82 108 144 183 223 270 325
#     4  10  21  38  59  83 111 143 181 224 272 326
#     4   9  18  34  54  76 104 139 180 222 266 321
#     4  10  20  33  51  78 109 139 174 219 269 321
#     4   9  17  32  53  74 100 137 180 223 269 322
#     4  12  25  40  59  84 114 145 180 222 268 319
#
# _framework density 17.981310000000001
#
# number of rings (size 3 to 8) (size 9 to 14) (size 15 to 20)
#    0.000    2.286    0.000    3.857    0.000    5.714 
#    0.000    7.143    0.000    0.000    0.000    0.000 
#    0.000    0.000    0.000    0.000    0.000    0.000 
#
# Total GULP energy -156303.850772 kJ/mol
# GULP energy per Si atom -5582.280385 kJ/mol
# Density = 1.794038 g / cm^3
# Si number density = 17.981310 Si / 1000 Ang^3
#
#
#
# Elastic Constant Matrix: (Units=GPa)
#
#
# Indices 1 2 3 4 5 6 
#
# 1 101.3533 60.1404 116.3074 0.0000 23.3813 -0.0001
# 2 60.1404 69.3079 72.9284 0.0000 13.2892 -0.0003
# 3 116.3074 72.9284 189.3882 0.0000 20.2395 0.0000
# 4 0.0000 0.0000 0.0000 34.3472 0.0000 -4.8608
# 5 23.3813 13.2892 20.2395 0.0000 82.6359 0.0000
# 6 -0.0001 -0.0003 0.0000 -4.8608 0.0000 22.5865
#
#
#
# Elastic Compliance Matrix: (Units=1/GPa)
#
#
# Indices 1 2 3 4 5 6 
#
# 1 0.043078 -0.015402 -0.020010 0.000000 -0.004811 0.000000
# 2 -0.015402 0.029987 -0.002093 0.000000 0.000048 0.000000
# 3 -0.020010 -0.002093 0.018210 0.000000 0.001538 0.000000
# 4 0.000000 0.000000 0.000000 0.030029 0.000000 0.006463
# 5 -0.004811 0.000048 0.001538 0.000000 0.013078 0.000000
# 6 0.000000 0.000000 0.000000 0.006463 0.000000 0.045665
#
#
# Mechanical properties :
#
#
# Convention : Reuss Voigt Hill
#
# Bulk Modulus (GPa) = 61.48583 95.42242 78.45413
# Shear Modulus (GPa) = 19.19533 35.29211 27.24372
#
# Velocity S-wave (km/s) = 3.27083 4.43506 3.89667
# Velocity P-wave (km/s) = 6.96656 8.91118 7.99819
#
# Compressibility (1/GPa) = 0.01626391
#
# Stress axis : x y z
#
# Youngs Moduli (GPa) = 23.21377 33.34792 54.91342
#
# Poissons Ratio (x) = 0.51363 1.09882
# Poissons Ratio (y) = 0.35754 0.11496
# Poissons Ratio (z) = 0.46451 0.06981
#
# Static dielectric constant tensor:
#      x y z
#    x 1.596490 0.000000 0.011840 
#    y 0.000000 1.604560 0.000000 
#    z 0.011840 0.000000 1.597120 
# 
# From -- ./inp_files/313714.got.cif
#   From: 2010.05.17/outbox.cif.g08.bks.cpg/sg12_157_cif.got.tgz:313714.got - 2010.06.03 13:09:07.
