data_PCOD9191735
_publ_section_title
;
Structure prediction by ZEFSAII (Michael W. Deem and Ramdas Pophale) SiO2 
 PCOD9191735
Probable space group: C 2/M
;
_chemical_formula_sum "Si O2"
_cell_formula_units_Z 64
_cell_length_a 13.393551
_cell_length_b 11.045489
_cell_length_c 21.458947
_cell_angle_alpha 90.000000
_cell_angle_beta 109.157237
_cell_angle_gamma 90.000000
_cell_volume 2998.796141
_symmetry_space_group_name_H-M "C 2/M"
_symmetry_group_IT_number 12
_symmetry_cell_setting 'monoclinic'
loop_
_space_group_symop_operation_xyz
x,y,z
-x,y,-z
-x,-y,-z
x,-y,z
1/2+x,1/2+y,z
1/2-x,1/2+y,-z
1/2-x,1/2-y,-z
1/2+x,1/2-y,z
loop_
_atom_site_type_symbol
_atom_site_label
_atom_site_fract_x
_atom_site_fract_y
_atom_site_fract_z
Si Si1 0.317786 0.299619 0.200933
Si Si2 0.988264 0.131950 0.838729
Si Si3 0.729470 0.364618 0.074002
Si Si4 0.572710 0.209583 0.963602
Si Si5 0.758817 0.355628 0.411101
Si Si6 0.977252 0.634923 0.310184
Si Si7 0.117791 0.357259 0.446183
Si Si8 0.824435 0.728790 0.723265
O O1 0.401488 0.372852 0.177075
O O2 0.253572 0.222069 0.137018
O O3 0.395836 0.219604 0.259168
O O4 0.236743 0.347114 0.236366
O O5 0.003852 0.232880 0.894436
O O6 0.894665 0.171380 0.773761
O O7 0.970232 0.000000 0.862040
O O8 0.714892 0.500000 0.092571
O O9 0.832328 0.360651 0.050050
O O10 0.632086 0.316088 0.013712
O O11 0.500000 0.145446 0.000000
O O12 0.727616 0.500000 0.403038
O O13 0.863288 0.351023 0.475927
O O14 0.681612 0.259421 0.431583
O O15 0.752308 0.299131 0.340738
O O16 0.937670 0.500000 0.294517
O O17 0.006036 0.655141 0.388352
O O18 0.090157 0.651913 0.298122
O O19 0.151413 0.500000 0.437382
#
# Coordination Sequence:
#
# PCOD9191735 Si02
#       8
#     8   8   8   8   8   8   8   8
#     4  10  21  35  51  75 105 134 167 209 254 301
#     4  10  21  36  53  75 103 134 168 206 251 303
#     4  10  21  36  53  74 101 132 164 201 248 299
#     4  10  21  36  54  77 101 127 165 207 247 297
#     4   9  16  27  47  74 100 131 173 216 259 308
#     4   9  18  33  52  73  99 134 173 210 253 306
#     4   8  15  29  47  69 101 136 169 212 263 311
#     4  10  20  33  51  76 103 133 171 212 255 304
#
# _framework density 21.341896999999999
#
# number of rings (size 3 to 8) (size 9 to 14) (size 15 to 20)
#    0.000    2.500    0.000    1.875    0.000    4.750 
#    0.000    0.625    0.000   11.250    0.000    0.000 
#    0.000   27.000    0.000    0.000    0.000    0.000 
#
# Total GULP energy -178210.596353 kJ/mol
# GULP energy per Si atom -5569.081136 kJ/mol
# Density = 2.129332 g / cm^3
# Si number density = 21.341897 Si / 1000 Ang^3
#
#
#
# Elastic Constant Matrix: (Units=GPa)
#
#
# Indices 1 2 3 4 5 6 
#
# 1 78.6676 1.6421 32.4352 0.0000 -23.8653 0.0000
# 2 1.6421 70.5269 18.4207 0.0000 -1.5318 0.0000
# 3 32.4352 18.4207 126.4329 0.0000 2.4006 0.0000
# 4 0.0000 0.0000 0.0000 -78.0561 0.0000 3.2311
# 5 -23.8653 -1.5318 2.4006 0.0000 45.2393 0.0000
# 6 0.0000 0.0000 0.0000 3.2311 0.0000 -11.2956
#
#
#
# Elastic Compliance Matrix: (Units=1/GPa)
#
#
# Indices 1 2 3 4 5 6 
#
# 1 0.017594 0.001065 -0.004851 0.000000 0.009575 0.000000
# 2 0.001065 0.014821 -0.002455 0.000000 0.001194 0.000000
# 3 -0.004851 -0.002455 0.009571 0.000000 -0.003150 0.000000
# 4 0.000000 0.000000 0.000000 -0.012965 0.000000 -0.003709
# 5 0.009575 0.001194 -0.003150 0.000000 0.027363 0.000000
# 6 0.000000 0.000000 0.000000 -0.003709 0.000000 -0.089591
#
#
# Mechanical properties :
#
#
# Convention : Reuss Voigt Hill
#
# Bulk Modulus (GPa) = 33.89218 42.29150 38.09184
# Shear Modulus (GPa) = -459.18537 6.05281 -226.56628
#
# Velocity S-wave (km/s) = -14.68414 1.68590 -10.31459
# Velocity P-wave (km/s) = 16.47979 4.86301 11.13406
#
# Compressibility (1/GPa) = 0.02950533
#
# Stress axis : x y z
#
# Youngs Moduli (GPa) = 56.83697 67.46994 104.47942
#
# Poissons Ratio (x) = -0.07187 0.50679
# Poissons Ratio (y) = -0.06054 0.25653
# Poissons Ratio (z) = 0.27570 0.16566
#
# Static dielectric constant tensor:
#      x y z
#    x 1.829980 0.000000 -0.040850 
#    y 0.000000 1.722990 0.000000 
#    z -0.040850 0.000000 1.760560 
# 
# From -- ./inp_files/309934.got.cif
#   From: 2010.05.17/outbox.cif.g08.bks.cpg/sg12_155_cif.got.tgz:309934.got - 2010.06.03 13:09:07.
