data_PCOD9191278
_publ_section_title
;
Structure prediction by ZEFSAII (Michael W. Deem and Ramdas Pophale) SiO2 
 PCOD9191278
Probable space group: C 2/M
;
_chemical_formula_sum "Si O2"
_cell_formula_units_Z 56
_cell_length_a 14.157475
_cell_length_b 7.383769
_cell_length_c 22.394059
_cell_angle_alpha 90.000000
_cell_angle_beta 118.013409
_cell_angle_gamma 90.000000
_cell_volume 2066.700728
_symmetry_space_group_name_H-M "C 2/M"
_symmetry_group_IT_number 12
_symmetry_cell_setting 'monoclinic'
loop_
_space_group_symop_operation_xyz
x,y,z
-x,y,-z
-x,-y,-z
x,-y,z
1/2+x,1/2+y,z
1/2-x,1/2+y,-z
1/2-x,1/2-y,-z
1/2+x,1/2-y,z
loop_
_atom_site_type_symbol
_atom_site_label
_atom_site_fract_x
_atom_site_fract_y
_atom_site_fract_z
Si Si1 0.156452 0.784927 0.018262
Si Si2 0.268908 0.707896 0.834828
Si Si3 0.208154 0.289473 0.694357
Si Si4 0.833649 0.721294 0.444884
Si Si5 0.912360 0.289612 0.590028
Si Si6 0.049027 0.714194 0.272107
Si Si7 0.515661 0.297286 0.873546
O O1 0.206644 0.707828 0.093883
O O2 0.135577 0.000000 0.025370
O O3 0.250000 0.750000 0.000000
O O4 0.058860 0.712511 0.948528
O O5 0.230717 0.500000 0.832574
O O6 0.205306 0.790976 0.760193
O O7 0.389564 0.698922 0.845325
O O8 0.179005 0.500000 0.693192
O O9 0.147665 0.217921 0.617861
O O10 0.333408 0.286552 0.711075
O O11 0.835562 0.500000 0.444621
O O12 0.908519 0.784459 0.521474
O O13 0.712977 0.778618 0.427123
O O14 0.942495 0.500000 0.592247
O O15 0.973047 0.216826 0.666996
O O16 0.061585 0.500000 0.281866
O O17 0.970989 0.737690 0.191508
O O18 0.559632 0.500000 0.887739
#
# Coordination Sequence:
#
# PCOD9191278 Si02
#       7
#     8   8   8   8   8   8   8
#     4  10  20  33  48  65  86 109 134 168 209 251
#     4   8  14  27  47  66  82 106 141 173 200 237
#     4   8  13  22  37  55  75 103 139 171 197 233
#     4   8  12  18  29  46  70 101 134 163 191 230
#     4   8  13  19  27  44  73 105 131 157 196 239
#     4   9  15  22  34  54  80 107 134 167 205 240
#     4   9  17  30  47  63  80 108 144 174 200 238
#
# _framework density 27.096329000000001
#
# number of rings (size 3 to 8) (size 9 to 14) (size 15 to 20)
#    0.000    3.429    0.000    1.714    0.000    2.857 
#    0.000    2.857    0.000    4.286    0.000    0.000 
#    0.000    1.143    0.000   14.286    0.000    8.571 
#
# Total GULP energy -156070.919830 kJ/mol
# GULP energy per Si atom -5573.961422 kJ/mol
# Density = 2.703466 g / cm^3
# Si number density = 27.096329 Si / 1000 Ang^3
#
#
#
# Elastic Constant Matrix: (Units=GPa)
#
#
# Indices 1 2 3 4 5 6 
#
# 1 58.3150 1.4269 65.3468 0.0000 -4.3705 0.0000
# 2 1.4269 101.8313 22.6311 0.0000 0.2081 0.0000
# 3 65.3468 22.6311 394.1449 0.0000 -43.4960 0.0000
# 4 0.0000 0.0000 0.0000 -17.9466 0.0000 -28.2627
# 5 -4.3705 0.2081 -43.4960 0.0000 63.7964 0.0000
# 6 0.0000 0.0000 0.0000 -28.2627 0.0000 -23.7896
#
#
#
# Elastic Compliance Matrix: (Units=1/GPa)
#
#
# Indices 1 2 3 4 5 6 
#
# 1 0.021149 0.000517 -0.003651 0.000000 -0.001042 0.000000
# 2 0.000517 0.009972 -0.000712 0.000000 -0.000482 0.000000
# 3 -0.003651 -0.000712 0.003413 0.000000 0.002079 0.000000
# 4 0.000000 0.000000 0.000000 0.063978 0.000000 -0.076008
# 5 -0.001042 -0.000482 0.002079 0.000000 0.017022 0.000000
# 6 0.000000 0.000000 0.000000 -0.076008 0.000000 0.048264
#
#
# Mechanical properties :
#
#
# Convention : Reuss Voigt Hill
#
# Bulk Modulus (GPa) = 37.25397 81.45564 59.35480
# Shear Modulus (GPa) = 27.71050 35.40447 31.55748
#
# Velocity S-wave (km/s) = 3.20138 3.61863 3.41639
# Velocity P-wave (km/s) = 5.23867 6.89827 6.12494
#
# Compressibility (1/GPa) = 0.02684278
#
# Stress axis : x y z
#
# Youngs Moduli (GPa) = 47.28411 100.28041 293.01988
#
# Poissons Ratio (x) = -0.05186 1.06982
# Poissons Ratio (y) = -0.02446 0.20850
# Poissons Ratio (z) = 0.17264 0.07135
#
# Static dielectric constant tensor:
#      x y z
#    x 2.109510 0.000000 -0.013380 
#    y 0.000000 1.002470 0.000000 
#    z -0.013380 0.000000 2.221750 
# 
# From -- ./inp_files/342047.got.cif
#   From: 2010.05.17/outbox.cif.g08.bks.cpg/sg12_172_cif.got.tgz:342047.got - 2010.06.03 13:09:07.
