data_PCOD9191891
_publ_section_title
;
Structure prediction by ZEFSAII (Michael W. Deem and Ramdas Pophale) SiO2 
 PCOD9191891
Probable space group: C 2/M
;
_chemical_formula_sum "Si O2"
_cell_formula_units_Z 64
_cell_length_a 20.409587
_cell_length_b 13.717889
_cell_length_c 14.039116
_cell_angle_alpha 90.000000
_cell_angle_beta 137.426580
_cell_angle_gamma 90.000000
_cell_volume 2659.200951
_symmetry_space_group_name_H-M "C 2/M"
_symmetry_group_IT_number 12
_symmetry_cell_setting 'monoclinic'
loop_
_space_group_symop_operation_xyz
x,y,z
-x,y,-z
-x,-y,-z
x,-y,z
1/2+x,1/2+y,z
1/2-x,1/2+y,-z
1/2-x,1/2-y,-z
1/2+x,1/2-y,z
loop_
_atom_site_type_symbol
_atom_site_label
_atom_site_fract_x
_atom_site_fract_y
_atom_site_fract_z
Si Si1 0.247358 0.104624 0.350490
Si Si2 0.130028 0.896219 0.038410
Si Si3 0.719446 0.885768 0.956050
Si Si4 0.739661 0.172269 0.352115
Si Si5 0.956502 0.613086 0.357066
Si Si6 0.550516 0.176741 0.273487
Si Si7 0.624553 0.181290 0.038095
Si Si8 0.410730 0.395052 0.653752
O O1 0.216088 0.097702 0.207231
O O2 0.279757 0.216666 0.392172
O O3 0.152032 0.103976 0.315886
O O4 0.296339 0.000000 0.424519
O O5 0.177526 0.887308 0.985195
O O6 0.087875 0.791658 0.018643
O O7 0.076535 0.000000 0.990726
O O8 0.641072 0.846803 0.795407
O O9 0.695825 0.000000 0.950956
O O10 0.701562 0.828200 0.034112
O O11 0.657330 0.165354 0.345427
O O12 0.681540 0.147734 0.193116
O O13 0.831589 0.111757 0.484552
O O14 0.935339 0.500000 0.356009
O O15 0.032116 0.622190 0.352098
O O16 0.000000 0.657643 0.500000
O O17 0.533922 0.292162 0.279829
O O18 0.472821 0.137017 0.112583
O O19 0.461434 0.500000 0.698203
#
# Coordination Sequence:
#
# PCOD9191891 Si02
#       8
#     8   8   8   8   8   8   8   8
#     4   8  15  29  49  75 103 127 163 217 266 305
#     4   9  17  30  50  75 101 133 173 217 265 314
#     4   9  18  32  48  70 102 135 171 215 263 316
#     4  10  20  34  52  77 106 141 182 216 258 318
#     4   9  19  34  53  78 103 129 166 218 277 323
#     4  10  20  36  55  78 107 140 176 219 271 322
#     4  10  20  33  52  76 107 140 176 221 265 313
#     4  10  21  36  54  78 109 144 180 218 261 315
#
# _framework density 24.067381000000001
#
# number of rings (size 3 to 8) (size 9 to 14) (size 15 to 20)
#    0.000    2.625    0.000    2.250    0.000    4.500 
#    0.000    4.375    0.000   11.625    0.000    0.000 
#    0.000    0.000    0.000    0.000    0.000    0.000 
#
# Total GULP energy -178419.058384 kJ/mol
# GULP energy per Si atom -5575.595575 kJ/mol
# Density = 2.401260 g / cm^3
# Si number density = 24.067381 Si / 1000 Ang^3
#
#
#
# Elastic Constant Matrix: (Units=GPa)
#
#
# Indices 1 2 3 4 5 6 
#
# 1 54.7785 3.3020 50.8899 0.0000 -18.0326 0.0000
# 2 3.3020 69.1676 -3.6323 0.0000 1.4069 0.0000
# 3 50.8899 -3.6323 127.5019 0.0000 -20.0914 0.0000
# 4 0.0000 0.0000 0.0000 -62.5547 0.0000 40.2622
# 5 -18.0326 1.4069 -20.0914 0.0000 34.6461 0.0000
# 6 0.0000 0.0000 0.0000 40.2622 0.0000 -8.7658
#
#
#
# Elastic Compliance Matrix: (Units=1/GPa)
#
#
# Indices 1 2 3 4 5 6 
#
# 1 0.032345 -0.002350 -0.011346 0.000000 0.010351 0.000000
# 2 -0.002350 0.014655 0.001177 0.000000 -0.001136 0.000000
# 3 -0.011346 0.001177 0.012620 0.000000 0.001365 0.000000
# 4 0.000000 0.000000 0.000000 0.008172 0.000000 0.037533
# 5 0.010351 -0.001136 0.001365 0.000000 0.035089 0.000000
# 6 0.000000 0.000000 0.000000 0.037533 0.000000 0.058315
#
#
# Mechanical properties :
#
#
# Convention : Reuss Voigt Hill
#
# Bulk Modulus (GPa) = 28.91804 39.17412 34.04608
# Shear Modulus (GPa) = 25.28312 6.05769 15.67040
#
# Velocity S-wave (km/s) = 3.24468 1.58822 2.55445
# Velocity P-wave (km/s) = 5.10674 4.43570 4.78300
#
# Compressibility (1/GPa) = 0.03458049
#
# Stress axis : x y z
#
# Youngs Moduli (GPa) = 30.91707 68.23729 79.23866
#
# Poissons Ratio (x) = 0.16039 0.89901
# Poissons Ratio (y) = 0.07267 -0.09323
# Poissons Ratio (z) = 0.35077 -0.08029
#
# Static dielectric constant tensor:
#      x y z
#    x 1.893310 0.000000 0.022510 
#    y 0.000000 1.987420 0.000000 
#    z 0.022510 0.000000 1.988260 
# 
# From -- ./inp_files/240698.got.cif
#   From: 2010.05.17/outbox.cif.g08.bks.cpg/sg12_121_cif.got.tgz:240698.got - 2010.06.03 13:09:07.
