data_PCOD9191739
_publ_section_title
;
Structure prediction by ZEFSAII (Michael W. Deem and Ramdas Pophale) SiO2 
 PCOD9191739
Probable space group: C 2/M
;
_chemical_formula_sum "Si O2"
_cell_formula_units_Z 48
_cell_length_a 31.838354
_cell_length_b 9.055868
_cell_length_c 10.376164
_cell_angle_alpha 90.000000
_cell_angle_beta 71.391976
_cell_angle_gamma 90.000000
_cell_volume 2835.301672
_symmetry_space_group_name_H-M "C 2/M"
_symmetry_group_IT_number 12
_symmetry_cell_setting 'monoclinic'
loop_
_space_group_symop_operation_xyz
x,y,z
-x,y,-z
-x,-y,-z
x,-y,z
1/2+x,1/2+y,z
1/2-x,1/2+y,-z
1/2-x,1/2-y,-z
1/2+x,1/2-y,z
loop_
_atom_site_type_symbol
_atom_site_label
_atom_site_fract_x
_atom_site_fract_y
_atom_site_fract_z
Si Si1 0.535120 0.176801 0.576519
Si Si2 0.364167 0.323954 0.236653
Si Si3 0.032366 0.822769 0.851812
Si Si4 0.801862 0.323758 0.088145
Si Si5 0.369839 0.677647 0.526339
Si Si6 0.301171 0.322715 0.816409
O O1 0.500000 0.215278 0.500000
O O2 0.521583 0.243028 0.728315
O O3 0.583224 0.244188 0.497678
O O4 0.538119 0.000000 0.582395
O O5 0.358363 0.500000 0.225630
O O6 0.416287 0.290018 0.165421
O O7 0.333026 0.240084 0.168260
O O8 0.354601 0.286823 0.395568
O O9 0.029245 0.000000 0.835409
O O10 0.000000 0.781264 0.000000
O O11 0.805529 0.500000 0.079137
O O12 0.750088 0.285429 0.163095
O O13 0.813611 0.254856 0.937971
O O14 0.376515 0.500000 0.523877
O O15 0.333787 0.718525 0.668482
O O16 0.303652 0.500000 0.831105
#
# Coordination Sequence:
#
# PCOD9191739 Si02
#       6
#     8   8   8   8   8   8
#     4  10  21  35  51  76 108 135 162 204 257 305
#     4   9  18  33  52  75 102 130 165 210 252 292
#     4   9  19  36  56  76  99 133 176 212 244 292
#     4  10  20  33  51  76 104 134 167 203 250 305
#     4   9  19  36  56  75  97 131 174 212 246 292
#     4   9  19  36  54  73 100 133 170 211 249 290
#
# _framework density 16.929414000000001
#
# number of rings (size 3 to 8) (size 9 to 14) (size 15 to 20)
#    0.000    2.667    0.000    2.000    0.000    7.667 
#    0.000    5.000    0.000    0.000    0.000    0.000 
#    0.000    0.000    0.000    0.000    0.000    0.000 
#
# Total GULP energy -133868.994074 kJ/mol
# GULP energy per Si atom -5577.874753 kJ/mol
# Density = 1.689088 g / cm^3
# Si number density = 16.929414 Si / 1000 Ang^3
#
#
#
# Elastic Constant Matrix: (Units=GPa)
#
#
# Indices 1 2 3 4 5 6 
#
# 1 109.9186 54.2491 125.9519 0.0000 13.5481 0.0000
# 2 54.2491 35.2247 65.5644 0.0000 7.6050 0.0000
# 3 125.9519 65.5644 186.9083 0.0000 -5.9298 0.0000
# 4 0.0000 0.0000 0.0000 27.9836 0.0000 6.9858
# 5 13.5481 7.6050 -5.9298 0.0000 37.5110 0.0000
# 6 0.0000 0.0000 0.0000 6.9858 0.0000 23.9682
#
#
#
# Elastic Compliance Matrix: (Units=1/GPa)
#
#
# Indices 1 2 3 4 5 6 
#
# 1 0.073176 -0.041548 -0.035486 0.000000 -0.023616 0.000000
# 2 -0.041548 0.126550 -0.016816 0.000000 -0.013309 0.000000
# 3 -0.035486 -0.016816 0.035857 0.000000 0.021894 0.000000
# 4 0.000000 0.000000 0.000000 0.038539 0.000000 -0.011233
# 5 -0.023616 -0.013309 0.021894 0.000000 0.041348 0.000000
# 6 0.000000 0.000000 0.000000 -0.011233 0.000000 0.044996
#
#
# Mechanical properties :
#
#
# Convention : Reuss Voigt Hill
#
# Bulk Modulus (GPa) = 20.88439 91.50916 56.19677
# Shear Modulus (GPa) = 8.86325 23.64498 16.25411
#
# Velocity S-wave (km/s) = 2.29058 3.74127 3.10193
# Velocity P-wave (km/s) = 4.39985 8.53426 6.78941
#
# Compressibility (1/GPa) = 0.04788265
#
# Stress axis : x y z
#
# Youngs Moduli (GPa) = 13.66562 7.90201 27.88881
#
# Poissons Ratio (x) = 0.32831 0.98967
# Poissons Ratio (y) = 0.56778 0.46898
# Poissons Ratio (z) = 0.48494 0.13288
#
# Static dielectric constant tensor:
#      x y z
#    x 1.551340 0.000000 -0.012050 
#    y 0.000000 1.562740 0.000000 
#    z -0.012050 0.000000 1.552300 
# 
# From -- ./inp_files/108718.got.cif
#   From: 2010.05.17/outbox.cif.g08.bks.cpg/sg12_55_cif.got.tgz:108718.got - 2010.06.03 13:09:07.
