data_PCOD9191473
_publ_section_title
;
Structure prediction by ZEFSAII (Michael W. Deem and Ramdas Pophale) SiO2 
 PCOD9191473
Probable space group: C 2/M
;
_chemical_formula_sum "Si O2"
_cell_formula_units_Z 56
_cell_length_a 15.054131
_cell_length_b 7.745445
_cell_length_c 31.181991
_cell_angle_alpha 90.000000
_cell_angle_beta 51.999116
_cell_angle_gamma 90.000000
_cell_volume 2865.054028
_symmetry_space_group_name_H-M "C 2/M"
_symmetry_group_IT_number 12
_symmetry_cell_setting 'monoclinic'
loop_
_space_group_symop_operation_xyz
x,y,z
-x,y,-z
-x,-y,-z
x,-y,z
1/2+x,1/2+y,z
1/2-x,1/2+y,-z
1/2-x,1/2-y,-z
1/2+x,1/2-y,z
loop_
_atom_site_type_symbol
_atom_site_label
_atom_site_fract_x
_atom_site_fract_y
_atom_site_fract_z
Si Si1 0.953559 0.288574 0.233841
Si Si2 0.810127 0.295506 0.356693
Si Si3 0.645747 0.792001 0.561905
Si Si4 0.829293 0.707422 0.936773
Si Si5 0.948187 0.290872 0.561012
Si Si6 0.416694 0.207280 0.148301
Si Si7 0.209943 0.707236 0.147194
O O1 0.951730 0.500000 0.234236
O O2 0.878257 0.225848 0.295767
O O3 0.907507 0.233694 0.200716
O O4 0.084771 0.235833 0.199316
O O5 0.834501 0.500000 0.350588
O O6 0.841781 0.222121 0.393904
O O7 0.676731 0.272090 0.393178
O O8 0.750000 0.750000 0.500000
O O9 0.532962 0.731387 0.572467
O O10 0.641702 0.000000 0.565468
O O11 0.834658 0.500000 0.932500
O O12 0.781235 0.769286 0.904945
O O13 0.958902 0.769158 0.903697
O O14 0.750000 0.750000 0.000000
O O15 0.945643 0.500000 0.560930
O O16 0.000000 0.234058 0.500000
O O17 0.313094 0.249528 0.147874
O O18 0.421454 0.000000 0.148160
O O19 0.206331 0.500000 0.146876
#
# Coordination Sequence:
#
# PCOD9191473 Si02
#       7
#     8   8   8   8   8   8   8
#     4   8  17  35  53  71 100 132 164 208 256 299
#     4  10  20  34  54  76  96 127 171 208 242 300
#     4  10  20  33  50  71  96 127 160 195 242 297
#     4   9  19  34  51  75 108 142 173 208 251 297
#     4  10  20  34  50  71 102 131 155 198 256 300
#     4   9  18  34  54  74 101 136 170 208 256 300
#     4   9  18  34  55  76 101 136 173 210 252 297
#
# _framework density 19.545877999999998
#
# number of rings (size 3 to 8) (size 9 to 14) (size 15 to 20)
#    0.000    2.714    1.429    1.714    0.000    3.714 
#    0.000    7.857    0.000    0.000    0.000    0.000 
#    0.000    0.000    0.000    0.000    0.000    0.000 
#
# Total GULP energy -156128.274747 kJ/mol
# GULP energy per Si atom -5576.009812 kJ/mol
# Density = 1.950139 g / cm^3
# Si number density = 19.545878 Si / 1000 Ang^3
#
#
#
# Elastic Constant Matrix: (Units=GPa)
#
#
# Indices 1 2 3 4 5 6 
#
# 1 212.6783 5.1431 121.5341 -0.0001 10.7424 -0.0005
# 2 5.1431 25.6507 7.4179 -0.0012 2.6606 -0.0012
# 3 121.5341 7.4179 214.9809 -0.0003 9.8624 -0.0002
# 4 -0.0001 -0.0012 -0.0003 17.5462 -0.0003 -3.1994
# 5 10.7424 2.6606 9.8624 -0.0003 15.5040 -0.0001
# 6 -0.0005 -0.0012 -0.0002 -3.1994 -0.0001 25.7490
#
#
#
# Elastic Compliance Matrix: (Units=1/GPa)
#
#
# Indices 1 2 3 4 5 6 
#
# 1 0.007032 -0.000043 -0.003864 0.000000 -0.002408 0.000000
# 2 -0.000043 0.039941 -0.001072 0.000003 -0.006142 0.000002
# 3 -0.003864 -0.001072 0.006944 0.000000 -0.001556 0.000000
# 4 0.000000 0.000003 0.000000 0.058314 0.000001 0.007246
# 5 -0.002408 -0.006142 -0.001556 0.000001 0.068212 0.000000
# 6 0.000000 0.000002 0.000000 0.007246 0.000000 0.039737
#
#
# Mechanical properties :
#
#
# Convention : Reuss Voigt Hill
#
# Bulk Modulus (GPa) = 22.74788 80.16668 51.45728
# Shear Modulus (GPa) = 20.42562 33.04083 26.73322
#
# Velocity S-wave (km/s) = 3.23617 4.11594 3.70228
# Velocity P-wave (km/s) = 5.06233 7.98070 6.68277
#
# Compressibility (1/GPa) = 0.04396015
#
# Stress axis : x y z
#
# Youngs Moduli (GPa) = 142.19737 25.03693 144.00477
#
# Poissons Ratio (x) = 0.00108 0.55639
# Poissons Ratio (y) = 0.00611 0.15438
# Poissons Ratio (z) = 0.54941 0.02684
#
# Static dielectric constant tensor:
#      x y z
#    x 1.673090 0.000000 0.019040 
#    y 0.000000 1.749890 0.000000 
#    z 0.019040 0.000000 1.673190 
# 
# From -- ./inp_files/334923.got.cif
#   From: 2010.05.17/outbox.cif.g08.bks.cpg/sg12_168_cif.got.tgz:334923.got - 2010.06.03 13:09:07.
