data_PCOD9191332
_publ_section_title
;
Structure prediction by ZEFSAII (Michael W. Deem and Ramdas Pophale) SiO2 
 PCOD9191332
Probable space group: C 2/M
;
_chemical_formula_sum "Si O2"
_cell_formula_units_Z 56
_cell_length_a 26.000729
_cell_length_b 17.158217
_cell_length_c 20.018121
_cell_angle_alpha 90.000000
_cell_angle_beta 159.648702
_cell_angle_gamma 90.000000
_cell_volume 3105.843924
_symmetry_space_group_name_H-M "C 2/M"
_symmetry_group_IT_number 12
_symmetry_cell_setting 'monoclinic'
loop_
_space_group_symop_operation_xyz
x,y,z
-x,y,-z
-x,-y,-z
x,-y,z
1/2+x,1/2+y,z
1/2-x,1/2+y,-z
1/2-x,1/2-y,-z
1/2+x,1/2-y,z
loop_
_atom_site_type_symbol
_atom_site_label
_atom_site_fract_x
_atom_site_fract_y
_atom_site_fract_z
Si Si1 0.076267 0.595402 0.378351
Si Si2 0.664859 0.815522 0.169668
Si Si3 0.442174 0.909857 0.079733
Si Si4 0.940326 0.411962 0.494743
Si Si5 0.274851 0.409690 0.422242
Si Si6 0.396126 0.594338 0.710203
Si Si7 0.878580 0.137192 0.908086
O O1 0.078466 0.500000 0.381518
O O2 0.033434 0.622979 0.399966
O O3 0.243871 0.618876 0.562376
O O4 0.966535 0.618591 0.185060
O O5 0.772182 0.854450 0.354749
O O6 0.680423 0.724068 0.177428
O O7 0.500000 0.825221 0.000000
O O8 0.659855 0.860052 0.093200
O O9 0.608923 0.908893 0.251872
O O10 0.394484 0.000000 0.021998
O O11 0.003650 0.500000 0.573744
O O12 0.764096 0.415750 0.271738
O O13 0.000000 0.372677 0.500000
O O14 0.304720 0.500000 0.440360
O O15 0.378041 0.385934 0.610048
O O16 0.405016 0.500000 0.725615
O O17 0.535045 0.630649 0.917044
O O18 0.000000 0.116833 0.000000
#
# Coordination Sequence:
#
# PCOD9191332 Si02
#       7
#     8   8   8   8   8   8   8
#     4   8  14  26  44  67  87 113 156 193 231 271
#     4   9  17  27  38  67  98 126 157 185 235 282
#     4   8  13  24  43  64  91 123 155 195 230 269
#     4  10  20  33  49  67  90 124 163 197 225 267
#     4   8  14  26  43  64  94 127 159 194 230 271
#     4   9  16  27  45  67  92 124 157 191 232 278
#     4  11  20  30  44  71 102 127 149 186 238 289
#
# _framework density 18.030526999999999
#
# number of rings (size 3 to 8) (size 9 to 14) (size 15 to 20)
#    0.000    3.000    1.429    2.571    0.000    2.286 
#    2.571    2.857    0.000    0.857    0.000    0.000 
#    0.000    1.143    0.000    0.000    0.000    0.000 
#
# Total GULP energy -155884.709793 kJ/mol
# GULP energy per Si atom -5567.311064 kJ/mol
# Density = 1.798949 g / cm^3
# Si number density = 18.030527 Si / 1000 Ang^3
#
#
#
# Elastic Constant Matrix: (Units=GPa)
#
#
# Indices 1 2 3 4 5 6 
#
# 1 99.2265 36.7515 41.8301 -0.0092 -39.4716 0.0064
# 2 36.7515 28.8904 23.7313 -0.0024 -16.7349 0.0016
# 3 41.8301 23.7313 44.1850 0.0018 -33.7599 -0.0009
# 4 -0.0092 -0.0024 0.0018 -70.3400 -0.0047 60.5894
# 5 -39.4716 -16.7349 -33.7599 -0.0047 36.0451 0.0035
# 6 0.0064 0.0016 -0.0009 60.5894 0.0035 -43.7576
#
#
#
# Elastic Compliance Matrix: (Units=1/GPa)
#
#
# Indices 1 2 3 4 5 6 
#
# 1 0.025360 -0.024334 0.005793 0.000000 0.021899 0.000004
# 2 -0.024334 0.086029 -0.045751 0.000003 -0.029556 0.000002
# 3 0.005793 -0.045751 0.106679 -0.000006 0.085018 -0.000004
# 4 0.000000 0.000003 -0.000006 0.073770 -0.000004 0.102146
# 5 0.021899 -0.029556 0.085018 -0.000004 0.117630 0.000004
# 6 0.000004 0.000002 -0.000004 0.102146 0.000004 0.118584
#
#
# Mechanical properties :
#
#
# Convention : Reuss Voigt Hill
#
# Bulk Modulus (GPa) = 11.17512 41.88088 26.52800
# Shear Modulus (GPa) = 7.28371 -10.94458 -1.83043
#
# Velocity S-wave (km/s) = 2.01207 -2.46642 -1.00866
# Velocity P-wave (km/s) = 3.40723 3.89452 3.65900
#
# Compressibility (1/GPa) = 0.08948451
#
# Stress axis : x y z
#
# Youngs Moduli (GPa) = 39.43265 11.62397 9.37391
#
# Poissons Ratio (x) = 0.28286 -0.05431
# Poissons Ratio (y) = 0.95955 0.42887
# Poissons Ratio (z) = -0.22844 0.53181
#
# Static dielectric constant tensor:
#      x y z
#    x 1.651560 0.000000 -0.035980 
#    y 0.000000 1.636800 0.000000 
#    z -0.035980 0.000000 1.605170 
# 
# From -- ./inp_files/157336.got.cif
#   From: 2010.05.17/outbox.cif.g08.bks.cpg/sg12_79_cif.got.tgz:157336.got - 2010.06.03 13:09:07.
