data_PCOD9191564
_publ_section_title
;
Structure prediction by ZEFSAII (Michael W. Deem and Ramdas Pophale) SiO2 
 PCOD9191564
Probable space group: C 2/M
;
_chemical_formula_sum "Si O2"
_cell_formula_units_Z 56
_cell_length_a 9.051096
_cell_length_b 15.281033
_cell_length_c 19.637944
_cell_angle_alpha 90.000000
_cell_angle_beta 103.323586
_cell_angle_gamma 90.000000
_cell_volume 2643.018931
_symmetry_space_group_name_H-M "C 2/M"
_symmetry_group_IT_number 12
_symmetry_cell_setting 'monoclinic'
loop_
_space_group_symop_operation_xyz
x,y,z
-x,y,-z
-x,-y,-z
x,-y,z
1/2+x,1/2+y,z
1/2-x,1/2+y,-z
1/2-x,1/2-y,-z
1/2+x,1/2-y,z
loop_
_atom_site_type_symbol
_atom_site_label
_atom_site_fract_x
_atom_site_fract_y
_atom_site_fract_z
Si Si1 0.595457 0.896858 0.361851
Si Si2 0.733604 0.103141 0.638149
Si Si3 0.330711 0.392316 0.500000
Si Si4 0.684663 0.154643 0.222123
Si Si5 0.462536 0.345359 0.777877
Si Si6 0.893034 0.652743 0.931399
Si Si7 0.461636 0.347258 0.068601
O O1 0.427063 0.858427 0.354124
O O2 0.713722 0.861762 0.429767
O O3 0.650201 0.888539 0.290399
O O4 0.586758 0.000000 0.374984
O O5 0.783955 0.138238 0.570233
O O6 0.859800 0.111458 0.709601
O O7 0.711769 0.000000 0.625014
O O8 0.500000 0.364028 0.500000
O O9 0.331568 0.500000 0.500000
O O10 0.610363 0.250001 0.220718
O O11 0.615834 0.113049 0.145498
O O12 0.864378 0.160689 0.228752
O O13 0.470335 0.386953 0.854502
O O14 0.720034 0.659274 0.940070
O O15 0.964225 0.750001 0.928452
O O16 0.000000 0.610137 0.000000
O O17 0.500000 0.389864 0.000000
#
# Coordination Sequence:
#
# PCOD9191564 Si02
#       7
#     8   8   8   8   8   8   8
#     4  10  20  34  53  76 101 130 165 204 245 291
#     4  10  20  34  53  76 101 130 165 204 245 291
#     4   9  17  31  52  75  98 127 164 203 241 287
#     4  10  20  33  50  74 103 133 165 203 248 295
#     4  10  20  33  50  74 103 133 165 203 248 295
#     4   9  16  26  43  67  94 125 161 200 240 285
#     4   9  16  26  43  67  94 125 161 200 240 285
#
# _framework density 21.187892999999999
#
# number of rings (size 3 to 8) (size 9 to 14) (size 15 to 20)
#    0.000    2.429    0.000    3.857    0.000    6.857 
#    0.000    0.714    0.000    0.857    0.000    0.000 
#    0.000    0.000    0.000    0.000    0.000    0.000 
#
# Total GULP energy -156153.051097 kJ/mol
# GULP energy per Si atom -5576.894682 kJ/mol
# Density = 2.113967 g / cm^3
# Si number density = 21.187893 Si / 1000 Ang^3
#
#
#
# Elastic Constant Matrix: (Units=GPa)
#
#
# Indices 1 2 3 4 5 6 
#
# 1 167.0600 6.9606 119.7908 0.0000 -0.0085 0.0000
# 2 6.9606 24.4819 9.5635 0.0000 0.0987 0.0000
# 3 119.7908 9.5635 239.4615 0.0000 2.7148 0.0000
# 4 0.0000 0.0000 0.0000 -75.2182 0.0000 -3.3343
# 5 -0.0085 0.0987 2.7148 0.0000 23.6611 0.0000
# 6 0.0000 0.0000 0.0000 -3.3343 0.0000 13.8275
#
#
#
# Elastic Compliance Matrix: (Units=1/GPa)
#
#
# Indices 1 2 3 4 5 6 
#
# 1 0.009358 -0.000845 -0.004654 0.000000 0.000541 0.000000
# 2 -0.000845 0.041570 -0.001237 0.000000 -0.000032 0.000000
# 3 -0.004654 -0.001237 0.006562 0.000000 -0.000749 0.000000
# 4 0.000000 0.000000 0.000000 -0.013154 0.000000 -0.003172
# 5 0.000541 -0.000032 -0.000749 0.000000 0.042350 0.000000
# 6 0.000000 0.000000 0.000000 -0.003172 0.000000 0.071555
#
#
# Mechanical properties :
#
#
# Convention : Reuss Voigt Hill
#
# Bulk Modulus (GPa) = 22.71768 78.18145 50.44956
# Shear Modulus (GPa) = 26.82615 12.09998 19.46306
#
# Velocity S-wave (km/s) = 3.56210 2.39232 3.03412
# Velocity P-wave (km/s) = 5.25960 6.67908 6.01139
#
# Compressibility (1/GPa) = 0.04401858
#
# Stress axis : x y z
#
# Youngs Moduli (GPa) = 106.85904 24.05568 152.39231
#
# Poissons Ratio (x) = 0.02032 0.70920
# Poissons Ratio (y) = 0.09028 0.18854
# Poissons Ratio (z) = 0.49730 0.02976
#
# Static dielectric constant tensor:
#      x y z
#    x 1.732300 0.000000 0.002830 
#    y 0.000000 1.801460 0.000000 
#    z 0.002830 0.000000 1.807720 
# 
# From -- ./inp_files/198349.got.cif
#   From: 2010.05.17/outbox.cif.g08.bks.cpg/sg12_100_cif.got.tgz:198349.got - 2010.06.03 13:09:07.
