data_PCOD9191843
_publ_section_title
;
Structure prediction by ZEFSAII (Michael W. Deem and Ramdas Pophale) SiO2 
 PCOD9191843
Probable space group: C 2/M
;
_chemical_formula_sum "Si O2"
_cell_formula_units_Z 64
_cell_length_a 23.259037
_cell_length_b 9.183497
_cell_length_c 16.960210
_cell_angle_alpha 90.000000
_cell_angle_beta 108.613876
_cell_angle_gamma 90.000000
_cell_volume 3433.190183
_symmetry_space_group_name_H-M "C 2/M"
_symmetry_group_IT_number 12
_symmetry_cell_setting 'monoclinic'
loop_
_space_group_symop_operation_xyz
x,y,z
-x,y,-z
-x,-y,-z
x,-y,z
1/2+x,1/2+y,z
1/2-x,1/2+y,-z
1/2-x,1/2-y,-z
1/2+x,1/2-y,z
loop_
_atom_site_type_symbol
_atom_site_label
_atom_site_fract_x
_atom_site_fract_y
_atom_site_fract_z
Si Si1 0.436462 0.673743 0.371967
Si Si2 0.522673 0.172077 0.168677
Si Si3 0.340096 0.174364 0.219663
Si Si4 0.135975 0.328263 0.335538
Si Si5 0.397146 0.326755 0.106345
Si Si6 0.786664 0.171833 0.756730
Si Si7 0.100360 0.170869 0.077548
Si Si8 0.922167 0.172860 0.549213
O O1 0.429908 0.500000 0.354036
O O2 0.395825 0.766157 0.295666
O O3 0.416340 0.701466 0.453530
O O4 0.507933 0.709202 0.398343
O O5 0.575049 0.197774 0.256494
O O6 0.462204 0.261563 0.159737
O O7 0.550541 0.230804 0.098904
O O8 0.509942 0.000000 0.159660
O O9 0.346964 0.248608 0.137560
O O10 0.278135 0.215923 0.237017
O O11 0.342155 0.000000 0.213209
O O12 0.144809 0.500000 0.346005
O O13 0.190297 0.257524 0.309552
O O14 0.123322 0.257710 0.414446
O O15 0.395757 0.500000 0.117953
O O16 0.391040 0.297135 0.010515
O O17 0.837416 0.191687 0.846899
O O18 0.784751 0.000000 0.737316
O O19 0.082564 0.000000 0.077365
O O20 0.914913 0.000000 0.558149
#
# Coordination Sequence:
#
# PCOD9191843 Si02
#       8
#     8   8   8   8   8   8   8   8
#     4   9  19  36  57  81 109 140 171 206 252 307
#     4  10  20  33  51  79 112 139 167 212 266 311
#     4  11  23  37  54  77 104 136 175 217 263 309
#     4  10  20  33  53  81 107 135 174 215 257 306
#     4  11  22  34  52  77 104 138 177 215 259 313
#     4   9  20  39  57  72  99 139 178 218 261 305
#     4   9  19  36  55  75 101 137 179 217 257 308
#     4   9  18  34  57  83 109 138 171 205 250 309
#
# _framework density 18.641555
#
# number of rings (size 3 to 8) (size 9 to 14) (size 15 to 20)
#    0.000    2.250    0.000    3.375    0.000    8.500 
#    0.000    1.875    0.000    0.000    0.000    0.000 
#    0.000    0.000    0.000    0.000    0.000    0.000 
#
# Total GULP energy -178719.585213 kJ/mol
# GULP energy per Si atom -5584.987038 kJ/mol
# Density = 1.859913 g / cm^3
# Si number density = 18.641555 Si / 1000 Ang^3
#
#
#
# Elastic Constant Matrix: (Units=GPa)
#
#
# Indices 1 2 3 4 5 6 
#
# 1 62.4659 31.4346 32.6214 0.0000 -33.8691 0.0000
# 2 31.4346 41.8508 37.1174 0.0000 -21.8323 0.0000
# 3 32.6214 37.1174 61.5178 0.0000 -31.5039 0.0000
# 4 0.0000 0.0000 0.0000 29.7368 0.0000 -8.5528
# 5 -33.8691 -21.8323 -31.5039 0.0000 31.5768 0.0000
# 6 0.0000 0.0000 0.0000 -8.5528 0.0000 26.2017
#
#
#
# Elastic Compliance Matrix: (Units=1/GPa)
#
#
# Indices 1 2 3 4 5 6 
#
# 1 0.045095 -0.020509 0.012207 0.000000 0.046367 0.000000
# 2 -0.020509 0.062128 -0.032465 0.000000 -0.011432 0.000000
# 3 0.012207 -0.032465 0.050260 0.000000 0.040790 0.000000
# 4 0.000000 0.000000 0.000000 0.037113 0.000000 0.012114
# 5 0.046367 -0.011432 0.040790 0.000000 0.114194 0.000000
# 6 0.000000 0.000000 0.000000 0.012114 0.000000 0.042120
#
#
# Mechanical properties :
#
#
# Convention : Reuss Voigt Hill
#
# Bulk Modulus (GPa) = 13.16680 40.90903 27.03791
# Shear Modulus (GPa) = 10.92274 21.81378 16.36826
#
# Velocity S-wave (km/s) = 2.42324 3.42449 2.96641
# Velocity P-wave (km/s) = 3.86108 6.13424 5.12527
#
# Compressibility (1/GPa) = 0.07594860
#
# Stress axis : x y z
#
# Youngs Moduli (GPa) = 22.17530 16.09573 19.89665
#
# Poissons Ratio (x) = 0.33011 -0.24287
# Poissons Ratio (y) = 0.45480 0.64594
# Poissons Ratio (z) = -0.27069 0.52255
#
# Static dielectric constant tensor:
#      x y z
#    x 1.632360 0.000000 -0.002840 
#    y 0.000000 1.616550 0.000000 
#    z -0.002840 0.000000 1.648310 
# 
# From -- ./inp_files/281317.got.cif
#   From: 2010.05.17/outbox.cif.g08.bks.cpg/sg12_141_cif.got.tgz:281317.got - 2010.06.03 13:09:07.
