data_PCOD9191894
_publ_section_title
;
Structure prediction by ZEFSAII (Michael W. Deem and Ramdas Pophale) SiO2 
 PCOD9191894
Probable space group: C 2/M
;
_chemical_formula_sum "Si O2"
_cell_formula_units_Z 48
_cell_length_a 16.375877
_cell_length_b 7.493459
_cell_length_c 15.025780
_cell_angle_alpha 90.000000
_cell_angle_beta 101.287684
_cell_angle_gamma 90.000000
_cell_volume 1808.177052
_symmetry_space_group_name_H-M "C 2/M"
_symmetry_group_IT_number 12
_symmetry_cell_setting 'monoclinic'
loop_
_space_group_symop_operation_xyz
x,y,z
-x,y,-z
-x,-y,-z
x,-y,z
1/2+x,1/2+y,z
1/2-x,1/2+y,-z
1/2-x,1/2-y,-z
1/2+x,1/2-y,z
loop_
_atom_site_type_symbol
_atom_site_label
_atom_site_fract_x
_atom_site_fract_y
_atom_site_fract_z
Si Si1 0.658214 0.211791 0.438196
Si Si2 0.157802 0.212932 0.945699
Si Si3 0.733293 0.294477 0.275811
Si Si4 0.960240 0.785578 0.224551
Si Si5 0.902656 0.287893 0.395026
Si Si6 0.601272 0.719270 0.117629
O O1 0.750000 0.250000 0.500000
O O2 0.665924 0.293343 0.342159
O O3 0.595574 0.278519 0.502622
O O4 0.648259 0.000000 0.423173
O O5 0.124629 0.278228 0.843406
O O6 0.149669 0.000000 0.939615
O O7 0.250000 0.250000 0.000000
O O8 0.099162 0.274817 0.014904
O O9 0.752197 0.500000 0.260705
O O10 0.817762 0.211592 0.332117
O O11 0.687905 0.217868 0.180475
O O12 0.967597 0.729885 0.328673
O O13 0.030434 0.723879 0.170787
O O14 0.961878 0.000000 0.227373
O O15 0.892445 0.500000 0.405779
O O16 0.600322 0.500000 0.117732
#
# Coordination Sequence:
#
# PCOD9191894 Si02
#       6
#     8   8   8   8   8   8
#     4   9  17  30  49  73 100 130 166 207 250 293
#     4  10  20  35  55  77 101 129 164 205 246 292
#     4   9  17  31  52  74  97 130 169 206 247 293
#     4  10  20  33  52  76  99 130 170 205 240 289
#     4   9  18  32  50  73 101 132 162 200 254 299
#     4   9  18  34  53  73 101 134 165 201 247 295
#
# _framework density 26.546071999999999
#
# number of rings (size 3 to 8) (size 9 to 14) (size 15 to 20)
#    0.000    2.667    0.000    3.000    0.000    7.333 
#    0.000    3.333    0.000    7.000    0.000    0.000 
#    0.000    0.000    0.000    0.000    0.000    0.000 
#
# Total GULP energy -134092.944002 kJ/mol
# GULP energy per Si atom -5587.206000 kJ/mol
# Density = 2.648565 g / cm^3
# Si number density = 26.546072 Si / 1000 Ang^3
#
#
#
# Elastic Constant Matrix: (Units=GPa)
#
#
# Indices 1 2 3 4 5 6 
#
# 1 78.5187 -4.6574 28.9549 0.0000 -18.6890 0.0000
# 2 -4.6574 87.9318 1.3336 0.0000 -0.2448 0.0000
# 3 28.9549 1.3336 188.6686 0.0000 -12.8293 0.0000
# 4 0.0000 0.0000 0.0000 16.5827 0.0000 -6.9560
# 5 -18.6890 -0.2448 -12.8293 0.0000 51.1631 0.0000
# 6 0.0000 0.0000 0.0000 -6.9560 0.0000 9.7352
#
#
#
# Elastic Compliance Matrix: (Units=1/GPa)
#
#
# Indices 1 2 3 4 5 6 
#
# 1 0.014654 0.000819 -0.001923 0.000000 0.004874 0.000000
# 2 0.000819 0.011419 -0.000186 0.000000 0.000307 0.000000
# 3 -0.001923 -0.000186 0.005645 0.000000 0.000712 0.000000
# 4 0.000000 0.000000 0.000000 0.086114 0.000000 0.061531
# 5 0.004874 0.000307 0.000712 0.000000 0.021506 0.000000
# 6 0.000000 0.000000 0.000000 0.061531 0.000000 0.146686
#
#
# Mechanical properties :
#
#
# Convention : Reuss Voigt Hill
#
# Bulk Modulus (GPa) = 34.31849 45.15348 39.73598
# Shear Modulus (GPa) = 16.76067 37.46206 27.11137
#
# Velocity S-wave (km/s) = 2.51545 3.76068 3.19924
# Velocity P-wave (km/s) = 4.62522 5.99194 5.35238
#
# Compressibility (1/GPa) = 0.02913882
#
# Stress axis : x y z
#
# Youngs Moduli (GPa) = 68.24151 87.56956 177.14182
#
# Poissons Ratio (x) = -0.07171 0.34069
# Poissons Ratio (y) = -0.05588 0.03286
# Poissons Ratio (z) = 0.13125 0.01624
#
# Static dielectric constant tensor:
#      x y z
#    x 2.223950 0.000000 -0.026760 
#    y 0.000000 2.028030 0.000000 
#    z -0.026760 0.000000 2.126890 
# 
# From -- ./inp_files/221661.got.cif
#   From: 2010.05.17/outbox.cif.g08.bks.cpg/sg12_111_cif.got.tgz:221661.got - 2010.06.03 13:09:07.
