data_PCOD9191538
_publ_section_title
;
Structure prediction by ZEFSAII (Michael W. Deem and Ramdas Pophale) SiO2 
 PCOD9191538
Probable space group: C 2/M
;
_chemical_formula_sum "Si O2"
_cell_formula_units_Z 48
_cell_length_a 10.131164
_cell_length_b 20.937917
_cell_length_c 20.879739
_cell_angle_alpha 90.000000
_cell_angle_beta 141.949220
_cell_angle_gamma 90.000000
_cell_volume 2729.933520
_symmetry_space_group_name_H-M "C 2/M"
_symmetry_group_IT_number 12
_symmetry_cell_setting 'monoclinic'
loop_
_space_group_symop_operation_xyz
x,y,z
-x,y,-z
-x,-y,-z
x,-y,z
1/2+x,1/2+y,z
1/2-x,1/2+y,-z
1/2-x,1/2-y,-z
1/2+x,1/2-y,z
loop_
_atom_site_type_symbol
_atom_site_label
_atom_site_fract_x
_atom_site_fract_y
_atom_site_fract_z
Si Si1 0.609372 0.427436 0.772862
Si Si2 0.640209 0.127069 0.616440
Si Si3 0.228984 0.572237 0.442504
Si Si4 0.823597 0.750963 0.760148
Si Si5 0.267214 0.205689 0.881798
Si Si6 0.330664 0.383859 0.345222
O O1 0.644770 0.500000 0.808496
O O2 0.356514 0.409995 0.679558
O O3 0.723903 0.370122 0.855100
O O4 0.684386 0.420023 0.727970
O O5 0.500000 0.141889 0.500000
O O6 0.490541 0.085714 0.605671
O O7 0.706871 0.190421 0.680469
O O8 0.301406 0.500000 0.483255
O O9 0.416892 0.617750 0.540665
O O10 0.218301 0.582783 0.362466
O O11 0.755079 0.738706 0.807151
O O12 0.763744 0.686227 0.700460
O O13 0.075805 0.765831 0.851130
O O14 0.500000 0.216046 0.000000
#
# Coordination Sequence:
#
# PCOD9191538 Si02
#       6
#     8   8   8   8   8   8
#     4  10  20  36  54  79 109 138 179 216 257 315
#     4  11  22  33  52  77 112 150 175 210 254 307
#     4  11  21  32  49  73 106 151 184 204 245 301
#     4  10  22  37  54  82 105 136 178 219 266 318
#     4  10  21  39  60  79 102 135 174 228 280 314
#     4  10  20  33  50  73 105 142 178 216 250 298
#
# _framework density 17.582846
#
# number of rings (size 3 to 8) (size 9 to 14) (size 15 to 20)
#    0.000    1.667    1.667    4.000    2.333    1.667 
#    0.000    0.000    0.000    0.000    0.000    0.000 
#    0.000   27.333    0.000    0.000    0.000    0.000 
#
# Total GULP energy -133954.079464 kJ/mol
# GULP energy per Si atom -5581.419978 kJ/mol
# Density = 1.754283 g / cm^3
# Si number density = 17.582846 Si / 1000 Ang^3
#
#
#
# Elastic Constant Matrix: (Units=GPa)
#
#
# Indices 1 2 3 4 5 6 
#
# 1 65.7313 15.9097 6.6826 0.0040 4.2688 0.0036
# 2 15.9097 93.3292 13.7356 0.0016 1.9713 0.0015
# 3 6.6826 13.7356 43.8983 0.0030 8.3480 0.0029
# 4 0.0040 0.0016 0.0030 -12.6910 0.0024 -18.2971
# 5 4.2688 1.9713 8.3480 0.0024 15.2907 0.0021
# 6 0.0036 0.0015 0.0029 -18.2971 0.0021 -9.3336
#
#
#
# Elastic Compliance Matrix: (Units=1/GPa)
#
#
# Indices 1 2 3 4 5 6 
#
# 1 0.016163 -0.002535 -0.000972 0.000002 -0.003655 0.000002
# 2 -0.002535 0.011633 -0.003463 0.000000 0.001099 0.000000
# 3 -0.000972 -0.003463 0.026641 0.000002 -0.013827 0.000001
# 4 0.000002 0.000000 0.000002 0.043145 0.000003 -0.084579
# 5 -0.003655 0.001099 -0.013827 0.000003 0.073827 0.000004
# 6 0.000002 0.000000 0.000001 -0.084579 0.000004 0.058664
#
#
# Mechanical properties :
#
#
# Convention : Reuss Voigt Hill
#
# Bulk Modulus (GPa) = 24.69333 30.62384 27.65858
# Shear Modulus (GPa) = 19.41646 9.76194 14.58920
#
# Velocity S-wave (km/s) = 3.32668 2.35882 2.88365
# Velocity P-wave (km/s) = 5.36938 4.98732 5.18187
#
# Compressibility (1/GPa) = 0.04049677
#
# Stress axis : x y z
#
# Youngs Moduli (GPa) = 61.86878 85.95970 37.53627
#
# Poissons Ratio (x) = 0.21791 0.03650
# Poissons Ratio (y) = 0.15684 0.12999
# Poissons Ratio (z) = 0.06016 0.29768
#
# Static dielectric constant tensor:
#      x y z
#    x 1.600010 0.000000 -0.001550 
#    y 0.000000 1.587620 0.000000 
#    z -0.001550 0.000000 1.577160 
# 
# From -- ./inp_files/196895.got.cif
#   From: 2010.05.17/outbox.cif.g08.bks.cpg/sg12_99_cif.got.tgz:196895.got - 2010.06.03 13:09:07.
