data_PCOD9191099
_publ_section_title
;
Structure prediction by ZEFSAII (Michael W. Deem and Ramdas Pophale) SiO2 
 PCOD9191099
Probable space group: C 2/M
;
_chemical_formula_sum "Si O2"
_cell_formula_units_Z 56
_cell_length_a 21.058349
_cell_length_b 21.245386
_cell_length_c 8.876136
_cell_angle_alpha 90.000000
_cell_angle_beta 133.134713
_cell_angle_gamma 90.000000
_cell_volume 2897.916794
_symmetry_space_group_name_H-M "C 2/M"
_symmetry_group_IT_number 12
_symmetry_cell_setting 'monoclinic'
loop_
_space_group_symop_operation_xyz
x,y,z
-x,y,-z
-x,-y,-z
x,-y,z
1/2+x,1/2+y,z
1/2-x,1/2+y,-z
1/2-x,1/2-y,-z
1/2+x,1/2-y,z
loop_
_atom_site_type_symbol
_atom_site_label
_atom_site_fract_x
_atom_site_fract_y
_atom_site_fract_z
Si Si1 0.750711 0.649789 0.445691
Si Si2 0.662614 0.224650 0.172152
Si Si3 0.472703 0.615621 0.127650
Si Si4 0.705349 0.337359 0.845948
Si Si5 0.447890 0.739211 0.265480
Si Si6 0.641472 0.430201 0.510380
Si Si7 0.772273 0.925805 0.861246
O O1 0.692174 0.704916 0.271195
O O2 0.828711 0.684098 0.661316
O O3 0.692776 0.610581 0.469614
O O4 0.778406 0.599513 0.366421
O O5 0.736727 0.195782 0.184833
O O6 0.577357 0.222301 0.927495
O O7 0.489274 0.676613 0.259346
O O8 0.542760 0.566176 0.297629
O O9 0.500000 0.630287 0.000000
O O10 0.374626 0.590371 0.990804
O O11 0.645129 0.285139 0.823968
O O12 0.647186 0.390789 0.672210
O O13 0.755515 0.378605 0.050681
O O14 0.500000 0.761318 0.500000
O O15 0.678804 0.500000 0.587136
O O16 0.763098 0.000000 0.874603
#
# Coordination Sequence:
#
# PCOD9191099 Si02
#       7
#     8   8   8   8   8   8   8
#     4  10  20  32  53  71  97 138 184 216 257 302
#     4  10  20  37  52  71  98 139 182 224 265 300
#     4  11  20  31  45  71 106 148 179 205 248 290
#     4  10  21  34  51  73 100 144 178 217 263 301
#     4  11  20  34  51  73 101 135 184 221 253 307
#     4  11  20  32  48  72 109 147 179 209 251 304
#     4  11  21  32  48  76 107 136 177 216 249 312
#
# _framework density 19.324225999999999
#
# number of rings (size 3 to 8) (size 9 to 14) (size 15 to 20)
#    0.000    1.429    5.714    1.714    0.000    0.571 
#    0.000    2.143    0.000    0.000    0.000    0.000 
#    0.000   21.714    0.000    0.000    0.000    0.000 
#
# Total GULP energy -156013.383253 kJ/mol
# GULP energy per Si atom -5571.906545 kJ/mol
# Density = 1.928024 g / cm^3
# Si number density = 19.324226 Si / 1000 Ang^3
#
#
#
# Elastic Constant Matrix: (Units=GPa)
#
#
# Indices 1 2 3 4 5 6 
#
# 1 9.1892 -3.6585 -12.1444 0.0000 -6.5765 0.0000
# 2 -3.6585 61.0719 17.0416 0.0000 10.5992 0.0000
# 3 -12.1444 17.0416 115.4544 0.0000 -6.9122 0.0000
# 4 0.0000 0.0000 0.0000 -8.9649 0.0000 24.9249
# 5 -6.5765 10.5992 -6.9122 0.0000 18.4443 0.0000
# 6 0.0000 0.0000 0.0000 24.9249 0.0000 -9.0325
#
#
#
# Elastic Compliance Matrix: (Units=1/GPa)
#
#
# Indices 1 2 3 4 5 6 
#
# 1 0.208539 -0.011600 0.029153 0.000000 0.091948 0.000000
# 2 -0.011600 0.020227 -0.005267 0.000000 -0.017734 0.000000
# 3 0.029153 -0.005267 0.013614 0.000000 0.018524 0.000000
# 4 0.000000 0.000000 0.000000 0.016718 0.000000 0.046134
# 5 0.091948 -0.017734 0.018524 0.000000 0.104136 0.000000
# 6 0.000000 0.000000 0.000000 0.046134 0.000000 0.016593
#
#
# Mechanical properties :
#
#
# Convention : Reuss Voigt Hill
#
# Bulk Modulus (GPa) = 3.74601 20.91031 12.32816
# Shear Modulus (GPa) = 11.25517 12.38782 11.82149
#
# Velocity S-wave (km/s) = 2.41599 2.53465 2.47603
# Velocity P-wave (km/s) = 3.11856 4.40570 3.81678
#
# Compressibility (1/GPa) = 0.26695073
#
# Stress axis : x y z
#
# Youngs Moduli (GPa) = 4.79527 49.43927 73.45136
#
# Poissons Ratio (x) = 0.57350 -2.14131
# Poissons Ratio (y) = 0.05563 0.38690
# Poissons Ratio (z) = -0.13980 0.26042
#
# Static dielectric constant tensor:
#      x y z
#    x 1.678070 0.000000 -0.030050 
#    y 0.000000 1.681330 0.000000 
#    z -0.030050 0.000000 1.785110 
# 
# From -- ./inp_files/98790.got.cif
#   From: 2010.05.17/outbox.cif.g08.bks.cpg/sg12_50_cif.got.tgz:98790.got - 2010.06.03 13:09:07.
