data_PCOD9191934
_publ_section_title
;
Structure prediction by ZEFSAII (Michael W. Deem and Ramdas Pophale) SiO2 
 PCOD9191934
Probable space group: C 2/M
;
_chemical_formula_sum "Si O2"
_cell_formula_units_Z 56
_cell_length_a 14.636496
_cell_length_b 8.572970
_cell_length_c 28.883195
_cell_angle_alpha 90.000000
_cell_angle_beta 122.324987
_cell_angle_gamma 90.000000
_cell_volume 3062.563651
_symmetry_space_group_name_H-M "C 2/M"
_symmetry_group_IT_number 12
_symmetry_cell_setting 'monoclinic'
loop_
_space_group_symop_operation_xyz
x,y,z
-x,y,-z
-x,-y,-z
x,-y,z
1/2+x,1/2+y,z
1/2-x,1/2+y,-z
1/2-x,1/2-y,-z
1/2+x,1/2-y,z
loop_
_atom_site_type_symbol
_atom_site_label
_atom_site_fract_x
_atom_site_fract_y
_atom_site_fract_z
Si Si1 0.659471 0.312022 0.641382
Si Si2 0.507294 0.312535 0.150253
Si Si3 0.195749 0.687347 0.847790
Si Si4 0.243617 0.312351 0.234575
Si Si5 0.920395 0.811753 0.548395
Si Si6 0.732152 0.185948 0.568473
Si Si7 0.062311 0.810357 0.062260
O O1 0.658467 0.500000 0.641208
O O2 0.698146 0.260878 0.702392
O O3 0.538936 0.257947 0.595238
O O4 0.735167 0.254611 0.620453
O O5 0.510690 0.500000 0.153169
O O6 0.404649 0.251943 0.150569
O O7 0.620120 0.246848 0.200439
O O8 0.506674 0.265067 0.095754
O O9 0.192084 0.500000 0.846598
O O10 0.199038 0.746893 0.795854
O O11 0.311811 0.736739 0.900871
O O12 0.244344 0.500000 0.232740
O O13 0.834677 0.767076 0.565016
O O14 0.872857 0.746246 0.487789
O O15 0.921461 0.000000 0.544922
O O16 0.729083 0.000000 0.569836
O O17 0.061476 0.000000 0.060743
O O18 0.000000 0.753165 0.000000
#
# Coordination Sequence:
#
# PCOD9191934 Si02
#       7
#     8   8   8   8   8   8   8
#     4  10  21  36  54  75 100 134 170 209 261 314
#     4  10  20  35  56  79 107 144 180 217 266 317
#     4  10  20  35  56  80 108 143 180 219 265 314
#     4  10  21  37  55  77 105 137 180 227 269 316
#     4   9  19  36  53  71 101 136 167 203 254 312
#     4  10  20  33  52  78 104 132 168 209 252 304
#     4   8  16  32  53  79 111 143 177 218 261 309
#
# _framework density 18.285333999999999
#
# number of rings (size 3 to 8) (size 9 to 14) (size 15 to 20)
#    0.000    2.429    0.000    3.000    0.000    5.714 
#    0.000    1.429    0.000   14.571    0.000    0.000 
#    0.000    0.000    0.000    0.000    0.000    0.000 
#
# Total GULP energy -156255.755064 kJ/mol
# GULP energy per Si atom -5580.562681 kJ/mol
# Density = 1.824372 g / cm^3
# Si number density = 18.285334 Si / 1000 Ang^3
#
#
#
# Elastic Constant Matrix: (Units=GPa)
#
#
# Indices 1 2 3 4 5 6 
#
# 1 127.8339 23.9766 59.0196 0.0000 -13.6621 0.0000
# 2 23.9766 29.6936 23.7703 0.0000 -2.0130 0.0000
# 3 59.0196 23.7703 134.0143 0.0000 -14.6086 0.0000
# 4 0.0000 0.0000 0.0000 23.9685 0.0000 -2.0198
# 5 -13.6621 -2.0130 -14.6086 0.0000 10.9755 0.0000
# 6 0.0000 0.0000 0.0000 -2.0198 0.0000 24.9668
#
#
#
# Elastic Compliance Matrix: (Units=1/GPa)
#
#
# Indices 1 2 3 4 5 6 
#
# 1 0.011284 -0.006189 -0.002883 0.000000 0.009074 0.000000
# 2 -0.006189 0.042700 -0.005655 0.000000 -0.007399 0.000000
# 3 -0.002883 -0.005655 0.010797 0.000000 0.009745 0.000000
# 4 0.000000 0.000000 0.000000 0.042008 0.000000 0.003398
# 5 0.009074 -0.007399 0.009745 0.000000 0.114021 0.000000
# 6 0.000000 0.000000 0.000000 0.003398 0.000000 0.040328
#
#
# Mechanical properties :
#
#
# Convention : Reuss Voigt Hill
#
# Bulk Modulus (GPa) = 28.30593 56.11940 42.21267
# Shear Modulus (GPa) = 16.53626 24.30053 20.41839
#
# Velocity S-wave (km/s) = 3.01050 3.64945 3.34526
# Velocity P-wave (km/s) = 5.25337 6.96531 6.16901
#
# Compressibility (1/GPa) = 0.03532828
#
# Stress axis : x y z
#
# Youngs Moduli (GPa) = 88.62027 23.41943 92.62121
#
# Poissons Ratio (x) = 0.14494 0.26699
# Poissons Ratio (y) = 0.54845 0.52374
# Poissons Ratio (z) = 0.25546 0.13243
#
# Static dielectric constant tensor:
#      x y z
#    x 1.619050 0.000000 0.000570 
#    y 0.000000 1.618470 0.000000 
#    z 0.000570 0.000000 1.618820 
# 
# From -- ./inp_files/360033.got.cif
#   From: 2010.05.17/outbox.cif.g08.bks.cpg/sg12_181_cif.got.tgz:360033.got - 2010.06.03 13:09:07.
