data_PCOD9191913
_publ_section_title
;
Structure prediction by ZEFSAII (Michael W. Deem and Ramdas Pophale) SiO2 
 PCOD9191913
Probable space group: C 2/M
;
_chemical_formula_sum "Si O2"
_cell_formula_units_Z 56
_cell_length_a 15.197900
_cell_length_b 9.255311
_cell_length_c 24.719915
_cell_angle_alpha 90.000000
_cell_angle_beta 62.999840
_cell_angle_gamma 90.000000
_cell_volume 3098.145703
_symmetry_space_group_name_H-M "C 2/M"
_symmetry_group_IT_number 12
_symmetry_cell_setting 'monoclinic'
loop_
_space_group_symop_operation_xyz
x,y,z
-x,y,-z
-x,-y,-z
x,-y,z
1/2+x,1/2+y,z
1/2-x,1/2+y,-z
1/2-x,1/2-y,-z
1/2+x,1/2-y,z
loop_
_atom_site_type_symbol
_atom_site_label
_atom_site_fract_x
_atom_site_fract_y
_atom_site_fract_z
Si Si1 0.839095 0.673616 0.224663
Si Si2 0.723406 0.335711 0.561219
Si Si3 0.070391 0.826232 0.904708
Si Si4 0.384145 0.330537 0.687142
Si Si5 0.923164 0.828365 0.305302
Si Si6 0.070662 0.665262 0.433873
Si Si7 0.153976 0.173741 0.999938
O O1 0.846341 0.500000 0.220652
O O2 0.883587 0.743687 0.158553
O O3 0.724403 0.715410 0.264639
O O4 0.893037 0.737774 0.262009
O O5 0.697284 0.500000 0.553118
O O6 0.750000 0.250000 0.500000
O O7 0.637127 0.279331 0.624375
O O8 0.820519 0.337864 0.571220
O O9 0.953130 0.791487 0.943242
O O10 0.076538 0.000000 0.896070
O O11 0.130824 0.791339 0.943116
O O12 0.379829 0.500000 0.674416
O O13 0.462228 0.313086 0.713183
O O14 0.422907 0.248338 0.623748
O O15 0.900377 0.000000 0.303984
O O16 0.037043 0.500000 0.433454
O O17 0.000000 0.729070 0.500000
O O18 0.167625 0.000000 0.999967
O O19 0.250000 0.250000 0.000000
#
# Coordination Sequence:
#
# PCOD9191913 Si02
#       7
#     8   8   8   8   8   8   8
#     4  11  23  38  57  85 116 148 193 244 286 331
#     4  10  20  33  52  77 104 139 180 226 284 347
#     4   9  20  39  60  84 119 162 195 227 280 343
#     4  10  22  38  56  79 108 143 186 234 284 340
#     4  10  21  39  58  77 107 149 189 229 287 353
#     4  10  20  34  53  79 108 137 178 232 287 343
#     4   9  19  37  62  91 122 156 196 235 277 330
#
# _framework density 18.075327999999999
#
# number of rings (size 3 to 8) (size 9 to 14) (size 15 to 20)
#    0.000    2.143    1.429    2.143    0.000    4.857 
#    0.000    5.714    0.000    0.000    0.000    0.000 
#    0.000    0.000    0.000    0.000    0.000    0.000 
#
# Total GULP energy -156190.670412 kJ/mol
# GULP energy per Si atom -5578.238229 kJ/mol
# Density = 1.803419 g / cm^3
# Si number density = 18.075328 Si / 1000 Ang^3
#
#
#
# Elastic Constant Matrix: (Units=GPa)
#
#
# Indices 1 2 3 4 5 6 
#
# 1 113.8245 48.7436 71.2426 0.0000 -1.7957 0.0000
# 2 48.7436 46.8416 67.9434 0.0000 3.7043 0.0000
# 3 71.2426 67.9434 163.3806 0.0000 3.9937 0.0000
# 4 0.0000 0.0000 0.0000 -210.7027 0.0000 -153.0970
# 5 -1.7957 3.7043 3.9937 0.0000 17.6771 0.0000
# 6 0.0000 0.0000 0.0000 -153.0970 0.0000 -68.8330
#
#
#
# Elastic Compliance Matrix: (Units=1/GPa)
#
#
# Indices 1 2 3 4 5 6 
#
# 1 0.016323 -0.017371 -0.000023 0.000000 0.005303 0.000000
# 2 -0.017371 0.072986 -0.022484 0.000000 -0.011979 0.000000
# 3 -0.000023 -0.022484 0.015451 0.000000 0.001219 0.000000
# 4 0.000000 0.000000 0.000000 0.007703 0.000000 -0.017134
# 5 0.005303 -0.011979 0.001219 0.000000 0.059344 0.000000
# 6 0.000000 0.000000 0.000000 -0.017134 0.000000 0.023581
#
#
# Mechanical properties :
#
#
# Convention : Reuss Voigt Hill
#
# Bulk Modulus (GPa) = 39.99619 77.76730 58.88175
# Shear Modulus (GPa) = 17.63802 -43.29724 -12.82961
#
# Velocity S-wave (km/s) = 3.12718 -4.89957 -2.66707
# Velocity P-wave (km/s) = 5.93418 3.33312 4.81270
#
# Compressibility (1/GPa) = 0.02500238
#
# Stress axis : x y z
#
# Youngs Moduli (GPa) = 61.26502 13.70135 64.71949
#
# Poissons Ratio (x) = 0.23801 0.00150
# Poissons Ratio (y) = 1.06424 1.45517
# Poissons Ratio (z) = 0.00142 0.30806
#
# Static dielectric constant tensor:
#      x y z
#    x 1.624340 0.000000 -0.019910 
#    y 0.000000 1.622620 0.000000 
#    z -0.019910 0.000000 1.604740 
# 
# From -- ./inp_files/338438.got.cif
#   From: 2010.05.17/outbox.cif.g08.bks.cpg/sg12_170_cif.got.tgz:338438.got - 2010.06.03 13:09:07.
