data_PCOD9191554
_publ_section_title
;
Structure prediction by ZEFSAII (Michael W. Deem and Ramdas Pophale) SiO2 
 PCOD9191554
Probable space group: C 2/M
;
_chemical_formula_sum "Si O2"
_cell_formula_units_Z 52
_cell_length_a 17.722079
_cell_length_b 16.988560
_cell_length_c 14.174380
_cell_angle_alpha 90.000000
_cell_angle_beta 43.629877
_cell_angle_gamma 90.000000
_cell_volume 2944.574557
_symmetry_space_group_name_H-M "C 2/M"
_symmetry_group_IT_number 12
_symmetry_cell_setting 'monoclinic'
loop_
_space_group_symop_operation_xyz
x,y,z
-x,y,-z
-x,-y,-z
x,-y,z
1/2+x,1/2+y,z
1/2-x,1/2+y,-z
1/2-x,1/2-y,-z
1/2+x,1/2-y,z
loop_
_atom_site_type_symbol
_atom_site_label
_atom_site_fract_x
_atom_site_fract_y
_atom_site_fract_z
Si Si1 0.128686 0.409460 0.497324
Si Si2 0.000000 0.714325 0.500000
Si Si3 0.668648 0.094745 0.763340
Si Si4 0.668696 0.406654 0.553050
Si Si5 0.976409 0.638748 0.809085
Si Si6 0.546836 0.303580 0.264784
Si Si7 0.755857 0.591094 0.095702
O O1 0.124948 0.500000 0.467018
O O2 0.094409 0.344723 0.452083
O O3 0.246754 0.393787 0.437435
O O4 0.042329 0.399656 0.661881
O O5 0.962431 0.767847 0.621155
O O6 0.763962 0.115084 0.602544
O O7 0.556420 0.130410 0.826151
O O8 0.703426 0.116084 0.836874
O O9 0.654488 0.000000 0.772823
O O10 0.645135 0.500000 0.569930
O O11 0.559550 0.356639 0.657308
O O12 0.955725 0.728989 0.801583
O O13 0.861017 0.598687 0.933832
O O14 0.655781 0.354550 0.156301
O O15 0.720721 0.500000 0.133129
#
# Coordination Sequence:
#
# PCOD9191554 Si02
#       7
#     8   4   8   8   8   8   8
#     4   9  18  34  55  75  97 129 168 205 240 284
#     4  10  21  32  49  76 104 128 160 208 251 284
#     4   9  18  32  53  76  96 125 164 204 242 284
#     4   9  18  34  53  73  99 130 163 197 241 298
#     4  10  20  33  50  74 101 128 163 205 246 286
#     4  11  22  33  48  74 105 133 159 196 248 297
#     4  11  21  34  52  72  99 132 166 201 239 292
#
# _framework density 17.659597999999999
#
# number of rings (size 3 to 8) (size 9 to 14) (size 15 to 20)
#    0.000    2.154    0.000    4.846    0.000    8.000 
#    0.000    3.077    0.000    0.000    0.000    0.000 
#    0.000   24.615    0.000    0.000    0.000    0.000 
#
# Total GULP energy -145153.071543 kJ/mol
# GULP energy per Si atom -5582.810444 kJ/mol
# Density = 1.761940 g / cm^3
# Si number density = 17.659598 Si / 1000 Ang^3
#
#
#
# Elastic Constant Matrix: (Units=GPa)
#
#
# Indices 1 2 3 4 5 6 
#
# 1 70.5262 37.7389 28.5902 0.0000 -20.6700 0.0000
# 2 37.7389 63.3435 19.3554 0.0000 -19.4060 0.0000
# 3 28.5902 19.3554 34.4966 0.0000 -22.5886 0.0000
# 4 0.0000 0.0000 0.0000 44.5546 0.0000 -26.0883
# 5 -20.6700 -19.4060 -22.5886 0.0000 22.2357 0.0000
# 6 0.0000 0.0000 0.0000 -26.0883 0.0000 61.9905
#
#
#
# Elastic Compliance Matrix: (Units=1/GPa)
#
#
# Indices 1 2 3 4 5 6 
#
# 1 0.026486 -0.011380 -0.017764 0.000000 -0.003357 0.000000
# 2 -0.011380 0.026443 0.008302 0.000000 0.020933 0.000000
# 3 -0.017764 0.008302 0.098520 0.000000 0.090816 0.000000
# 4 0.000000 0.000000 0.000000 0.029784 0.000000 0.012534
# 5 -0.003357 0.020933 0.090816 0.000000 0.152378 0.000000
# 6 0.000000 0.000000 0.000000 0.012534 0.000000 0.021406
#
#
# Mechanical properties :
#
#
# Convention : Reuss Voigt Hill
#
# Bulk Modulus (GPa) = 9.11045 37.74838 23.42942
# Shear Modulus (GPa) = 11.53959 31.26828 21.40393
#
# Velocity S-wave (km/s) = 2.55903 4.21243 3.48520
# Velocity P-wave (km/s) = 3.72849 6.71427 5.43061
#
# Compressibility (1/GPa) = 0.10976405
#
# Stress axis : x y z
#
# Youngs Moduli (GPa) = 37.75535 37.81650 10.15027
#
# Poissons Ratio (x) = 0.43037 0.18031
# Poissons Ratio (y) = 0.42967 -0.08427
# Poissons Ratio (z) = 0.67070 -0.31396
#
# Static dielectric constant tensor:
#      x y z
#    x 1.594140 0.000000 0.009450 
#    y 0.000000 1.593570 0.000000 
#    z 0.009450 0.000000 1.583870 
# 
# From -- ./inp_files/157753.got.cif
#   From: 2010.05.17/outbox.cif.g08.bks.cpg/sg12_79_cif.got.tgz:157753.got - 2010.06.03 13:09:07.
