data_PCOD9191605
_publ_section_title
;
Structure prediction by ZEFSAII (Michael W. Deem and Ramdas Pophale) SiO2 
 PCOD9191605
Probable space group: C 2/M
;
_chemical_formula_sum "Si O2"
_cell_formula_units_Z 56
_cell_length_a 32.333609
_cell_length_b 7.512134
_cell_length_c 21.635928
_cell_angle_alpha 90.000000
_cell_angle_beta 150.787802
_cell_angle_gamma 90.000000
_cell_volume 2564.799019
_symmetry_space_group_name_H-M "C 2/M"
_symmetry_group_IT_number 12
_symmetry_cell_setting 'monoclinic'
loop_
_space_group_symop_operation_xyz
x,y,z
-x,y,-z
-x,-y,-z
x,-y,z
1/2+x,1/2+y,z
1/2-x,1/2+y,-z
1/2-x,1/2-y,-z
1/2+x,1/2-y,z
loop_
_atom_site_type_symbol
_atom_site_label
_atom_site_fract_x
_atom_site_fract_y
_atom_site_fract_z
Si Si1 0.711868 0.213699 0.018267
Si Si2 0.526773 0.285711 0.103195
Si Si3 0.368281 0.716894 0.300288
Si Si4 0.386934 0.206129 0.576457
Si Si5 0.539760 0.715219 0.458104
Si Si6 0.038585 0.286830 0.852342
Si Si7 0.287223 0.287450 0.616726
O O1 0.780588 0.279366 0.157706
O O2 0.708157 0.000000 0.017953
O O3 0.750000 0.250000 0.000000
O O4 0.619014 0.280531 0.917638
O O5 0.530362 0.500000 0.104253
O O6 0.462506 0.244607 0.075669
O O7 0.620105 0.215784 0.245297
O O8 0.500000 0.221391 0.000000
O O9 0.367296 0.500000 0.299260
O O10 0.446396 0.770196 0.358250
O O11 0.394241 0.772449 0.402846
O O12 0.435433 0.214724 0.575575
O O13 0.450182 0.287635 0.709589
O O14 0.292165 0.280091 0.446133
O O15 0.375015 0.000000 0.578746
O O16 0.540331 0.500000 0.456573
O O17 0.037058 0.500000 0.841424
O O18 0.296451 0.500000 0.635374
O O19 0.250000 0.250000 0.500000
#
# Coordination Sequence:
#
# PCOD9191605 Si02
#       7
#     8   8   8   8   8   8   8
#     4  10  20  34  53  77 107 141 178 219 266 319
#     4  10  22  39  58  82 111 144 184 230 279 329
#     4   8  16  32  50  70 101 135 171 216 256 300
#     4  10  20  33  50  76 107 132 166 218 269 312
#     4   9  17  31  52  74  97 133 176 213 255 310
#     4  10  21  36  54  78 109 144 180 223 274 328
#     4  10  20  36  57  77 104 139 174 217 266 318
#
# _framework density 21.834069
#
# number of rings (size 3 to 8) (size 9 to 14) (size 15 to 20)
#    0.000    2.429    1.429    1.714    0.000    3.143 
#    0.000    2.143    0.000    0.000    0.000    0.000 
#    0.000    0.000    0.000    0.000    0.000    0.000 
#
# Total GULP energy -156209.913697 kJ/mol
# GULP energy per Si atom -5578.925489 kJ/mol
# Density = 2.178437 g / cm^3
# Si number density = 21.834069 Si / 1000 Ang^3
#
#
#
# Elastic Constant Matrix: (Units=GPa)
#
#
# Indices 1 2 3 4 5 6 
#
# 1 121.9966 -6.9494 52.7628 0.0000 -2.0371 0.0000
# 2 -6.9494 60.1568 8.0226 0.0001 7.3508 0.0000
# 3 52.7628 8.0226 128.8653 0.0000 12.0095 0.0000
# 4 0.0000 0.0001 0.0000 2.7180 0.0000 -5.5224
# 5 -2.0371 7.3508 12.0095 0.0000 21.2526 0.0000
# 6 0.0000 0.0000 0.0000 -5.5224 0.0000 25.3029
#
#
#
# Elastic Compliance Matrix: (Units=1/GPa)
#
#
# Indices 1 2 3 4 5 6 
#
# 1 0.010321 0.001428 -0.004603 0.000000 0.003097 0.000000
# 2 0.001428 0.017591 -0.001188 -0.000001 -0.005276 0.000000
# 3 -0.004603 -0.001188 0.010262 0.000000 -0.005829 0.000000
# 4 0.000000 -0.000001 0.000000 0.661069 0.000000 0.144281
# 5 0.003097 -0.005276 -0.005829 0.000000 0.052469 0.000000
# 6 0.000000 0.000000 0.000000 0.144281 0.000000 0.071011
#
#
# Mechanical properties :
#
#
# Convention : Reuss Voigt Hill
#
# Bulk Modulus (GPa) = 33.95910 46.52119 40.24015
# Shear Modulus (GPa) = 5.94342 27.00022 16.47182
#
# Velocity S-wave (km/s) = 1.65166 3.52036 2.74963
# Velocity P-wave (km/s) = 4.38456 6.15442 5.34328
#
# Compressibility (1/GPa) = 0.02944718
#
# Stress axis : x y z
#
# Youngs Moduli (GPa) = 96.89100 56.84621 97.44666
#
# Poissons Ratio (x) = -0.08116 0.44857
# Poissons Ratio (y) = -0.13834 0.11577
# Poissons Ratio (z) = 0.44602 0.06754
#
# Static dielectric constant tensor:
#      x y z
#    x 1.795560 0.000000 0.027470 
#    y 0.000000 1.838090 0.000000 
#    z 0.027470 0.000000 1.826240 
# 
# From -- ./inp_files/329515.got.cif
#   From: 2010.05.17/outbox.cif.g08.bks.cpg/sg12_165_cif.got.tgz:329515.got - 2010.06.03 13:09:07.
