data_PCOD9191118
_publ_section_title
;
Structure prediction by ZEFSAII (Michael W. Deem and Ramdas Pophale) SiO2 
 PCOD9191118
Probable space group: C 2/M
;
_chemical_formula_sum "Si O2"
_cell_formula_units_Z 58
_cell_length_a 30.495603
_cell_length_b 7.574488
_cell_length_c 24.131454
_cell_angle_alpha 90.000000
_cell_angle_beta 27.676141
_cell_angle_gamma 90.000000
_cell_volume 2589.016165
_symmetry_space_group_name_H-M "C 2/M"
_symmetry_group_IT_number 12
_symmetry_cell_setting 'monoclinic'
loop_
_space_group_symop_operation_xyz
x,y,z
-x,y,-z
-x,-y,-z
x,-y,z
1/2+x,1/2+y,z
1/2-x,1/2+y,-z
1/2-x,1/2-y,-z
1/2+x,1/2-y,z
loop_
_atom_site_type_symbol
_atom_site_label
_atom_site_fract_x
_atom_site_fract_y
_atom_site_fract_z
Si Si1 0.073117 0.801045 0.776602
Si Si2 0.500000 0.000000 0.500000
Si Si3 0.093283 0.702338 0.957585
Si Si4 0.192489 0.706394 0.742183
Si Si5 0.059263 0.216529 0.168052
Si Si6 0.272248 0.290970 0.101396
Si Si7 0.433615 0.710934 0.713912
Si Si8 0.896591 0.785293 0.556876
O O1 0.157634 0.725417 0.718587
O O2 0.029816 0.720546 0.769028
O O3 0.100446 0.000000 0.732924
O O4 0.983189 0.798182 0.918888
O O5 0.581006 0.841833 0.417047
O O6 0.058397 0.500000 0.992544
O O7 0.117427 0.780855 0.870661
O O8 0.190832 0.704546 0.883330
O O9 0.192022 0.500000 0.755851
O O10 0.297632 0.763718 0.639086
O O11 0.060060 0.278019 0.230223
O O12 0.056884 0.000000 0.170478
O O13 0.154520 0.267613 0.028820
O O14 0.283631 0.500000 0.095739
O O15 0.167003 0.253315 0.199972
O O16 0.441629 0.500000 0.707758
O O17 0.519950 0.769822 0.579067
O O18 0.900640 0.000000 0.562790
#
# Coordination Sequence:
#
# PCOD9191118 Si02
#       8
#     8   2   8   8   8   8   8   8
#     4  10  20  35  57  85 114 144 189 241 293 349
#     4  12  26  44  68  86 126 160 198 252 294 346
#     4  10  20  34  54  79 112 152 189 228 288 356
#     4  10  22  39  56  79 115 152 195 242 288 352
#     4   8  17  35  55  82 114 152 189 239 298 350
#     4  10  20  32  53  85 119 147 191 241 291 353
#     4  10  20  37  59  79 114 156 195 240 293 353
#     4  10  25  43  63  91 120 160 204 242 293 354
#
# _framework density 22.402332999999999
#
# number of rings (size 3 to 8) (size 9 to 14) (size 15 to 20)
#    0.000    2.207    0.000    3.103    3.862    2.759 
#    0.000    4.138    0.000    0.000    0.000    0.000 
#    0.000    0.000    0.000    0.000    0.000    0.000 
#
# Total GULP energy -161705.168306 kJ/mol
# GULP energy per Si atom -5576.040286 kJ/mol
# Density = 2.235134 g / cm^3
# Si number density = 22.402333 Si / 1000 Ang^3
#
#
#
# Elastic Constant Matrix: (Units=GPa)
#
#
# Indices 1 2 3 4 5 6 
#
# 1 145.3891 -1.1371 37.2255 0.0010 -15.5108 -0.0034
# 2 -1.1371 54.4501 4.8119 -0.0042 1.5329 -0.0018
# 3 37.2255 4.8119 48.5032 -0.0028 -10.3073 0.0037
# 4 0.0010 -0.0042 -0.0028 6.8145 0.0004 -14.4413
# 5 -15.5108 1.5329 -10.3073 0.0004 41.8526 -0.0019
# 6 -0.0034 -0.0018 0.0037 -14.4413 -0.0019 22.9730
#
#
#
# Elastic Compliance Matrix: (Units=1/GPa)
#
#
# Indices 1 2 3 4 5 6 
#
# 1 0.008695 0.000701 -0.006398 -0.000005 0.001621 -0.000001
# 2 0.000701 0.018641 -0.002614 -0.000043 -0.001067 -0.000025
# 3 -0.006398 -0.002614 0.026701 0.000002 0.004300 -0.000004
# 4 -0.000005 -0.000043 0.000002 -0.441768 -0.000008 -0.277705
# 5 0.001621 -0.001067 0.004300 -0.000008 0.025592 -0.000003
# 6 -0.000001 -0.000025 -0.000004 -0.277705 -0.000003 -0.131042
#
#
# Mechanical properties :
#
#
# Convention : Reuss Voigt Hill
#
# Bulk Modulus (GPa) = 26.72758 36.68255 31.70506
# Shear Modulus (GPa) = -10.77385 28.15748 8.69181
#
# Velocity S-wave (km/s) = -2.19538 3.54912 1.97188
# Velocity P-wave (km/s) = 2.35167 5.76238 4.40087
#
# Compressibility (1/GPa) = 0.03741454
#
# Stress axis : x y z
#
# Youngs Moduli (GPa) = 115.01265 53.64476 37.45189
#
# Poissons Ratio (x) = -0.03762 0.23962
# Poissons Ratio (y) = -0.08067 0.09791
# Poissons Ratio (z) = 0.73587 0.14024
#
# Static dielectric constant tensor:
#      x y z
#    x 1.880400 -0.000010 0.023400 
#    y -0.000010 1.846900 0.000010 
#    z 0.023400 0.000010 1.852610 
# 
# From -- ./inp_files/353025.got.cif
#   From: 2010.05.17/outbox.cif.g08.bks.cpg/sg12_177_cif.got.tgz:353025.got - 2010.06.03 13:09:07.
