data_PCOD9191860
_publ_section_title
;
Structure prediction by ZEFSAII (Michael W. Deem and Ramdas Pophale) SiO2 
 PCOD9191860
Probable space group: C 2/M
;
_chemical_formula_sum "Si O2"
_cell_formula_units_Z 56
_cell_length_a 23.880322
_cell_length_b 9.322285
_cell_length_c 12.392193
_cell_angle_alpha 90.000000
_cell_angle_beta 70.969326
_cell_angle_gamma 90.000000
_cell_volume 2607.958409
_symmetry_space_group_name_H-M "C 2/M"
_symmetry_group_IT_number 12
_symmetry_cell_setting 'monoclinic'
loop_
_space_group_symop_operation_xyz
x,y,z
-x,y,-z
-x,-y,-z
x,-y,z
1/2+x,1/2+y,z
1/2-x,1/2+y,-z
1/2-x,1/2-y,-z
1/2+x,1/2-y,z
loop_
_atom_site_type_symbol
_atom_site_label
_atom_site_fract_x
_atom_site_fract_y
_atom_site_fract_z
Si Si1 0.086874 0.158395 0.143324
Si Si2 0.996955 0.672374 0.674889
Si Si3 0.766372 0.674749 0.603016
Si Si4 0.666613 0.161811 0.795653
Si Si5 0.902449 0.327583 0.545198
Si Si6 0.191311 0.341154 0.035239
Si Si7 0.560476 0.662534 0.915776
O O1 0.025190 0.234103 0.211588
O O2 0.091027 0.000000 0.189509
O O3 0.140487 0.264243 0.136233
O O4 0.092927 0.142345 0.010963
O O5 0.996314 0.500000 0.695154
O O6 0.945613 0.706754 0.618239
O O7 0.059662 0.715686 0.584232
O O8 0.762584 0.500000 0.600257
O O9 0.750000 0.750000 0.500000
O O10 0.718979 0.740003 0.716477
O O11 0.834240 0.717938 0.589459
O O12 0.674224 0.146961 0.919857
O O13 0.603307 0.239202 0.818580
O O14 0.667864 0.000000 0.748224
O O15 0.901251 0.500000 0.543082
O O16 0.201202 0.500000 0.072734
O O17 0.250000 0.250000 0.000000
O O18 0.549311 0.500000 0.880156
O O19 0.500000 0.729114 0.000000
#
# Coordination Sequence:
#
# PCOD9191860 Si02
#       7
#     8   8   8   8   8   8   8
#     4  10  20  33  51  81 114 142 180 226 277 336
#     4   9  17  35  59  82 108 142 186 236 288 345
#     4  11  23  40  60  84 114 154 198 241 290 345
#     4  10  22  39  57  83 115 148 188 236 283 336
#     4   8  18  36  58  81 107 143 189 236 288 345
#     4  10  21  36  55  81 113 147 184 224 276 337
#     4   9  19  37  58  80 111 151 190 230 280 338
#
# _framework density 21.472735
#
# number of rings (size 3 to 8) (size 9 to 14) (size 15 to 20)
#    0.000    2.429    0.000    2.571    2.000    3.714 
#    0.000    6.429    0.000    0.000    0.000    0.000 
#    0.000    0.000    0.000    0.000    0.000    0.000 
#
# Total GULP energy -156108.248088 kJ/mol
# GULP energy per Si atom -5575.294575 kJ/mol
# Density = 2.142386 g / cm^3
# Si number density = 21.472735 Si / 1000 Ang^3
#
#
#
# Elastic Constant Matrix: (Units=GPa)
#
#
# Indices 1 2 3 4 5 6 
#
# 1 86.7194 35.7231 25.7739 0.0000 -42.3118 0.0000
# 2 35.7231 124.8393 45.3208 0.0000 -31.1024 0.0000
# 3 25.7739 45.3208 88.8270 0.0000 -31.8765 0.0000
# 4 0.0000 0.0000 0.0000 27.4963 0.0000 -6.2846
# 5 -42.3118 -31.1024 -31.8765 0.0000 48.7846 0.0000
# 6 0.0000 0.0000 0.0000 -6.2846 0.0000 19.0767
#
#
#
# Elastic Compliance Matrix: (Units=1/GPa)
#
#
# Indices 1 2 3 4 5 6 
#
# 1 0.020391 -0.002008 0.001300 0.000000 0.017255 0.000000
# 2 -0.002008 0.010634 -0.003965 0.000000 0.002447 0.000000
# 3 0.001300 -0.003965 0.016200 0.000000 0.009185 0.000000
# 4 0.000000 0.000000 0.000000 0.039330 0.000000 0.012957
# 5 0.017255 0.002447 0.009185 0.000000 0.043026 0.000000
# 6 0.000000 0.000000 0.000000 0.012957 0.000000 0.056688
#
#
# Mechanical properties :
#
#
# Convention : Reuss Voigt Hill
#
# Bulk Modulus (GPa) = 26.39970 57.11344 41.75657
# Shear Modulus (GPa) = 24.01071 31.97605 27.99338
#
# Velocity S-wave (km/s) = 3.34757 3.86313 3.61456
# Velocity P-wave (km/s) = 5.22138 6.82307 6.07524
#
# Compressibility (1/GPa) = 0.03787921
#
# Stress axis : x y z
#
# Youngs Moduli (GPa) = 49.04081 94.03829 61.73008
#
# Poissons Ratio (x) = 0.18883 -0.08025
# Poissons Ratio (y) = 0.09848 0.24474
# Poissons Ratio (z) = -0.06375 0.37283
#
# Static dielectric constant tensor:
#      x y z
#    x 1.865650 0.000000 0.067240 
#    y 0.000000 1.816160 0.000000 
#    z 0.067240 0.000000 1.834410 
# 
# From -- ./inp_files/243686.got.cif
#   From: 2010.05.17/outbox.cif.g08.bks.cpg/sg12_122_cif.got.tgz:243686.got - 2010.06.03 13:09:07.
