data_PCOD9191222
_publ_section_title
;
Structure prediction by ZEFSAII (Michael W. Deem and Ramdas Pophale) SiO2 
 PCOD9191222
Probable space group: C 2/M
;
_chemical_formula_sum "Si O2"
_cell_formula_units_Z 48
_cell_length_a 13.716367
_cell_length_b 29.577143
_cell_length_c 14.237916
_cell_angle_alpha 90.000000
_cell_angle_beta 159.840777
_cell_angle_gamma 90.000000
_cell_volume 1990.650729
_symmetry_space_group_name_H-M "C 2/M"
_symmetry_group_IT_number 12
_symmetry_cell_setting 'monoclinic'
loop_
_space_group_symop_operation_xyz
x,y,z
-x,y,-z
-x,-y,-z
x,-y,z
1/2+x,1/2+y,z
1/2-x,1/2+y,-z
1/2-x,1/2-y,-z
1/2+x,1/2-y,z
loop_
_atom_site_type_symbol
_atom_site_label
_atom_site_fract_x
_atom_site_fract_y
_atom_site_fract_z
Si Si1 0.544127 0.410328 0.147479
Si Si2 0.373471 0.244696 0.505588
Si Si3 0.207974 0.885410 0.601479
Si Si4 0.742050 0.674738 0.885545
Si Si5 0.960229 0.553247 0.675860
Si Si6 0.634862 0.307677 0.000989
O O1 0.499576 0.356313 0.105373
O O2 0.287204 0.433337 0.970564
O O3 0.500000 0.426211 0.000000
O O4 0.820382 0.423544 0.456839
O O5 0.250000 0.250000 0.500000
O O6 0.586085 0.286726 0.681925
O O7 0.580523 0.201870 0.685723
O O8 0.095262 0.232216 0.195807
O O9 0.341676 0.926770 0.666367
O O10 0.000000 0.895907 0.500000
O O11 0.000061 0.862990 0.337768
O O12 0.454800 0.849581 0.855130
O O13 0.743568 0.693390 0.991989
O O14 0.916648 0.500000 0.630291
#
# Coordination Sequence:
#
# PCOD9191222 Si02
#       6
#     8   8   8   8   8   8
#     4  12  26  45  72 104 137 178 225 280 348 420
#     4  10  20  32  62  98 130 179 228 271 324 386
#     4  12  24  42  68  99 136 181 228 279 340 407
#     4  11  20  39  63  95 138 178 229 280 328 393
#     4  12  26  48  73 100 135 175 223 289 354 419
#     4  11  19  38  63  93 137 176 224 272 330 395
#
# _framework density 24.112717
#
# number of rings (size 3 to 8) (size 9 to 14) (size 15 to 20)
#    0.000    0.667    3.333    7.500    0.000    2.333 
#    0.000    3.333    0.000    4.000    0.000    0.000 
#    0.000    0.000    0.000    0.000    0.000    0.000 
#
# Total GULP energy -134201.592502 kJ/mol
# GULP energy per Si atom -5591.733021 kJ/mol
# Density = 2.405784 g / cm^3
# Si number density = 24.112717 Si / 1000 Ang^3
#
#
#
# Elastic Constant Matrix: (Units=GPa)
#
#
# Indices 1 2 3 4 5 6 
#
# 1 120.2140 23.5223 10.8139 -0.0008 -0.3627 -0.0006
# 2 23.5223 108.4380 14.9188 0.0017 13.1136 0.0020
# 3 10.8139 14.9188 129.9671 -0.0039 9.9288 0.0021
# 4 -0.0008 0.0017 -0.0039 19.1400 -0.0008 -10.8005
# 5 -0.3627 13.1136 9.9288 -0.0008 29.0207 -0.0009
# 6 -0.0006 0.0020 0.0021 -10.8005 -0.0009 -9.9808
#
#
#
# Elastic Compliance Matrix: (Units=1/GPa)
#
#
# Indices 1 2 3 4 5 6 
#
# 1 0.008760 -0.001963 -0.000595 0.000000 0.001200 -0.000001
# 2 -0.001963 0.010278 -0.000677 0.000000 -0.004437 0.000002
# 3 -0.000595 -0.000677 0.008008 0.000002 -0.002441 0.000000
# 4 0.000000 0.000000 0.000002 0.032439 -0.000001 -0.035103
# 5 0.001200 -0.004437 -0.002441 -0.000001 0.037313 -0.000004
# 6 -0.000001 0.000002 0.000000 -0.035103 -0.000004 -0.062207
#
#
# Mechanical properties :
#
#
# Convention : Reuss Voigt Hill
#
# Bulk Modulus (GPa) = 48.60669 50.79209 49.69939
# Shear Modulus (GPa) = 104.33998 28.26025 66.30012
#
# Velocity S-wave (km/s) = 6.58526 3.42717 5.24934
# Velocity P-wave (km/s) = 8.83305 6.06390 7.57607
#
# Compressibility (1/GPa) = 0.02057330
#
# Stress axis : x y z
#
# Youngs Moduli (GPa) = 114.15717 97.29966 124.87467
#
# Poissons Ratio (x) = 0.19104 0.07432
# Poissons Ratio (y) = 0.22414 0.08459
# Poissons Ratio (z) = 0.06794 0.06591
#
# Static dielectric constant tensor:
#      x y z
#    x 2.011430 0.000000 -0.017560 
#    y 0.000000 1.905750 0.000000 
#    z -0.017560 0.000000 1.862810 
# 
# From -- ./inp_files/219601.got.cif
#   From: 2010.05.17/outbox.cif.g08.bks.cpg/sg12_110_cif.got.tgz:219601.got - 2010.06.03 13:09:07.
