data_PCOD9191372
_publ_section_title
;
Structure prediction by ZEFSAII (Michael W. Deem and Ramdas Pophale) SiO2 
 PCOD9191372
Probable space group: C 2/M
;
_chemical_formula_sum "Si O2"
_cell_formula_units_Z 32
_cell_length_a 19.157018
_cell_length_b 7.463762
_cell_length_c 26.204797
_cell_angle_alpha 90.000000
_cell_angle_beta 156.175327
_cell_angle_gamma 90.000000
_cell_volume 1513.500465
_symmetry_space_group_name_H-M "C 2/M"
_symmetry_group_IT_number 12
_symmetry_cell_setting 'monoclinic'
loop_
_space_group_symop_operation_xyz
x,y,z
-x,y,-z
-x,-y,-z
x,-y,z
1/2+x,1/2+y,z
1/2-x,1/2+y,-z
1/2-x,1/2-y,-z
1/2+x,1/2-y,z
loop_
_atom_site_type_symbol
_atom_site_label
_atom_site_fract_x
_atom_site_fract_y
_atom_site_fract_z
Si Si1 0.950758 0.714440 0.624372
Si Si2 0.008866 0.212738 0.140160
Si Si3 0.395122 0.780343 0.379685
Si Si4 0.852156 0.716152 0.144116
O O1 0.972716 0.500000 0.638270
O O2 0.750000 0.750000 0.500000
O O3 0.014491 0.780027 0.612016
O O4 0.064451 0.782977 0.747827
O O5 0.196613 0.281230 0.250358
O O6 0.970322 0.240034 0.174259
O O7 0.012512 0.000000 0.133409
O O8 0.840841 0.283721 0.997794
O O9 0.500000 0.724547 0.500000
O O10 0.394817 0.000000 0.379703
O O11 0.843483 0.500000 0.140904
#
# Coordination Sequence:
#
# PCOD9191372 Si02
#       4
#     8   8   8   8
#     4  10  20  33  49  70  96 124 157 196 235 277
#     4   9  17  31  51  71  94 126 158 189 230 278
#     4   9  17  29  47  70  93 121 159 196 228 271
#     4   9  18  31  48  72  98 123 154 193 234 276
#
# _framework density 21.143039999999999
#
# number of rings (size 3 to 8) (size 9 to 14) (size 15 to 20)
#    0.000    2.750    0.000    1.500    0.000    4.000 
#    0.000    6.250    0.000    4.500    0.000    8.750 
#    0.000    0.000    0.000    0.000    0.000    0.000 
#
# Total GULP energy -89346.264043 kJ/mol
# GULP energy per Si atom -5584.141503 kJ/mol
# Density = 2.109492 g / cm^3
# Si number density = 21.143040 Si / 1000 Ang^3
#
#
#
# Elastic Constant Matrix: (Units=GPa)
#
#
# Indices 1 2 3 4 5 6 
#
# 1 208.4849 -5.6846 156.2500 -0.0004 8.0355 -0.0001
# 2 -5.6846 58.2186 -0.3691 0.0000 3.4266 0.0001
# 3 156.2500 -0.3691 177.6239 0.0007 0.0803 0.0006
# 4 -0.0004 0.0000 0.0007 6.7030 0.0006 -0.1692
# 5 8.0355 3.4266 0.0803 0.0006 42.7534 0.0000
# 6 -0.0001 0.0001 0.0006 -0.1692 0.0000 16.0695
#
#
#
# Elastic Compliance Matrix: (Units=1/GPa)
#
#
# Indices 1 2 3 4 5 6 
#
# 1 0.014507 0.001502 -0.012757 0.000002 -0.002823 0.000001
# 2 0.001502 0.017414 -0.001284 0.000000 -0.001676 0.000000
# 3 -0.012757 -0.001284 0.016848 -0.000003 0.002469 -0.000001
# 4 0.000002 0.000000 -0.000003 0.149226 -0.000003 0.001571
# 5 -0.002823 -0.001676 0.002469 -0.000003 0.024050 0.000000
# 6 0.000001 0.000000 -0.000001 0.001571 0.000000 0.062246
#
#
# Mechanical properties :
#
#
# Convention : Reuss Voigt Hill
#
# Bulk Modulus (GPa) = 42.21163 82.74665 62.47914
# Shear Modulus (GPa) = 15.75961 32.71392 24.23676
#
# Velocity S-wave (km/s) = 2.73313 3.93780 3.38941
# Velocity P-wave (km/s) = 5.47431 7.73929 6.70316
#
# Compressibility (1/GPa) = 0.02369015
#
# Stress axis : x y z
#
# Youngs Moduli (GPa) = 68.93197 57.42582 59.35420
#
# Poissons Ratio (x) = -0.08624 0.75718
# Poissons Ratio (y) = -0.10352 0.07622
# Poissons Ratio (z) = 0.87936 0.07374
#
# Static dielectric constant tensor:
#      x y z
#    x 1.708450 0.000000 -0.004960 
#    y 0.000000 1.801870 0.000000 
#    z -0.004960 0.000000 1.748270 
# 
# From -- ./inp_files/56987.got.cif
#   From: 2010.05.17/outbox.cif.g08.bks.cpg/sg12_29_cif.got.tgz:56987.got - 2010.06.03 13:09:07.
