data_PCOD9191257
_publ_section_title
;
Structure prediction by ZEFSAII (Michael W. Deem and Ramdas Pophale) SiO2 
 PCOD9191257
Probable space group: C 2/M
;
_chemical_formula_sum "Si O2"
_cell_formula_units_Z 48
_cell_length_a 30.928127
_cell_length_b 13.769780
_cell_length_c 7.371138
_cell_angle_alpha 90.000000
_cell_angle_beta 118.660550
_cell_angle_gamma 90.000000
_cell_volume 2754.550317
_symmetry_space_group_name_H-M "C 2/M"
_symmetry_group_IT_number 12
_symmetry_cell_setting 'monoclinic'
loop_
_space_group_symop_operation_xyz
x,y,z
-x,y,-z
-x,-y,-z
x,-y,z
1/2+x,1/2+y,z
1/2-x,1/2+y,-z
1/2-x,1/2-y,-z
1/2+x,1/2-y,z
loop_
_atom_site_type_symbol
_atom_site_label
_atom_site_fract_x
_atom_site_fract_y
_atom_site_fract_z
Si Si1 0.725061 0.387300 0.310703
Si Si2 0.014305 0.382221 0.731921
Si Si3 0.589258 0.111818 0.362049
Si Si4 0.306510 0.722423 0.076087
Si Si5 0.823140 0.257582 0.506199
Si Si6 0.379480 0.111572 0.144422
O O1 0.729336 0.500000 0.361426
O O2 0.779074 0.337435 0.407884
O O3 0.694871 0.325390 0.396087
O O4 0.697120 0.368154 0.064653
O O5 0.013435 0.500000 0.729404
O O6 0.071661 0.357690 0.868927
O O7 0.000000 0.349235 0.500000
O O8 0.967683 0.355249 0.761498
O O9 0.627765 0.183645 0.347949
O O10 0.604397 0.109926 0.608471
O O11 0.593022 0.000000 0.305522
O O12 0.329848 0.710770 0.320555
O O13 0.335229 0.812193 0.040031
O O14 0.250000 0.750000 0.000000
O O15 0.365943 0.000000 0.071952
#
# Coordination Sequence:
#
# PCOD9191257 Si02
#       6
#     8   8   8   8   8   8
#     4  10  20  33  47  65  92 120 148 187 226 259
#     4   7  10  17  34  63  92 117 144 173 216 271
#     4   8  12  21  41  67  94 120 145 178 220 267
#     4   9  18  30  45  67  91 118 154 182 211 262
#     4   9  18  32  48  69  91 117 152 182 218 270
#     4   8  13  23  40  64  95 122 144 179 223 266
#
# _framework density 17.425712999999998
#
# number of rings (size 3 to 8) (size 9 to 14) (size 15 to 20)
#    0.000    3.500    0.000    2.500    0.000    4.667 
#    0.000    7.500    0.000    1.000    0.000    5.833 
#    0.000    6.667    0.000    0.000    0.000    0.000 
#
# Total GULP energy -133644.466702 kJ/mol
# GULP energy per Si atom -5568.519446 kJ/mol
# Density = 1.738605 g / cm^3
# Si number density = 17.425713 Si / 1000 Ang^3
#
#
#
# Elastic Constant Matrix: (Units=GPa)
#
#
# Indices 1 2 3 4 5 6 
#
# 1 126.3023 52.7243 22.9613 0.0000 11.0950 0.0000
# 2 52.7243 85.7261 26.1262 0.0000 -0.6367 0.0000
# 3 22.9613 26.1262 50.5065 0.0000 -0.1192 0.0000
# 4 0.0000 0.0000 0.0000 11.8882 0.0000 7.6455
# 5 11.0950 -0.6367 -0.1192 0.0000 19.0513 0.0000
# 6 0.0000 0.0000 0.0000 7.6455 0.0000 24.2216
#
#
#
# Elastic Compliance Matrix: (Units=1/GPa)
#
#
# Indices 1 2 3 4 5 6 
#
# 1 0.011649 -0.006645 -0.001875 0.000000 -0.007018 0.000000
# 2 -0.006645 0.017642 -0.006095 0.000000 0.004421 0.000000
# 3 -0.001875 -0.006095 0.023807 0.000000 0.001037 0.000000
# 4 0.000000 0.000000 0.000000 0.105543 0.000000 -0.033314
# 5 -0.007018 0.004421 0.001037 0.000000 0.056731 0.000000
# 6 0.000000 0.000000 0.000000 -0.033314 0.000000 0.051801
#
#
# Mechanical properties :
#
#
# Convention : Reuss Voigt Hill
#
# Bulk Modulus (GPa) = 41.89594 51.79539 46.84567
# Shear Modulus (GPa) = 16.42799 21.74708 19.08753
#
# Velocity S-wave (km/s) = 3.07374 3.53652 3.31322
# Velocity P-wave (km/s) = 6.05739 6.81645 6.44810
#
# Compressibility (1/GPa) = 0.02386866
#
# Stress axis : x y z
#
# Youngs Moduli (GPa) = 85.84559 56.68199 42.00452
#
# Poissons Ratio (x) = 0.37666 0.07876
# Poissons Ratio (y) = 0.57045 0.25600
# Poissons Ratio (z) = 0.16096 0.34546
#
# Static dielectric constant tensor:
#      x y z
#    x 1.632240 0.000000 -0.028580 
#    y 0.000000 1.538060 0.000000 
#    z -0.028580 0.000000 1.712060 
# 
# From -- ./inp_files/102026.got.cif
#   From: 2010.05.17/outbox.cif.g08.bks.cpg/sg12_52_cif.got.tgz:102026.got - 2010.06.03 13:09:07.
