data_PCOD9191653
_publ_section_title
;
Structure prediction by ZEFSAII (Michael W. Deem and Ramdas Pophale) SiO2 
 PCOD9191653
Probable space group: C 2/M
;
_chemical_formula_sum "Si O2"
_cell_formula_units_Z 56
_cell_length_a 26.607520
_cell_length_b 7.465690
_cell_length_c 15.861039
_cell_angle_alpha 90.000000
_cell_angle_beta 126.416277
_cell_angle_gamma 90.000000
_cell_volume 2535.441384
_symmetry_space_group_name_H-M "C 2/M"
_symmetry_group_IT_number 12
_symmetry_cell_setting 'monoclinic'
loop_
_space_group_symop_operation_xyz
x,y,z
-x,y,-z
-x,-y,-z
x,-y,z
1/2+x,1/2+y,z
1/2-x,1/2+y,-z
1/2-x,1/2-y,-z
1/2+x,1/2-y,z
loop_
_atom_site_type_symbol
_atom_site_label
_atom_site_fract_x
_atom_site_fract_y
_atom_site_fract_z
Si Si1 0.341598 0.713357 0.574480
Si Si2 0.839594 0.782031 0.011220
Si Si3 0.231411 0.795808 0.341966
Si Si4 0.223051 0.279832 0.790348
Si Si5 0.539466 0.706986 0.962261
Si Si6 0.484578 0.786293 0.727616
Si Si7 0.397189 0.204518 0.247204
O O1 0.330175 0.500000 0.561817
O O2 0.295405 0.794742 0.459532
O O3 0.319694 0.782122 0.644876
O O4 0.413975 0.747716 0.632519
O O5 0.892480 0.721625 0.996527
O O6 0.859784 0.706622 0.121202
O O7 0.842693 0.000000 0.019923
O O8 0.771343 0.730117 0.911873
O O9 0.247566 0.715742 0.267993
O O10 0.211187 0.000000 0.304730
O O11 0.220633 0.500000 0.786202
O O12 0.152736 0.215780 0.737674
O O13 0.551036 0.500000 0.997256
O O14 0.500200 0.713581 0.836288
O O15 0.500000 0.787797 0.000000
O O16 0.536026 0.715670 0.712333
O O17 0.493381 0.000000 0.741865
O O18 0.408878 0.000000 0.286028
#
# Coordination Sequence:
#
# PCOD9191653 Si02
#       7
#     8   8   8   8   8   8   8
#     4  10  20  35  56  77 101 129 163 205 255 306
#     4   9  17  29  48  73 101 134 169 203 244 292
#     4   9  19  35  56  78 100 126 163 209 254 300
#     4   9  17  31  53  76  98 129 170 209 246 293
#     4   9  18  30  47  72 103 134 169 207 244 295
#     4  10  20  33  51  72 100 136 169 202 248 297
#     4   9  18  33  50  72 102 134 169 206 243 290
#
# _framework density 22.086881999999999
#
# number of rings (size 3 to 8) (size 9 to 14) (size 15 to 20)
#    0.000    2.714    0.000    1.286    2.000    1.429 
#    0.000    2.143    0.000    4.286    0.000    0.000 
#    0.000    0.000    0.000    0.000    0.000    0.000 
#
# Total GULP energy -156220.234178 kJ/mol
# GULP energy per Si atom -5579.294078 kJ/mol
# Density = 2.203661 g / cm^3
# Si number density = 22.086882 Si / 1000 Ang^3
#
#
#
# Elastic Constant Matrix: (Units=GPa)
#
#
# Indices 1 2 3 4 5 6 
#
# 1 69.6272 -2.3146 14.7966 0.0000 21.9716 0.0000
# 2 -2.3146 73.3793 -11.0445 0.0000 -2.7880 0.0001
# 3 14.7966 -11.0445 16.8870 0.0000 10.9576 0.0000
# 4 0.0000 0.0000 0.0000 16.1719 0.0000 3.8387
# 5 21.9716 -2.7880 10.9576 0.0000 32.8959 0.0000
# 6 0.0000 0.0001 0.0000 3.8387 0.0000 113.1093
#
#
#
# Elastic Compliance Matrix: (Units=1/GPa)
#
#
# Indices 1 2 3 4 5 6 
#
# 1 0.019879 -0.001599 -0.012452 0.000000 -0.009265 0.000000
# 2 -0.001599 0.015416 0.012685 0.000000 -0.001851 0.000000
# 3 -0.012452 0.012685 0.092274 0.000000 -0.021344 0.000000
# 4 0.000000 0.000000 0.000000 0.062338 0.000000 -0.002116
# 5 -0.009265 -0.001851 -0.021344 0.000000 0.043540 0.000000
# 6 0.000000 0.000000 0.000000 -0.002116 0.000000 0.008913
#
#
# Mechanical properties :
#
#
# Convention : Reuss Voigt Hill
#
# Bulk Modulus (GPa) = 8.01053 18.08539 13.04796
# Shear Modulus (GPa) = 17.43952 42.99915 30.21934
#
# Velocity S-wave (km/s) = 2.81301 4.41706 3.70294
# Velocity P-wave (km/s) = 3.76635 5.84979 4.91962
#
# Compressibility (1/GPa) = 0.12483562
#
# Stress axis : x y z
#
# Youngs Moduli (GPa) = 50.30440 64.86651 10.83733
#
# Poissons Ratio (x) = 0.10373 0.13495
# Poissons Ratio (y) = 0.08045 -0.13747
# Poissons Ratio (z) = 0.62639 -0.82281
#
# Static dielectric constant tensor:
#      x y z
#    x 1.861650 0.000000 -0.016280 
#    y 0.000000 1.883880 0.000000 
#    z -0.016280 0.000000 1.746580 
# 
# From -- ./inp_files/238950.got.cif
#   From: 2010.05.17/outbox.cif.g08.bks.cpg/sg12_120_cif.got.tgz:238950.got - 2010.06.03 13:09:07.
