data_PCOD9191435
_publ_section_title
;
Structure prediction by ZEFSAII (Michael W. Deem and Ramdas Pophale) SiO2 
 PCOD9191435
Probable space group: C 2/M
;
_chemical_formula_sum "Si O2"
_cell_formula_units_Z 56
_cell_length_a 30.026225
_cell_length_b 17.647116
_cell_length_c 6.954208
_cell_angle_alpha 90.000000
_cell_angle_beta 63.420592
_cell_angle_gamma 90.000000
_cell_volume 3295.434746
_symmetry_space_group_name_H-M "C 2/M"
_symmetry_group_IT_number 12
_symmetry_cell_setting 'monoclinic'
loop_
_space_group_symop_operation_xyz
x,y,z
-x,y,-z
-x,-y,-z
x,-y,z
1/2+x,1/2+y,z
1/2-x,1/2+y,-z
1/2-x,1/2-y,-z
1/2+x,1/2-y,z
loop_
_atom_site_type_symbol
_atom_site_label
_atom_site_fract_x
_atom_site_fract_y
_atom_site_fract_z
Si Si1 0.843169 0.710541 0.247689
Si Si2 0.275856 0.174472 0.031465
Si Si3 0.791776 0.587892 0.608281
Si Si4 0.796419 0.133062 0.488707
Si Si5 0.597947 0.584049 0.574907
Si Si6 0.945583 0.793155 0.068906
Si Si7 0.551174 0.585949 0.278525
O O1 0.823160 0.695647 0.071860
O O2 0.828640 0.639631 0.409196
O O3 0.812317 0.782452 0.391600
O O4 0.900687 0.734020 0.140602
O O5 0.237224 0.137417 0.255923
O O6 0.250000 0.250000 0.000000
O O7 0.288993 0.121286 0.827786
O O8 0.805509 0.500000 0.580447
O O9 0.737617 0.597893 0.612031
O O10 0.847220 0.090747 0.442503
O O11 0.577317 0.500000 0.653638
O O12 0.566288 0.650023 0.732609
O O13 0.595139 0.593952 0.350815
O O14 0.945734 0.849034 0.884868
O O15 0.000000 0.759470 0.000000
O O16 0.500000 0.591336 0.500000
O O17 0.553467 0.500000 0.193175
#
# Coordination Sequence:
#
# PCOD9191435 Si02
#       7
#     8   8   8   8   8   8   8
#     4  10  22  37  57  81 113 147 181 228 272 325
#     4  11  19  35  58  80 110 148 183 218 273 330
#     4  11  22  37  58  85 113 144 182 228 274 327
#     4  10  20  35  56  82 114 151 184 218 261 323
#     4  10  21  33  49  76 114 150 183 224 264 310
#     4  11  22  36  56  78 101 143 194 229 273 324
#     4  10  20  33  49  74 109 147 184 227 269 311
#
# _framework density 16.993206000000001
#
# number of rings (size 3 to 8) (size 9 to 14) (size 15 to 20)
#    0.000    1.571    4.286    1.714    2.000    3.429 
#    0.000    2.857    0.000    0.429    0.000    1.000 
#    0.000    0.000    0.000    0.000    0.000    0.000 
#
# Total GULP energy -156302.040206 kJ/mol
# GULP energy per Si atom -5582.215722 kJ/mol
# Density = 1.695453 g / cm^3
# Si number density = 16.993206 Si / 1000 Ang^3
#
#
#
# Elastic Constant Matrix: (Units=GPa)
#
#
# Indices 1 2 3 4 5 6 
#
# 1 122.3526 45.3893 51.3251 0.0000 -0.6385 0.0000
# 2 45.3893 108.2300 42.0428 0.0000 6.0961 0.0000
# 3 51.3251 42.0428 75.9142 0.0000 16.7786 0.0000
# 4 0.0000 0.0000 0.0000 18.1913 0.0000 0.1969
# 5 -0.6385 6.0961 16.7786 0.0000 29.0297 0.0000
# 6 0.0000 0.0000 0.0000 0.1969 0.0000 0.6969
#
#
#
# Elastic Compliance Matrix: (Units=1/GPa)
#
#
# Indices 1 2 3 4 5 6 
#
# 1 0.012633 -0.002309 -0.008519 0.000000 0.005687 0.000000
# 2 -0.002309 0.012250 -0.005324 0.000000 0.000454 0.000000
# 3 -0.008519 -0.005324 0.024850 0.000000 -0.013432 0.000000
# 4 0.000000 0.000000 0.000000 0.055140 0.000000 -0.015575
# 5 0.005687 0.000454 -0.013432 0.000000 0.042241 0.000000
# 6 0.000000 0.000000 0.000000 -0.015575 0.000000 1.439234
#
#
# Mechanical properties :
#
#
# Convention : Reuss Voigt Hill
#
# Bulk Modulus (GPa) = 57.37465 64.89013 61.13239
# Shear Modulus (GPa) = 3.07794 20.76624 11.92209
#
# Velocity S-wave (km/s) = 1.34730 3.49955 2.65161
# Velocity P-wave (km/s) = 6.02137 7.38904 6.73999
#
# Compressibility (1/GPa) = 0.01742930
#
# Stress axis : x y z
#
# Youngs Moduli (GPa) = 79.15758 81.63002 40.24194
#
# Poissons Ratio (x) = 0.18848 0.34283
# Poissons Ratio (y) = 0.18277 0.21424
# Poissons Ratio (z) = 0.67436 0.43458
#
# Static dielectric constant tensor:
#      x y z
#    x 1.602540 0.000000 0.004910 
#    y 0.000000 1.558670 0.000000 
#    z 0.004910 0.000000 1.577200 
# 
# From -- ./inp_files/31861.got.cif
#   From: 2010.05.17/outbox.cif.g08.bks.cpg/sg12_16_cif.got.tgz:31861.got - 2010.06.03 13:09:07.
