data_PCOD9191771
_publ_section_title
;
Structure prediction by ZEFSAII (Michael W. Deem and Ramdas Pophale) SiO2 
 PCOD9191771
Probable space group: C 2/M
;
_chemical_formula_sum "Si O2"
_cell_formula_units_Z 64
_cell_length_a 32.171947
_cell_length_b 9.179248
_cell_length_c 26.781972
_cell_angle_alpha 90.000000
_cell_angle_beta 25.703351
_cell_angle_gamma 90.000000
_cell_volume 3430.269344
_symmetry_space_group_name_H-M "C 2/M"
_symmetry_group_IT_number 12
_symmetry_cell_setting 'monoclinic'
loop_
_space_group_symop_operation_xyz
x,y,z
-x,y,-z
-x,-y,-z
x,-y,z
1/2+x,1/2+y,z
1/2-x,1/2+y,-z
1/2-x,1/2-y,-z
1/2+x,1/2-y,z
loop_
_atom_site_type_symbol
_atom_site_label
_atom_site_fract_x
_atom_site_fract_y
_atom_site_fract_z
Si Si1 0.383752 0.665182 0.626581
Si Si2 0.765159 0.324528 0.037184
Si Si3 0.467082 0.822543 0.870840
Si Si4 0.236312 0.337082 0.649124
Si Si5 0.120960 0.673100 0.267332
Si Si6 0.962619 0.322606 0.094932
Si Si7 0.838724 0.662976 0.381262
Si Si8 0.104701 0.329667 0.485948
O O1 0.500000 0.659465 0.500000
O O2 0.347585 0.500000 0.670630
O O3 0.354642 0.765083 0.704316
O O4 0.359439 0.740338 0.600962
O O5 0.762535 0.500000 0.035471
O O6 0.680742 0.264239 0.163277
O O7 0.750000 0.250000 0.000000
O O8 0.865272 0.284156 0.956524
O O9 0.483972 0.776020 0.910872
O O10 0.553802 0.772598 0.740136
O O11 0.472858 0.000000 0.865160
O O12 0.268043 0.500000 0.630072
O O13 0.149700 0.283833 0.777875
O O14 0.187552 0.350623 0.648427
O O15 0.325311 0.229703 0.547819
O O16 0.138598 0.500000 0.244697
O O17 0.007020 0.698084 0.383608
O O18 0.967011 0.500000 0.090396
O O19 0.000000 0.273660 0.000000
O O20 0.843466 0.500000 0.398530
O O21 0.750000 0.750000 0.500000
O O22 0.115317 0.500000 0.465455
#
# Coordination Sequence:
#
# PCOD9191771 Si02
#       8
#     8   8   8   8   8   8   8   8
#     4   9  17  31  52  76 102 135 177 222 265 313
#     4  11  23  39  58  79 106 144 190 235 276 320
#     4   8  17  34  53  75 106 139 172 216 269 323
#     4   9  18  31  49  76 106 132 167 217 262 311
#     4  10  21  37  54  75 106 143 182 223 271 325
#     4   8  14  28  52  80 107 135 169 211 262 323
#     4   9  18  34  54  76 102 132 168 212 264 320
#     4  10  20  33  51  76 110 147 176 212 266 323
#
# _framework density 18.657426999999998
#
# number of rings (size 3 to 8) (size 9 to 14) (size 15 to 20)
#    0.000    2.750    0.000    3.000    0.000    5.500 
#    0.000    7.500    0.000    1.875    0.000    0.000 
#    0.000    0.000    0.000    0.000    0.000    0.000 
#
# Total GULP energy -178180.670388 kJ/mol
# GULP energy per Si atom -5568.145950 kJ/mol
# Density = 1.861496 g / cm^3
# Si number density = 18.657427 Si / 1000 Ang^3
#
#
#
# Elastic Constant Matrix: (Units=GPa)
#
#
# Indices 1 2 3 4 5 6 
#
# 1 65.3085 29.7642 41.1431 0.0006 -13.0311 0.0005
# 2 29.7642 56.3914 51.1425 0.0117 -9.5400 -0.0061
# 3 41.1431 51.1425 103.1317 0.0030 8.4091 -0.0027
# 4 0.0006 0.0117 0.0030 24.6628 -0.0022 3.2658
# 5 -13.0311 -9.5400 8.4091 -0.0022 25.3529 0.0009
# 6 0.0005 -0.0061 -0.0027 3.2658 0.0009 23.8483
#
#
#
# Elastic Compliance Matrix: (Units=1/GPa)
#
#
# Indices 1 2 3 4 5 6 
#
# 1 0.026311 -0.000286 -0.011767 0.000003 0.017318 -0.000003
# 2 -0.000286 0.042720 -0.022991 -0.000017 0.023554 0.000010
# 3 -0.011767 -0.022991 0.027740 0.000006 -0.023900 -0.000002
# 4 0.000003 -0.000017 0.000006 0.041296 -0.000003 -0.005655
# 5 0.017318 0.023554 -0.023900 -0.000003 0.065135 0.000001
# 6 -0.000003 0.000010 -0.000002 -0.005655 0.000001 0.042706
#
#
# Mechanical properties :
#
#
# Convention : Reuss Voigt Hill
#
# Bulk Modulus (GPa) = 37.47604 52.10348 44.78976
# Shear Modulus (GPa) = 15.38989 21.62493 18.50741
#
# Velocity S-wave (km/s) = 2.87517 3.40818 3.15296
# Velocity P-wave (km/s) = 5.58141 6.59353 6.10847
#
# Compressibility (1/GPa) = 0.02668371
#
# Stress axis : x y z
#
# Youngs Moduli (GPa) = 38.00754 23.40845 36.04865
#
# Poissons Ratio (x) = 0.00669 0.42417
# Poissons Ratio (y) = 0.01087 0.82879
# Poissons Ratio (z) = 0.44722 0.53818
#
# Static dielectric constant tensor:
#      x y z
#    x 1.760980 0.000000 -0.036170 
#    y 0.000000 1.646940 0.000000 
#    z -0.036170 0.000000 1.691360 
# 
# From -- ./inp_files/353405.got.cif
#   From: 2010.05.17/outbox.cif.g08.bks.cpg/sg12_177_cif.got.tgz:353405.got - 2010.06.03 13:09:07.
