data_PCOD9191714
_publ_section_title
;
Structure prediction by ZEFSAII (Michael W. Deem and Ramdas Pophale) SiO2 
 PCOD9191714
Probable space group: C 2/M
;
_chemical_formula_sum "Si O2"
_cell_formula_units_Z 64
_cell_length_a 14.627616
_cell_length_b 7.672675
_cell_length_c 26.559236
_cell_angle_alpha 90.000000
_cell_angle_beta 61.333570
_cell_angle_gamma 90.000000
_cell_volume 2615.454166
_symmetry_space_group_name_H-M "C 2/M"
_symmetry_group_IT_number 12
_symmetry_cell_setting 'monoclinic'
loop_
_space_group_symop_operation_xyz
x,y,z
-x,y,-z
-x,-y,-z
x,-y,z
1/2+x,1/2+y,z
1/2-x,1/2+y,-z
1/2-x,1/2-y,-z
1/2+x,1/2-y,z
loop_
_atom_site_type_symbol
_atom_site_label
_atom_site_fract_x
_atom_site_fract_y
_atom_site_fract_z
Si Si1 0.669864 0.702866 0.096645
Si Si2 0.721437 0.797862 0.687872
Si Si3 0.507355 0.711251 0.778395
Si Si4 0.670814 0.696895 0.868674
Si Si5 0.824485 0.703905 0.407878
Si Si6 0.403759 0.212514 0.489858
Si Si7 0.151434 0.208583 0.258741
Si Si8 0.540941 0.803289 0.040495
O O1 0.686588 0.500000 0.103087
O O2 0.572188 0.762883 0.156771
O O3 0.770791 0.794970 0.092670
O O4 0.632488 0.724325 0.049592
O O5 0.621342 0.788643 0.750452
O O6 0.684377 0.714879 0.645327
O O7 0.815444 0.719701 0.695677
O O8 0.747467 0.000000 0.670535
O O9 0.515175 0.500000 0.777125
O O10 0.453047 0.770953 0.740586
O O11 0.639766 0.500000 0.864659
O O12 0.757033 0.755755 0.805839
O O13 0.565145 0.803894 0.898936
O O14 0.851565 0.500000 0.395185
O O15 0.705962 0.721249 0.459273
O O16 0.900394 0.772039 0.432069
O O17 0.500000 0.266724 0.500000
O O18 0.401041 0.000000 0.490855
O O19 0.142883 0.000000 0.265565
O O20 0.574299 0.000000 0.019283
O O21 0.500000 0.715919 0.000000
#
# Coordination Sequence:
#
# PCOD9191714 Si02
#       8
#     8   8   8   8   8   8   8   8
#     4  10  21  39  61  83 110 144 183 226 270 321
#     4  10  20  33  51  75 106 140 170 212 263 309
#     4   9  19  34  52  76 104 135 171 210 254 309
#     4  11  22  37  59  84 110 143 182 223 270 324
#     4   9  19  34  50  74 104 133 173 216 258 313
#     4   9  18  34  54  73  98 134 173 216 265 312
#     4   9  19  36  54  74 105 142 176 212 261 317
#     4  11  24  40  58  82 111 143 181 226 276 327
#
# _framework density 24.469939
#
# number of rings (size 3 to 8) (size 9 to 14) (size 15 to 20)
#    0.000    2.250    0.000    3.375    0.000    8.250 
#    0.000    0.000    0.000    0.000    0.000    0.000 
#    0.000    0.000    0.000    0.000    0.000    0.000 
#
# Total GULP energy -178759.774568 kJ/mol
# GULP energy per Si atom -5586.242955 kJ/mol
# Density = 2.441424 g / cm^3
# Si number density = 24.469939 Si / 1000 Ang^3
#
#
#
# Elastic Constant Matrix: (Units=GPa)
#
#
# Indices 1 2 3 4 5 6 
#
# 1 132.6639 2.9004 44.7271 0.0000 55.5860 0.0000
# 2 2.9004 53.2917 -12.5855 0.0001 5.8262 0.0000
# 3 44.7271 -12.5855 47.0160 0.0000 30.4027 0.0000
# 4 0.0000 0.0001 0.0000 9.1983 0.0000 -2.8957
# 5 55.5860 5.8262 30.4027 0.0000 46.6367 0.0000
# 6 0.0000 0.0000 0.0000 -2.8957 0.0000 3.4522
#
#
#
# Elastic Compliance Matrix: (Units=1/GPa)
#
#
# Indices 1 2 3 4 5 6 
#
# 1 0.015690 -0.000394 -0.005135 0.000000 -0.015304 0.000000
# 2 -0.000394 0.023432 0.014239 0.000000 -0.011741 0.000000
# 3 -0.005135 0.014239 0.046951 0.000000 -0.026266 0.000000
# 4 0.000000 0.000000 0.000000 0.147723 0.000000 0.123908
# 5 -0.015304 -0.011741 -0.026266 0.000000 0.058273 0.000000
# 6 0.000000 0.000000 0.000000 0.123908 0.000000 0.393603
#
#
# Mechanical properties :
#
#
# Convention : Reuss Voigt Hill
#
# Bulk Modulus (GPa) = 9.66240 33.67284 21.66762
# Shear Modulus (GPa) = 7.11491 25.05274 16.08382
#
# Velocity S-wave (km/s) = 1.70702 3.20319 2.56655
# Velocity P-wave (km/s) = 2.80044 5.24131 4.20201
#
# Compressibility (1/GPa) = 0.10349395
#
# Stress axis : x y z
#
# Youngs Moduli (GPa) = 63.73394 42.67591 21.29884
#
# Poissons Ratio (x) = 0.01680 0.10938
# Poissons Ratio (y) = 0.02508 -0.30328
# Poissons Ratio (z) = 0.32730 -0.60767
#
# Static dielectric constant tensor:
#      x y z
#    x 1.943020 0.000000 0.089540 
#    y 0.000000 1.890250 0.000000 
#    z 0.089540 0.000000 2.023450 
# 
# From -- ./inp_files/359777.got.cif
#   From: 2010.05.17/outbox.cif.g08.bks.cpg/sg12_180_cif.got.tgz:359777.got - 2010.06.03 13:09:07.
