data_PCOD9191353
_publ_section_title
;
Structure prediction by ZEFSAII (Michael W. Deem and Ramdas Pophale) SiO2 
 PCOD9191353
Probable space group: C 2/M
;
_chemical_formula_sum "Si O2"
_cell_formula_units_Z 48
_cell_length_a 20.610123
_cell_length_b 7.538467
_cell_length_c 16.387599
_cell_angle_alpha 90.000000
_cell_angle_beta 72.418507
_cell_angle_gamma 90.000000
_cell_volume 2427.186827
_symmetry_space_group_name_H-M "C 2/M"
_symmetry_group_IT_number 12
_symmetry_cell_setting 'monoclinic'
loop_
_space_group_symop_operation_xyz
x,y,z
-x,y,-z
-x,-y,-z
x,-y,z
1/2+x,1/2+y,z
1/2-x,1/2+y,-z
1/2-x,1/2-y,-z
1/2+x,1/2-y,z
loop_
_atom_site_type_symbol
_atom_site_label
_atom_site_fract_x
_atom_site_fract_y
_atom_site_fract_z
Si Si1 0.565020 0.792698 0.428671
Si Si2 0.096776 0.283233 0.901332
Si Si3 0.269222 0.210449 0.240008
Si Si4 0.947413 0.283675 0.904444
Si Si5 0.789390 0.211130 0.567945
Si Si6 0.122004 0.714577 0.235460
O O1 0.500000 0.714777 0.500000
O O2 0.633643 0.781395 0.456096
O O3 0.584845 0.718588 0.332023
O O4 0.549475 0.000000 0.420401
O O5 0.097952 0.500000 0.901320
O O6 0.163572 0.218473 0.829310
O O7 0.026217 0.230757 0.884761
O O8 0.091093 0.228403 0.998137
O O9 0.251103 0.281172 0.337100
O O10 0.201193 0.237160 0.213017
O O11 0.280210 0.000000 0.245121
O O12 0.946607 0.500000 0.903736
O O13 0.912867 0.222374 0.834278
O O14 0.750000 0.250000 0.500000
O O15 0.795027 0.000000 0.574412
O O16 0.118701 0.500000 0.237644
#
# Coordination Sequence:
#
# PCOD9191353 Si02
#       6
#     8   8   8   8   8   8
#     4   9  18  32  49  69  94 124 157 193 232 275
#     4   8  14  26  44  66  91 117 149 187 222 260
#     4   9  18  31  47  67  91 119 149 183 224 270
#     4   8  14  25  43  67  91 116 149 188 224 258
#     4  10  20  33  49  69  94 123 155 192 233 277
#     4   9  17  29  46  68  93 119 149 186 225 266
#
# _framework density 19.775981999999999
#
# number of rings (size 3 to 8) (size 9 to 14) (size 15 to 20)
#    0.000    3.167    0.000    1.500    0.000    3.000 
#    0.000    5.000    0.000    1.000    0.000    2.333 
#    0.000    0.000    0.000    0.000    0.000    0.000 
#
# Total GULP energy -133822.399575 kJ/mol
# GULP energy per Si atom -5575.933316 kJ/mol
# Density = 1.973097 g / cm^3
# Si number density = 19.775982 Si / 1000 Ang^3
#
#
#
# Elastic Constant Matrix: (Units=GPa)
#
#
# Indices 1 2 3 4 5 6 
#
# 1 150.5225 -12.4926 137.4878 0.0000 -10.6422 0.0000
# 2 -12.4926 45.9202 -3.1711 0.0000 -7.7395 0.0000
# 3 137.4878 -3.1711 149.2700 0.0000 -9.6904 0.0000
# 4 0.0000 0.0000 0.0000 -1.4908 0.0000 1.7597
# 5 -10.6422 -7.7395 -9.6904 0.0000 48.0034 0.0000
# 6 0.0000 0.0000 0.0000 1.7597 0.0000 19.6024
#
#
#
# Elastic Compliance Matrix: (Units=1/GPa)
#
#
# Indices 1 2 3 4 5 6 
#
# 1 0.046208 0.010234 -0.042123 0.000000 0.003391 0.000000
# 2 0.010234 0.024728 -0.008607 0.000000 0.004518 0.000000
# 3 -0.042123 -0.008607 0.045211 0.000000 -0.001600 0.000000
# 4 0.000000 0.000000 0.000000 -0.606503 0.000000 0.054446
# 5 0.003391 0.004518 -0.001600 0.000000 0.021989 0.000000
# 6 0.000000 0.000000 0.000000 0.054446 0.000000 0.046127
#
#
# Mechanical properties :
#
#
# Convention : Reuss Voigt Hill
#
# Bulk Modulus (GPa) = 28.44675 65.48453 46.96564
# Shear Modulus (GPa) = -15.17321 28.14891 6.48785
#
# Velocity S-wave (km/s) = -2.77294 3.77688 1.81323
# Velocity P-wave (km/s) = 2.04045 7.22529 5.30887
#
# Compressibility (1/GPa) = 0.03515340
#
# Stress axis : x y z
#
# Youngs Moduli (GPa) = 21.64116 40.43984 22.11847
#
# Poissons Ratio (x) = -0.41385 0.93171
# Poissons Ratio (y) = -0.22147 0.19038
# Poissons Ratio (z) = 0.91160 0.34807
#
# Static dielectric constant tensor:
#      x y z
#    x 1.652520 0.000000 -0.011930 
#    y 0.000000 1.749760 0.000000 
#    z -0.011930 0.000000 1.705550 
# 
# From -- ./inp_files/229863.got.cif
#   From: 2010.05.17/outbox.cif.g08.bks.cpg/sg12_115_cif.got.tgz:229863.got - 2010.06.03 13:09:07.
