data_PCOD9191077
_publ_section_title
;
Structure prediction by ZEFSAII (Michael W. Deem and Ramdas Pophale) SiO2 
 PCOD9191077
Probable space group: C 2/M
;
_chemical_formula_sum "Si O2"
_cell_formula_units_Z 40
_cell_length_a 21.499549
_cell_length_b 14.315893
_cell_length_c 22.860546
_cell_angle_alpha 90.000000
_cell_angle_beta 162.244997
_cell_angle_gamma 90.000000
_cell_volume 2145.652626
_symmetry_space_group_name_H-M "C 2/M"
_symmetry_group_IT_number 12
_symmetry_cell_setting 'monoclinic'
loop_
_space_group_symop_operation_xyz
x,y,z
-x,y,-z
-x,-y,-z
x,-y,z
1/2+x,1/2+y,z
1/2-x,1/2+y,-z
1/2-x,1/2-y,-z
1/2+x,1/2-y,z
loop_
_atom_site_type_symbol
_atom_site_label
_atom_site_fract_x
_atom_site_fract_y
_atom_site_fract_z
Si Si1 0.199678 0.698185 0.295320
Si Si2 0.082961 0.000000 0.379024
Si Si3 0.943792 0.500000 0.783227
Si Si4 0.119518 0.835506 0.728698
Si Si5 0.327533 0.500000 0.048332
Si Si6 0.329496 0.294867 0.010972
Si Si7 0.000000 0.333575 0.000000
O O1 0.120166 0.592631 0.238881
O O2 0.438325 0.698039 0.523613
O O3 0.126606 0.719506 0.164006
O O4 0.066380 0.766187 0.216429
O O5 0.982895 0.090187 0.319881
O O6 0.314782 0.000000 0.607668
O O7 0.044266 0.000000 0.275734
O O8 0.173215 0.500000 0.965866
O O9 0.211835 0.753530 0.851610
O O10 0.310621 0.880433 0.864739
O O11 0.300139 0.405224 0.988515
O O12 0.250000 0.250000 0.000000
#
# Coordination Sequence:
#
# PCOD9191077 Si02
#       7
#     8   4   4   8   4   8   4
#     4  10  21  36  54  81 111 144 184 222 269 322
#     4  10  20  32  52  81 113 146 178 216 263 323
#     4  10  20  32  52  81 113 146 178 216 263 323
#     4  10  21  36  54  81 111 144 184 222 269 322
#     4  12  20  36  52  80 114 142 184 216 262 322
#     4  11  21  34  57  80 109 148 177 223 268 317
#     4  10  20  35  56  79 108 150 180 225 270 315
#
# _framework density 18.642347000000001
#
# number of rings (size 3 to 8) (size 9 to 14) (size 15 to 20)
#    0.000    1.600    4.000    1.800    0.000    4.000 
#    0.000    3.000    0.000    9.600    0.000   11.200 
#    0.000    0.000    0.000    0.000    0.000    0.000 
#
# Total GULP energy -111458.070965 kJ/mol
# GULP energy per Si atom -5572.903548 kJ/mol
# Density = 1.859992 g / cm^3
# Si number density = 18.642347 Si / 1000 Ang^3
#
#
#
# Elastic Constant Matrix: (Units=GPa)
#
#
# Indices 1 2 3 4 5 6 
#
# 1 47.1571 16.8609 25.2687 -0.0054 -3.5488 -0.0061
# 2 16.8609 105.3245 19.6138 -0.0071 -5.1113 -0.0109
# 3 25.2687 19.6138 141.9511 0.0078 -8.6729 -0.0031
# 4 -0.0054 -0.0071 0.0078 15.8353 0.0026 3.3788
# 5 -3.5488 -5.1113 -8.6729 0.0026 32.4981 -0.0021
# 6 -0.0061 -0.0109 -0.0031 3.3788 -0.0021 -10.9865
#
#
#
# Elastic Compliance Matrix: (Units=1/GPa)
#
#
# Indices 1 2 3 4 5 6 
#
# 1 0.024482 -0.003146 -0.003853 0.000010 0.001150 -0.000006
# 2 -0.003146 0.010195 -0.000785 0.000005 0.001051 -0.000007
# 3 -0.003853 -0.000785 0.007935 -0.000006 0.001574 -0.000001
# 4 0.000010 0.000005 -0.000006 0.059261 -0.000003 0.018225
# 5 0.001150 0.001051 0.001574 -0.000003 0.031482 -0.000009
# 6 -0.000006 -0.000007 -0.000001 0.018225 -0.000009 -0.085416
#
#
# Mechanical properties :
#
#
# Convention : Reuss Voigt Hill
#
# Bulk Modulus (GPa) = 36.97512 46.43549 41.70530
# Shear Modulus (GPa) = 68.94555 22.98201 45.96378
#
# Velocity S-wave (km/s) = 6.08799 3.51491 4.97083
# Velocity P-wave (km/s) = 8.32437 6.43704 7.44079
#
# Compressibility (1/GPa) = 0.02704521
#
# Stress axis : x y z
#
# Youngs Moduli (GPa) = 40.84684 98.08591 126.02239
#
# Poissons Ratio (x) = 0.30856 0.48557
# Poissons Ratio (y) = 0.12850 0.09887
# Poissons Ratio (z) = 0.15738 0.07695
#
# Static dielectric constant tensor:
#      x y z
#    x 1.661180 0.000000 -0.001210 
#    y 0.000000 1.623670 0.000000 
#    z -0.001210 0.000000 1.691090 
# 
# From -- ./inp_files/322183.got.cif
#   From: 2010.05.17/outbox.cif.g08.bks.cpg/sg12_162_cif.got.tgz:322183.got - 2010.06.03 13:09:07.
