data_PCOD9191468
_publ_section_title
;
Structure prediction by ZEFSAII (Michael W. Deem and Ramdas Pophale) SiO2 
 PCOD9191468
Probable space group: C 2/M
;
_chemical_formula_sum "Si O2"
_cell_formula_units_Z 64
_cell_length_a 16.634760
_cell_length_b 7.310575
_cell_length_c 21.312642
_cell_angle_alpha 90.000000
_cell_angle_beta 68.138058
_cell_angle_gamma 90.000000
_cell_volume 2405.429091
_symmetry_space_group_name_H-M "C 2/M"
_symmetry_group_IT_number 12
_symmetry_cell_setting 'monoclinic'
loop_
_space_group_symop_operation_xyz
x,y,z
-x,y,-z
-x,-y,-z
x,-y,z
1/2+x,1/2+y,z
1/2-x,1/2+y,-z
1/2-x,1/2-y,-z
1/2+x,1/2-y,z
loop_
_atom_site_type_symbol
_atom_site_label
_atom_site_fract_x
_atom_site_fract_y
_atom_site_fract_z
Si Si1 0.489452 0.780440 0.774310
Si Si2 0.168559 0.708699 0.105982
Si Si3 0.118045 0.783510 0.851324
Si Si4 0.734697 0.222505 0.276655
Si Si5 0.863219 0.778507 0.020935
Si Si6 0.728523 0.277715 0.598342
Si Si7 0.894883 0.707367 0.480925
Si Si8 0.463552 0.776501 0.646578
O O1 0.395425 0.710421 0.824226
O O2 0.554230 0.740142 0.811751
O O3 0.509523 0.717298 0.698226
O O4 0.483422 0.000000 0.772487
O O5 0.184909 0.500000 0.120637
O O6 0.263676 0.782439 0.063977
O O7 0.117980 0.709349 0.054065
O O8 0.210850 0.713541 0.799010
O O9 0.089767 0.718679 0.928626
O O10 0.127703 0.000000 0.857275
O O11 0.784984 0.274035 0.325835
O O12 0.635781 0.278557 0.315243
O O13 0.733020 0.000000 0.274539
O O14 0.868738 0.000000 0.013080
O O15 0.726744 0.500000 0.594076
O O16 0.825211 0.214758 0.549649
O O17 0.661344 0.203895 0.567385
O O18 0.910265 0.500000 0.497986
O O19 0.985406 0.787580 0.430095
O O20 0.465428 0.000000 0.642425
#
# Coordination Sequence:
#
# PCOD9191468 Si02
#       8
#     8   8   8   8   8   8   8   8
#     4  10  20  33  50  71  95 124 157 193 233 278
#     4   9  18  33  52  72  94 122 156 192 231 276
#     4  10  20  33  50  71  95 124 157 193 233 278
#     4   9  17  30  49  71  94 122 158 198 235 272
#     4   9  18  33  52  72  94 122 156 192 231 276
#     4   9  17  29  47  71  97 125 156 191 232 277
#     4   9  17  29  47  71  97 125 156 191 232 277
#     4   9  17  30  49  71  94 122 158 198 235 272
#
# _framework density 26.606480000000001
#
# number of rings (size 3 to 8) (size 9 to 14) (size 15 to 20)
#    0.000    2.750    0.000    1.500    0.000    5.000 
#    0.000    5.000    0.000    4.500    0.000    3.500 
#    0.000    0.000    0.000    0.000    0.000    0.000 
#
# Total GULP energy -178881.143977 kJ/mol
# GULP energy per Si atom -5590.035749 kJ/mol
# Density = 2.654592 g / cm^3
# Si number density = 26.606480 Si / 1000 Ang^3
#
#
#
# Elastic Constant Matrix: (Units=GPa)
#
#
# Indices 1 2 3 4 5 6 
#
# 1 75.7755 -9.9731 -4.9387 0.0000 9.4679 0.0000
# 2 -9.9731 113.4693 -4.2302 0.0001 -0.1585 0.0001
# 3 -4.9387 -4.2302 129.6997 0.0000 8.1554 0.0000
# 4 0.0000 0.0001 0.0000 -0.1838 0.0000 5.9658
# 5 9.4679 -0.1585 8.1554 0.0000 50.9922 0.0000
# 6 0.0000 0.0001 0.0000 5.9658 0.0000 7.2519
#
#
#
# Elastic Compliance Matrix: (Units=1/GPa)
#
#
# Indices 1 2 3 4 5 6 
#
# 1 0.013739 0.001231 0.000731 0.000000 -0.002664 0.000000
# 2 0.001231 0.008934 0.000354 0.000000 -0.000258 0.000000
# 3 0.000731 0.000354 0.007837 0.000000 -0.001388 0.000000
# 4 0.000000 0.000000 0.000000 -0.196400 0.000000 0.161569
# 5 -0.002664 -0.000258 -0.001388 0.000000 0.020327 0.000000
# 6 0.000000 0.000000 0.000000 0.161569 0.000000 0.004978
#
#
# Mechanical properties :
#
#
# Convention : Reuss Voigt Hill
#
# Bulk Modulus (GPa) = 28.45516 31.18451 29.81984
# Shear Modulus (GPa) = -37.45242 34.15117 -1.65063
#
# Velocity S-wave (km/s) = -3.75593 3.58658 -0.78850
# Velocity P-wave (km/s) = 2.84452 5.37564 3.22538
#
# Compressibility (1/GPa) = 0.03514301
#
# Stress axis : x y z
#
# Youngs Moduli (GPa) = 72.78336 111.93171 127.60342
#
# Poissons Ratio (x) = -0.13780 -0.09326
# Poissons Ratio (y) = -0.08960 -0.04523
# Poissons Ratio (z) = -0.05319 -0.03968
#
# Static dielectric constant tensor:
#      x y z
#    x 2.139770 0.000000 0.002200 
#    y 0.000000 2.269420 0.000000 
#    z 0.002200 0.000000 2.037100 
# 
# From -- ./inp_files/315335.got.cif
#   From: 2010.05.17/outbox.cif.g08.bks.cpg/sg12_158_cif.got.tgz:315335.got - 2010.06.03 13:09:07.
