data_PCOD9191611
_publ_section_title
;
Structure prediction by ZEFSAII (Michael W. Deem and Ramdas Pophale) SiO2 
 PCOD9191611
Probable space group: C 2/M
;
_chemical_formula_sum "Si O2"
_cell_formula_units_Z 48
_cell_length_a 25.304544
_cell_length_b 9.627879
_cell_length_c 10.780450
_cell_angle_alpha 90.000000
_cell_angle_beta 109.988900
_cell_angle_gamma 90.000000
_cell_volume 2468.211998
_symmetry_space_group_name_H-M "C 2/M"
_symmetry_group_IT_number 12
_symmetry_cell_setting 'monoclinic'
loop_
_space_group_symop_operation_xyz
x,y,z
-x,y,-z
-x,-y,-z
x,-y,z
1/2+x,1/2+y,z
1/2-x,1/2+y,-z
1/2-x,1/2-y,-z
1/2+x,1/2-y,z
loop_
_atom_site_type_symbol
_atom_site_label
_atom_site_fract_x
_atom_site_fract_y
_atom_site_fract_z
Si Si1 0.062717 0.832234 0.526950
Si Si2 0.934394 0.159305 0.963129
Si Si3 0.669797 0.665078 0.764971
Si Si4 0.633671 0.338863 0.350003
Si Si5 0.157410 0.338918 0.988992
Si Si6 0.774052 0.660241 0.696915
O O1 0.105783 0.807370 0.673482
O O2 0.094373 0.782472 0.428469
O O3 0.000000 0.778377 0.500000
O O4 0.058255 0.000000 0.509275
O O5 0.903684 0.164128 0.805224
O O6 0.929336 0.000000 0.006309
O O7 0.901238 0.264564 0.023930
O O8 0.000000 0.190747 0.000000
O O9 0.676976 0.500000 0.794521
O O10 0.683554 0.753992 0.896461
O O11 0.710484 0.699169 0.681829
O O12 0.647510 0.500000 0.388281
O O13 0.690438 0.255643 0.366435
O O14 0.150565 0.500000 0.951210
O O15 0.194685 0.331535 0.143687
O O16 0.775764 0.500000 0.657362
#
# Coordination Sequence:
#
# PCOD9191611 Si02
#       6
#     8   8   8   8   8   8
#     4   9  19  34  54  78 104 134 172 220 261 299
#     4   9  18  31  52  78 102 134 177 217 254 303
#     4  10  20  34  55  78 103 139 179 213 254 307
#     4   9  18  33  53  78 104 133 172 217 260 303
#     4  10  20  33  50  76 110 139 168 211 265 311
#     4   9  19  35  53  77 107 138 170 212 264 311
#
# _framework density 19.447275999999999
#
# number of rings (size 3 to 8) (size 9 to 14) (size 15 to 20)
#    0.000    2.667    0.000    1.000    2.333    2.333 
#    0.000    0.833    0.000    1.000    0.000    0.000 
#    0.000    0.000    0.000    0.000    0.000    0.000 
#
# Total GULP energy -133935.169854 kJ/mol
# GULP energy per Si atom -5580.632077 kJ/mol
# Density = 1.940301 g / cm^3
# Si number density = 19.447276 Si / 1000 Ang^3
#
#
#
# Elastic Constant Matrix: (Units=GPa)
#
#
# Indices 1 2 3 4 5 6 
#
# 1 136.8258 52.2401 37.0384 0.0000 4.3935 0.0000
# 2 52.2401 54.0816 31.0952 0.0000 -7.8640 0.0000
# 3 37.0384 31.0952 40.8141 0.0000 -13.6584 0.0000
# 4 0.0000 0.0000 0.0000 10.4258 0.0000 -6.7418
# 5 4.3935 -7.8640 -13.6584 0.0000 33.5523 0.0000
# 6 0.0000 0.0000 0.0000 -6.7418 0.0000 29.2584
#
#
#
# Elastic Compliance Matrix: (Units=1/GPa)
#
#
# Indices 1 2 3 4 5 6 
#
# 1 0.013049 -0.009753 -0.006654 0.000000 -0.006704 0.000000
# 2 -0.009753 0.040438 -0.021254 0.000000 0.002103 0.000000
# 3 -0.006654 -0.021254 0.052511 0.000000 0.017266 0.000000
# 4 0.000000 0.000000 0.000000 0.112709 0.000000 0.025971
# 5 -0.006704 0.002103 0.017266 0.000000 0.038203 0.000000
# 6 0.000000 0.000000 0.000000 0.025971 0.000000 0.040162
#
#
# Mechanical properties :
#
#
# Convention : Reuss Voigt Hill
#
# Bulk Modulus (GPa) = 32.60003 52.49654 42.54829
# Shear Modulus (GPa) = 13.06779 22.07049 17.56914
#
# Velocity S-wave (km/s) = 2.59503 3.37247 3.00896
# Velocity P-wave (km/s) = 5.07726 6.49751 5.83079
#
# Compressibility (1/GPa) = 0.03067482
#
# Stress axis : x y z
#
# Youngs Moduli (GPa) = 76.63445 24.72929 19.04380
#
# Poissons Ratio (x) = 0.24120 0.12672
# Poissons Ratio (y) = 0.74745 0.40475
# Poissons Ratio (z) = 0.50994 0.52559
#
# Static dielectric constant tensor:
#      x y z
#    x 1.687290 0.000000 0.011960 
#    y 0.000000 1.647130 0.000000 
#    z 0.011960 0.000000 1.713170 
# 
# From -- ./inp_files/172143.got.cif
#   From: 2010.05.17/outbox.cif.g08.bks.cpg/sg12_87_cif.got.tgz:172143.got - 2010.06.03 13:09:07.
