data_PCOD9191001
_publ_section_title
;
Structure prediction by ZEFSAII (Michael W. Deem and Ramdas Pophale) SiO2 
 PCOD9191001
Probable space group: C 2/M
;
_chemical_formula_sum "Si O2"
_cell_formula_units_Z 56
_cell_length_a 7.534145
_cell_length_b 29.713239
_cell_length_c 13.619373
_cell_angle_alpha 90.000000
_cell_angle_beta 63.308451
_cell_angle_gamma 90.000000
_cell_volume 2723.988914
_symmetry_space_group_name_H-M "C 2/M"
_symmetry_group_IT_number 12
_symmetry_cell_setting 'monoclinic'
loop_
_space_group_symop_operation_xyz
x,y,z
-x,y,-z
-x,-y,-z
x,-y,z
1/2+x,1/2+y,z
1/2-x,1/2+y,-z
1/2-x,1/2-y,-z
1/2+x,1/2-y,z
loop_
_atom_site_type_symbol
_atom_site_label
_atom_site_fract_x
_atom_site_fract_y
_atom_site_fract_z
Si Si1 0.768903 0.500000 0.184254
Si Si2 0.338520 0.684550 0.624815
Si Si3 0.180241 0.130674 0.084798
Si Si4 0.769301 0.093564 0.138871
Si Si5 0.928478 0.274648 0.726842
Si Si6 0.503452 0.280374 0.882476
Si Si7 0.679279 0.904571 0.760528
Si Si8 0.744702 0.000000 0.039711
O O1 0.729304 0.454700 0.256464
O O2 0.005547 0.500000 0.105457
O O3 0.689054 0.500000 0.091308
O O4 0.500000 0.680540 0.500000
O O5 0.118507 0.698832 0.641260
O O6 0.406713 0.726918 0.675903
O O7 0.307236 0.636347 0.684728
O O8 0.331405 0.107645 0.120849
O O9 0.960597 0.108133 0.154133
O O10 0.160971 0.183518 0.106495
O O11 0.224404 0.124641 0.959598
O O12 0.541538 0.095300 0.231707
O O13 0.802912 0.044134 0.085517
O O14 0.966968 0.264968 0.832492
O O15 0.713326 0.297287 0.784874
O O16 0.500000 0.275451 0.000000
#
# Coordination Sequence:
#
# PCOD9191001 Si02
#       8
#     4   8   8   8   8   8   8   4
#     4   9  18  31  55  83 116 153 190 234 278 359
#     4  11  23  41  63  82 106 147 203 255 301 333
#     4  11  20  31  52  80 117 151 193 223 272 352
#     4  10  20  32  51  78 116 157 184 230 272 347
#     4  10  23  39  58  81 116 147 188 245 289 343
#     4  11  20  36  52  85 118 152 182 218 283 366
#     4  11  21  38  56  81 116 152 190 239 297 330
#     4   9  16  30  49  80 116 151 200 219 279 341
#
# _framework density 20.558087
#
# number of rings (size 3 to 8) (size 9 to 14) (size 15 to 20)
#    0.000    1.571    4.286    2.143    0.000    1.714 
#    0.000    0.357    0.000    0.000    0.000    0.000 
#    0.000    5.714    0.000    0.000    0.000    0.000 
#
# Total GULP energy -156165.333850 kJ/mol
# GULP energy per Si atom -5577.333352 kJ/mol
# Density = 2.051130 g / cm^3
# Si number density = 20.558087 Si / 1000 Ang^3
#
#
#
# Elastic Constant Matrix: (Units=GPa)
#
#
# Indices 1 2 3 4 5 6 
#
# 1 69.1924 7.6508 6.2566 0.0000 -11.7755 0.0000
# 2 7.6508 106.9495 44.5184 0.0000 -9.7072 0.0000
# 3 6.2566 44.5184 76.1723 0.0000 -13.2474 0.0000
# 4 0.0000 0.0000 0.0000 14.1577 0.0000 -1.1886
# 5 -11.7755 -9.7072 -13.2474 0.0000 18.8017 0.0000
# 6 0.0000 0.0000 0.0000 -1.1886 0.0000 18.7903
#
#
#
# Elastic Compliance Matrix: (Units=1/GPa)
#
#
# Indices 1 2 3 4 5 6 
#
# 1 0.016217 -0.000547 0.000803 0.000000 0.010440 0.000000
# 2 -0.000547 0.012410 -0.007013 0.000000 0.001124 0.000000
# 3 0.000803 -0.007013 0.018939 0.000000 0.010227 0.000000
# 4 0.000000 0.000000 0.000000 0.071010 0.000000 0.004492
# 5 0.010440 0.001124 0.010227 0.000000 0.067511 0.000000
# 6 0.000000 0.000000 0.000000 0.004492 0.000000 0.053503
#
#
# Mechanical properties :
#
#
# Convention : Reuss Voigt Hill
#
# Bulk Modulus (GPa) = 29.36507 41.01842 35.19174
# Shear Modulus (GPa) = 18.90677 23.27584 21.09131
#
# Velocity S-wave (km/s) = 3.03591 3.36847 3.20650
# Velocity P-wave (km/s) = 5.15790 5.92659 5.55556
#
# Compressibility (1/GPa) = 0.03405407
#
# Stress axis : x y z
#
# Youngs Moduli (GPa) = 61.66330 80.57709 52.80012
#
# Poissons Ratio (x) = 0.04407 -0.04242
# Poissons Ratio (y) = 0.03372 0.37028
# Poissons Ratio (z) = -0.04953 0.56508
#
# Static dielectric constant tensor:
#      x y z
#    x 1.824010 0.000000 -0.031330 
#    y 0.000000 1.800200 0.000000 
#    z -0.031330 0.000000 1.711270 
# 
# From -- ./inp_files/200861.got.cif
#   From: 2010.05.17/outbox.cif.g08.bks.cpg/sg12_101_cif.got.tgz:200861.got - 2010.06.03 13:09:07.
