data_PCOD9191669
_publ_section_title
;
Structure prediction by ZEFSAII (Michael W. Deem and Ramdas Pophale) SiO2 
 PCOD9191669
Probable space group: C 2/M
;
_chemical_formula_sum "Si O2"
_cell_formula_units_Z 56
_cell_length_a 19.239844
_cell_length_b 7.748580
_cell_length_c 30.442908
_cell_angle_alpha 90.000000
_cell_angle_beta 37.260740
_cell_angle_gamma 90.000000
_cell_volume 2747.787852
_symmetry_space_group_name_H-M "C 2/M"
_symmetry_group_IT_number 12
_symmetry_cell_setting 'monoclinic'
loop_
_space_group_symop_operation_xyz
x,y,z
-x,y,-z
-x,-y,-z
x,-y,z
1/2+x,1/2+y,z
1/2-x,1/2+y,-z
1/2-x,1/2-y,-z
1/2+x,1/2-y,z
loop_
_atom_site_type_symbol
_atom_site_label
_atom_site_fract_x
_atom_site_fract_y
_atom_site_fract_z
Si Si1 0.446460 0.790571 0.702508
Si Si2 0.632700 0.288174 0.431009
Si Si3 0.285015 0.705514 0.704585
Si Si4 0.168230 0.793875 0.000728
Si Si5 0.751111 0.701801 0.865854
Si Si6 0.595143 0.203542 0.866490
Si Si7 0.793066 0.292490 0.429744
O O1 0.391613 0.737622 0.683595
O O2 0.359652 0.726238 0.784124
O O3 0.576533 0.729492 0.642141
O O4 0.445589 0.000000 0.704005
O O5 0.500000 0.234742 0.500000
O O6 0.632885 0.500000 0.430855
O O7 0.689172 0.227772 0.356933
O O8 0.706019 0.229915 0.436056
O O9 0.269951 0.500000 0.707496
O O10 0.173296 0.772294 0.786982
O O11 0.219773 0.723326 0.928935
O O12 0.160583 0.000000 0.000726
O O13 0.250000 0.750000 0.000000
O O14 0.038991 0.729670 0.072529
O O15 0.776879 0.500000 0.859853
O O16 0.643139 0.715665 0.887254
O O17 0.618245 0.000000 0.858761
O O18 0.796689 0.500000 0.424161
O O19 0.750000 0.250000 0.500000
#
# Coordination Sequence:
#
# PCOD9191669 Si02
#       7
#     8   8   8   8   8   8   8
#     4   9  18  33  53  76 101 130 165 207 255 304
#     4   9  17  30  50  74  99 131 171 211 249 293
#     4   9  18  33  54  78 102 131 168 208 249 298
#     4  11  23  37  54  77 106 139 175 217 262 306
#     4   9  19  36  56  76 101 136 175 214 259 311
#     4  10  20  34  55  81 107 136 171 212 257 310
#     4  10  20  33  51  74 100 132 168 207 252 301
#
# _framework density 20.380030000000001
#
# number of rings (size 3 to 8) (size 9 to 14) (size 15 to 20)
#    0.000    2.429    0.000    2.143    0.000    6.286 
#    0.000    5.000    0.000    4.286    0.000    0.000 
#    0.000    0.000    0.000    0.000    0.000    0.000 
#
# Total GULP energy -156314.122025 kJ/mol
# GULP energy per Si atom -5582.647215 kJ/mol
# Density = 2.033364 g / cm^3
# Si number density = 20.380030 Si / 1000 Ang^3
#
#
#
# Elastic Constant Matrix: (Units=GPa)
#
#
# Indices 1 2 3 4 5 6 
#
# 1 170.3407 -16.5243 128.7180 -0.0014 8.2250 0.0106
# 2 -16.5243 25.2798 -3.4961 0.0018 5.7421 -0.0041
# 3 128.7180 -3.4961 151.4926 -0.0021 10.8776 0.0021
# 4 -0.0014 0.0018 -0.0021 13.8007 -0.0002 -0.2603
# 5 8.2250 5.7421 10.8776 -0.0002 40.2567 0.0005
# 6 0.0106 -0.0041 0.0021 -0.2603 0.0005 21.5848
#
#
#
# Elastic Compliance Matrix: (Units=1/GPa)
#
#
# Indices 1 2 3 4 5 6 
#
# 1 0.018672 0.010301 -0.015550 -0.000002 -0.001083 -0.000006
# 2 0.010301 0.046853 -0.007179 -0.000006 -0.006848 0.000005
# 3 -0.015550 -0.007179 0.019728 0.000002 -0.001130 0.000004
# 4 -0.000002 -0.000006 0.000002 0.072476 0.000001 0.000874
# 5 -0.001083 -0.006848 -0.001130 0.000001 0.026344 -0.000001
# 6 -0.000006 0.000005 0.000004 0.000874 -0.000001 0.046339
#
#
# Mechanical properties :
#
#
# Convention : Reuss Voigt Hill
#
# Bulk Modulus (GPa) = 16.55710 62.72315 39.64012
# Shear Modulus (GPa) = 18.15529 31.02282 24.58905
#
# Velocity S-wave (km/s) = 2.98793 3.90579 3.47728
# Velocity P-wave (km/s) = 4.47721 7.15429 5.96780
#
# Compressibility (1/GPa) = 0.06039706
#
# Stress axis : x y z
#
# Youngs Moduli (GPa) = 53.55543 21.34344 50.68819
#
# Poissons Ratio (x) = -0.21985 0.78819
# Poissons Ratio (y) = -0.55166 0.36390
# Poissons Ratio (z) = 0.83277 0.15323
#
# Static dielectric constant tensor:
#      x y z
#    x 1.630350 0.000000 0.027180 
#    y 0.000000 1.758420 0.000000 
#    z 0.027180 0.000000 1.728360 
# 
# From -- ./inp_files/342523.got.cif
#   From: 2010.05.17/outbox.cif.g08.bks.cpg/sg12_172_cif.got.tgz:342523.got - 2010.06.03 13:09:07.
