data_PCOD9191329
_publ_section_title
;
Structure prediction by ZEFSAII (Michael W. Deem and Ramdas Pophale) SiO2 
 PCOD9191329
Probable space group: C 2/M
;
_chemical_formula_sum "Si O2"
_cell_formula_units_Z 48
_cell_length_a 28.045878
_cell_length_b 14.991582
_cell_length_c 8.813488
_cell_angle_alpha 90.000000
_cell_angle_beta 148.764843
_cell_angle_gamma 90.000000
_cell_volume 1921.571027
_symmetry_space_group_name_H-M "C 2/M"
_symmetry_group_IT_number 12
_symmetry_cell_setting 'monoclinic'
loop_
_space_group_symop_operation_xyz
x,y,z
-x,y,-z
-x,-y,-z
x,-y,z
1/2+x,1/2+y,z
1/2-x,1/2+y,-z
1/2-x,1/2-y,-z
1/2+x,1/2-y,z
loop_
_atom_site_type_symbol
_atom_site_label
_atom_site_fract_x
_atom_site_fract_y
_atom_site_fract_z
Si Si1 0.401372 0.821837 0.662461
Si Si2 0.907000 0.647117 0.330207
Si Si3 0.414496 0.338890 0.192846
Si Si4 0.705831 0.634493 0.662660
Si Si5 0.250423 0.355688 0.550545
Si Si6 0.513607 0.595920 0.215392
O O1 0.413755 0.862641 0.529082
O O2 0.332672 0.736953 0.447181
O O3 0.348929 0.876823 0.651769
O O4 0.500000 0.799074 0.000000
O O5 0.902161 0.750835 0.258490
O O6 0.000000 0.612562 0.500000
O O7 0.805792 0.616317 0.003189
O O8 0.500000 0.391332 0.500000
O O9 0.461577 0.323988 0.156078
O O10 0.318017 0.375065 0.875744
O O11 0.714472 0.602700 0.511216
O O12 0.622819 0.594373 0.534405
O O13 0.250000 0.250000 0.500000
O O14 0.473728 0.500000 0.152791
O O15 0.500000 0.603093 0.000000
#
# Coordination Sequence:
#
# PCOD9191329 Si02
#       6
#     8   8   8   8   8   8
#     4  11  22  32  52  81 118 154 183 227 291 352
#     4  11  22  34  53  87 115 147 188 232 294 342
#     4  11  22  35  54  80 119 149 189 234 281 342
#     4  11  20  34  57  78 115 148 192 237 279 344
#     4  10  20  33  48  79 111 151 183 227 289 339
#     4  11  24  40  60  83 112 158 198 232 279 337
#
# _framework density 24.979561
#
# number of rings (size 3 to 8) (size 9 to 14) (size 15 to 20)
#    0.000    1.167    5.000    4.000   11.667    0.333 
#    0.000    0.000    0.000    0.500    0.000    0.000 
#    0.000    3.333    0.000    0.000    0.000    0.000 
#
# Total GULP energy -133793.003050 kJ/mol
# GULP energy per Si atom -5574.708460 kJ/mol
# Density = 2.492271 g / cm^3
# Si number density = 24.979561 Si / 1000 Ang^3
#
#
#
# Elastic Constant Matrix: (Units=GPa)
#
#
# Indices 1 2 3 4 5 6 
#
# 1 140.5635 -0.5840 14.0530 0.0000 17.3417 0.0000
# 2 -0.5840 33.4579 -6.6900 0.0000 3.2318 0.0000
# 3 14.0530 -6.6900 171.8079 0.0000 21.1099 0.0000
# 4 0.0000 0.0000 0.0000 -2.9116 0.0000 1.6045
# 5 17.3417 3.2318 21.1099 0.0000 55.6299 0.0000
# 6 0.0000 0.0000 0.0000 1.6045 0.0000 -13.4903
#
#
#
# Elastic Compliance Matrix: (Units=1/GPa)
#
#
# Indices 1 2 3 4 5 6 
#
# 1 0.007420 0.000278 -0.000325 0.000000 -0.002206 0.000000
# 2 0.000278 0.030417 0.001457 0.000000 -0.002407 0.000000
# 3 -0.000325 0.001457 0.006190 0.000000 -0.002332 0.000000
# 4 0.000000 0.000000 0.000000 -0.367542 0.000000 -0.043714
# 5 -0.002206 -0.002407 -0.002332 0.000000 0.019688 0.000000
# 6 0.000000 0.000000 0.000000 -0.043714 0.000000 -0.079326
#
#
# Mechanical properties :
#
#
# Convention : Reuss Voigt Hill
#
# Bulk Modulus (GPa) = 21.34599 39.93193 30.63896
# Shear Modulus (GPa) = -13.50052 30.44895 8.47421
#
# Velocity S-wave (km/s) = -2.32731 3.49514 1.84386
# Velocity P-wave (km/s) = 1.15850 5.68406 4.10187
#
# Compressibility (1/GPa) = 0.04684720
#
# Stress axis : x y z
#
# Youngs Moduli (GPa) = 134.77061 32.87633 161.54113
#
# Poissons Ratio (x) = -0.00913 0.05251
# Poissons Ratio (y) = -0.03741 -0.23543
# Poissons Ratio (z) = 0.04381 -0.04791
#
# Static dielectric constant tensor:
#      x y z
#    x 2.089730 0.000000 -0.006290 
#    y 0.000000 2.113060 0.000000 
#    z -0.006290 0.000000 2.071110 
# 
# From -- ./inp_files/113238.got.cif
#   From: 2010.05.17/outbox.cif.g08.bks.cpg/sg12_57_cif.got.tgz:113238.got - 2010.06.03 13:09:07.
