data_PCOD9191139
_publ_section_title
;
Structure prediction by ZEFSAII (Michael W. Deem and Ramdas Pophale) SiO2 
 PCOD9191139
Probable space group: C 2/M
;
_chemical_formula_sum "Si O2"
_cell_formula_units_Z 44
_cell_length_a 7.408141
_cell_length_b 25.527885
_cell_length_c 11.609850
_cell_angle_alpha 90.000000
_cell_angle_beta 121.972695
_cell_angle_gamma 90.000000
_cell_volume 1862.517775
_symmetry_space_group_name_H-M "C 2/M"
_symmetry_group_IT_number 12
_symmetry_cell_setting 'monoclinic'
loop_
_space_group_symop_operation_xyz
x,y,z
-x,y,-z
-x,-y,-z
x,-y,z
1/2+x,1/2+y,z
1/2-x,1/2+y,-z
1/2-x,1/2-y,-z
1/2+x,1/2-y,z
loop_
_atom_site_type_symbol
_atom_site_label
_atom_site_fract_x
_atom_site_fract_y
_atom_site_fract_z
Si Si1 0.424949 0.310345 0.301428
Si Si2 0.246740 0.443505 0.931347
Si Si3 0.789901 0.328304 0.995189
Si Si4 0.981421 0.304235 0.283442
Si Si5 0.470185 0.917767 0.620041
Si Si6 0.500000 0.396217 0.500000
O O1 0.402321 0.318162 0.157179
O O2 0.502718 0.251686 0.350142
O O3 0.539529 0.357699 0.403995
O O4 0.193317 0.313378 0.280854
O O5 0.198880 0.500000 0.970457
O O6 0.127335 0.441270 0.768484
O O7 0.500000 0.440495 0.000000
O O8 0.187013 0.390635 0.977660
O O9 0.794221 0.303439 0.123725
O O10 0.000000 0.308900 0.000000
O O11 0.968329 0.355643 0.355959
O O12 0.500000 0.936873 0.500000
O O13 0.225946 0.925515 0.581933
#
# Coordination Sequence:
#
# PCOD9191139 Si02
#       6
#     8   8   8   8   8   4
#     4  10  20  32  54  82 124 162 206 253 295 360
#     4  10  23  43  66  95 119 149 209 265 316 384
#     4   9  19  37  57  83 119 160 203 257 311 361
#     4   9  20  33  52  87 120 162 213 249 293 364
#     4  10  23  41  64  90 129 171 201 256 315 365
#     4  10  24  38  57  92 128 168 215 248 290 390
#
# _framework density 23.623934999999999
#
# number of rings (size 3 to 8) (size 9 to 14) (size 15 to 20)
#    0.000    2.364    0.000    1.636    6.364    3.636 
#    0.000    1.364    0.000    0.000    0.000    0.000 
#    0.000    0.000    0.000    0.000    0.000    0.000 
#
# Total GULP energy -122871.919152 kJ/mol
# GULP energy per Si atom -5585.087234 kJ/mol
# Density = 2.357017 g / cm^3
# Si number density = 23.623935 Si / 1000 Ang^3
#
#
#
# Elastic Constant Matrix: (Units=GPa)
#
#
# Indices 1 2 3 4 5 6 
#
# 1 82.7248 10.7077 41.5445 0.0000 5.4894 0.0000
# 2 10.7077 84.0529 15.4940 0.0000 0.5801 0.0000
# 3 41.5445 15.4940 110.8600 0.0000 22.0522 0.0000
# 4 0.0000 0.0000 0.0000 -80.0832 0.0000 -123.5990
# 5 5.4894 0.5801 22.0522 0.0000 27.0591 0.0000
# 6 0.0000 0.0000 0.0000 -123.5990 0.0000 -204.5662
#
#
#
# Elastic Compliance Matrix: (Units=1/GPa)
#
#
# Indices 1 2 3 4 5 6 
#
# 1 0.015025 -0.000846 -0.005859 0.000000 0.001745 0.000000
# 2 -0.000846 0.012301 -0.001652 0.000000 0.001254 0.000000
# 3 -0.005859 -0.001652 0.013371 0.000000 -0.009673 0.000000
# 4 0.000000 0.000000 0.000000 -0.185029 0.000000 0.111795
# 5 0.001745 0.001254 -0.009673 0.000000 0.044458 0.000000
# 6 0.000000 0.000000 0.000000 0.111795 0.000000 -0.072435
#
#
# Mechanical properties :
#
#
# Convention : Reuss Voigt Hill
#
# Bulk Modulus (GPa) = 41.69673 45.90334 43.80003
# Shear Modulus (GPa) = -33.87515 -37.52527 -35.70021
#
# Velocity S-wave (km/s) = -3.79084 -3.98985 -3.89162
# Velocity P-wave (km/s) = 1.21330 1.32370 1.26970
#
# Compressibility (1/GPa) = 0.02398270
#
# Stress axis : x y z
#
# Youngs Moduli (GPa) = 66.55781 81.29536 74.78815
#
# Poissons Ratio (x) = 0.06877 0.43821
# Poissons Ratio (y) = 0.05631 0.12352
# Poissons Ratio (z) = 0.38998 0.13427
#
# Static dielectric constant tensor:
#      x y z
#    x 1.870570 0.000000 0.026640 
#    y 0.000000 1.910270 0.000000 
#    z 0.026640 0.000000 1.961730 
# 
# From -- ./inp_files/124479.got.cif
#   From: 2010.05.17/outbox.cif.g08.bks.cpg/sg12_63_cif.got.tgz:124479.got - 2010.06.03 13:09:07.
