data_PCOD9191961
_publ_section_title
;
Structure prediction by ZEFSAII (Michael W. Deem and Ramdas Pophale) SiO2 
 PCOD9191961
Probable space group: C 2/M
;
_chemical_formula_sum "Si O2"
_cell_formula_units_Z 64
_cell_length_a 18.402401
_cell_length_b 7.528450
_cell_length_c 18.469824
_cell_angle_alpha 90.000000
_cell_angle_beta 94.361625
_cell_angle_gamma 90.000000
_cell_volume 2551.427534
_symmetry_space_group_name_H-M "C 2/M"
_symmetry_group_IT_number 12
_symmetry_cell_setting 'monoclinic'
loop_
_space_group_symop_operation_xyz
x,y,z
-x,y,-z
-x,-y,-z
x,-y,z
1/2+x,1/2+y,z
1/2-x,1/2+y,-z
1/2-x,1/2-y,-z
1/2+x,1/2-y,z
loop_
_atom_site_type_symbol
_atom_site_label
_atom_site_fract_x
_atom_site_fract_y
_atom_site_fract_z
Si Si1 0.322099 0.788127 0.835290
Si Si2 0.026709 0.796000 0.925182
Si Si3 0.141246 0.218308 0.522538
Si Si4 0.449865 0.297290 0.352301
Si Si5 0.833952 0.289767 0.996312
Si Si6 0.965143 0.207389 0.771886
Si Si7 0.792732 0.796565 0.612451
Si Si8 0.300044 0.210604 0.267910
O O1 0.349654 0.725127 0.915802
O O2 0.380119 0.717462 0.782008
O O3 0.239141 0.733660 0.811822
O O4 0.324930 0.000000 0.836056
O O5 0.002640 0.713973 0.847107
O O6 0.000677 0.000000 0.922500
O O7 0.113341 0.794559 0.941040
O O8 0.000000 0.714914 0.000000
O O9 0.076902 0.276011 0.571983
O O10 0.146340 0.272638 0.438661
O O11 0.216049 0.292397 0.562377
O O12 0.144618 0.000000 0.524865
O O13 0.472071 0.500000 0.370628
O O14 0.509477 0.215055 0.303013
O O15 0.376465 0.294545 0.296428
O O16 0.845549 0.500000 0.000568
O O17 0.750000 0.250000 0.000000
O O18 0.986977 0.000000 0.769898
O O19 0.762363 0.711209 0.683159
O O20 0.813626 0.000000 0.630222
O O21 0.308885 0.000000 0.281547
#
# Coordination Sequence:
#
# PCOD9191961 Si02
#       8
#     8   8   8   8   8   8   8   8
#     4  11  24  40  56  76 105 140 177 217 260 311
#     4  10  20  37  60  82 106 138 174 213 258 309
#     4   8  13  24  44  70 102 135 168 209 257 305
#     4   9  18  32  52  80 110 139 173 216 263 311
#     4  11  25  41  59  82 108 137 173 217 262 310
#     4  10  21  37  57  79 106 140 176 214 259 313
#     4   8  14  25  43  70 101 134 171 211 255 304
#     4  10  20  33  52  78 108 140 177 219 262 311
#
# _framework density 25.083995000000002
#
# number of rings (size 3 to 8) (size 9 to 14) (size 15 to 20)
#    0.000    2.375    1.250    1.125    1.750    3.250 
#    0.000    0.000    0.000    0.750    0.000    5.250 
#    0.000    0.000    0.000    0.000    0.000    0.000 
#
# Total GULP energy -178564.476341 kJ/mol
# GULP energy per Si atom -5580.139886 kJ/mol
# Density = 2.502690 g / cm^3
# Si number density = 25.083995 Si / 1000 Ang^3
#
#
#
# Elastic Constant Matrix: (Units=GPa)
#
#
# Indices 1 2 3 4 5 6 
#
# 1 72.4491 -5.0598 25.5379 0.0000 -18.9129 0.0000
# 2 -5.0598 90.9385 3.3084 0.0000 -5.1686 0.0000
# 3 25.5379 3.3084 50.1436 0.0000 -18.2374 0.0000
# 4 0.0000 0.0000 0.0000 2.8331 0.0000 4.6572
# 5 -18.9129 -5.1686 -18.2374 0.0000 53.9861 0.0000
# 6 0.0000 0.0000 0.0000 4.6572 0.0000 15.7248
#
#
#
# Elastic Compliance Matrix: (Units=1/GPa)
#
#
# Indices 1 2 3 4 5 6 
#
# 1 0.017588 0.001469 -0.007710 0.000000 0.003698 0.000000
# 2 0.001469 0.011186 -0.001037 0.000000 0.001235 0.000000
# 3 -0.007710 -0.001037 0.026130 0.000000 0.006027 0.000000
# 4 0.000000 0.000000 0.000000 0.687879 0.000000 -0.203729
# 5 0.003698 0.001235 0.006027 0.000000 0.021973 0.000000
# 6 0.000000 0.000000 0.000000 -0.203729 0.000000 0.123932
#
#
# Mechanical properties :
#
#
# Convention : Reuss Voigt Hill
#
# Bulk Modulus (GPa) = 24.78358 29.01157 26.89757
# Shear Modulus (GPa) = 5.45439 27.15845 16.30642
#
# Velocity S-wave (km/s) = 1.47620 3.29401 2.55242
# Velocity P-wave (km/s) = 3.57872 5.10473 4.40826
#
# Compressibility (1/GPa) = 0.04034930
#
# Stress axis : x y z
#
# Youngs Moduli (GPa) = 56.85576 89.39640 38.27070
#
# Poissons Ratio (x) = -0.13135 0.29505
# Poissons Ratio (y) = -0.08354 0.03969
# Poissons Ratio (z) = 0.43834 0.09271
#
# Static dielectric constant tensor:
#      x y z
#    x 1.974880 0.000000 -0.056120 
#    y 0.000000 1.870740 0.000000 
#    z -0.056120 0.000000 2.084140 
# 
# From -- ./inp_files/313989.got.cif
#   From: 2010.05.17/outbox.cif.g08.bks.cpg/sg12_157_cif.got.tgz:313989.got - 2010.06.03 13:09:07.
