data_PCOD9191819
_publ_section_title
;
Structure prediction by ZEFSAII (Michael W. Deem and Ramdas Pophale) SiO2 
 PCOD9191819
Probable space group: C 2/M
;
_chemical_formula_sum "Si O2"
_cell_formula_units_Z 48
_cell_length_a 8.976200
_cell_length_b 32.393593
_cell_length_c 15.518847
_cell_angle_alpha 90.000000
_cell_angle_beta 150.182021
_cell_angle_gamma 90.000000
_cell_volume 2243.792008
_symmetry_space_group_name_H-M "C 2/M"
_symmetry_group_IT_number 12
_symmetry_cell_setting 'monoclinic'
loop_
_space_group_symop_operation_xyz
x,y,z
-x,y,-z
-x,-y,-z
x,-y,z
1/2+x,1/2+y,z
1/2-x,1/2+y,-z
1/2-x,1/2-y,-z
1/2+x,1/2-y,z
loop_
_atom_site_type_symbol
_atom_site_label
_atom_site_fract_x
_atom_site_fract_y
_atom_site_fract_z
Si Si1 0.474376 0.127232 0.205845
Si Si2 0.143159 0.127232 0.205845
Si Si3 0.286953 0.709316 0.309516
Si Si4 0.508817 0.454296 0.788225
Si Si5 0.858407 0.209316 0.690484
Si Si6 0.855859 0.545704 0.788225
O O1 0.415874 0.136109 0.277249
O O2 0.618763 0.165956 0.230127
O O3 0.646435 0.084465 0.276299
O O4 0.152090 0.121549 0.000000
O O5 0.071618 0.165956 0.230127
O O6 0.182460 0.084465 0.276298
O O7 0.500000 0.707900 0.500000
O O8 0.084568 0.750000 0.223045
O O9 0.473628 0.713709 0.315752
O O10 0.375296 0.500000 0.734155
O O11 0.610269 0.449622 0.740180
O O12 0.822443 0.453876 0.000000
O O13 0.500000 0.207900 0.500000
O O14 0.827168 0.500000 0.734155
#
# Coordination Sequence:
#
# PCOD9191819 Si02
#       6
#     8   8   8   8   8   8
#     4  10  20  33  51  78 109 138 172 213 255 299
#     4  10  20  33  51  78 109 138 172 213 255 299
#     4  11  22  38  58  77 101 133 171 211 255 309
#     4   8  14  26  45  70 101 136 172 209 251 299
#     4  11  22  38  58  77 101 133 171 211 255 309
#     4   8  14  26  45  70 101 136 172 209 251 299
#
# _framework density 21.392358999999999
#
# number of rings (size 3 to 8) (size 9 to 14) (size 15 to 20)
#    0.000    2.333    0.000    6.000    0.000    3.333 
#    0.000    3.333    0.000    1.000    0.000    0.000 
#    0.000    0.000    0.000    0.000    0.000    0.000 
#
# Total GULP energy -133939.488435 kJ/mol
# GULP energy per Si atom -5580.812018 kJ/mol
# Density = 2.134367 g / cm^3
# Si number density = 21.392359 Si / 1000 Ang^3
#
#
#
# Elastic Constant Matrix: (Units=GPa)
#
#
# Indices 1 2 3 4 5 6 
#
# 1 176.6744 97.8361 9.3167 0.0000 17.3345 0.0000
# 2 97.8361 190.2884 9.0096 0.0000 11.2591 0.0000
# 3 9.3167 9.0096 20.7070 0.0000 2.4349 0.0000
# 4 0.0000 0.0000 0.0000 29.1452 0.0000 9.8259
# 5 17.3345 11.2591 2.4349 0.0000 17.1885 0.0000
# 6 0.0000 0.0000 0.0000 9.8259 0.0000 106.6614
#
#
#
# Elastic Compliance Matrix: (Units=1/GPa)
#
#
# Indices 1 2 3 4 5 6 
#
# 1 0.008493 -0.003958 -0.001421 0.000000 -0.005771 0.000000
# 2 -0.003958 0.007393 -0.001359 0.000000 -0.000659 0.000000
# 3 -0.001421 -0.001359 0.050084 0.000000 -0.004772 0.000000
# 4 0.000000 0.000000 0.000000 0.035411 0.000000 -0.003262
# 5 -0.005771 -0.000659 -0.004772 0.000000 0.065106 0.000000
# 6 0.000000 0.000000 0.000000 -0.003262 0.000000 0.009676
#
#
# Mechanical properties :
#
#
# Convention : Reuss Voigt Hill
#
# Bulk Modulus (GPa) = 19.04883 68.88827 43.96855
# Shear Modulus (GPa) = 24.13861 48.69953 36.41907
#
# Velocity S-wave (km/s) = 3.36277 4.77644 4.13053
# Velocity P-wave (km/s) = 4.89913 7.91778 6.58380
#
# Compressibility (1/GPa) = 0.05249665
#
# Stress axis : x y z
#
# Youngs Moduli (GPa) = 117.74307 135.25477 19.96634
#
# Poissons Ratio (x) = 0.53533 0.02836
# Poissons Ratio (y) = 0.46602 0.02713
# Poissons Ratio (z) = 0.16726 0.18376
#
# Static dielectric constant tensor:
#      x y z
#    x 1.754880 0.000000 -0.010220 
#    y 0.000000 1.813550 0.000000 
#    z -0.010220 0.000000 1.835490 
# 
# From -- ./inp_files/170833.got.cif
#   From: 2010.05.17/outbox.cif.g08.bks.cpg/sg12_86_cif.got.tgz:170833.got - 2010.06.03 13:09:07.
