data_PCOD9191354
_publ_section_title
;
Structure prediction by ZEFSAII (Michael W. Deem and Ramdas Pophale) SiO2 
 PCOD9191354
Probable space group: C 2/M
;
_chemical_formula_sum "Si O2"
_cell_formula_units_Z 56
_cell_length_a 20.880507
_cell_length_b 9.364115
_cell_length_c 18.303422
_cell_angle_alpha 90.000000
_cell_angle_beta 77.823307
_cell_angle_gamma 90.000000
_cell_volume 3498.304644
_symmetry_space_group_name_H-M "C 2/M"
_symmetry_group_IT_number 12
_symmetry_cell_setting 'monoclinic'
loop_
_space_group_symop_operation_xyz
x,y,z
-x,y,-z
-x,-y,-z
x,-y,z
1/2+x,1/2+y,z
1/2-x,1/2+y,-z
1/2-x,1/2-y,-z
1/2+x,1/2-y,z
loop_
_atom_site_type_symbol
_atom_site_label
_atom_site_fract_x
_atom_site_fract_y
_atom_site_fract_z
Si Si1 0.067888 0.826241 0.446589
Si Si2 0.905469 0.335694 0.155190
Si Si3 0.182139 0.172030 0.530093
Si Si4 0.547164 0.330786 0.287494
Si Si5 0.563900 0.835360 0.138784
Si Si6 0.608775 0.667947 0.697415
Si Si7 0.079353 0.164831 0.991661
O O1 0.128883 0.784576 0.481869
O O2 0.071516 0.782689 0.361198
O O3 0.000000 0.777716 0.500000
O O4 0.065520 0.000000 0.446699
O O5 0.885008 0.500000 0.153168
O O6 0.877748 0.261157 0.234294
O O7 0.891981 0.246449 0.085270
O O8 0.984735 0.334553 0.146389
O O9 0.250000 0.250000 0.500000
O O10 0.152205 0.205431 0.616927
O O11 0.189673 0.000000 0.524418
O O12 0.560477 0.500000 0.274710
O O13 0.575355 0.242613 0.212936
O O14 0.467968 0.314772 0.305287
O O15 0.585012 0.000000 0.133941
O O16 0.592501 0.748318 0.063552
O O17 0.617777 0.500000 0.712135
O O18 0.099903 0.000000 0.990029
O O19 0.000000 0.165145 0.000000
#
# Coordination Sequence:
#
# PCOD9191354 Si02
#       7
#     8   8   8   8   8   8   8
#     4   9  15  28  50  71  88 115 159 202 233 271
#     4   9  16  24  36  55  81 113 146 182 226 273
#     4  10  20  33  49  69  94 123 155 195 241 283
#     4   9  15  25  44  65  83 109 152 196 228 264
#     4   9  16  24  34  53  85 117 143 177 227 277
#     4   9  16  27  43  62  84 113 151 191 228 270
#     4   9  15  23  35  52  77 112 152 185 216 261
#
# _framework density 16.007753999999998
#
# number of rings (size 3 to 8) (size 9 to 14) (size 15 to 20)
#    0.000    2.857    1.429    1.286    0.000    5.714 
#    0.000    0.714    0.000    0.857    0.000    0.000 
#    0.000    1.143    0.000    3.429    0.000    5.714 
#
# Total GULP energy -155975.717970 kJ/mol
# GULP energy per Si atom -5570.561356 kJ/mol
# Density = 1.597132 g / cm^3
# Si number density = 16.007754 Si / 1000 Ang^3
#
#
#
# Elastic Constant Matrix: (Units=GPa)
#
#
# Indices 1 2 3 4 5 6 
#
# 1 46.6338 29.5387 47.1090 0.0000 4.8994 0.0000
# 2 29.5387 100.1934 99.5381 0.0000 3.3042 0.0000
# 3 47.1090 99.5381 192.0310 0.0000 15.0663 0.0000
# 4 0.0000 0.0000 0.0000 17.2557 0.0000 -5.6965
# 5 4.8994 3.3042 15.0663 0.0000 9.7981 0.0000
# 6 0.0000 0.0000 0.0000 -5.6965 0.0000 12.2844
#
#
#
# Elastic Compliance Matrix: (Units=1/GPa)
#
#
# Indices 1 2 3 4 5 6 
#
# 1 0.029245 -0.003636 -0.004820 0.000000 -0.005986 0.000000
# 2 -0.003636 0.022077 -0.011497 0.000000 0.012052 0.000000
# 3 -0.004820 -0.011497 0.013483 0.000000 -0.014445 0.000000
# 4 0.000000 0.000000 0.000000 0.068427 0.000000 0.031731
# 5 -0.005986 0.012052 -0.014445 0.000000 0.123201 0.000000
# 6 0.000000 0.000000 0.000000 0.031731 0.000000 0.096118
#
#
# Mechanical properties :
#
#
# Convention : Reuss Voigt Hill
#
# Bulk Modulus (GPa) = 40.16330 76.80331 58.48331
# Shear Modulus (GPa) = 12.47639 18.71245 15.59442
#
# Velocity S-wave (km/s) = 2.79480 3.42272 3.12457
# Velocity P-wave (km/s) = 5.96313 7.98141 7.04492
#
# Compressibility (1/GPa) = 0.02489835
#
# Stress axis : x y z
#
# Youngs Moduli (GPa) = 34.19419 45.29581 74.16907
#
# Poissons Ratio (x) = 0.16469 0.35750
# Poissons Ratio (y) = 0.12433 0.85273
# Poissons Ratio (z) = 0.16482 0.52077
#
# Static dielectric constant tensor:
#      x y z
#    x 1.501130 0.000000 0.007750 
#    y 0.000000 1.534750 0.000000 
#    z 0.007750 0.000000 1.535850 
# 
# From -- ./inp_files/280224.got.cif
#   From: 2010.05.17/outbox.cif.g08.bks.cpg/sg12_141_cif.got.tgz:280224.got - 2010.06.03 13:09:07.
