data_PCOD9191174
_publ_section_title
;
Structure prediction by ZEFSAII (Michael W. Deem and Ramdas Pophale) SiO2 
 PCOD9191174
Probable space group: C 2/M
;
_chemical_formula_sum "Si O2"
_cell_formula_units_Z 40
_cell_length_a 8.559942
_cell_length_b 20.393595
_cell_length_c 14.167677
_cell_angle_alpha 90.000000
_cell_angle_beta 62.050552
_cell_angle_gamma 90.000000
_cell_volume 2184.749802
_symmetry_space_group_name_H-M "C 2/M"
_symmetry_group_IT_number 12
_symmetry_cell_setting 'monoclinic'
loop_
_space_group_symop_operation_xyz
x,y,z
-x,y,-z
-x,-y,-z
x,-y,z
1/2+x,1/2+y,z
1/2-x,1/2+y,-z
1/2-x,1/2-y,-z
1/2+x,1/2-y,z
loop_
_atom_site_type_symbol
_atom_site_label
_atom_site_fract_x
_atom_site_fract_y
_atom_site_fract_z
Si Si1 0.639371 0.683183 0.040049
Si Si2 0.818038 0.824979 0.491919
Si Si3 0.849656 0.809522 0.270976
Si Si4 0.418267 0.075341 0.918235
Si Si5 0.966188 0.337692 0.284323
O O1 0.527946 0.670825 0.165949
O O2 0.500000 0.695261 0.000000
O O3 0.750000 0.750000 0.000000
O O4 0.747206 0.619777 0.980150
O O5 0.750000 0.750000 0.500000
O O6 0.843379 0.843574 0.375458
O O7 0.662415 0.860272 0.594281
O O8 0.000000 0.826635 0.500000
O O9 0.878890 0.730900 0.274279
O O10 0.665191 0.823556 0.267957
O O11 0.525866 0.112365 0.805219
O O12 0.386634 0.000000 0.900772
O O13 0.500000 0.076596 0.000000
#
# Coordination Sequence:
#
# PCOD9191174 Si02
#       5
#     8   8   8   8   8
#     4  12  22  37  61  94 122 155 200 250 301 361
#     4  10  20  32  55  88 121 154 189 246 306 355
#     4  11  20  34  57  93 121 154 191 251 300 348
#     4  11  26  42  60  85 123 166 202 248 305 364
#     4  11  21  37  59  87 124 154 199 245 304 361
#
# _framework density 18.308731999999999
#
# number of rings (size 3 to 8) (size 9 to 14) (size 15 to 20)
#    0.000    1.000    4.000    6.000    5.600    0.400 
#    0.000    0.000    0.000    4.200    0.000    0.000 
#    0.000    0.000    0.000    0.000    0.000    0.000 
#
# Total GULP energy -111479.856639 kJ/mol
# GULP energy per Si atom -5573.992832 kJ/mol
# Density = 1.826706 g / cm^3
# Si number density = 18.308732 Si / 1000 Ang^3
#
#
#
# Elastic Constant Matrix: (Units=GPa)
#
#
# Indices 1 2 3 4 5 6 
#
# 1 105.0514 46.0070 31.9724 0.0000 -3.0930 0.0000
# 2 46.0070 89.5078 55.2333 0.0000 0.2844 0.0000
# 3 31.9724 55.2333 199.7838 0.0000 -11.0077 0.0000
# 4 0.0000 0.0000 0.0000 20.0591 0.0000 6.5399
# 5 -3.0930 0.2844 -11.0077 0.0000 31.3639 0.0000
# 6 0.0000 0.0000 0.0000 6.5399 0.0000 19.7970
#
#
#
# Elastic Compliance Matrix: (Units=1/GPa)
#
#
# Indices 1 2 3 4 5 6 
#
# 1 0.012341 -0.006233 -0.000185 0.000000 0.001208 0.000000
# 2 -0.006233 0.016684 -0.003729 0.000000 -0.002075 0.000000
# 3 -0.000185 -0.003729 0.006187 0.000000 0.002187 0.000000
# 4 0.000000 0.000000 0.000000 0.055870 0.000000 -0.018456
# 5 0.001208 -0.002075 0.002187 0.000000 0.032789 0.000000
# 6 0.000000 0.000000 0.000000 -0.018456 0.000000 0.056610
#
#
# Mechanical properties :
#
#
# Convention : Reuss Voigt Hill
#
# Bulk Modulus (GPa) = 67.03988 73.41870 70.22929
# Shear Modulus (GPa) = 24.30174 31.65269 27.97722
#
# Velocity S-wave (km/s) = 3.64721 4.16243 3.91331
# Velocity P-wave (km/s) = 7.37780 7.95541 7.67204
#
# Compressibility (1/GPa) = 0.01491650
#
# Stress axis : x y z
#
# Youngs Moduli (GPa) = 81.03279 59.93886 161.64028
#
# Poissons Ratio (x) = 0.37358 0.02994
# Poissons Ratio (y) = 0.50505 0.60281
# Poissons Ratio (z) = 0.01501 0.22353
#
# Static dielectric constant tensor:
#      x y z
#    x 1.634750 0.000000 0.014350 
#    y 0.000000 1.553880 0.000000 
#    z 0.014350 0.000000 1.762110 
# 
# From -- ./inp_files/196391.got.cif
#   From: 2010.05.17/outbox.cif.g08.bks.cpg/sg12_99_cif.got.tgz:196391.got - 2010.06.03 13:09:07.
