data_PCOD9191448
_publ_section_title
;
Structure prediction by ZEFSAII (Michael W. Deem and Ramdas Pophale) SiO2 
 PCOD9191448
Probable space group: C 2/M
;
_chemical_formula_sum "Si O2"
_cell_formula_units_Z 56
_cell_length_a 14.788589
_cell_length_b 13.322902
_cell_length_c 20.494159
_cell_angle_alpha 90.000000
_cell_angle_beta 135.852204
_cell_angle_gamma 90.000000
_cell_volume 2812.444987
_symmetry_space_group_name_H-M "C 2/M"
_symmetry_group_IT_number 12
_symmetry_cell_setting 'monoclinic'
loop_
_space_group_symop_operation_xyz
x,y,z
-x,y,-z
-x,-y,-z
x,-y,z
1/2+x,1/2+y,z
1/2-x,1/2+y,-z
1/2-x,1/2-y,-z
1/2+x,1/2-y,z
loop_
_atom_site_type_symbol
_atom_site_label
_atom_site_fract_x
_atom_site_fract_y
_atom_site_fract_z
Si Si1 0.356396 0.385823 0.937669
Si Si2 0.132029 0.740233 0.285759
Si Si3 0.133437 0.382947 0.609091
Si Si4 0.424399 0.880533 0.858794
Si Si5 0.930615 0.114902 0.122881
Si Si6 0.576696 0.121805 0.733762
Si Si7 0.177800 0.621434 0.053526
O O1 0.367451 0.500000 0.916522
O O2 0.216944 0.353675 0.838845
O O3 0.500000 0.340247 0.000000
O O4 0.357548 0.386455 0.016183
O O5 0.262000 0.803992 0.366564
O O6 0.153381 0.652441 0.244455
O O7 0.053396 0.817263 0.198094
O O8 0.038892 0.690061 0.293425
O O9 0.179700 0.500000 0.629185
O O10 0.099363 0.362660 0.667864
O O11 0.000000 0.376275 0.500000
O O12 0.363331 0.848360 0.895657
O O13 0.428498 0.000000 0.860966
O O14 0.574793 0.846420 0.945002
O O15 0.822040 0.153421 0.115490
O O16 0.967101 0.000000 0.155661
O O17 0.551878 0.000000 0.731554
O O18 0.177607 0.500000 0.051880
#
# Coordination Sequence:
#
# PCOD9191448 Si02
#       7
#     8   8   8   8   8   8   8
#     4   9  17  32  53  79 121 169 205 241 285 341
#     4  12  23  34  62  93 118 151 204 253 298 364
#     4  10  24  48  70  87 115 154 197 254 324 389
#     4   9  18  33  51  77 116 162 197 231 279 335
#     4  10  20  33  49  78 120 159 196 237 280 333
#     4  10  22  40  63  91 123 160 202 251 309 363
#     4   8  16  32  50  69 112 167 203 229 268 327
#
# _framework density 19.9115
#
# number of rings (size 3 to 8) (size 9 to 14) (size 15 to 20)
#    0.000    2.286    0.000    3.429    2.000    7.429 
#    5.143    0.000    0.000    1.714    0.000    0.000 
#    0.000    0.000    0.000    0.000    0.000    0.000 
#
# Total GULP energy -155986.355302 kJ/mol
# GULP energy per Si atom -5570.941261 kJ/mol
# Density = 1.986618 g / cm^3
# Si number density = 19.911500 Si / 1000 Ang^3
#
#
#
# Elastic Constant Matrix: (Units=GPa)
#
#
# Indices 1 2 3 4 5 6 
#
# 1 84.4170 37.7806 32.6861 0.0000 11.9024 0.0000
# 2 37.7806 93.7520 31.5525 0.0000 5.7737 0.0000
# 3 32.6861 31.5525 75.3395 0.0000 10.3915 0.0000
# 4 0.0000 0.0000 0.0000 12.2433 0.0000 20.3934
# 5 11.9024 5.7737 10.3915 0.0000 20.5305 0.0000
# 6 0.0000 0.0000 0.0000 20.3934 0.0000 15.2993
#
#
#
# Elastic Compliance Matrix: (Units=1/GPa)
#
#
# Indices 1 2 3 4 5 6 
#
# 1 0.016534 -0.004839 -0.004313 0.000000 -0.006041 0.000000
# 2 -0.004839 0.013849 -0.003817 0.000000 0.000843 0.000000
# 3 -0.004313 -0.003817 0.017470 0.000000 -0.005268 0.000000
# 4 0.000000 0.000000 0.000000 -0.066934 0.000000 0.089220
# 5 -0.006041 0.000843 -0.005268 0.000000 0.054640 0.000000
# 6 0.000000 0.000000 0.000000 0.089220 0.000000 -0.053564
#
#
# Mechanical properties :
#
#
# Convention : Reuss Voigt Hill
#
# Bulk Modulus (GPa) = 45.63277 50.83859 48.23568
# Shear Modulus (GPa) = 328.13127 19.71392 173.92259
#
# Velocity S-wave (km/s) = 12.85117 3.14996 9.35614
# Velocity P-wave (km/s) = 15.59394 6.23036 11.87410
#
# Compressibility (1/GPa) = 0.02191408
#
# Stress axis : x y z
#
# Youngs Moduli (GPa) = 60.48324 72.20630 57.24191
#
# Poissons Ratio (x) = 0.34941 0.24690
# Poissons Ratio (y) = 0.29268 0.21849
# Poissons Ratio (z) = 0.26088 0.27560
#
# Static dielectric constant tensor:
#      x y z
#    x 1.790350 0.000000 -0.003980 
#    y 0.000000 1.810990 0.000000 
#    z -0.003980 0.000000 1.677310 
# 
# From -- ./inp_files/310825.got.cif
#   From: 2010.05.17/outbox.cif.g08.bks.cpg/sg12_156_cif.got.tgz:310825.got - 2010.06.03 13:09:07.
