data_PCOD9191989
_publ_section_title
;
Structure prediction by ZEFSAII (Michael W. Deem and Ramdas Pophale) SiO2 
 PCOD9191989
Probable space group: C 2/M
;
_chemical_formula_sum "Si O2"
_cell_formula_units_Z 56
_cell_length_a 20.209391
_cell_length_b 9.323708
_cell_length_c 19.503802
_cell_angle_alpha 90.000000
_cell_angle_beta 126.313053
_cell_angle_gamma 90.000000
_cell_volume 2961.316799
_symmetry_space_group_name_H-M "C 2/M"
_symmetry_group_IT_number 12
_symmetry_cell_setting 'monoclinic'
loop_
_space_group_symop_operation_xyz
x,y,z
-x,y,-z
-x,-y,-z
x,-y,z
1/2+x,1/2+y,z
1/2-x,1/2+y,-z
1/2-x,1/2-y,-z
1/2+x,1/2-y,z
loop_
_atom_site_type_symbol
_atom_site_label
_atom_site_fract_x
_atom_site_fract_y
_atom_site_fract_z
Si Si1 0.005013 0.671147 0.180495
Si Si2 0.959708 0.844362 0.668438
Si Si3 0.269681 0.338551 0.580846
Si Si4 0.482909 0.837844 0.409344
Si Si5 0.690922 0.172977 0.260023
Si Si6 0.326223 0.827917 0.081197
Si Si7 0.193264 0.331159 0.768725
O O1 0.005174 0.500000 0.180029
O O2 0.913883 0.717381 0.100932
O O3 0.005443 0.727899 0.258377
O O4 0.093128 0.714004 0.202015
O O5 0.866698 0.859010 0.633768
O O6 0.963699 0.780816 0.595594
O O7 0.000862 0.000000 0.698806
O O8 0.231549 0.500000 0.560773
O O9 0.250000 0.250000 0.500000
O O10 0.262623 0.246563 0.646305
O O11 0.500000 0.830747 0.500000
O O12 0.389729 0.811524 0.327094
O O13 0.504175 0.000000 0.399470
O O14 0.735928 0.234011 0.220772
O O15 0.696210 0.000000 0.268156
O O16 0.323570 0.799157 0.161657
O O17 0.319226 0.000000 0.068974
O O18 0.250000 0.750000 0.000000
O O19 0.215404 0.500000 0.776823
#
# Coordination Sequence:
#
# PCOD9191989 Si02
#       7
#     8   8   8   8   8   8   8
#     4   9  18  38  61  81 111 151 189 226 276 344
#     4  10  20  33  52  79 108 141 186 241 285 323
#     4  10  21  35  51  76 110 149 195 242 287 338
#     4  10  21  36  55  78 108 155 198 229 282 347
#     4  10  21  36  58  84 112 151 192 236 291 343
#     4  10  21  39  64  90 116 148 190 236 286 347
#     4  10  21  39  59  84 119 154 191 240 291 344
#
# _framework density 18.910506999999999
#
# number of rings (size 3 to 8) (size 9 to 14) (size 15 to 20)
#    0.000    2.143    1.429    1.286    2.000    4.286 
#    0.000    0.714    0.000    4.286    0.000    0.000 
#    0.000    0.000    0.000    0.000    0.000    0.000 
#
# Total GULP energy -155927.179316 kJ/mol
# GULP energy per Si atom -5568.827833 kJ/mol
# Density = 1.886747 g / cm^3
# Si number density = 18.910507 Si / 1000 Ang^3
#
#
#
# Elastic Constant Matrix: (Units=GPa)
#
#
# Indices 1 2 3 4 5 6 
#
# 1 70.2126 43.5257 21.1393 0.0000 -7.0987 0.0000
# 2 43.5257 22.6270 15.3596 0.0000 1.7059 0.0000
# 3 21.1393 15.3596 79.8203 0.0000 11.4459 0.0000
# 4 0.0000 0.0000 0.0000 24.0785 0.0000 -2.5822
# 5 -7.0987 1.7059 11.4459 0.0000 10.2561 0.0000
# 6 0.0000 0.0000 0.0000 -2.5822 0.0000 27.6237
#
#
#
# Elastic Compliance Matrix: (Units=1/GPa)
#
#
# Indices 1 2 3 4 5 6 
#
# 1 -0.041269 0.081674 0.001497 0.000000 -0.043820 0.000000
# 2 0.081674 -0.110727 -0.013180 0.000000 0.089656 0.000000
# 3 0.001497 -0.013180 0.016911 0.000000 -0.015645 0.000000
# 4 0.000000 0.000000 0.000000 0.041951 0.000000 0.003922
# 5 -0.043820 0.089656 -0.015645 0.000000 0.069720 0.000000
# 6 0.000000 0.000000 0.000000 0.003922 0.000000 0.036567
#
#
# Mechanical properties :
#
#
# Convention : Reuss Voigt Hill
#
# Bulk Modulus (GPa) = 204.20323 36.96771 120.58547
# Shear Modulus (GPa) = -39.93729 18.56734 -10.68498
#
# Velocity S-wave (km/s) = -4.60054 3.13685 -2.37961
# Velocity P-wave (km/s) = 8.94419 5.71935 7.50698
#
# Compressibility (1/GPa) = 0.00489708
#
# Stress axis : x y z
#
# Youngs Moduli (GPa) = -24.23109 -9.03119 59.13225
#
# Poissons Ratio (x) = 0.73761 -0.08851
# Poissons Ratio (y) = 1.97905 0.77934
# Poissons Ratio (z) = 0.03627 -0.11903
#
# Static dielectric constant tensor:
#      x y z
#    x 1.691440 0.000000 0.033150 
#    y 0.000000 1.699010 0.000000 
#    z 0.033150 0.000000 1.659530 
# 
# From -- ./inp_files/280890.got.cif
#   From: 2010.05.17/outbox.cif.g08.bks.cpg/sg12_141_cif.got.tgz:280890.got - 2010.06.03 13:09:07.
