data_PCOD9191041
_publ_section_title
;
Structure prediction by ZEFSAII (Michael W. Deem and Ramdas Pophale) SiO2 
 PCOD9191041
Probable space group: C 2/M
;
_chemical_formula_sum "Si O2"
_cell_formula_units_Z 56
_cell_length_a 30.204517
_cell_length_b 7.401652
_cell_length_c 11.606698
_cell_angle_alpha 90.000000
_cell_angle_beta 119.664141
_cell_angle_gamma 90.000000
_cell_volume 2254.757015
_symmetry_space_group_name_H-M "C 2/M"
_symmetry_group_IT_number 12
_symmetry_cell_setting 'monoclinic'
loop_
_space_group_symop_operation_xyz
x,y,z
-x,y,-z
-x,-y,-z
x,-y,z
1/2+x,1/2+y,z
1/2-x,1/2+y,-z
1/2-x,1/2-y,-z
1/2+x,1/2-y,z
loop_
_atom_site_type_symbol
_atom_site_label
_atom_site_fract_x
_atom_site_fract_y
_atom_site_fract_z
Si Si1 0.176163 0.281064 0.348030
Si Si2 0.510720 0.219691 0.878871
Si Si3 0.632525 0.201204 0.678368
Si Si4 0.533027 0.780145 0.427494
Si Si5 0.719074 0.701400 0.636453
Si Si6 0.307974 0.783350 0.039722
Si Si7 0.877095 0.719282 0.933159
O O1 0.176259 0.500000 0.362800
O O2 0.228020 0.231488 0.346922
O O3 0.181693 0.197001 0.478777
O O4 0.129465 0.226012 0.207972
O O5 0.482934 0.279808 0.723274
O O6 0.505074 0.000000 0.873580
O O7 0.500000 0.275376 0.000000
O O8 0.570121 0.270332 0.941911
O O9 0.590015 0.277578 0.538889
O O10 0.687346 0.190398 0.687446
O O11 0.649423 0.292246 0.817963
O O12 0.613203 0.000000 0.681629
O O13 0.500000 0.729718 0.500000
O O14 0.530663 0.000000 0.417197
O O15 0.728231 0.500000 0.694813
O O16 0.312915 0.000000 0.048602
O O17 0.250000 0.750000 0.000000
O O18 0.327591 0.722358 0.940886
O O19 0.876629 0.500000 0.929594
#
# Coordination Sequence:
#
# PCOD9191041 Si02
#       7
#     8   8   8   8   8   8   8
#     4   9  18  32  51  72  99 134 169 209 257 309
#     4   9  17  27  44  74 105 134 172 218 267 318
#     4  10  20  32  52  77 104 137 173 211 257 311
#     4   9  17  30  48  73 106 137 170 219 271 313
#     4  10  20  33  49  73 103 135 172 212 255 306
#     4  10  20  34  52  78 109 142 174 211 259 313
#     4   9  17  30  49  72 105 137 166 211 269 316
#
# _framework density 24.836378
#
# number of rings (size 3 to 8) (size 9 to 14) (size 15 to 20)
#    0.000    2.571    0.000    2.143    2.000    5.714 
#    0.000    0.714    0.000    0.429    0.000    3.000 
#    0.000    0.000    0.000    0.000    0.000    0.000 
#
# Total GULP energy -156111.889092 kJ/mol
# GULP energy per Si atom -5575.424610 kJ/mol
# Density = 2.477985 g / cm^3
# Si number density = 24.836378 Si / 1000 Ang^3
#
#
#
# Elastic Constant Matrix: (Units=GPa)
#
#
# Indices 1 2 3 4 5 6 
#
# 1 76.5801 0.1430 25.4532 0.0000 -11.7779 0.0000
# 2 0.1430 75.2435 3.8871 0.0000 -1.4218 0.0000
# 3 25.4532 3.8871 207.7994 0.0000 -3.7615 0.0000
# 4 0.0000 0.0000 0.0000 -10.8961 0.0000 -7.6344
# 5 -11.7779 -1.4218 -3.7615 0.0000 35.4184 0.0000
# 6 0.0000 0.0000 0.0000 -7.6344 0.0000 -4.9739
#
#
#
# Elastic Compliance Matrix: (Units=1/GPa)
#
#
# Indices 1 2 3 4 5 6 
#
# 1 0.014320 0.000146 -0.001674 0.000000 0.004590 0.000000
# 2 0.000146 0.013314 -0.000257 0.000000 0.000556 0.000000
# 3 -0.001674 -0.000257 0.005022 0.000000 -0.000034 0.000000
# 4 0.000000 0.000000 0.000000 1.216572 0.000000 -1.867317
# 5 0.004590 0.000556 -0.000034 0.000000 0.029779 0.000000
# 6 0.000000 0.000000 0.000000 -1.867317 0.000000 2.665094
#
#
# Mechanical properties :
#
#
# Convention : Reuss Voigt Hill
#
# Bulk Modulus (GPa) = 34.38055 46.50996 40.44526
# Shear Modulus (GPa) = 1.26347 25.91901 13.59124
#
# Velocity S-wave (km/s) = 0.71402 3.23397 2.34183
# Velocity P-wave (km/s) = 3.81479 5.71944 4.86131
#
# Compressibility (1/GPa) = 0.02908621
#
# Stress axis : x y z
#
# Youngs Moduli (GPa) = 69.83140 75.11071 199.14199
#
# Poissons Ratio (x) = -0.01096 0.33331
# Poissons Ratio (y) = -0.01019 0.05115
# Poissons Ratio (z) = 0.11688 0.01929
#
# Static dielectric constant tensor:
#      x y z
#    x 1.939210 0.000000 -0.004930 
#    y 0.000000 2.010340 0.000000 
#    z -0.004930 0.000000 1.994570 
# 
# From -- ./inp_files/187701.got.cif
#   From: 2010.05.17/outbox.cif.g08.bks.cpg/sg12_94_cif.got.tgz:187701.got - 2010.06.03 13:09:07.
