data_PCOD9191086
_publ_section_title
;
Structure prediction by ZEFSAII (Michael W. Deem and Ramdas Pophale) SiO2 
 PCOD9191086
Probable space group: C 2/M
;
_chemical_formula_sum "Si O2"
_cell_formula_units_Z 64
_cell_length_a 15.283693
_cell_length_b 23.341174
_cell_length_c 9.693456
_cell_angle_alpha 90.000000
_cell_angle_beta 100.368702
_cell_angle_gamma 90.000000
_cell_volume 3401.567097
_symmetry_space_group_name_H-M "C 2/M"
_symmetry_group_IT_number 12
_symmetry_cell_setting 'monoclinic'
loop_
_space_group_symop_operation_xyz
x,y,z
-x,y,-z
-x,-y,-z
x,-y,z
1/2+x,1/2+y,z
1/2-x,1/2+y,-z
1/2-x,1/2-y,-z
1/2+x,1/2-y,z
loop_
_atom_site_type_symbol
_atom_site_label
_atom_site_fract_x
_atom_site_fract_y
_atom_site_fract_z
Si Si1 0.681927 0.569278 0.235990
Si Si2 0.978572 0.566771 0.656762
Si Si3 0.502933 0.389254 0.334814
Si Si4 0.292942 0.932573 0.515940
Si Si5 0.682426 0.562901 0.742188
Si Si6 0.557500 0.712378 0.877887
Si Si7 0.562749 0.843131 0.883683
Si Si8 0.230009 0.145317 0.989601
O O1 0.683872 0.500000 0.218609
O O2 0.593494 0.587216 0.294193
O O3 0.764786 0.588020 0.357632
O O4 0.689660 0.603589 0.096204
O O5 0.984679 0.500000 0.705319
O O6 0.877059 0.589688 0.624498
O O7 0.000000 0.567535 0.500000
O O8 0.038096 0.608388 0.765417
O O9 0.500000 0.383277 0.500000
O O10 0.422796 0.431961 0.273188
O O11 0.476381 0.330353 0.250387
O O12 0.208624 0.927864 0.591332
O O13 0.313211 0.000000 0.503294
O O14 0.714665 0.500000 0.791470
O O15 0.727603 0.610064 0.847714
O O16 0.544427 0.778068 0.830676
O O17 0.500000 0.702459 0.000000
O O18 0.659792 0.696854 0.946441
O O19 0.667645 0.842994 0.947577
O O20 0.500000 0.853295 0.000000
#
# Coordination Sequence:
#
# PCOD9191086 Si02
#       8
#     8   8   8   8   8   8   8   8
#     4  11  21  34  59  90 123 159 196 239 295 363
#     4  10  21  38  60  86 118 151 188 242 302 351
#     4  11  21  36  58  85 121 159 198 241 294 355
#     4   9  18  33  52  80 117 151 186 233 288 348
#     4  10  20  32  52  82 118 152 189 236 290 351
#     4  10  22  42  61  85 118 158 199 251 299 345
#     4  11  24  41  65  87 115 158 207 248 294 351
#     4  11  22  38  59  85 119 155 199 247 297 352
#
# _framework density 18.814857
#
# number of rings (size 3 to 8) (size 9 to 14) (size 15 to 20)
#    0.000    1.625    2.500    2.625    0.000    3.250 
#    0.000    1.875    0.000    1.500    0.000    0.000 
#    0.000    0.000    0.000    0.000    0.000    0.000 
#
# Total GULP energy -178413.028763 kJ/mol
# GULP energy per Si atom -5575.407149 kJ/mol
# Density = 1.877203 g / cm^3
# Si number density = 18.814857 Si / 1000 Ang^3
#
#
#
# Elastic Constant Matrix: (Units=GPa)
#
#
# Indices 1 2 3 4 5 6 
#
# 1 79.5153 17.5659 4.6137 0.0000 -1.2335 0.0000
# 2 17.5659 90.9613 34.4789 0.0000 4.2829 0.0000
# 3 4.6137 34.4789 42.7853 0.0000 4.1144 0.0000
# 4 0.0000 0.0000 0.0000 13.6616 0.0000 -0.5613
# 5 -1.2335 4.2829 4.1144 0.0000 30.5665 0.0000
# 6 0.0000 0.0000 0.0000 -0.5613 0.0000 18.3326
#
#
#
# Elastic Compliance Matrix: (Units=1/GPa)
#
#
# Indices 1 2 3 4 5 6 
#
# 1 0.013181 -0.002902 0.000838 0.000000 0.000826 0.000000
# 2 -0.002902 0.016475 -0.012898 0.000000 -0.000690 0.000000
# 3 0.000838 -0.012898 0.033938 0.000000 -0.002727 0.000000
# 4 0.000000 0.000000 0.000000 0.073290 0.000000 0.002244
# 5 0.000826 -0.000690 -0.002727 0.000000 0.033213 0.000000
# 6 0.000000 0.000000 0.000000 0.002244 0.000000 0.054616
#
#
# Mechanical properties :
#
#
# Convention : Reuss Voigt Hill
#
# Bulk Modulus (GPa) = 29.69887 36.28655 32.99271
# Shear Modulus (GPa) = 18.80680 22.95237 20.87958
#
# Velocity S-wave (km/s) = 3.16503 3.49651 3.33489
# Velocity P-wave (km/s) = 5.40145 5.96898 5.69229
#
# Compressibility (1/GPa) = 0.03367131
#
# Stress axis : x y z
#
# Youngs Moduli (GPa) = 75.86406 60.69659 29.46544
#
# Poissons Ratio (x) = 0.17614 -0.02468
# Poissons Ratio (y) = 0.22015 0.38003
# Poissons Ratio (z) = -0.06355 0.78284
#
# Static dielectric constant tensor:
#      x y z
#    x 1.751640 0.000000 0.007720 
#    y 0.000000 1.623300 0.000000 
#    z 0.007720 0.000000 1.637220 
# 
# From -- ./inp_files/65861.got.cif
#   From: 2010.05.17/outbox.cif.g08.bks.cpg/sg12_33_cif.got.tgz:65861.got - 2010.06.03 13:09:07.
