data_PCOD9191957
_publ_section_title
;
Structure prediction by ZEFSAII (Michael W. Deem and Ramdas Pophale) SiO2 
 PCOD9191957
Probable space group: C 2/M
;
_chemical_formula_sum "Si O2"
_cell_formula_units_Z 64
_cell_length_a 30.712940
_cell_length_b 7.619054
_cell_length_c 16.419241
_cell_angle_alpha 90.000000
_cell_angle_beta 131.414224
_cell_angle_gamma 90.000000
_cell_volume 2881.416366
_symmetry_space_group_name_H-M "C 2/M"
_symmetry_group_IT_number 12
_symmetry_cell_setting 'monoclinic'
loop_
_space_group_symop_operation_xyz
x,y,z
-x,y,-z
-x,-y,-z
x,-y,z
1/2+x,1/2+y,z
1/2-x,1/2+y,-z
1/2-x,1/2-y,-z
1/2+x,1/2-y,z
loop_
_atom_site_type_symbol
_atom_site_label
_atom_site_fract_x
_atom_site_fract_y
_atom_site_fract_z
Si Si1 0.342068 0.293509 0.787062
Si Si2 0.834083 0.787148 0.302420
Si Si3 0.000066 0.708324 0.251373
Si Si4 0.124621 0.287278 0.351420
Si Si5 0.454768 0.287979 0.375157
Si Si6 0.785657 0.705972 0.410528
Si Si7 0.607977 0.793814 0.979423
Si Si8 0.771972 0.710594 0.937470
O O1 0.337006 0.500000 0.797508
O O2 0.373347 0.263748 0.740126
O O3 0.276646 0.218169 0.693780
O O4 0.377069 0.219386 0.906936
O O5 0.890723 0.728430 0.323021
O O6 0.829947 0.725424 0.390008
O O7 0.775909 0.724080 0.185447
O O8 0.834421 0.000000 0.303711
O O9 0.005641 0.500000 0.244392
O O10 0.975116 0.734021 0.310904
O O11 0.065071 0.778005 0.318798
O O12 0.952603 0.780187 0.128506
O O13 0.126616 0.500000 0.358923
O O14 0.181633 0.220492 0.469987
O O15 0.500000 0.228340 0.500000
O O16 0.454258 0.500000 0.375234
O O17 0.775071 0.500000 0.412296
O O18 0.664120 0.718272 0.002175
O O19 0.605818 0.000000 0.956139
O O20 0.774111 0.500000 0.930437
O O21 0.750000 0.750000 0.000000
#
# Coordination Sequence:
#
# PCOD9191957 Si02
#       8
#     8   8   8   8   8   8   8   8
#     4  11  23  38  59  88 114 145 190 236 287 342
#     4  10  20  34  54  81 112 149 187 224 279 338
#     4  10  22  39  60  85 112 150 198 236 277 336
#     4  10  22  40  60  83 113 149 188 236 288 339
#     4  10  21  36  55  83 119 155 190 231 282 337
#     4  10  21  37  58  86 116 145 186 236 286 339
#     4  10  21  39  59  81 114 152 188 232 284 336
#     4  10  20  33  52  78 107 143 183 224 272 324
#
# _framework density 22.211300000000001
#
# number of rings (size 3 to 8) (size 9 to 14) (size 15 to 20)
#    0.000    1.875    1.250    2.250    0.000    4.250 
#    0.000    2.500    0.000    0.000    0.000    0.000 
#    0.000    0.000    0.000    0.000    0.000    0.000 
#
# Total GULP energy -178831.411219 kJ/mol
# GULP energy per Si atom -5588.481601 kJ/mol
# Density = 2.216075 g / cm^3
# Si number density = 22.211300 Si / 1000 Ang^3
#
#
#
# Elastic Constant Matrix: (Units=GPa)
#
#
# Indices 1 2 3 4 5 6 
#
# 1 72.8195 -10.1723 20.8046 0.0000 3.4115 0.0000
# 2 -10.1723 43.7518 -2.2423 0.0000 15.8801 0.0000
# 3 20.8046 -2.2423 130.7788 0.0000 5.1276 0.0000
# 4 0.0000 0.0000 0.0000 6.1582 0.0000 -14.4994
# 5 3.4115 15.8801 5.1276 0.0000 39.6761 0.0000
# 6 0.0000 0.0000 0.0000 -14.4994 0.0000 16.2675
#
#
#
# Elastic Compliance Matrix: (Units=1/GPa)
#
#
# Indices 1 2 3 4 5 6 
#
# 1 0.015113 0.004408 -0.002220 0.000000 -0.002777 0.000000
# 2 0.004408 0.028128 0.000239 0.000000 -0.011668 0.000000
# 3 -0.002220 0.000239 0.008041 0.000000 -0.000944 0.000000
# 4 0.000000 0.000000 0.000000 -0.147814 0.000000 -0.131748
# 5 -0.002777 -0.011668 -0.000944 0.000000 0.030235 0.000000
# 6 0.000000 0.000000 0.000000 -0.131748 0.000000 -0.055956
#
#
# Mechanical properties :
#
#
# Convention : Reuss Voigt Hill
#
# Bulk Modulus (GPa) = 17.81426 29.34779 23.58102
# Shear Modulus (GPa) = -46.12725 28.35105 -8.88810
#
# Velocity S-wave (km/s) = -4.56208 3.57658 -2.00257
# Velocity P-wave (km/s) = 4.43985 5.50433 2.30058
#
# Compressibility (1/GPa) = 0.05613481
#
# Stress axis : x y z
#
# Youngs Moduli (GPa) = 66.17008 35.55143 124.36716
#
# Poissons Ratio (x) = -0.15670 0.27606
# Poissons Ratio (y) = -0.29166 -0.02967
# Poissons Ratio (z) = 0.14688 -0.00848
#
# Static dielectric constant tensor:
#      x y z
#    x 1.804160 0.000000 0.039550 
#    y 0.000000 1.803730 0.000000 
#    z 0.039550 0.000000 1.825620 
# 
# From -- ./inp_files/249879.got.cif
#   From: 2010.05.17/outbox.cif.g08.bks.cpg/sg12_125_cif.got.tgz:249879.got - 2010.06.03 13:09:07.
