data_PCOD9191786
_publ_section_title
;
Structure prediction by ZEFSAII (Michael W. Deem and Ramdas Pophale) SiO2 
 PCOD9191786
Probable space group: C 2/M
;
_chemical_formula_sum "Si O2"
_cell_formula_units_Z 48
_cell_length_a 19.045114
_cell_length_b 7.693658
_cell_length_c 18.686764
_cell_angle_alpha 90.000000
_cell_angle_beta 59.598311
_cell_angle_gamma 90.000000
_cell_volume 2361.614625
_symmetry_space_group_name_H-M "C 2/M"
_symmetry_group_IT_number 12
_symmetry_cell_setting 'monoclinic'
loop_
_space_group_symop_operation_xyz
x,y,z
-x,y,-z
-x,-y,-z
x,-y,z
1/2+x,1/2+y,z
1/2-x,1/2+y,-z
1/2-x,1/2-y,-z
1/2+x,1/2-y,z
loop_
_atom_site_type_symbol
_atom_site_label
_atom_site_fract_x
_atom_site_fract_y
_atom_site_fract_z
Si Si1 0.665330 0.791050 0.582513
Si Si2 0.843225 0.704664 0.740073
Si Si3 0.256131 0.708875 0.079504
Si Si4 0.005481 0.286549 0.579750
Si Si5 0.583536 0.709934 0.922012
Si Si6 0.818263 0.706452 0.263889
O O1 0.750000 0.750000 0.500000
O O2 0.587869 0.728673 0.576748
O O3 0.667251 0.725999 0.663449
O O4 0.657923 0.000000 0.589829
O O5 0.858791 0.500000 0.741669
O O6 0.815135 0.776465 0.831579
O O7 0.764468 0.721427 0.729197
O O8 0.924933 0.775892 0.662821
O O9 0.256323 0.500000 0.086390
O O10 0.340892 0.772579 0.069031
O O11 0.250000 0.750000 0.000000
O O12 0.005667 0.500000 0.579415
O O13 0.000000 0.232348 0.500000
O O14 0.581840 0.500000 0.925233
O O15 0.607195 0.757897 0.828748
O O16 0.500000 0.773844 0.000000
O O17 0.807060 0.500000 0.273521
#
# Coordination Sequence:
#
# PCOD9191786 Si02
#       6
#     8   8   8   8   8   8
#     4  10  21  35  52  77 105 133 169 210 253 303
#     4   9  18  34  54  73  97 133 172 206 245 299
#     4   9  18  31  49  73  99 129 164 203 246 292
#     4   9  17  31  53  76  96 126 168 206 241 291
#     4   9  19  36  55  74  99 135 177 211 244 299
#     4  10  20  33  51  77 106 132 163 210 262 303
#
# _framework density 20.325077
#
# number of rings (size 3 to 8) (size 9 to 14) (size 15 to 20)
#    0.000    2.667    0.000    2.500    0.000    7.000 
#    0.000    2.500    0.000    3.000    0.000    0.000 
#    0.000    0.000    0.000    0.000    0.000    0.000 
#
# Total GULP energy -133906.855468 kJ/mol
# GULP energy per Si atom -5579.452311 kJ/mol
# Density = 2.027882 g / cm^3
# Si number density = 20.325077 Si / 1000 Ang^3
#
#
#
# Elastic Constant Matrix: (Units=GPa)
#
#
# Indices 1 2 3 4 5 6 
#
# 1 117.9109 -6.4300 129.2133 0.0000 -0.3420 -0.0001
# 2 -6.4300 27.5630 -0.8731 -0.0001 -1.6620 -0.0007
# 3 129.2133 -0.8731 245.0418 0.0000 -0.2559 0.0000
# 4 0.0000 -0.0001 0.0000 18.7031 0.0000 0.7782
# 5 -0.3420 -1.6620 -0.2559 0.0000 45.0658 -0.0001
# 6 -0.0001 -0.0007 0.0000 0.7782 -0.0001 14.4130
#
#
#
# Elastic Compliance Matrix: (Units=1/GPa)
#
#
# Indices 1 2 3 4 5 6 
#
# 1 0.020629 0.004484 -0.010862 0.000000 0.000260 0.000000
# 2 0.004484 0.037340 -0.002230 0.000000 0.001398 0.000002
# 3 -0.010862 -0.002230 0.009800 0.000000 -0.000109 0.000000
# 4 0.000000 0.000000 0.000000 0.053587 0.000000 -0.002893
# 5 0.000260 0.001398 -0.000109 0.000000 0.022243 0.000000
# 6 0.000000 0.000002 0.000000 -0.002893 0.000000 0.069538
#
#
# Mechanical properties :
#
#
# Convention : Reuss Voigt Hill
#
# Bulk Modulus (GPa) = 19.78061 70.48178 45.13119
# Shear Modulus (GPa) = 20.22612 33.54341 26.88477
#
# Velocity S-wave (km/s) = 3.15799 4.06685 3.64089
# Velocity P-wave (km/s) = 4.80109 7.53690 6.31884
#
# Compressibility (1/GPa) = 0.05055457
#
# Stress axis : x y z
#
# Youngs Moduli (GPa) = 48.47509 26.78071 102.03678
#
# Poissons Ratio (x) = -0.12009 1.10830
# Poissons Ratio (y) = -0.21737 0.22754
# Poissons Ratio (z) = 0.52652 0.05972
#
# Static dielectric constant tensor:
#      x y z
#    x 1.689640 0.000000 -0.000100 
#    y 0.000000 1.752580 0.000000 
#    z -0.000100 0.000000 1.724340 
# 
# From -- ./inp_files/274022.got.cif
#   From: 2010.05.17/outbox.cif.g08.bks.cpg/sg12_138_cif.got.tgz:274022.got - 2010.06.03 13:09:07.
