data_PCOD9191876
_publ_section_title
;
Structure prediction by ZEFSAII (Michael W. Deem and Ramdas Pophale) SiO2 
 PCOD9191876
Probable space group: C 2/M
;
_chemical_formula_sum "Si O2"
_cell_formula_units_Z 64
_cell_length_a 19.928686
_cell_length_b 8.767488
_cell_length_c 21.837747
_cell_angle_alpha 90.000000
_cell_angle_beta 119.924434
_cell_angle_gamma 90.000000
_cell_volume 3306.910933
_symmetry_space_group_name_H-M "C 2/M"
_symmetry_group_IT_number 12
_symmetry_cell_setting 'monoclinic'
loop_
_space_group_symop_operation_xyz
x,y,z
-x,y,-z
-x,-y,-z
x,-y,z
1/2+x,1/2+y,z
1/2-x,1/2+y,-z
1/2-x,1/2-y,-z
1/2+x,1/2-y,z
loop_
_atom_site_type_symbol
_atom_site_label
_atom_site_fract_x
_atom_site_fract_y
_atom_site_fract_z
Si Si1 0.203928 0.315614 0.164403
Si Si2 0.777637 0.316673 0.077085
Si Si3 0.868182 0.819262 0.290424
Si Si4 0.113501 0.816534 0.232016
Si Si5 0.358182 0.820757 0.523087
Si Si6 0.520186 0.828255 0.579977
Si Si7 0.559880 0.315309 0.803452
Si Si8 0.228249 0.322996 0.386058
O O1 0.199829 0.500000 0.158980
O O2 0.221137 0.248283 0.104969
O O3 0.282107 0.267598 0.236207
O O4 0.135202 0.251330 0.175201
O O5 0.775803 0.500000 0.076942
O O6 0.865635 0.258467 0.129433
O O7 0.750000 0.250000 0.000000
O O8 0.903137 0.758500 0.368224
O O9 0.925188 0.773159 0.260826
O O10 0.866005 0.000000 0.290523
O O11 0.176847 0.757066 0.310390
O O12 0.025833 0.772197 0.212514
O O13 0.117089 0.000000 0.231731
O O14 0.443014 0.751471 0.571311
O O15 0.309009 0.748409 0.445867
O O16 0.317645 0.813054 0.570307
O O17 0.367414 0.000000 0.512115
O O18 0.500000 0.834206 0.500000
O O19 0.529417 0.000000 0.608258
O O20 0.566654 0.500000 0.811761
O O21 0.238293 0.500000 0.373196
#
# Coordination Sequence:
#
# PCOD9191876 Si02
#       8
#     8   8   8   8   8   8   8   8
#     4  10  22  40  60  88 124 156 195 242 290 346
#     4  11  22  40  68  97 125 160 196 231 278 336
#     4   9  19  36  56  77 106 146 189 237 291 349
#     4  11  22  36  58  86 118 154 194 241 296 348
#     4   9  19  35  49  68  99 138 186 236 292 355
#     4  10  21  33  47  70 100 136 181 237 292 342
#     4   9  20  39  61  88 120 154 194 239 286 342
#     4  10  20  33  52  74 101 141 187 237 292 351
#
# _framework density 19.35341
#
# number of rings (size 3 to 8) (size 9 to 14) (size 15 to 20)
#    0.000    2.125    0.000    3.750    1.750    4.750 
#    0.000    0.625    0.000    3.750    0.000    0.000 
#    0.000    0.000    0.000    0.000    0.000    0.000 
#
# Total GULP energy -178469.304211 kJ/mol
# GULP energy per Si atom -5577.165757 kJ/mol
# Density = 1.930936 g / cm^3
# Si number density = 19.353410 Si / 1000 Ang^3
#
#
#
# Elastic Constant Matrix: (Units=GPa)
#
#
# Indices 1 2 3 4 5 6 
#
# 1 103.1772 27.7593 30.8840 0.0000 -23.0247 0.0000
# 2 27.7593 53.5223 31.2979 0.0000 -11.2688 0.0000
# 3 30.8840 31.2979 96.8966 0.0000 -7.2726 0.0000
# 4 0.0000 0.0000 0.0000 26.3326 0.0000 2.3814
# 5 -23.0247 -11.2688 -7.2726 0.0000 13.2386 0.0000
# 6 0.0000 0.0000 0.0000 2.3814 0.0000 22.7983
#
#
#
# Elastic Compliance Matrix: (Units=1/GPa)
#
#
# Indices 1 2 3 4 5 6 
#
# 1 0.016871 -0.001468 -0.002915 0.000000 0.026492 0.000000
# 2 -0.001468 0.027049 -0.007022 0.000000 0.016614 0.000000
# 3 -0.002915 -0.007022 0.013234 0.000000 -0.003777 0.000000
# 4 0.000000 0.000000 0.000000 0.038338 0.000000 -0.004005
# 5 0.026492 0.016614 -0.003777 0.000000 0.133678 0.000000
# 6 0.000000 0.000000 0.000000 -0.004005 0.000000 0.044281
#
#
# Mechanical properties :
#
#
# Convention : Reuss Voigt Hill
#
# Bulk Modulus (GPa) = 29.11671 48.16428 38.64049
# Shear Modulus (GPa) = 16.24903 23.38425 19.81664
#
# Velocity S-wave (km/s) = 2.90072 3.47980 3.20337
# Velocity P-wave (km/s) = 5.12799 6.40984 5.80441
#
# Compressibility (1/GPa) = 0.03434454
#
# Stress axis : x y z
#
# Youngs Moduli (GPa) = 59.27186 36.96934 75.56264
#
# Poissons Ratio (x) = 0.05428 0.22026
# Poissons Ratio (y) = 0.08702 0.53061
# Poissons Ratio (z) = 0.17277 0.25960
#
# Static dielectric constant tensor:
#      x y z
#    x 1.741010 0.000000 -0.011160 
#    y 0.000000 1.671530 0.000000 
#    z -0.011160 0.000000 1.669150 
# 
# From -- ./inp_files/320151.got.cif
#   From: 2010.05.17/outbox.cif.g08.bks.cpg/sg12_161_cif.got.tgz:320151.got - 2010.06.03 13:09:07.
