data_PCOD9191127
_publ_section_title
;
Structure prediction by ZEFSAII (Michael W. Deem and Ramdas Pophale) SiO2 
 PCOD9191127
Probable space group: C 2/M
;
_chemical_formula_sum "Si O2"
_cell_formula_units_Z 56
_cell_length_a 10.424652
_cell_length_b 20.350617
_cell_length_c 17.663023
_cell_angle_alpha 90.000000
_cell_angle_beta 137.955932
_cell_angle_gamma 90.000000
_cell_volume 2509.491722
_symmetry_space_group_name_H-M "C 2/M"
_symmetry_group_IT_number 12
_symmetry_cell_setting 'monoclinic'
loop_
_space_group_symop_operation_xyz
x,y,z
-x,y,-z
-x,-y,-z
x,-y,z
1/2+x,1/2+y,z
1/2-x,1/2+y,-z
1/2-x,1/2-y,-z
1/2+x,1/2-y,z
loop_
_atom_site_type_symbol
_atom_site_label
_atom_site_fract_x
_atom_site_fract_y
_atom_site_fract_z
Si Si1 0.353094 0.075275 0.607523
Si Si2 0.628981 0.666712 0.957225
Si Si3 0.323922 0.426235 0.627182
Si Si4 0.783273 0.218922 0.431011
Si Si5 0.786945 0.075984 0.788947
Si Si6 0.510144 0.811000 0.086386
Si Si7 0.566596 0.691975 0.753254
O O1 0.336074 0.075625 0.507819
O O2 0.239012 0.139938 0.583283
O O3 0.573834 0.085738 0.725950
O O4 0.294788 0.000000 0.604533
O O5 0.453714 0.619001 0.898477
O O6 0.579726 0.738885 0.964058
O O7 0.615416 0.671267 0.859928
O O8 0.853990 0.653341 0.071622
O O9 0.404836 0.500000 0.661472
O O10 0.270596 0.411727 0.690749
O O11 0.472974 0.370264 0.671181
O O12 0.750000 0.250000 0.500000
O O13 0.596224 0.252259 0.309981
O O14 0.000000 0.237278 0.500000
O O15 0.838724 0.000000 0.820547
O O16 0.732300 0.796817 0.201272
O O17 0.500000 0.846022 0.000000
#
# Coordination Sequence:
#
# PCOD9191127 Si02
#       7
#     8   8   8   8   8   8   8
#     4  10  20  35  54  77 114 159 196 230 283 351
#     4   9  18  31  52  75 105 136 182 236 287 347
#     4   9  17  29  48  77 110 148 190 233 277 337
#     4  12  27  39  57  89 121 156 197 245 290 338
#     4   9  17  29  52  82 109 146 190 237 286 336
#     4   9  18  33  50  75  99 139 179 229 295 349
#     4  10  20  32  54  76 111 143 186 239 288 338
#
# _framework density 22.315276000000001
#
# number of rings (size 3 to 8) (size 9 to 14) (size 15 to 20)
#    0.000    2.286    1.429    1.286    6.000    2.000 
#    0.000    0.714    0.000    4.714    0.000    8.000 
#    0.000    0.000    0.000    0.000    0.000    0.000 
#
# Total GULP energy -155911.082861 kJ/mol
# GULP energy per Si atom -5568.252959 kJ/mol
# Density = 2.226449 g / cm^3
# Si number density = 22.315276 Si / 1000 Ang^3
#
#
#
# Elastic Constant Matrix: (Units=GPa)
#
#
# Indices 1 2 3 4 5 6 
#
# 1 47.0031 21.3729 44.6371 0.0000 18.7899 0.0000
# 2 21.3729 87.8700 50.8179 0.0000 25.7838 0.0000
# 3 44.6371 50.8179 117.0454 0.0000 36.1368 0.0000
# 4 0.0000 0.0000 0.0000 34.7839 0.0000 1.9979
# 5 18.7899 25.7838 36.1368 0.0000 39.8496 0.0000
# 6 0.0000 0.0000 0.0000 1.9979 0.0000 19.4110
#
#
#
# Elastic Compliance Matrix: (Units=1/GPa)
#
#
# Indices 1 2 3 4 5 6 
#
# 1 0.034358 -0.000127 -0.011210 0.000000 -0.005953 0.000000
# 2 -0.000127 0.016063 -0.005188 0.000000 -0.005629 0.000000
# 3 -0.011210 -0.005188 0.017226 0.000000 -0.006978 0.000000
# 4 0.000000 0.000000 0.000000 0.028920 0.000000 -0.002977
# 5 -0.005953 -0.005629 -0.006978 0.000000 0.037871 0.000000
# 6 0.000000 0.000000 0.000000 -0.002977 0.000000 0.051824
#
#
# Mechanical properties :
#
#
# Convention : Reuss Voigt Hill
#
# Bulk Modulus (GPa) = 28.90399 53.95269 41.42834
# Shear Modulus (GPa) = 21.65953 27.81495 24.73724
#
# Velocity S-wave (km/s) = 3.11885 3.53434 3.33308
# Velocity P-wave (km/s) = 5.09414 6.39417 5.78082
#
# Compressibility (1/GPa) = 0.03459730
#
# Stress axis : x y z
#
# Youngs Moduli (GPa) = 29.10494 62.25332 58.05267
#
# Poissons Ratio (x) = 0.00793 0.65077
# Poissons Ratio (y) = 0.00371 0.30117
# Poissons Ratio (z) = 0.32627 0.32296
#
# Static dielectric constant tensor:
#      x y z
#    x 2.005080 0.000000 -0.078690 
#    y 0.000000 1.826870 0.000000 
#    z -0.078690 0.000000 2.020740 
# 
# From -- ./inp_files/177865.got.cif
#   From: 2010.05.17/outbox.cif.g08.bks.cpg/sg12_89_cif.got.tgz:177865.got - 2010.06.03 13:09:07.
