data_PCOD9191483
_publ_section_title
;
Structure prediction by ZEFSAII (Michael W. Deem and Ramdas Pophale) SiO2 
 PCOD9191483
Probable space group: C 2/M
;
_chemical_formula_sum "Si O2"
_cell_formula_units_Z 56
_cell_length_a 23.190516
_cell_length_b 7.421660
_cell_length_c 14.683145
_cell_angle_alpha 90.000000
_cell_angle_beta 75.033370
_cell_angle_gamma 90.000000
_cell_volume 2441.417361
_symmetry_space_group_name_H-M "C 2/M"
_symmetry_group_IT_number 12
_symmetry_cell_setting 'monoclinic'
loop_
_space_group_symop_operation_xyz
x,y,z
-x,y,-z
-x,-y,-z
x,-y,z
1/2+x,1/2+y,z
1/2-x,1/2+y,-z
1/2-x,1/2-y,-z
1/2+x,1/2-y,z
loop_
_atom_site_type_symbol
_atom_site_label
_atom_site_fract_x
_atom_site_fract_y
_atom_site_fract_z
Si Si1 0.883998 0.788980 0.393713
Si Si2 0.612635 0.219858 0.106924
Si Si3 0.876351 0.282051 0.103177
Si Si4 0.784650 0.790128 0.298455
Si Si5 0.161757 0.278605 0.272377
Si Si6 0.561704 0.796235 0.443112
Si Si7 0.022263 0.282701 0.801087
O O1 0.827364 0.714893 0.360274
O O2 0.897548 0.698217 0.483679
O O3 0.941251 0.773047 0.303513
O O4 0.874638 0.000000 0.415671
O O5 0.657707 0.273775 0.168527
O O6 0.545634 0.277720 0.161423
O O7 0.612091 0.000000 0.105436
O O8 0.627338 0.280318 0.999020
O O9 0.875702 0.500000 0.103262
O O10 0.823107 0.220860 0.190160
O O11 0.937500 0.226333 0.128855
O O12 0.719892 0.713716 0.302459
O O13 0.776409 0.000000 0.324701
O O14 0.162430 0.500000 0.275435
O O15 0.101577 0.217262 0.347112
O O16 0.500000 0.708257 0.500000
O O17 0.546007 0.000000 0.418918
O O18 0.021248 0.500000 0.800343
#
# Coordination Sequence:
#
# PCOD9191483 Si02
#       7
#     8   8   8   8   8   8   8
#     4  10  20  33  50  72 100 132 162 197 242 289
#     4   9  16  28  49  75  99 126 163 206 248 285
#     4   9  17  29  49  76 101 126 161 206 247 283
#     4   9  19  35  50  68  98 134 167 196 235 289
#     4   9  18  32  50  71  97 129 164 202 241 287
#     4  10  20  35  56  79  98 121 159 202 244 292
#     4   9  16  29  50  75 101 128 162 203 245 290
#
# _framework density 22.937494999999998
#
# number of rings (size 3 to 8) (size 9 to 14) (size 15 to 20)
#    0.000    2.714    0.000    1.714    0.000    6.000 
#    0.000    1.429    0.000    5.143    0.000    0.000 
#    0.000    0.000    0.000    0.000    0.000    0.000 
#
# Total GULP energy -156402.272745 kJ/mol
# GULP energy per Si atom -5585.795455 kJ/mol
# Density = 2.288529 g / cm^3
# Si number density = 22.937495 Si / 1000 Ang^3
#
#
#
# Elastic Constant Matrix: (Units=GPa)
#
#
# Indices 1 2 3 4 5 6 
#
# 1 81.2003 -2.0028 8.7211 0.0000 -0.4355 0.0000
# 2 -2.0028 77.5049 -9.5922 0.0000 1.1718 0.0000
# 3 8.7211 -9.5922 69.5920 0.0000 29.0913 0.0000
# 4 0.0000 0.0000 0.0000 10.4459 0.0000 1.9738
# 5 -0.4355 1.1718 29.0913 0.0000 25.1871 0.0000
# 6 0.0000 0.0000 0.0000 1.9738 0.0000 -0.3102
#
#
#
# Elastic Compliance Matrix: (Units=1/GPa)
#
#
# Indices 1 2 3 4 5 6 
#
# 1 0.012687 -0.000141 -0.003294 0.000000 0.004031 0.000000
# 2 -0.000141 0.013493 0.004140 0.000000 -0.005411 0.000000
# 3 -0.003294 0.004140 0.029888 0.000000 -0.034770 0.000000
# 4 0.000000 0.000000 0.000000 0.043468 0.000000 0.276592
# 5 0.004031 -0.005411 -0.034770 0.000000 0.080184 0.000000
# 6 0.000000 0.000000 0.000000 0.276592 0.000000 -1.463806
#
#
# Mechanical properties :
#
#
# Convention : Reuss Voigt Hill
#
# Bulk Modulus (GPa) = 17.39841 24.72771 21.06306
# Shear Modulus (GPa) = -3.94840 22.47596 9.26378
#
# Velocity S-wave (km/s) = -1.31343 3.13370 2.01183
# Velocity P-wave (km/s) = 2.30249 4.88849 3.82091
#
# Compressibility (1/GPa) = 0.05747652
#
# Stress axis : x y z
#
# Youngs Moduli (GPa) = 78.81960 74.11301 33.45857
#
# Poissons Ratio (x) = 0.01044 0.11023
# Poissons Ratio (y) = 0.01110 -0.13850
# Poissons Ratio (z) = 0.25966 -0.30679
#
# Static dielectric constant tensor:
#      x y z
#    x 1.853940 0.000000 0.009980 
#    y 0.000000 1.891990 0.000000 
#    z 0.009980 0.000000 1.805820 
# 
# From -- ./inp_files/237395.got.cif
#   From: 2010.05.17/outbox.cif.g08.bks.cpg/sg12_119_cif.got.tgz:237395.got - 2010.06.03 13:09:07.
