data_PCOD9191562
_publ_section_title
;
Structure prediction by ZEFSAII (Michael W. Deem and Ramdas Pophale) SiO2 
 PCOD9191562
Probable space group: C 2/M
;
_chemical_formula_sum "Si O2"
_cell_formula_units_Z 56
_cell_length_a 15.001260
_cell_length_b 8.982783
_cell_length_c 24.305345
_cell_angle_alpha 90.000000
_cell_angle_beta 130.030452
_cell_angle_gamma 90.000000
_cell_volume 2507.844566
_symmetry_space_group_name_H-M "C 2/M"
_symmetry_group_IT_number 12
_symmetry_cell_setting 'monoclinic'
loop_
_space_group_symop_operation_xyz
x,y,z
-x,y,-z
-x,-y,-z
x,-y,z
1/2+x,1/2+y,z
1/2-x,1/2+y,-z
1/2-x,1/2-y,-z
1/2+x,1/2-y,z
loop_
_atom_site_type_symbol
_atom_site_label
_atom_site_fract_x
_atom_site_fract_y
_atom_site_fract_z
Si Si1 0.722441 0.322252 0.877655
Si Si2 0.973312 0.666387 0.259693
Si Si3 0.571910 0.323926 0.398387
Si Si4 0.927440 0.673139 0.029282
Si Si5 0.775660 0.666688 0.697502
Si Si6 0.132627 0.174625 0.162423
Si Si7 0.190884 0.179323 0.551979
O O1 0.718417 0.500000 0.877349
O O2 0.597858 0.255584 0.814306
O O3 0.795625 0.265176 0.854498
O O4 0.798819 0.273788 0.960598
O O5 0.924884 0.500000 0.245391
O O6 0.979892 0.742540 0.322298
O O7 0.104482 0.656490 0.289592
O O8 0.555656 0.500000 0.385716
O O9 0.698846 0.274558 0.425413
O O10 0.585358 0.288115 0.468471
O O11 0.924393 0.500000 0.045337
O O12 0.000171 0.767902 0.101737
O O13 0.000000 0.677975 0.000000
O O14 0.751361 0.500000 0.710422
O O15 0.805863 0.782698 0.756388
O O16 0.681320 0.705329 0.613441
O O17 0.135198 0.000000 0.153222
O O18 0.214665 0.000000 0.555379
#
# Coordination Sequence:
#
# PCOD9191562 Si02
#       7
#     8   8   8   8   8   8   8
#     4  10  20  35  55  75  97 128 164 201 244 293
#     4  10  20  33  50  74 103 132 163 202 247 291
#     4   9  15  25  44  69  96 126 162 201 242 288
#     4   8  16  32  52  72  94 124 162 201 241 287
#     4   9  18  33  50  70 101 135 164 199 244 289
#     4  11  21  32  51  77 101 127 163 203 242 288
#     4   8  15  27  44  67  94 127 165 203 241 282
#
# _framework density 22.329931999999999
#
# number of rings (size 3 to 8) (size 9 to 14) (size 15 to 20)
#    0.000    2.714    0.000    4.286    0.000    6.571 
#    0.000    0.714    0.000    0.857    0.000    6.000 
#    0.000    0.000    0.000    0.000    0.000    0.000 
#
# Total GULP energy -156226.382090 kJ/mol
# GULP energy per Si atom -5579.513646 kJ/mol
# Density = 2.227911 g / cm^3
# Si number density = 22.329932 Si / 1000 Ang^3
#
#
#
# Elastic Constant Matrix: (Units=GPa)
#
#
# Indices 1 2 3 4 5 6 
#
# 1 19.8822 10.8330 63.9185 0.0000 16.0391 0.0000
# 2 10.8330 57.8331 43.7202 0.0000 6.9175 0.0000
# 3 63.9185 43.7202 103.2421 0.0000 0.2878 0.0000
# 4 0.0000 0.0000 0.0000 22.3794 0.0000 -3.3795
# 5 16.0391 6.9175 0.2878 0.0000 25.4221 0.0000
# 6 0.0000 0.0000 0.0000 -3.3795 0.0000 7.3928
#
#
#
# Elastic Compliance Matrix: (Units=1/GPa)
#
#
# Indices 1 2 3 4 5 6 
#
# 1 -0.024531 -0.013393 0.020806 0.000000 0.018886 0.000000
# 2 -0.013393 0.019353 0.000087 0.000000 0.003183 0.000000
# 3 0.020806 0.000087 -0.003196 0.000000 -0.013114 0.000000
# 4 0.000000 0.000000 0.000000 0.047997 0.000000 0.021941
# 5 0.018886 0.003183 -0.013114 0.000000 0.026703 0.000000
# 6 0.000000 0.000000 0.000000 0.021941 0.000000 0.145297
#
#
# Mechanical properties :
#
#
# Convention : Reuss Voigt Hill
#
# Bulk Modulus (GPa) = 150.88004 46.43342 98.65673
# Shear Modulus (GPa) = 25.14693 15.20457 20.17575
#
# Velocity S-wave (km/s) = 3.35946 2.61225 3.00914
# Velocity P-wave (km/s) = 9.09743 5.47155 7.50670
#
# Compressibility (1/GPa) = 0.00662778
#
# Stress axis : x y z
#
# Youngs Moduli (GPa) = -40.76500 51.67120 -312.90341
#
# Poissons Ratio (x) = 0.69203 6.51035
# Poissons Ratio (y) = -0.54596 0.02732
# Poissons Ratio (z) = 0.84817 -0.00451
#
# Static dielectric constant tensor:
#      x y z
#    x 1.940560 0.000000 0.037040 
#    y 0.000000 1.757760 0.000000 
#    z 0.037040 0.000000 1.884940 
# 
# From -- ./inp_files/342503.got.cif
#   From: 2010.05.17/outbox.cif.g08.bks.cpg/sg12_172_cif.got.tgz:342503.got - 2010.06.03 13:09:07.
