data_PCOD9191519
_publ_section_title
;
Structure prediction by ZEFSAII (Michael W. Deem and Ramdas Pophale) SiO2 
 PCOD9191519
Probable space group: C 2/M
;
_chemical_formula_sum "Si O2"
_cell_formula_units_Z 64
_cell_length_a 28.709102
_cell_length_b 7.696169
_cell_length_c 14.777204
_cell_angle_alpha 90.000000
_cell_angle_beta 104.714318
_cell_angle_gamma 90.000000
_cell_volume 3157.945974
_symmetry_space_group_name_H-M "C 2/M"
_symmetry_group_IT_number 12
_symmetry_cell_setting 'monoclinic'
loop_
_space_group_symop_operation_xyz
x,y,z
-x,y,-z
-x,-y,-z
x,-y,z
1/2+x,1/2+y,z
1/2-x,1/2+y,-z
1/2-x,1/2-y,-z
1/2+x,1/2-y,z
loop_
_atom_site_type_symbol
_atom_site_label
_atom_site_fract_x
_atom_site_fract_y
_atom_site_fract_z
Si Si1 0.938059 0.297073 0.279964
Si Si2 0.166745 0.285971 0.113371
Si Si3 0.044195 0.712388 0.376095
Si Si4 0.306129 0.292460 0.530685
Si Si5 0.876882 0.296258 0.724016
Si Si6 0.268226 0.293527 0.110114
Si Si7 0.884320 0.202549 0.429040
Si Si8 0.368897 0.203583 0.099776
O O1 0.947041 0.500000 0.265015
O O2 0.900731 0.287083 0.344182
O O3 0.913058 0.219531 0.178315
O O4 0.989609 0.226131 0.336849
O O5 0.167190 0.500000 0.112014
O O6 0.137132 0.223955 0.185271
O O7 0.223113 0.233881 0.148117
O O8 0.144859 0.225821 0.006309
O O9 0.045236 0.500000 0.381952
O O10 0.076968 0.771721 0.307579
O O11 0.071494 0.776953 0.478728
O O12 0.311897 0.500000 0.535482
O O13 0.250000 0.250000 0.500000
O O14 0.332139 0.221649 0.633135
O O15 0.337426 0.228565 0.459704
O O16 0.886211 0.500000 0.742742
O O17 0.273236 0.500000 0.122898
O O18 0.321294 0.216335 0.139200
O O19 0.250000 0.250000 0.000000
O O20 0.876228 0.000000 0.405676
O O21 0.378599 0.000000 0.090081
#
# Coordination Sequence:
#
# PCOD9191519 Si02
#       8
#     8   8   8   8   8   8   8   8
#     4  10  20  33  50  73 101 131 163 203 249 293
#     4   8  15  29  49  70  94 127 162 196 235 281
#     4   9  18  33  52  73  97 127 164 204 247 295
#     4  10  21  36  52  74 103 130 159 197 242 290
#     4   9  17  32  53  73  96 130 168 202 240 287
#     4   9  16  28  46  67  93 124 158 195 236 282
#     4  10  21  35  52  74  98 127 164 203 244 295
#     4   9  18  32  47  68 100 131 161 200 243 286
#
# _framework density 20.266337
#
# number of rings (size 3 to 8) (size 9 to 14) (size 15 to 20)
#    0.000    2.750    0.000    2.250    0.000    5.000 
#    0.000    7.500    0.000    3.750    0.000    0.000 
#    0.000    9.000    0.000    0.000    0.000    0.000 
#
# Total GULP energy -178374.691626 kJ/mol
# GULP energy per Si atom -5574.209113 kJ/mol
# Density = 2.022021 g / cm^3
# Si number density = 20.266337 Si / 1000 Ang^3
#
#
#
# Elastic Constant Matrix: (Units=GPa)
#
#
# Indices 1 2 3 4 5 6 
#
# 1 93.4247 -11.9724 48.4872 0.0000 6.8991 0.0000
# 2 -11.9724 31.2753 -11.0379 0.0000 -3.8553 0.0000
# 3 48.4872 -11.0379 71.5808 0.0000 -13.8187 0.0000
# 4 0.0000 0.0000 0.0000 -1.6547 0.0000 -5.6972
# 5 6.8991 -3.8553 -13.8187 0.0000 26.3820 0.0000
# 6 0.0000 0.0000 0.0000 -5.6972 0.0000 14.9718
#
#
#
# Elastic Compliance Matrix: (Units=1/GPa)
#
#
# Indices 1 2 3 4 5 6 
#
# 1 0.020232 0.000282 -0.016325 0.000000 -0.013801 0.000000
# 2 0.000282 0.035639 0.007004 0.000000 0.008803 0.000000
# 3 -0.016325 0.007004 0.030182 0.000000 0.021102 0.000000
# 4 0.000000 0.000000 0.000000 -0.261596 0.000000 -0.099545
# 5 -0.013801 0.008803 0.021102 0.000000 0.053853 0.000000
# 6 0.000000 0.000000 0.000000 -0.099545 0.000000 0.028912
#
#
# Mechanical properties :
#
#
# Convention : Reuss Voigt Hill
#
# Bulk Modulus (GPa) = 14.71133 27.47052 21.09093
# Shear Modulus (GPa) = -96.07908 19.32675 -38.37617
#
# Velocity S-wave (km/s) = -6.89283 3.09145 -4.35626
# Velocity P-wave (km/s) = 7.48822 5.13098 3.85658
#
# Compressibility (1/GPa) = 0.06797482
#
# Stress axis : x y z
#
# Youngs Moduli (GPa) = 49.42689 28.05902 33.13188
#
# Poissons Ratio (x) = -0.00791 0.54089
# Poissons Ratio (y) = -0.01394 -0.23206
# Poissons Ratio (z) = 0.80691 -0.19653
#
# Static dielectric constant tensor:
#      x y z
#    x 1.742010 0.000000 -0.006380 
#    y 0.000000 1.761160 0.000000 
#    z -0.006380 0.000000 1.712030 
# 
# From -- ./inp_files/244091.got.cif
#   From: 2010.05.17/outbox.cif.g08.bks.cpg/sg12_123_cif.got.tgz:244091.got - 2010.06.03 13:09:07.
