data_PCOD9191774
_publ_section_title
;
Structure prediction by ZEFSAII (Michael W. Deem and Ramdas Pophale) SiO2 
 PCOD9191774
Probable space group: C 2/M
;
_chemical_formula_sum "Si O2"
_cell_formula_units_Z 48
_cell_length_a 8.328008
_cell_length_b 22.374760
_cell_length_c 12.935878
_cell_angle_alpha 90.000000
_cell_angle_beta 93.820279
_cell_angle_gamma 90.000000
_cell_volume 2405.078922
_symmetry_space_group_name_H-M "C 2/M"
_symmetry_group_IT_number 12
_symmetry_cell_setting 'monoclinic'
loop_
_space_group_symop_operation_xyz
x,y,z
-x,y,-z
-x,-y,-z
x,-y,z
1/2+x,1/2+y,z
1/2-x,1/2+y,-z
1/2-x,1/2-y,-z
1/2+x,1/2-y,z
loop_
_atom_site_type_symbol
_atom_site_label
_atom_site_fract_x
_atom_site_fract_y
_atom_site_fract_z
Si Si1 0.949433 0.216191 0.115172
Si Si2 0.312630 0.568238 0.533490
Si Si3 0.448994 0.649076 0.692264
Si Si4 0.882498 0.676092 0.800615
Si Si5 0.269553 0.929221 0.695872
Si Si6 0.395404 0.231995 0.578293
O O1 0.770762 0.193894 0.135642
O O2 0.067915 0.178954 0.196476
O O3 0.970950 0.285715 0.148000
O O4 0.000000 0.208024 0.000000
O O5 0.500000 0.572255 0.500000
O O6 0.286929 0.500000 0.565884
O O7 0.306707 0.613586 0.628725
O O8 0.206850 0.579578 0.426856
O O9 0.597458 0.603150 0.708343
O O10 0.480793 0.706309 0.619733
O O11 0.889559 0.605682 0.777737
O O12 0.852989 0.700353 0.682762
O O13 0.261781 0.000000 0.712785
O O14 0.500000 0.196043 0.500000
O O15 0.250000 0.250000 0.500000
#
# Coordination Sequence:
#
# PCOD9191774 Si02
#       6
#     8   8   8   8   8   8
#     4  10  20  34  51  72 100 133 171 216 257 292
#     4   8  12  20  37  62  93 125 152 184 232 289
#     4   9  16  26  43  69  98 126 162 200 247 294
#     4  10  20  33  51  77 101 131 169 205 255 307
#     4   9  16  28  48  73 101 132 166 203 243 298
#     4  11  19  29  47  74 108 133 158 202 252 309
#
# _framework density 19.957764000000001
#
# number of rings (size 3 to 8) (size 9 to 14) (size 15 to 20)
#    0.000    2.500    0.000    7.500    0.000    0.000 
#    0.000    0.000    0.000   13.500    0.000   26.833 
#    0.000    0.000    0.000    0.000    0.000    0.000 
#
# Total GULP energy -133646.540251 kJ/mol
# GULP energy per Si atom -5568.605844 kJ/mol
# Density = 1.991234 g / cm^3
# Si number density = 19.957764 Si / 1000 Ang^3
#
#
#
# Elastic Constant Matrix: (Units=GPa)
#
#
# Indices 1 2 3 4 5 6 
#
# 1 15.6376 7.5350 8.5765 0.0000 -3.6015 0.0000
# 2 7.5350 126.6447 37.4816 0.0000 9.0505 0.0000
# 3 8.5765 37.4816 128.9124 0.0000 -2.3236 0.0000
# 4 0.0000 0.0000 0.0000 18.0281 0.0000 7.3700
# 5 -3.6015 9.0505 -2.3236 0.0000 16.0889 0.0000
# 6 0.0000 0.0000 0.0000 7.3700 0.0000 19.0482
#
#
#
# Elastic Compliance Matrix: (Units=1/GPa)
#
#
# Indices 1 2 3 4 5 6 
#
# 1 0.072131 -0.004682 -0.003107 0.000000 0.018331 0.000000
# 2 -0.004682 0.009407 -0.002545 0.000000 -0.006707 0.000000
# 3 -0.003107 -0.002545 0.008740 0.000000 0.001998 0.000000
# 4 0.000000 0.000000 0.000000 0.065891 0.000000 -0.025494
# 5 0.018331 -0.006707 0.001998 0.000000 0.070320 0.000000
# 6 0.000000 0.000000 0.000000 -0.025494 0.000000 0.062363
#
#
# Mechanical properties :
#
#
# Convention : Reuss Voigt Hill
#
# Bulk Modulus (GPa) = 14.36572 42.04229 28.20400
# Shear Modulus (GPa) = 15.02759 25.13981 20.08370
#
# Velocity S-wave (km/s) = 2.74701 3.55301 3.17568
# Velocity P-wave (km/s) = 4.15633 6.15980 5.25444
#
# Compressibility (1/GPa) = 0.06961016
#
# Stress axis : x y z
#
# Youngs Moduli (GPa) = 13.86375 106.30301 114.41961
#
# Poissons Ratio (x) = 0.49771 0.35551
# Poissons Ratio (y) = 0.06491 0.29114
# Poissons Ratio (z) = 0.04308 0.27049
#
# Static dielectric constant tensor:
#      x y z
#    x 1.723680 0.000000 0.079790 
#    y 0.000000 1.756010 0.000000 
#    z 0.079790 0.000000 1.639910 
# 
# From -- ./inp_files/121866.got.cif
#   From: 2010.05.17/outbox.cif.g08.bks.cpg/sg12_61_cif.got.tgz:121866.got - 2010.06.03 13:09:07.
