data_PCOD9191132
_publ_section_title
;
Structure prediction by ZEFSAII (Michael W. Deem and Ramdas Pophale) SiO2 
 PCOD9191132
Probable space group: C 2/M
;
_chemical_formula_sum "Si O2"
_cell_formula_units_Z 44
_cell_length_a 16.484450
_cell_length_b 30.947558
_cell_length_c 8.191254
_cell_angle_alpha 90.000000
_cell_angle_beta 33.361839
_cell_angle_gamma 90.000000
_cell_volume 2298.023005
_symmetry_space_group_name_H-M "C 2/M"
_symmetry_group_IT_number 12
_symmetry_cell_setting 'monoclinic'
loop_
_space_group_symop_operation_xyz
x,y,z
-x,y,-z
-x,-y,-z
x,-y,z
1/2+x,1/2+y,z
1/2-x,1/2+y,-z
1/2-x,1/2-y,-z
1/2+x,1/2-y,z
loop_
_atom_site_type_symbol
_atom_site_label
_atom_site_fract_x
_atom_site_fract_y
_atom_site_fract_z
Si Si1 0.500000 0.181635 0.500000
Si Si2 0.069635 0.891100 0.716033
Si Si3 0.831349 0.951394 0.715029
Si Si4 0.928418 0.738533 0.941396
Si Si5 0.290237 0.632602 0.961583
Si Si6 0.135368 0.808812 0.478591
O O1 0.472010 0.208542 0.713460
O O2 0.646998 0.153649 0.280112
O O3 0.154541 0.929816 0.486376
O O4 0.163303 0.846583 0.565281
O O5 0.000000 0.905146 0.000000
O O6 0.929918 0.876684 0.840358
O O7 0.000000 0.952954 0.500000
O O8 0.772907 0.000000 0.816516
O O9 0.750514 0.914443 0.954392
O O10 0.984157 0.785114 0.784264
O O11 0.756008 0.729265 0.263032
O O12 0.000000 0.730593 0.000000
O O13 0.342587 0.664255 0.726117
#
# Coordination Sequence:
#
# PCOD9191132 Si02
#       6
#     4   8   8   8   8   8
#     4  10  24  36  57  76 110 144 189 220 270 320
#     4  10  20  32  54  81 110 138 174 225 275 316
#     4   8  15  32  55  78 105 137 173 217 267 323
#     4  11  24  37  54  78 107 148 186 233 266 318
#     4   9  20  37  53  79 107 141 179 222 268 327
#     4  10  22  37  53  76 106 144 185 222 275 311
#
# _framework density 19.146892000000001
#
# number of rings (size 3 to 8) (size 9 to 14) (size 15 to 20)
#    0.000    2.364    0.000    2.727    7.636    1.818 
#    0.000    0.455    0.000    0.000    0.000    1.273 
#    0.000    0.000    0.000    0.000    0.000    0.000 
#
# Total GULP energy -122504.568412 kJ/mol
# GULP energy per Si atom -5568.389473 kJ/mol
# Density = 1.910331 g / cm^3
# Si number density = 19.146892 Si / 1000 Ang^3
#
#
#
# Elastic Constant Matrix: (Units=GPa)
#
#
# Indices 1 2 3 4 5 6 
#
# 1 43.3586 14.6364 3.7205 0.0000 12.9869 0.0000
# 2 14.6364 126.5536 23.6671 0.0000 6.9066 0.0000
# 3 3.7205 23.6671 47.8159 0.0000 8.0722 0.0000
# 4 0.0000 0.0000 0.0000 16.4804 0.0000 -4.5481
# 5 12.9869 6.9066 8.0722 0.0000 27.2611 0.0000
# 6 0.0000 0.0000 0.0000 -4.5481 0.0000 6.4091
#
#
#
# Elastic Compliance Matrix: (Units=1/GPa)
#
#
# Indices 1 2 3 4 5 6 
#
# 1 0.027750 -0.002764 0.001392 0.000000 -0.012932 0.000000
# 2 -0.002764 0.009008 -0.004295 0.000000 0.000306 0.000000
# 3 0.001392 -0.004295 0.024062 0.000000 -0.006700 0.000000
# 4 0.000000 0.000000 0.000000 0.075455 0.000000 0.053545
# 5 -0.012932 0.000306 -0.006700 0.000000 0.044749 0.000000
# 6 0.000000 0.000000 0.000000 0.053545 0.000000 0.194024
#
#
# Mechanical properties :
#
#
# Convention : Reuss Voigt Hill
#
# Bulk Modulus (GPa) = 20.20764 33.53068 26.86916
# Shear Modulus (GPa) = 12.41067 21.74373 17.07720
#
# Velocity S-wave (km/s) = 2.54870 3.37356 2.98972
# Velocity P-wave (km/s) = 4.38613 5.72057 5.09721
#
# Compressibility (1/GPa) = 0.04948622
#
# Stress axis : x y z
#
# Youngs Moduli (GPa) = 36.03540 111.01228 41.55877
#
# Poissons Ratio (x) = 0.30684 -0.05785
# Poissons Ratio (y) = 0.09960 0.17851
# Poissons Ratio (z) = -0.05016 0.47683
#
# Static dielectric constant tensor:
#      x y z
#    x 1.720400 0.000000 -0.005550 
#    y 0.000000 1.700380 0.000000 
#    z -0.005550 0.000000 1.683490 
# 
# From -- ./inp_files/80387.got.cif
#   From: 2010.05.17/outbox.cif.g08.bks.cpg/sg12_41_cif.got.tgz:80387.got - 2010.06.03 13:09:07.
