data_PCOD9191808
_publ_section_title
;
Structure prediction by ZEFSAII (Michael W. Deem and Ramdas Pophale) SiO2 
 PCOD9191808
Probable space group: C 2/M
;
_chemical_formula_sum "Si O2"
_cell_formula_units_Z 64
_cell_length_a 17.091378
_cell_length_b 14.617047
_cell_length_c 15.009641
_cell_angle_alpha 90.000000
_cell_angle_beta 72.267758
_cell_angle_gamma 90.000000
_cell_volume 3571.639052
_symmetry_space_group_name_H-M "C 2/M"
_symmetry_group_IT_number 12
_symmetry_cell_setting 'monoclinic'
loop_
_space_group_symop_operation_xyz
x,y,z
-x,y,-z
-x,-y,-z
x,-y,z
1/2+x,1/2+y,z
1/2-x,1/2+y,-z
1/2-x,1/2-y,-z
1/2+x,1/2-y,z
loop_
_atom_site_type_symbol
_atom_site_label
_atom_site_fract_x
_atom_site_fract_y
_atom_site_fract_z
Si Si1 0.075457 0.104898 0.415426
Si Si2 0.174747 0.604431 0.911450
Si Si3 0.814564 0.249457 0.349429
Si Si4 0.935382 0.733275 0.162469
Si Si5 0.730144 0.603947 0.495767
Si Si6 0.812040 0.804222 0.759677
Si Si7 0.369393 0.245342 0.923543
Si Si8 0.598638 0.603415 0.953821
O O1 0.153824 0.102232 0.453713
O O2 0.107086 0.159294 0.318425
O O3 0.000000 0.142745 0.500000
O O4 0.054158 0.000000 0.397667
O O5 0.161449 0.500000 0.940299
O O6 0.103674 0.645665 0.872636
O O7 0.257324 0.616209 0.824334
O O8 0.171875 0.671129 0.997679
O O9 0.902972 0.260905 0.273929
O O10 0.796880 0.330688 0.425788
O O11 0.800398 0.154841 0.405216
O O12 0.747416 0.259819 0.293585
O O13 0.895963 0.822733 0.127549
O O14 0.032415 0.730884 0.115795
O O15 0.757384 0.500000 0.500809
O O16 0.834218 0.742780 0.836664
O O17 0.363041 0.344819 0.974064
O O18 0.629883 0.500000 0.929162
O O19 0.500000 0.596355 0.000000
#
# Coordination Sequence:
#
# PCOD9191808 Si02
#       8
#     8   8   8   8   8   8   8   8
#     4   9  18  31  49  78 106 127 160 207 258 313
#     4  10  20  36  55  74 104 145 184 220 257 304
#     4   9  19  34  51  74 101 132 176 209 254 316
#     4   9  19  32  51  77 103 137 180 220 256 308
#     4   9  18  34  54  72  99 134 169 210 256 309
#     4  10  20  34  51  75 106 138 170 214 264 317
#     4  10  20  33  51  78 107 137 178 221 263 309
#     4   8  15  29  45  67 103 139 167 201 249 305
#
# _framework density 17.918944
#
# number of rings (size 3 to 8) (size 9 to 14) (size 15 to 20)
#    0.000    2.750    0.000    1.875    1.750    5.500 
#    0.000    0.625    0.000    0.000    0.000    0.875 
#    0.000    0.000    0.000    0.000    0.000    0.000 
#
# Total GULP energy -178295.935566 kJ/mol
# GULP energy per Si atom -5571.747986 kJ/mol
# Density = 1.787816 g / cm^3
# Si number density = 17.918944 Si / 1000 Ang^3
#
#
#
# Elastic Constant Matrix: (Units=GPa)
#
#
# Indices 1 2 3 4 5 6 
#
# 1 31.6737 5.7121 14.2799 0.0000 -11.6239 0.0000
# 2 5.7121 102.4967 35.0089 0.0000 1.3987 0.0000
# 3 14.2799 35.0089 99.9533 0.0000 -9.8876 0.0000
# 4 0.0000 0.0000 0.0000 12.4023 0.0000 -5.8765
# 5 -11.6239 1.3987 -9.8876 0.0000 34.1899 0.0000
# 6 0.0000 0.0000 0.0000 -5.8765 0.0000 8.0063
#
#
#
# Elastic Compliance Matrix: (Units=1/GPa)
#
#
# Indices 1 2 3 4 5 6 
#
# 1 0.037822 -0.000932 -0.003913 0.000000 0.011765 0.000000
# 2 -0.000932 0.011193 -0.003978 0.000000 -0.001925 0.000000
# 3 -0.003913 -0.003978 0.012190 0.000000 0.002358 0.000000
# 4 0.000000 0.000000 0.000000 0.123625 0.000000 0.090738
# 5 0.011765 -0.001925 0.002358 0.000000 0.034009 0.000000
# 6 0.000000 0.000000 0.000000 0.090738 0.000000 0.191502
#
#
# Mechanical properties :
#
#
# Convention : Reuss Voigt Hill
#
# Bulk Modulus (GPa) = 22.95695 38.23616 30.59655
# Shear Modulus (GPa) = 11.29928 22.86123 17.08026
#
# Velocity S-wave (km/s) = 2.51385 3.57573 3.09074
# Velocity P-wave (km/s) = 4.61143 6.19939 5.46342
#
# Compressibility (1/GPa) = 0.04355980
#
# Stress axis : x y z
#
# Youngs Moduli (GPa) = 26.43969 89.33943 82.03308
#
# Poissons Ratio (x) = 0.08324 0.32102
# Poissons Ratio (y) = 0.02463 0.32631
# Poissons Ratio (z) = 0.10347 0.35537
#
# Static dielectric constant tensor:
#      x y z
#    x 1.632810 0.000000 -0.004480 
#    y 0.000000 1.609320 0.000000 
#    z -0.004480 0.000000 1.632860 
# 
# From -- ./inp_files/233125.got.cif
#   From: 2010.05.17/outbox.cif.g08.bks.cpg/sg12_117_cif.got.tgz:233125.got - 2010.06.03 13:09:07.
