data_PCOD9191379
_publ_section_title
;
Structure prediction by ZEFSAII (Michael W. Deem and Ramdas Pophale) SiO2 
 PCOD9191379
Probable space group: C 2/M
;
_chemical_formula_sum "Si O2"
_cell_formula_units_Z 64
_cell_length_a 31.931648
_cell_length_b 8.968336
_cell_length_c 14.489739
_cell_angle_alpha 90.000000
_cell_angle_beta 89.648901
_cell_angle_gamma 90.000000
_cell_volume 4149.402962
_symmetry_space_group_name_H-M "C 2/M"
_symmetry_group_IT_number 12
_symmetry_cell_setting 'monoclinic'
loop_
_space_group_symop_operation_xyz
x,y,z
-x,y,-z
-x,-y,-z
x,-y,z
1/2+x,1/2+y,z
1/2-x,1/2+y,-z
1/2-x,1/2-y,-z
1/2+x,1/2-y,z
loop_
_atom_site_type_symbol
_atom_site_label
_atom_site_fract_x
_atom_site_fract_y
_atom_site_fract_z
Si Si1 0.831782 0.178940 0.778868
Si Si2 0.705428 0.177081 0.395154
Si Si3 0.248292 0.321100 0.898704
Si Si4 0.500432 0.172272 0.887914
Si Si5 0.203029 0.322838 0.607120
Si Si6 0.413858 0.679386 0.891434
Si Si7 0.671604 0.320922 0.786359
Si Si8 0.413148 0.679019 0.106459
O O1 0.825208 0.261049 0.682261
O O2 0.791386 0.211035 0.843419
O O3 0.874063 0.223813 0.831046
O O4 0.832710 0.000000 0.764507
O O5 0.749753 0.260868 0.382572
O O6 0.690996 0.203770 0.500626
O O7 0.712061 0.000000 0.384051
O O8 0.243911 0.500000 0.904906
O O9 0.209660 0.251960 0.842868
O O10 0.250000 0.250000 0.000000
O O11 0.457788 0.252296 0.858255
O O12 0.543742 0.249490 0.858986
O O13 0.500096 0.000000 0.861015
O O14 0.500000 0.180844 0.000000
O O15 0.203022 0.500000 0.624454
O O16 0.175064 0.239649 0.682525
O O17 0.416941 0.500000 0.889226
O O18 0.406933 0.722607 0.998938
O O19 0.675922 0.500000 0.788269
O O20 0.627671 0.280171 0.834593
O O21 0.417499 0.500000 0.108500
#
# Coordination Sequence:
#
# PCOD9191379 Si02
#       8
#     8   8   8   8   8   8   8   8
#     4  10  20  33  49  70  97 129 165 201 241 289
#     4  10  20  33  51  71  93 124 163 205 247 290
#     4  11  22  34  47  66  97 135 169 201 235 280
#     4   9  17  29  46  70  96 122 158 202 242 279
#     4  10  20  34  50  70  95 125 161 203 249 293
#     4   9  17  31  49  68  95 131 163 195 236 284
#     4  11  21  33  50  73  97 127 166 203 242 289
#     4   9  18  32  49  69  96 129 164 197 235 288
#
# _framework density 15.423906000000001
#
# number of rings (size 3 to 8) (size 9 to 14) (size 15 to 20)
#    0.000    2.125    1.250    2.625    0.000    7.000 
#    0.000    2.500    0.000    0.000    0.000    0.875 
#    0.000    7.000    0.000    0.000    0.000    0.000 
#
# Total GULP energy -178531.630477 kJ/mol
# GULP energy per Si atom -5579.113452 kJ/mol
# Density = 1.538880 g / cm^3
# Si number density = 15.423906 Si / 1000 Ang^3
#
#
#
# Elastic Constant Matrix: (Units=GPa)
#
#
# Indices 1 2 3 4 5 6 
#
# 1 144.7409 57.1647 67.3165 0.0000 3.9737 0.0000
# 2 57.1647 51.4448 46.0882 0.0000 1.2614 0.0000
# 3 67.3165 46.0882 95.3660 0.0000 3.6525 0.0000
# 4 0.0000 0.0000 0.0000 26.7121 0.0000 1.1156
# 5 3.9737 1.2614 3.6525 0.0000 8.9739 0.0000
# 6 0.0000 0.0000 0.0000 1.1156 0.0000 25.1316
#
#
#
# Elastic Compliance Matrix: (Units=1/GPa)
#
#
# Indices 1 2 3 4 5 6 
#
# 1 0.013149 -0.011150 -0.003789 0.000000 -0.002713 0.000000
# 2 -0.011150 0.043769 -0.013445 0.000000 0.004257 0.000000
# 3 -0.003789 -0.013445 0.019831 0.000000 -0.004504 0.000000
# 4 0.000000 0.000000 0.000000 0.037506 0.000000 -0.001665
# 5 -0.002713 0.004257 -0.004504 0.000000 0.113870 0.000000
# 6 0.000000 0.000000 0.000000 -0.001665 0.000000 0.039864
#
#
# Mechanical properties :
#
#
# Convention : Reuss Voigt Hill
#
# Bulk Modulus (GPa) = 50.04935 70.29893 60.17414
# Shear Modulus (GPa) = 15.08667 20.22901 17.65784
#
# Velocity S-wave (km/s) = 3.13091 3.62544 3.38721
# Velocity P-wave (km/s) = 6.75202 7.94997 7.37536
#
# Compressibility (1/GPa) = 0.01998028
#
# Stress axis : x y z
#
# Youngs Moduli (GPa) = 76.04892 22.84729 50.42654
#
# Poissons Ratio (x) = 0.25475 0.19108
# Poissons Ratio (y) = 0.84796 0.67798
# Poissons Ratio (z) = 0.28817 0.30718
#
# Static dielectric constant tensor:
#      x y z
#    x 1.493120 0.000000 -0.000840 
#    y 0.000000 1.515990 0.000000 
#    z -0.000840 0.000000 1.508060 
# 
# From -- ./inp_files/248381.got.cif
#   From: 2010.05.17/outbox.cif.g08.bks.cpg/sg12_125_cif.got.tgz:248381.got - 2010.06.03 13:09:07.
