data_PCOD9191167
_publ_section_title
;
Structure prediction by ZEFSAII (Michael W. Deem and Ramdas Pophale) SiO2 
 PCOD9191167
Probable space group: C 2/M
;
_chemical_formula_sum "Si O2"
_cell_formula_units_Z 48
_cell_length_a 10.106149
_cell_length_b 19.426464
_cell_length_c 14.407064
_cell_angle_alpha 90.000000
_cell_angle_beta 52.870917
_cell_angle_gamma 90.000000
_cell_volume 2255.093354
_symmetry_space_group_name_H-M "C 2/M"
_symmetry_group_IT_number 12
_symmetry_cell_setting 'monoclinic'
loop_
_space_group_symop_operation_xyz
x,y,z
-x,y,-z
-x,-y,-z
x,-y,z
1/2+x,1/2+y,z
1/2-x,1/2+y,-z
1/2-x,1/2-y,-z
1/2+x,1/2-y,z
loop_
_atom_site_type_symbol
_atom_site_label
_atom_site_fract_x
_atom_site_fract_y
_atom_site_fract_z
Si Si1 0.920933 0.161489 0.932116
Si Si2 0.539340 0.180386 0.092868
Si Si3 0.827199 0.297672 0.623479
Si Si4 0.636504 0.618387 0.574762
Si Si5 0.699114 0.574381 0.738526
Si Si6 0.222555 0.860742 0.328915
O O1 0.956106 0.238683 0.877523
O O2 0.013374 0.100955 0.838019
O O3 0.725125 0.152812 0.023309
O O4 0.000000 0.160018 0.000000
O O5 0.399719 0.136178 0.204556
O O6 0.500000 0.181682 0.000000
O O7 0.682859 0.309771 0.607148
O O8 0.803973 0.355929 0.712738
O O9 0.820989 0.220347 0.659239
O O10 0.000000 0.310190 0.500000
O O11 0.714815 0.570475 0.620160
O O12 0.440655 0.605071 0.647020
O O13 0.717155 0.618118 0.439274
O O14 0.736241 0.500000 0.764450
#
# Coordination Sequence:
#
# PCOD9191167 Si02
#       6
#     8   8   8   8   8   8
#     4  10  21  36  56  87 113 155 194 242 293 336
#     4  10  20  34  57  87 121 143 190 246 298 352
#     4  10  20  32  55  85 114 150 181 238 289 349
#     4   9  21  33  55  87 108 151 187 233 300 340
#     4  10  22  40  56  79 120 161 195 230 283 351
#     4  11  18  33  58  86 119 143 183 248 299 346
#
# _framework density 21.285149000000001
#
# number of rings (size 3 to 8) (size 9 to 14) (size 15 to 20)
#    1.000    1.000    3.333    1.500    0.000    3.333 
#    0.000    1.667    0.000    5.500    0.000    0.000 
#    0.000    0.000    0.000    0.000    0.000    0.000 
#
# Total GULP energy -133630.289481 kJ/mol
# GULP energy per Si atom -5567.928728 kJ/mol
# Density = 2.123670 g / cm^3
# Si number density = 21.285149 Si / 1000 Ang^3
#
#
#
# Elastic Constant Matrix: (Units=GPa)
#
#
# Indices 1 2 3 4 5 6 
#
# 1 64.9737 -24.4652 20.3749 0.0000 -12.9503 0.0000
# 2 -24.4652 38.3582 2.7042 0.0000 0.7018 0.0000
# 3 20.3749 2.7042 106.6944 0.0000 -26.7207 0.0000
# 4 0.0000 0.0000 0.0000 0.9113 0.0000 9.6907
# 5 -12.9503 0.7018 -26.7207 0.0000 33.0453 0.0000
# 6 0.0000 0.0000 0.0000 9.6907 0.0000 -83.1866
#
#
#
# Elastic Compliance Matrix: (Units=1/GPa)
#
#
# Indices 1 2 3 4 5 6 
#
# 1 0.023284 0.014970 -0.003286 0.000000 0.006150 0.000000
# 2 0.014970 0.035790 -0.003118 0.000000 0.002585 0.000000
# 3 -0.003286 -0.003118 0.012255 0.000000 0.008688 0.000000
# 4 0.000000 0.000000 0.000000 0.490153 0.000000 0.057099
# 5 0.006150 0.002585 0.008688 0.000000 0.039642 0.000000
# 6 0.000000 0.000000 0.000000 0.057099 0.000000 -0.005369
#
#
# Mechanical properties :
#
#
# Convention : Reuss Voigt Hill
#
# Bulk Modulus (GPa) = 11.30454 23.02823 17.16638
# Shear Modulus (GPa) = 8.22220 4.24817 6.23519
#
# Velocity S-wave (km/s) = 1.96755 1.41427 1.71339
# Velocity P-wave (km/s) = 3.23793 3.67550 3.46363
#
# Compressibility (1/GPa) = 0.08846005
#
# Stress axis : x y z
#
# Youngs Moduli (GPa) = 42.94865 27.94051 81.60030
#
# Poissons Ratio (x) = -0.41826 0.26810
# Poissons Ratio (y) = -0.64292 0.25447
# Poissons Ratio (z) = 0.14111 0.08713
#
# Static dielectric constant tensor:
#      x y z
#    x 1.778660 0.000000 -0.002940 
#    y 0.000000 1.874910 0.000000 
#    z -0.002940 0.000000 1.830340 
# 
# From -- ./inp_files/207169.got.cif
#   From: 2010.05.17/outbox.cif.g08.bks.cpg/sg12_104_cif.got.tgz:207169.got - 2010.06.03 13:09:07.
