data_PCOD9191363
_publ_section_title
;
Structure prediction by ZEFSAII (Michael W. Deem and Ramdas Pophale) SiO2 
 PCOD9191363
Probable space group: C 2/M
;
_chemical_formula_sum "Si O2"
_cell_formula_units_Z 64
_cell_length_a 19.419068
_cell_length_b 23.657691
_cell_length_c 9.750487
_cell_angle_alpha 90.000000
_cell_angle_beta 50.283899
_cell_angle_gamma 90.000000
_cell_volume 3445.701283
_symmetry_space_group_name_H-M "C 2/M"
_symmetry_group_IT_number 12
_symmetry_cell_setting 'monoclinic'
loop_
_space_group_symop_operation_xyz
x,y,z
-x,y,-z
-x,-y,-z
x,-y,z
1/2+x,1/2+y,z
1/2-x,1/2+y,-z
1/2-x,1/2-y,-z
1/2+x,1/2-y,z
loop_
_atom_site_type_symbol
_atom_site_label
_atom_site_fract_x
_atom_site_fract_y
_atom_site_fract_z
Si Si1 0.228726 0.566655 0.908061
Si Si2 0.018824 0.566313 0.136928
Si Si3 0.080888 0.395733 0.484365
Si Si4 0.282249 0.336180 0.641042
Si Si5 0.638768 0.220397 0.448072
Si Si6 0.275733 0.435735 0.163141
Si Si7 0.669236 0.664150 0.730892
Si Si8 0.089900 0.720266 0.818919
O O1 0.237677 0.500000 0.860891
O O2 0.275762 0.609127 0.743530
O O3 0.122039 0.579549 0.040839
O O4 0.267225 0.575098 0.011558
O O5 0.004636 0.500000 0.188777
O O6 0.951083 0.601190 0.317803
O O7 0.000000 0.572347 0.000000
O O8 0.095277 0.330562 0.418597
O O9 0.173983 0.427609 0.347310
O O10 0.000000 0.421335 0.500000
O O11 0.338517 0.283229 0.632291
O O12 0.326123 0.349037 0.437024
O O13 0.180263 0.313635 0.744636
O O14 0.734704 0.193475 0.363577
O O15 0.587017 0.224839 0.657953
O O16 0.304518 0.500000 0.148804
O O17 0.335121 0.390524 0.168586
O O18 0.602305 0.714696 0.850402
O O19 0.000000 0.696850 0.000000
#
# Coordination Sequence:
#
# PCOD9191363 Si02
#       8
#     8   8   8   8   8   8   8   8
#     4  10  21  33  47  72  99 129 168 204 241 288
#     4  10  22  33  44  69 102 135 172 206 238 285
#     4  11  20  32  50  69 103 137 167 200 244 291
#     4   9  18  34  50  68 102 131 163 206 243 293
#     4   8  18  32  46  69  99 133 164 201 248 292
#     4  10  20  33  49  69  98 134 167 199 246 300
#     4   8  17  34  49  70  96 129 165 202 245 299
#     4   9  17  29  52  75  96 125 164 205 251 294
#
# _framework density 18.573867
#
# number of rings (size 3 to 8) (size 9 to 14) (size 15 to 20)
#    0.000    2.625    1.250    1.875    7.000    1.000 
#    0.000    6.875    0.000    0.375    0.000    0.000 
#    0.000    8.500    0.000    0.000    0.000    0.000 
#
# Total GULP energy -178343.484279 kJ/mol
# GULP energy per Si atom -5573.233884 kJ/mol
# Density = 1.853159 g / cm^3
# Si number density = 18.573867 Si / 1000 Ang^3
#
#
#
# Elastic Constant Matrix: (Units=GPa)
#
#
# Indices 1 2 3 4 5 6 
#
# 1 15.2458 15.7343 2.8685 0.0000 3.9858 0.0000
# 2 15.7343 118.9340 28.0055 0.0000 17.0710 0.0000
# 3 2.8685 28.0055 49.9638 0.0000 5.7336 0.0000
# 4 0.0000 0.0000 0.0000 30.9542 0.0000 1.7416
# 5 3.9858 17.0710 5.7336 0.0000 19.0394 0.0000
# 6 0.0000 0.0000 0.0000 1.7416 0.0000 13.0440
#
#
#
# Elastic Compliance Matrix: (Units=1/GPa)
#
#
# Indices 1 2 3 4 5 6 
#
# 1 0.077158 -0.009454 0.001813 0.000000 -0.008222 0.000000
# 2 -0.009454 0.011935 -0.005331 0.000000 -0.007117 0.000000
# 3 0.001813 -0.005331 0.023195 0.000000 -0.002585 0.000000
# 4 0.000000 0.000000 0.000000 0.032550 0.000000 -0.004346
# 5 -0.008222 -0.007117 -0.002585 0.000000 0.061404 0.000000
# 6 0.000000 0.000000 0.000000 -0.004346 0.000000 0.077244
#
#
# Mechanical properties :
#
#
# Convention : Reuss Voigt Hill
#
# Bulk Modulus (GPa) = 11.58150 30.81777 21.19963
# Shear Modulus (GPa) = 14.78369 21.77656 18.28013
#
# Velocity S-wave (km/s) = 2.82430 3.42779 3.14058
# Velocity P-wave (km/s) = 4.10907 5.68281 4.95877
#
# Compressibility (1/GPa) = 0.08634458
#
# Stress axis : x y z
#
# Youngs Moduli (GPa) = 12.96047 83.78376 43.11290
#
# Poissons Ratio (x) = 0.79212 -0.07817
# Poissons Ratio (y) = 0.12253 0.22981
# Poissons Ratio (z) = -0.02350 0.44661
#
# Static dielectric constant tensor:
#      x y z
#    x 1.650140 0.000000 0.012090 
#    y 0.000000 1.688670 0.000000 
#    z 0.012090 0.000000 1.634290 
# 
# From -- ./inp_files/90636.got.cif
#   From: 2010.05.17/outbox.cif.g08.bks.cpg/sg12_46_cif.got.tgz:90636.got - 2010.06.03 13:09:07.
