data_PCOD9191573
_publ_section_title
;
Structure prediction by ZEFSAII (Michael W. Deem and Ramdas Pophale) SiO2 
 PCOD9191573
Probable space group: C 2/M
;
_chemical_formula_sum "Si O2"
_cell_formula_units_Z 64
_cell_length_a 21.097039
_cell_length_b 7.674923
_cell_length_c 25.194446
_cell_angle_alpha 90.000000
_cell_angle_beta 127.532998
_cell_angle_gamma 90.000000
_cell_volume 3235.005041
_symmetry_space_group_name_H-M "C 2/M"
_symmetry_group_IT_number 12
_symmetry_cell_setting 'monoclinic'
loop_
_space_group_symop_operation_xyz
x,y,z
-x,y,-z
-x,-y,-z
x,-y,z
1/2+x,1/2+y,z
1/2-x,1/2+y,-z
1/2-x,1/2-y,-z
1/2+x,1/2-y,z
loop_
_atom_site_type_symbol
_atom_site_label
_atom_site_fract_x
_atom_site_fract_y
_atom_site_fract_z
Si Si1 0.589389 0.202437 0.789300
Si Si2 0.333086 0.792454 0.778608
Si Si3 0.927867 0.296886 0.506494
Si Si4 0.077030 0.204969 0.006716
Si Si5 0.985161 0.288031 0.139817
Si Si6 0.735449 0.201773 0.145841
Si Si7 0.816023 0.710272 0.361533
Si Si8 0.952403 0.285536 0.347988
O O1 0.555039 0.276428 0.826371
O O2 0.685251 0.210908 0.836059
O O3 0.557463 0.276037 0.717152
O O4 0.565102 0.000000 0.776534
O O5 0.422872 0.727134 0.816893
O O6 0.292339 0.721857 0.811588
O O7 0.273162 0.759957 0.699647
O O8 0.340019 0.000000 0.789683
O O9 0.910050 0.500000 0.508359
O O10 0.852627 0.222694 0.435825
O O11 0.000000 0.293425 0.500000
O O12 0.968179 0.224874 0.580316
O O13 0.060554 0.231062 0.936386
O O14 0.083270 0.000000 0.021627
O O15 0.159029 0.287061 0.068770
O O16 0.000000 0.274244 0.000000
O O17 0.984253 0.500000 0.139234
O O18 0.757067 0.000000 0.164686
O O19 0.820709 0.500000 0.365522
O O20 0.875895 0.767402 0.344641
O O21 0.952524 0.500000 0.348479
#
# Coordination Sequence:
#
# PCOD9191573 Si02
#       8
#     8   8   8   8   8   8   8   8
#     4  10  20  35  56  80 105 135 175 218 254 299
#     4  10  20  33  50  74 104 138 171 204 252 312
#     4   7  11  20  38  69 102 128 160 208 260 296
#     4  11  23  38  59  83 104 130 171 219 257 296
#     4  10  22  39  56  76 105 140 172 206 258 317
#     4  11  22  36  57  79 105 139 169 207 260 312
#     4   9  15  25  47  75 100 129 169 218 258 290
#     4   8  13  24  45  73 102 129 164 213 257 294
#
# _framework density 19.783586
#
# number of rings (size 3 to 8) (size 9 to 14) (size 15 to 20)
#    0.000    2.500    2.500    2.250    0.000    2.500 
#    0.000    0.000    0.000    4.875    0.000    0.000 
#    0.000    0.000    0.000    0.000    0.000    0.000 
#
# Total GULP energy -178463.051852 kJ/mol
# GULP energy per Si atom -5576.970370 kJ/mol
# Density = 1.973856 g / cm^3
# Si number density = 19.783586 Si / 1000 Ang^3
#
#
#
# Elastic Constant Matrix: (Units=GPa)
#
#
# Indices 1 2 3 4 5 6 
#
# 1 79.4025 -2.9341 47.2598 0.0000 -8.0384 0.0000
# 2 -2.9341 34.8062 -13.4749 0.0000 -4.0139 0.0000
# 3 47.2598 -13.4749 162.5716 0.0000 1.6177 0.0000
# 4 0.0000 0.0000 0.0000 20.0873 0.0000 5.5985
# 5 -8.0384 -4.0139 1.6177 0.0000 26.0139 0.0000
# 6 0.0000 0.0000 0.0000 5.5985 0.0000 7.5069
#
#
#
# Elastic Compliance Matrix: (Units=1/GPa)
#
#
# Indices 1 2 3 4 5 6 
#
# 1 0.015904 0.000138 -0.004664 0.000000 0.005226 0.000000
# 2 0.000138 0.030203 0.002418 0.000000 0.004552 0.000000
# 3 -0.004664 0.002418 0.007723 0.000000 -0.001548 0.000000
# 4 0.000000 0.000000 0.000000 0.062845 0.000000 -0.046868
# 5 0.005226 0.004552 -0.001548 0.000000 0.040855 0.000000
# 6 0.000000 0.000000 0.000000 -0.046868 0.000000 0.168163
#
#
# Mechanical properties :
#
#
# Convention : Reuss Voigt Hill
#
# Bulk Modulus (GPa) = 20.15562 37.60909 28.88235
# Shear Modulus (GPa) = 14.43221 27.11692 20.77457
#
# Velocity S-wave (km/s) = 2.70386 3.70628 3.24403
# Velocity P-wave (km/s) = 4.46744 6.11285 5.35373
#
# Compressibility (1/GPa) = 0.04961396
#
# Stress axis : x y z
#
# Youngs Moduli (GPa) = 62.87674 33.10901 129.48698
#
# Poissons Ratio (x) = -0.00456 0.60392
# Poissons Ratio (y) = -0.00866 -0.31311
# Poissons Ratio (z) = 0.29325 -0.08006
#
# Static dielectric constant tensor:
#      x y z
#    x 1.670200 0.000000 -0.007590 
#    y 0.000000 1.734410 0.000000 
#    z -0.007590 0.000000 1.719900 
# 
# From -- ./inp_files/346261.got.cif
#   From: 2010.05.17/outbox.cif.g08.bks.cpg/sg12_174_cif.got.tgz:346261.got - 2010.06.03 13:09:07.
