data_PCOD9191683
_publ_section_title
;
Structure prediction by ZEFSAII (Michael W. Deem and Ramdas Pophale) SiO2 
 PCOD9191683
Probable space group: C 2/M
;
_chemical_formula_sum "Si O2"
_cell_formula_units_Z 64
_cell_length_a 14.478320
_cell_length_b 8.847329
_cell_length_c 31.802720
_cell_angle_alpha 90.000000
_cell_angle_beta 114.844539
_cell_angle_gamma 90.000000
_cell_volume 3696.731140
_symmetry_space_group_name_H-M "C 2/M"
_symmetry_group_IT_number 12
_symmetry_cell_setting 'monoclinic'
loop_
_space_group_symop_operation_xyz
x,y,z
-x,y,-z
-x,-y,-z
x,-y,z
1/2+x,1/2+y,z
1/2-x,1/2+y,-z
1/2-x,1/2-y,-z
1/2+x,1/2-y,z
loop_
_atom_site_type_symbol
_atom_site_label
_atom_site_fract_x
_atom_site_fract_y
_atom_site_fract_z
Si Si1 0.531480 0.318359 0.876769
Si Si2 0.236502 0.318589 0.878492
Si Si3 0.271842 0.182168 0.620384
Si Si4 0.947213 0.318977 0.945484
Si Si5 0.993327 0.682178 0.631462
Si Si6 0.698964 0.319499 0.699283
Si Si7 0.566430 0.817891 0.552480
Si Si8 0.688069 0.680654 0.200027
O O1 0.538074 0.500000 0.880441
O O2 0.632550 0.249950 0.876007
O O3 0.510370 0.251995 0.919010
O O4 0.430307 0.279871 0.830408
O O5 0.236790 0.500000 0.882797
O O6 0.334258 0.250278 0.920963
O O7 0.254216 0.282253 0.832557
O O8 0.382535 0.231345 0.625850
O O9 0.251855 0.225473 0.665158
O O10 0.179254 0.249844 0.575891
O O11 0.267280 0.000000 0.616902
O O12 0.941860 0.500000 0.939290
O O13 0.000000 0.285554 0.000000
O O14 0.998640 0.500000 0.635607
O O15 0.085612 0.751556 0.675673
O O16 0.013031 0.723587 0.586494
O O17 0.693057 0.500000 0.699242
O O18 0.761861 0.260618 0.750841
O O19 0.500000 0.767739 0.500000
O O20 0.573978 0.000000 0.552540
O O21 0.694200 0.500000 0.206992
#
# Coordination Sequence:
#
# PCOD9191683 Si02
#       8
#     8   8   8   8   8   8   8   8
#     4  10  21  37  57  81 109 141 177 218 264 315
#     4  10  21  37  57  80 107 140 177 218 263 314
#     4   9  19  34  50  71  98 130 167 203 246 299
#     4  10  21  37  57  81 109 142 180 221 264 311
#     4   9  18  34  52  69  98 135 165 202 252 303
#     4  10  20  33  51  75 100 128 167 211 250 296
#     4   9  18  32  50  73  99 128 164 205 250 299
#     4   9  20  37  54  75 104 137 171 208 257 311
#
# _framework density 17.312591999999999
#
# number of rings (size 3 to 8) (size 9 to 14) (size 15 to 20)
#    0.000    2.500    0.000    2.250    0.000    7.250 
#    0.000    3.750    0.000    0.000    0.000    0.000 
#    0.000    0.000    0.000    0.000    0.000    0.000 
#
# Total GULP energy -178551.984150 kJ/mol
# GULP energy per Si atom -5579.749505 kJ/mol
# Density = 1.727319 g / cm^3
# Si number density = 17.312592 Si / 1000 Ang^3
#
#
#
# Elastic Constant Matrix: (Units=GPa)
#
#
# Indices 1 2 3 4 5 6 
#
# 1 170.4770 48.3180 76.7876 0.0000 18.1340 0.0000
# 2 48.3180 39.1113 54.7651 0.0000 6.2964 0.0000
# 3 76.7876 54.7651 153.3082 0.0000 16.6719 0.0000
# 4 0.0000 0.0000 0.0000 28.8378 0.0000 4.0858
# 5 18.1340 6.2964 16.6719 0.0000 8.5398 0.0000
# 6 0.0000 0.0000 0.0000 4.0858 0.0000 28.7386
#
#
#
# Elastic Compliance Matrix: (Units=1/GPa)
#
#
# Indices 1 2 3 4 5 6 
#
# 1 0.010363 -0.010820 0.000254 0.000000 -0.014524 0.000000
# 2 -0.010820 0.062499 -0.018273 0.000000 0.012571 0.000000
# 3 0.000254 -0.018273 0.014621 0.000000 -0.015610 0.000000
# 4 0.000000 0.000000 0.000000 0.035390 0.000000 -0.005031
# 5 -0.014524 0.012571 -0.015610 0.000000 0.169147 0.000000
# 6 0.000000 0.000000 0.000000 -0.005031 0.000000 0.035512
#
#
# Mechanical properties :
#
#
# Convention : Reuss Voigt Hill
#
# Bulk Modulus (GPa) = 33.55306 80.29310 56.92308
# Shear Modulus (GPa) = 12.65359 25.42496 19.03928
#
# Velocity S-wave (km/s) = 2.70643 3.83637 3.31982
# Velocity P-wave (km/s) = 5.40270 8.13036 6.90260
#
# Compressibility (1/GPa) = 0.02980354
#
# Stress axis : x y z
#
# Youngs Moduli (GPa) = 96.49546 16.00032 68.39579
#
# Poissons Ratio (x) = 0.17313 -0.01738
# Poissons Ratio (y) = 1.04410 1.24983
# Poissons Ratio (z) = -0.02452 0.29238
#
# Static dielectric constant tensor:
#      x y z
#    x 1.569860 0.000000 -0.008040 
#    y 0.000000 1.577950 0.000000 
#    z -0.008040 0.000000 1.564240 
# 
# From -- ./inp_files/375116.got.cif
#   From: 2010.05.17/outbox.cif.g08.bks.cpg/sg12_188_cif.got.tgz:375116.got - 2010.06.03 13:09:07.
