data_PCOD9191601
_publ_section_title
;
Structure prediction by ZEFSAII (Michael W. Deem and Ramdas Pophale) SiO2 
 PCOD9191601
Probable space group: C 2/M
;
_chemical_formula_sum "Si O2"
_cell_formula_units_Z 56
_cell_length_a 23.673611
_cell_length_b 8.500176
_cell_length_c 14.726328
_cell_angle_alpha 90.000000
_cell_angle_beta 123.196703
_cell_angle_gamma 90.000000
_cell_volume 2479.741424
_symmetry_space_group_name_H-M "C 2/M"
_symmetry_group_IT_number 12
_symmetry_cell_setting 'monoclinic'
loop_
_space_group_symop_operation_xyz
x,y,z
-x,y,-z
-x,-y,-z
x,-y,z
1/2+x,1/2+y,z
1/2-x,1/2+y,-z
1/2-x,1/2-y,-z
1/2+x,1/2-y,z
loop_
_atom_site_type_symbol
_atom_site_label
_atom_site_fract_x
_atom_site_fract_y
_atom_site_fract_z
Si Si1 0.821950 0.691134 0.601312
Si Si2 0.342106 0.170433 0.030726
Si Si3 0.051265 0.686792 0.407432
Si Si4 0.272293 0.822490 0.163727
Si Si5 0.462300 0.678077 0.079464
Si Si6 0.088126 0.311575 0.651444
Si Si7 0.905203 0.315753 0.841732
O O1 0.820727 0.500000 0.597345
O O2 0.750000 0.750000 0.500000
O O3 0.885783 0.747621 0.596088
O O4 0.843021 0.736752 0.723419
O O5 0.292929 0.215512 0.904781
O O6 0.373829 0.000000 0.043122
O O7 0.299817 0.161518 0.085114
O O8 0.400351 0.296821 0.092048
O O9 0.046353 0.500000 0.382625
O O10 0.070932 0.701514 0.530684
O O11 0.974055 0.750133 0.342022
O O12 0.336375 0.748894 0.269766
O O13 0.255655 0.000000 0.181950
O O14 0.485986 0.500000 0.099122
O O15 0.525432 0.789741 0.154592
O O16 0.427029 0.724080 0.952048
O O17 0.093811 0.500000 0.677182
O O18 0.897970 0.500000 0.854755
#
# Coordination Sequence:
#
# PCOD9191601 Si02
#       7
#     8   8   8   8   8   8   8
#     4  10  22  37  57  83 116 151 188 227 276 336
#     4  10  20  33  50  75 111 146 178 221 271 330
#     4   8  15  29  50  79 107 134 172 221 268 317
#     4   9  18  31  50  77 108 143 181 220 265 323
#     4  11  22  37  58  82 108 142 188 239 285 337
#     4   8  14  27  51  79 105 133 175 223 267 315
#     4  10  21  38  58  82 111 145 185 230 284 341
#
# _framework density 22.582999999999998
#
# number of rings (size 3 to 8) (size 9 to 14) (size 15 to 20)
#    0.000    2.571    0.000    3.857    2.000    2.857 
#    0.000    1.429    0.000    0.000    0.000    2.000 
#    0.000    0.000    0.000    0.000    0.000    0.000 
#
# Total GULP energy -156053.189887 kJ/mol
# GULP energy per Si atom -5573.328210 kJ/mol
# Density = 2.253160 g / cm^3
# Si number density = 22.583000 Si / 1000 Ang^3
#
#
#
# Elastic Constant Matrix: (Units=GPa)
#
#
# Indices 1 2 3 4 5 6 
#
# 1 45.5225 -1.7267 6.6199 0.0000 2.2505 0.0000
# 2 -1.7267 31.4801 10.6988 0.0000 -5.3827 0.0000
# 3 6.6199 10.6988 129.0958 0.0000 18.4398 0.0000
# 4 0.0000 0.0000 0.0000 22.2707 0.0000 7.6749
# 5 2.2505 -5.3827 18.4398 0.0000 17.3651 0.0000
# 6 0.0000 0.0000 0.0000 7.6749 0.0000 18.8929
#
#
#
# Elastic Compliance Matrix: (Units=1/GPa)
#
#
# Indices 1 2 3 4 5 6 
#
# 1 0.022239 0.001352 -0.001062 0.000000 -0.001336 0.000000
# 2 0.001352 0.036644 -0.005545 0.000000 0.017071 0.000000
# 3 -0.001062 -0.005545 0.010003 0.000000 -0.012203 0.000000
# 4 0.000000 0.000000 0.000000 0.052211 0.000000 -0.021210
# 5 -0.001336 0.017071 -0.012203 0.000000 0.076010 0.000000
# 6 0.000000 0.000000 0.000000 -0.021210 0.000000 0.061546
#
#
# Mechanical properties :
#
#
# Convention : Reuss Voigt Hill
#
# Bulk Modulus (GPa) = 17.12982 26.36472 21.74727
# Shear Modulus (GPa) = 17.32381 24.40618 20.86499
#
# Velocity S-wave (km/s) = 2.77269 3.29102 3.04291
# Velocity P-wave (km/s) = 4.22518 5.11282 4.69005
#
# Compressibility (1/GPa) = 0.05837773
#
# Stress axis : x y z
#
# Youngs Moduli (GPa) = 44.96631 27.28990 99.96756
#
# Poissons Ratio (x) = -0.03690 0.10613
# Poissons Ratio (y) = -0.06081 0.55428
# Poissons Ratio (z) = 0.04774 0.15131
#
# Static dielectric constant tensor:
#      x y z
#    x 1.937310 0.000000 -0.026170 
#    y 0.000000 1.805340 0.000000 
#    z -0.026170 0.000000 1.877540 
# 
# From -- ./inp_files/291950.got.cif
#   From: 2010.05.17/outbox.cif.g08.bks.cpg/sg12_146_cif.got.tgz:291950.got - 2010.06.03 13:09:07.
