data_PCOD9191849
_publ_section_title
;
Structure prediction by ZEFSAII (Michael W. Deem and Ramdas Pophale) SiO2 
 PCOD9191849
Probable space group: C 2/M
;
_chemical_formula_sum "Si O2"
_cell_formula_units_Z 44
_cell_length_a 15.459044
_cell_length_b 26.793494
_cell_length_c 7.504844
_cell_angle_alpha 90.000000
_cell_angle_beta 143.178996
_cell_angle_gamma 90.000000
_cell_volume 1862.989132
_symmetry_space_group_name_H-M "C 2/M"
_symmetry_group_IT_number 12
_symmetry_cell_setting 'monoclinic'
loop_
_space_group_symop_operation_xyz
x,y,z
-x,y,-z
-x,-y,-z
x,-y,z
1/2+x,1/2+y,z
1/2-x,1/2+y,-z
1/2-x,1/2-y,-z
1/2+x,1/2-y,z
loop_
_atom_site_type_symbol
_atom_site_label
_atom_site_fract_x
_atom_site_fract_y
_atom_site_fract_z
Si Si1 0.712460 0.647670 0.337689
Si Si2 0.652002 0.054562 0.489390
Si Si3 0.500000 0.184858 0.000000
Si Si4 0.206155 0.253118 0.130738
Si Si5 0.318441 0.944324 0.894204
Si Si6 0.619643 0.350709 0.546452
O O1 0.748122 0.599378 0.278691
O O2 0.866410 0.654463 0.700502
O O3 0.699260 0.699209 0.210017
O O4 0.594408 0.636674 0.296903
O O5 0.672569 0.052962 0.307561
O O6 0.691396 0.000000 0.624892
O O7 0.481154 0.062141 0.235313
O O8 0.442325 0.219403 0.064434
O O9 0.320412 0.294484 0.384299
O O10 0.250000 0.250000 0.000000
O O11 0.226590 0.895085 0.786122
O O12 0.266128 0.000000 0.863416
O O13 0.500000 0.347645 0.500000
#
# Coordination Sequence:
#
# PCOD9191849 Si02
#       6
#     8   8   4   8   8   8
#     4  10  20  36  56  83 116 150 191 241 289 340
#     4   8  13  26  53  81 108 143 187 234 283 337
#     4  10  20  38  57  80 115 148 190 238 288 336
#     4  11  25  36  57  80 111 157 194 238 290 342
#     4   8  14  27  49  81 113 145 183 231 287 338
#     4  10  20  33  51  79 114 148 193 236 286 344
#
# _framework density 23.617958000000002
#
# number of rings (size 3 to 8) (size 9 to 14) (size 15 to 20)
#    0.000    2.545    0.000    6.545    5.091    0.364 
#    0.000    0.000    0.000    1.091    0.000    4.455 
#    0.000    0.000    0.000    0.000    0.000    0.182 
#
# Total GULP energy -122717.081732 kJ/mol
# GULP energy per Si atom -5578.049170 kJ/mol
# Density = 2.356420 g / cm^3
# Si number density = 23.617958 Si / 1000 Ang^3
#
#
#
# Elastic Constant Matrix: (Units=GPa)
#
#
# Indices 1 2 3 4 5 6 
#
# 1 132.8168 52.2115 25.2979 0.0000 13.7076 0.0000
# 2 52.2115 211.8248 22.8024 0.0000 21.7462 0.0000
# 3 25.2979 22.8024 18.1982 0.0000 -4.1693 0.0000
# 4 0.0000 0.0000 0.0000 30.3922 0.0000 20.6852
# 5 13.7076 21.7462 -4.1693 0.0000 28.9571 0.0000
# 6 0.0000 0.0000 0.0000 20.6852 0.0000 9.4005
#
#
#
# Elastic Compliance Matrix: (Units=1/GPa)
#
#
# Indices 1 2 3 4 5 6 
#
# 1 0.011898 -0.000131 -0.018246 0.000000 -0.008161 0.000000
# 2 -0.000131 0.006360 -0.009170 0.000000 -0.006034 0.000000
# 3 -0.018246 -0.009170 0.098614 0.000000 0.029722 0.000000
# 4 0.000000 0.000000 0.000000 -0.066119 0.000000 0.145490
# 5 -0.008161 -0.006034 0.029722 0.000000 0.047208 0.000000
# 6 0.000000 0.000000 0.000000 0.145490 0.000000 -0.213764
#
#
# Mechanical properties :
#
#
# Convention : Reuss Voigt Hill
#
# Bulk Modulus (GPa) = 16.18667 62.60705 39.39686
# Shear Modulus (GPa) = -124.63681 31.25181 -46.69250
#
# Velocity S-wave (km/s) = -7.27232 3.64156 -4.45116
# Velocity P-wave (km/s) = 7.97791 6.65185 3.11448
#
# Compressibility (1/GPa) = 0.06177925
#
# Stress axis : x y z
#
# Youngs Moduli (GPa) = 84.04600 157.24074 10.14054
#
# Poissons Ratio (x) = 0.02055 0.18503
# Poissons Ratio (y) = 0.01099 0.09298
# Poissons Ratio (z) = 1.53352 1.44182
#
# Static dielectric constant tensor:
#      x y z
#    x 1.816880 0.000000 0.129130 
#    y 0.000000 1.974700 0.000000 
#    z 0.129130 0.000000 1.857530 
# 
# From -- ./inp_files/67204.got.cif
#   From: 2010.05.17/outbox.cif.g08.bks.cpg/sg12_34_cif.got.tgz:67204.got - 2010.06.03 13:09:07.
