data_PCOD9191916
_publ_section_title
;
Structure prediction by ZEFSAII (Michael W. Deem and Ramdas Pophale) SiO2 
 PCOD9191916
Probable space group: C 2/M
;
_chemical_formula_sum "Si O2"
_cell_formula_units_Z 64
_cell_length_a 25.168142
_cell_length_b 11.171262
_cell_length_c 13.056849
_cell_angle_alpha 90.000000
_cell_angle_beta 62.584354
_cell_angle_gamma 90.000000
_cell_volume 3258.764280
_symmetry_space_group_name_H-M "C 2/M"
_symmetry_group_IT_number 12
_symmetry_cell_setting 'monoclinic'
loop_
_space_group_symop_operation_xyz
x,y,z
-x,y,-z
-x,-y,-z
x,-y,z
1/2+x,1/2+y,z
1/2-x,1/2+y,-z
1/2-x,1/2-y,-z
1/2+x,1/2-y,z
loop_
_atom_site_type_symbol
_atom_site_label
_atom_site_fract_x
_atom_site_fract_y
_atom_site_fract_z
Si Si1 0.138267 0.634297 0.206396
Si Si2 0.460817 0.356795 0.442209
Si Si3 0.433453 0.239004 0.029285
Si Si4 0.059433 0.142305 0.196648
Si Si5 0.671142 0.644460 0.481456
Si Si6 0.644870 0.632274 0.733000
Si Si7 0.314550 0.871211 0.056753
Si Si8 0.239559 0.703164 0.262098
O O1 0.108441 0.500000 0.233011
O O2 0.099269 0.755359 0.219660
O O3 0.180272 0.644592 0.268241
O O4 0.180959 0.633332 0.068827
O O5 0.500000 0.305777 0.500000
O O6 0.458618 0.500000 0.457284
O O7 0.494130 0.338107 0.304942
O O8 0.392904 0.318247 0.507951
O O9 0.403089 0.298554 0.155800
O O10 0.382693 0.146601 0.036381
O O11 0.500000 0.196246 0.000000
O O12 0.438838 0.328169 0.925966
O O13 0.075471 0.000000 0.199608
O O14 0.678408 0.500000 0.472048
O O15 0.664306 0.682663 0.605730
O O16 0.720825 0.707898 0.370016
O O17 0.620056 0.500000 0.735087
O O18 0.706278 0.625485 0.742388
O O19 0.271160 0.774472 0.142262
O O20 0.291983 0.000000 0.110639
#
# Coordination Sequence:
#
# PCOD9191916 Si02
#       8
#     8   8   8   8   8   8   8   8
#     4  10  21  37  56  80 113 147 179 224 284 337
#     4   9  17  30  49  76 107 135 170 220 271 315
#     4  10  20  34  55  82 111 143 178 223 278 332
#     4  10  20  34  56  85 113 144 186 230 272 327
#     4  10  20  33  52  77 105 139 177 225 277 321
#     4  10  21  35  50  73 106 139 175 224 279 326
#     4   9  20  36  53  79 111 143 181 226 272 326
#     4  11  20  34  55  76 101 141 188 228 266 326
#
# _framework density 19.639344999999999
#
# number of rings (size 3 to 8) (size 9 to 14) (size 15 to 20)
#    0.000    2.125    0.000    3.375    0.000    4.250 
#    0.000    3.125    0.000    4.875    0.000    0.000 
#    0.000    0.000    0.000    0.000    0.000    0.000 
#
# Total GULP energy -178187.796275 kJ/mol
# GULP energy per Si atom -5568.368634 kJ/mol
# Density = 1.959464 g / cm^3
# Si number density = 19.639345 Si / 1000 Ang^3
#
#
#
# Elastic Constant Matrix: (Units=GPa)
#
#
# Indices 1 2 3 4 5 6 
#
# 1 65.0539 13.6882 7.7807 0.0000 0.4744 0.0000
# 2 13.6882 67.3808 12.8389 0.0000 -5.2877 0.0000
# 3 7.7807 12.8389 83.6442 0.0000 -1.2495 0.0000
# 4 0.0000 0.0000 0.0000 -0.5744 0.0000 16.1665
# 5 0.4744 -5.2877 -1.2495 0.0000 29.1745 0.0000
# 6 0.0000 0.0000 0.0000 16.1665 0.0000 -16.1906
#
#
#
# Elastic Compliance Matrix: (Units=1/GPa)
#
#
# Indices 1 2 3 4 5 6 
#
# 1 0.016166 -0.003156 -0.001032 0.000000 -0.000879 0.000000
# 2 -0.003156 0.016115 -0.002137 0.000000 0.002881 0.000000
# 3 -0.001032 -0.002137 0.012382 0.000000 0.000160 0.000000
# 4 0.000000 0.000000 0.000000 0.064234 0.000000 0.064139
# 5 -0.000879 0.002881 0.000160 0.000000 0.034820 0.000000
# 6 0.000000 0.000000 0.000000 0.064139 0.000000 0.002279
#
#
# Mechanical properties :
#
#
# Convention : Reuss Voigt Hill
#
# Bulk Modulus (GPa) = 31.23856 31.63271 31.43564
# Shear Modulus (GPa) = 29.53017 14.59996 22.06506
#
# Velocity S-wave (km/s) = 3.88186 2.72950 3.35552
# Velocity P-wave (km/s) = 6.00271 5.10640 5.57260
#
# Compressibility (1/GPa) = 0.03201172
#
# Stress axis : x y z
#
# Youngs Moduli (GPa) = 61.85863 62.05221 80.76337
#
# Poissons Ratio (x) = 0.19586 0.08338
# Poissons Ratio (y) = 0.19525 0.17259
# Poissons Ratio (z) = 0.06386 0.13261
#
# Static dielectric constant tensor:
#      x y z
#    x 1.716080 0.000000 0.035840 
#    y 0.000000 1.693680 0.000000 
#    z 0.035840 0.000000 1.677840 
# 
# From -- ./inp_files/175277.got.cif
#   From: 2010.05.17/outbox.cif.g08.bks.cpg/sg12_88_cif.got.tgz:175277.got - 2010.06.03 13:09:07.
