data_PCOD9191565
_publ_section_title
;
Structure prediction by ZEFSAII (Michael W. Deem and Ramdas Pophale) SiO2 
 PCOD9191565
Probable space group: C 2/M
;
_chemical_formula_sum "Si O2"
_cell_formula_units_Z 56
_cell_length_a 27.338236
_cell_length_b 13.767816
_cell_length_c 8.922833
_cell_angle_alpha 90.000000
_cell_angle_beta 70.950417
_cell_angle_gamma 90.000000
_cell_volume 3174.525209
_symmetry_space_group_name_H-M "C 2/M"
_symmetry_group_IT_number 12
_symmetry_cell_setting 'monoclinic'
loop_
_space_group_symop_operation_xyz
x,y,z
-x,y,-z
-x,-y,-z
x,-y,z
1/2+x,1/2+y,z
1/2-x,1/2+y,-z
1/2-x,1/2-y,-z
1/2+x,1/2-y,z
loop_
_atom_site_type_symbol
_atom_site_label
_atom_site_fract_x
_atom_site_fract_y
_atom_site_fract_z
Si Si1 0.621251 0.750000 0.128749
Si Si2 0.940976 0.114223 0.032708
Si Si3 0.655208 0.111068 0.518459
Si Si4 0.309705 0.802581 0.209602
Si Si5 0.155208 0.888932 0.671126
Si Si6 0.559024 0.114223 0.414659
Si Si7 0.809705 0.802581 0.670987
O O1 0.586089 0.822843 0.259507
O O2 0.657866 0.693671 0.209465
O O3 0.586089 0.677157 0.068314
O O4 0.657866 0.806329 0.974804
O O5 0.904201 0.124232 0.215812
O O6 0.941138 0.000000 0.992633
O O7 0.000000 0.144642 0.000000
O O8 0.664783 0.135379 0.682266
O O9 0.595799 0.124232 0.524214
O O10 0.686623 0.191112 0.392570
O O11 0.670049 0.000000 0.471496
O O12 0.313377 0.691112 0.265816
O O13 0.250000 0.829741 0.249916
O O14 0.164783 0.864621 0.488168
O O15 0.170049 0.000000 0.688406
O O16 0.500000 0.144642 0.500000
O O17 0.558862 0.000000 0.374908
#
# Coordination Sequence:
#
# PCOD9191565 Si02
#       7
#     8   8   8   8   8   8   8
#     4  10  21  34  52  76 104 132 165 208 256 302
#     4   9  19  36  55  75 102 134 167 207 253 299
#     4   9  18  33  52  74 100 132 171 207 243 296
#     4  10  20  33  50  74 103 134 168 207 250 296
#     4   9  18  33  52  74 100 132 171 207 243 296
#     4   9  19  36  55  75 102 134 167 207 253 299
#     4  10  20  33  50  74 103 134 168 207 250 296
#
# _framework density 17.640433000000002
#
# number of rings (size 3 to 8) (size 9 to 14) (size 15 to 20)
#    0.000    2.571    0.000    2.143    0.000    8.000 
#    0.000    0.000    0.000   11.143    0.000    0.000 
#    0.000    0.000    0.000    0.000    0.000    0.000 
#
# Total GULP energy -156105.576712 kJ/mol
# GULP energy per Si atom -5575.199168 kJ/mol
# Density = 1.760028 g / cm^3
# Si number density = 17.640433 Si / 1000 Ang^3
#
#
#
# Elastic Constant Matrix: (Units=GPa)
#
#
# Indices 1 2 3 4 5 6 
#
# 1 139.1668 30.2937 86.8775 0.0000 -14.4597 0.0000
# 2 30.2937 52.1668 22.6734 0.0000 -4.0642 0.0000
# 3 86.8775 22.6734 109.8941 0.0000 -1.1534 0.0000
# 4 0.0000 0.0000 0.0000 14.1116 0.0000 -2.4780
# 5 -14.4597 -4.0642 -1.1534 0.0000 19.6860 0.0000
# 6 0.0000 0.0000 0.0000 -2.4780 0.0000 18.7580
#
#
#
# Elastic Compliance Matrix: (Units=1/GPa)
#
#
# Indices 1 2 3 4 5 6 
#
# 1 0.016912 -0.003522 -0.012528 0.000000 0.010961 0.000000
# 2 -0.003522 0.022126 -0.001761 0.000000 0.001878 0.000000
# 3 -0.012528 -0.001761 0.019279 0.000000 -0.008436 0.000000
# 4 0.000000 0.000000 0.000000 0.072546 0.000000 0.009584
# 5 0.010961 0.001878 -0.008436 0.000000 0.058742 0.000000
# 6 0.000000 0.000000 0.000000 0.009584 0.000000 0.054577
#
#
# Mechanical properties :
#
#
# Convention : Reuss Voigt Hill
#
# Bulk Modulus (GPa) = 44.06350 64.54632 54.30491
# Shear Modulus (GPa) = 17.39917 21.27000 19.33459
#
# Velocity S-wave (km/s) = 3.14399 3.47616 3.31424
# Velocity P-wave (km/s) = 6.18162 7.26505 6.74513
#
# Compressibility (1/GPa) = 0.02269452
#
# Stress axis : x y z
#
# Youngs Moduli (GPa) = 59.12876 45.19526 51.87023
#
# Poissons Ratio (x) = 0.15917 0.64985
# Poissons Ratio (y) = 0.20824 0.09135
# Poissons Ratio (z) = 0.74079 0.07959
#
# Static dielectric constant tensor:
#      x y z
#    x 1.594520 0.000000 -0.004660 
#    y 0.000000 1.604340 0.000000 
#    z -0.004660 0.000000 1.585800 
# 
# From -- ./inp_files/111088.got.cif
#   From: 2010.05.17/outbox.cif.g08.bks.cpg/sg12_56_cif.got.tgz:111088.got - 2010.06.03 13:09:07.
