data_PCOD9191900
_publ_section_title
;
Structure prediction by ZEFSAII (Michael W. Deem and Ramdas Pophale) SiO2 
 PCOD9191900
Probable space group: C 2/M
;
_chemical_formula_sum "Si O2"
_cell_formula_units_Z 64
_cell_length_a 15.058162
_cell_length_b 7.369267
_cell_length_c 24.943331
_cell_angle_alpha 90.000000
_cell_angle_beta 76.204062
_cell_angle_gamma 90.000000
_cell_volume 2688.051301
_symmetry_space_group_name_H-M "C 2/M"
_symmetry_group_IT_number 12
_symmetry_cell_setting 'monoclinic'
loop_
_space_group_symop_operation_xyz
x,y,z
-x,y,-z
-x,-y,-z
x,-y,z
1/2+x,1/2+y,z
1/2-x,1/2+y,-z
1/2-x,1/2-y,-z
1/2+x,1/2-y,z
loop_
_atom_site_type_symbol
_atom_site_label
_atom_site_fract_x
_atom_site_fract_y
_atom_site_fract_z
Si Si1 0.987453 0.721912 0.940939
Si Si2 0.261674 0.721404 0.730259
Si Si3 0.539909 0.777877 0.641443
Si Si4 0.953713 0.706408 0.757574
Si Si5 0.239114 0.717255 0.610558
Si Si6 0.564323 0.786483 0.444296
Si Si7 0.351239 0.780345 0.874369
Si Si8 0.341292 0.788972 0.152172
O O1 0.989290 0.500000 0.941421
O O2 0.072421 0.785698 0.892260
O O3 0.892741 0.773581 0.925468
O O4 0.000000 0.782472 0.000000
O O5 0.264410 0.500000 0.731189
O O6 0.358216 0.791992 0.738469
O O7 0.248341 0.779090 0.671079
O O8 0.186594 0.782226 0.785003
O O9 0.523102 0.712636 0.704450
O O10 0.639356 0.725146 0.605695
O O11 0.464501 0.714221 0.609990
O O12 0.536148 0.000000 0.645688
O O13 0.984180 0.500000 0.764007
O O14 0.923620 0.785497 0.818696
O O15 0.238719 0.500000 0.611892
O O16 0.327659 0.769692 0.564208
O O17 0.500000 0.710050 0.500000
O O18 0.543791 0.000000 0.444665
O O19 0.250369 0.721998 0.871110
O O20 0.350168 0.000000 0.871614
O O21 0.362211 0.000000 0.157679
#
# Coordination Sequence:
#
# PCOD9191900 Si02
#       8
#     8   8   8   8   8   8   8   8
#     4   9  18  32  50  73 101 134 172 208 245 297
#     4   9  17  29  48  74 102 127 159 204 253 299
#     4   9  18  32  51  75 101 130 163 201 247 294
#     4   9  16  29  51  73  98 131 166 202 245 297
#     4  10  20  33  52  77 102 129 164 207 252 295
#     4  10  21  38  56  73 100 137 171 203 243 296
#     4   9  18  31  50  75  99 128 169 210 246 292
#     4   9  18  32  50  72 100 132 164 204 254 299
#
# _framework density 23.809070999999999
#
# number of rings (size 3 to 8) (size 9 to 14) (size 15 to 20)
#    0.000    2.750    1.250    0.000    1.750    1.250 
#    0.000    1.875    0.000    0.750    0.000    0.000 
#    0.000    0.000    0.000    0.000    0.000    0.000 
#
# Total GULP energy -178688.795989 kJ/mol
# GULP energy per Si atom -5584.024875 kJ/mol
# Density = 2.375488 g / cm^3
# Si number density = 23.809071 Si / 1000 Ang^3
#
#
#
# Elastic Constant Matrix: (Units=GPa)
#
#
# Indices 1 2 3 4 5 6 
#
# 1 60.4889 -6.9284 5.6068 0.0000 -16.0627 0.0000
# 2 -6.9284 87.6011 5.3399 0.0000 3.9869 0.0000
# 3 5.6068 5.3399 34.8780 0.0000 -20.0722 0.0000
# 4 0.0000 0.0000 0.0000 -4.3678 0.0000 3.0094
# 5 -16.0627 3.9869 -20.0722 0.0000 29.3800 0.0000
# 6 0.0000 0.0000 0.0000 3.0094 0.0000 7.6178
#
#
#
# Elastic Compliance Matrix: (Units=1/GPa)
#
#
# Indices 1 2 3 4 5 6 
#
# 1 0.019897 0.000641 0.004802 0.000000 0.014072 0.000000
# 2 0.000641 0.011927 -0.004382 0.000000 -0.004262 0.000000
# 3 0.004802 -0.004382 0.050135 0.000000 0.037472 0.000000
# 4 0.000000 0.000000 0.000000 -0.179966 0.000000 0.071095
# 5 0.014072 -0.004262 0.037472 0.000000 0.067909 0.000000
# 6 0.000000 0.000000 0.000000 0.071095 0.000000 0.103185
#
#
# Mechanical properties :
#
#
# Convention : Reuss Voigt Hill
#
# Bulk Modulus (GPa) = 11.89342 21.22276 16.55809
# Shear Modulus (GPa) = 50.50802 18.45599 34.48201
#
# Velocity S-wave (km/s) = 4.61084 2.78720 3.80975
# Velocity P-wave (km/s) = 5.77517 4.39216 5.13048
#
# Compressibility (1/GPa) = 0.08408013
#
# Stress axis : x y z
#
# Youngs Moduli (GPa) = 50.25902 83.84259 19.94595
#
# Poissons Ratio (x) = -0.05370 -0.09577
# Poissons Ratio (y) = -0.03219 0.08740
# Poissons Ratio (z) = -0.24132 0.36738
#
# Static dielectric constant tensor:
#      x y z
#    x 1.877920 0.000000 -0.008670 
#    y 0.000000 1.938160 0.000000 
#    z -0.008670 0.000000 1.906690 
# 
# From -- ./inp_files/359750.got.cif
#   From: 2010.05.17/outbox.cif.g08.bks.cpg/sg12_180_cif.got.tgz:359750.got - 2010.06.03 13:09:07.
