data_PCOD9191134
_publ_section_title
;
Structure prediction by ZEFSAII (Michael W. Deem and Ramdas Pophale) SiO2 
 PCOD9191134
Probable space group: C 2/M
;
_chemical_formula_sum "Si O2"
_cell_formula_units_Z 56
_cell_length_a 20.530527
_cell_length_b 19.255400
_cell_length_c 15.022857
_cell_angle_alpha 90.000000
_cell_angle_beta 31.136711
_cell_angle_gamma 90.000000
_cell_volume 3070.891521
_symmetry_space_group_name_H-M "C 2/M"
_symmetry_group_IT_number 12
_symmetry_cell_setting 'monoclinic'
loop_
_space_group_symop_operation_xyz
x,y,z
-x,y,-z
-x,-y,-z
x,-y,z
1/2+x,1/2+y,z
1/2-x,1/2+y,-z
1/2-x,1/2-y,-z
1/2+x,1/2-y,z
loop_
_atom_site_type_symbol
_atom_site_label
_atom_site_fract_x
_atom_site_fract_y
_atom_site_fract_z
Si Si1 0.571896 0.417198 0.102570
Si Si2 0.157702 0.692113 0.916026
Si Si3 0.858747 0.698495 0.265726
Si Si4 0.196127 0.146620 0.613166
Si Si5 0.254169 0.921605 0.725885
Si Si6 0.719636 0.832666 0.033427
Si Si7 0.878249 0.696740 0.677504
O O1 0.558511 0.500000 0.135211
O O2 0.440915 0.376261 0.261573
O O3 0.632259 0.410012 0.932682
O O4 0.670727 0.380018 0.053279
O O5 0.171555 0.669023 0.797205
O O6 0.252163 0.757512 0.814100
O O7 0.191145 0.647798 0.965022
O O8 0.009204 0.706825 0.099429
O O9 0.807394 0.776915 0.337610
O O10 0.795544 0.652829 0.416828
O O11 0.226186 0.093199 0.656376
O O12 0.357814 0.868414 0.638161
O O13 0.294054 0.000000 0.693834
O O14 0.610080 0.832161 0.235820
O O15 0.750000 0.750000 0.000000
O O16 0.000000 0.737001 0.500000
#
# Coordination Sequence:
#
# PCOD9191134 Si02
#       7
#     8   8   8   8   8   8   8
#     4  10  21  37  60  90 121 154 192 236 300 366
#     4  10  20  37  53  80 114 151 187 240 293 336
#     4  10  22  33  56  82 113 147 195 246 289 339
#     4  11  20  33  56  85 114 147 193 240 290 344
#     4  10  20  34  53  82 119 155 181 224 293 358
#     4   9  19  34  56  81 116 156 188 233 293 343
#     4  10  20  32  54  81 115 145 189 234 284 350
#
# _framework density 18.235748000000001
#
# number of rings (size 3 to 8) (size 9 to 14) (size 15 to 20)
#    0.000    2.000    1.429    3.429    4.000    3.714 
#    0.000    0.000    0.000    2.571    0.000    5.000 
#    0.000    0.000    0.000    0.000    0.000    0.000 
#
# Total GULP energy -155900.959770 kJ/mol
# GULP energy per Si atom -5567.891420 kJ/mol
# Density = 1.819424 g / cm^3
# Si number density = 18.235748 Si / 1000 Ang^3
#
#
#
# Elastic Constant Matrix: (Units=GPa)
#
#
# Indices 1 2 3 4 5 6 
#
# 1 113.0942 16.4954 60.3940 0.0000 28.5399 0.0000
# 2 16.4954 40.1690 23.9405 0.0000 0.4162 0.0000
# 3 60.3940 23.9405 112.1417 0.0001 14.3534 0.0000
# 4 0.0000 0.0000 0.0001 13.5104 0.0000 5.2530
# 5 28.5399 0.4162 14.3534 0.0000 18.8740 0.0000
# 6 0.0000 0.0000 0.0000 5.2530 0.0000 20.3091
#
#
#
# Elastic Compliance Matrix: (Units=1/GPa)
#
#
# Indices 1 2 3 4 5 6 
#
# 1 0.018587 -0.003668 -0.006248 0.000000 -0.023273 0.000000
# 2 -0.003668 0.029587 -0.005503 0.000000 0.009079 0.000000
# 3 -0.006248 -0.005503 0.013551 0.000000 -0.000736 0.000000
# 4 0.000000 0.000000 0.000000 0.082293 0.000000 -0.021285
# 5 -0.023273 0.009079 -0.000736 0.000000 0.088535 0.000000
# 6 0.000000 0.000000 0.000000 -0.021285 0.000000 0.054744
#
#
# Mechanical properties :
#
#
# Convention : Reuss Voigt Hill
#
# Bulk Modulus (GPa) = 32.37603 51.89609 42.13606
# Shear Modulus (GPa) = 15.22392 21.51037 18.36715
#
# Velocity S-wave (km/s) = 2.89249 3.43822 3.17709
# Velocity P-wave (km/s) = 5.38034 6.65447 6.05103
#
# Compressibility (1/GPa) = 0.03088704
#
# Stress axis : x y z
#
# Youngs Moduli (GPa) = 53.80142 33.79896 73.79376
#
# Poissons Ratio (x) = 0.12396 0.46107
# Poissons Ratio (y) = 0.19733 0.40609
# Poissons Ratio (z) = 0.33616 0.18600
#
# Static dielectric constant tensor:
#      x y z
#    x 2.950310 0.000000 2.513000 
#    y 0.000000 1.600840 0.000000 
#    z 2.513000 0.000000 6.559000 
# 
# From -- ./inp_files/216305.got.cif
#   From: 2010.05.17/outbox.cif.g08.bks.cpg/sg12_109_cif.got.tgz:216305.got - 2010.06.03 13:09:07.
