data_PCOD9191855
_publ_section_title
;
Structure prediction by ZEFSAII (Michael W. Deem and Ramdas Pophale) SiO2 
 PCOD9191855
Probable space group: C 2/M
;
_chemical_formula_sum "Si O2"
_cell_formula_units_Z 40
_cell_length_a 14.004776
_cell_length_b 13.659928
_cell_length_c 9.862722
_cell_angle_alpha 90.000000
_cell_angle_beta 117.426868
_cell_angle_gamma 90.000000
_cell_volume 1674.705358
_symmetry_space_group_name_H-M "C 2/M"
_symmetry_group_IT_number 12
_symmetry_cell_setting 'monoclinic'
loop_
_space_group_symop_operation_xyz
x,y,z
-x,y,-z
-x,-y,-z
x,-y,z
1/2+x,1/2+y,z
1/2-x,1/2+y,-z
1/2-x,1/2-y,-z
1/2+x,1/2-y,z
loop_
_atom_site_type_symbol
_atom_site_label
_atom_site_fract_x
_atom_site_fract_y
_atom_site_fract_z
Si Si1 0.379527 0.702255 0.272998
Si Si2 0.457573 0.881813 0.764745
Si Si3 0.829474 0.617939 0.944589
Si Si4 0.673075 0.114280 0.590220
Si Si5 0.897841 0.114657 0.584782
O O1 0.287876 0.662225 0.114500
O O2 0.351255 0.810048 0.308161
O O3 0.374775 0.640371 0.412664
O O4 0.499866 0.678122 0.301992
O O5 0.370941 0.852010 0.821710
O O6 0.412096 0.865225 0.585501
O O7 0.462420 0.000000 0.778354
O O8 0.574280 0.849123 0.894113
O O9 0.821474 0.500000 0.945260
O O10 0.790660 0.130931 0.602355
O O11 0.663658 0.000000 0.624715
O O12 0.924952 0.000000 0.612184
#
# Coordination Sequence:
#
# PCOD9191855 Si02
#       5
#     8   8   8   8   8
#     4  11  19  30  54  81 105 139 183 225 269 320
#     4   8  15  27  46  74 107 139 173 218 272 319
#     4   9  15  26  48  78 107 136 174 224 272 316
#     4  10  20  35  54  79 111 144 179 222 269 322
#     4  10  20  33  51  80 114 140 173 227 278 320
#
# _framework density 23.884799000000001
#
# number of rings (size 3 to 8) (size 9 to 14) (size 15 to 20)
#    0.000    2.400    2.000    4.200    0.000    0.000 
#    0.000    2.000    0.000   10.800    0.000    7.000 
#    0.000    0.000    0.000    0.000    0.000    0.000 
#
# Total GULP energy -112007.075035 kJ/mol
# GULP energy per Si atom -5600.353752 kJ/mol
# Density = 2.383044 g / cm^3
# Si number density = 23.884799 Si / 1000 Ang^3
#
#
#
# Elastic Constant Matrix: (Units=GPa)
#
#
# Indices 1 2 3 4 5 6 
#
# 1 123.8387 62.3716 34.5964 0.0000 40.8811 0.0000
# 2 62.3716 135.8668 32.0080 0.0000 20.6654 0.0000
# 3 34.5964 32.0080 74.5062 0.0000 31.6583 0.0000
# 4 0.0000 0.0000 0.0000 14.9262 0.0000 5.5796
# 5 40.8811 20.6654 31.6583 0.0000 56.2320 0.0000
# 6 0.0000 0.0000 0.0000 5.5796 0.0000 33.2256
#
#
#
# Elastic Compliance Matrix: (Units=1/GPa)
#
#
# Indices 1 2 3 4 5 6 
#
# 1 0.013101 -0.004678 -0.000995 0.000000 -0.007245 0.000000
# 2 -0.004678 0.009938 -0.002616 0.000000 0.001221 0.000000
# 3 -0.000995 -0.002616 0.018786 0.000000 -0.008891 0.000000
# 4 0.000000 0.000000 0.000000 0.071484 0.000000 -0.012004
# 5 -0.007245 0.001221 -0.008891 0.000000 0.027607 0.000000
# 6 0.000000 0.000000 0.000000 -0.012004 0.000000 0.032113
#
#
# Mechanical properties :
#
#
# Convention : Reuss Voigt Hill
#
# Bulk Modulus (GPa) = 39.61019 65.79598 52.70309
# Shear Modulus (GPa) = 25.24967 34.55914 29.90441
#
# Velocity S-wave (km/s) = 3.25490 3.80795 3.54224
# Velocity P-wave (km/s) = 5.54488 6.85135 6.23244
#
# Compressibility (1/GPa) = 0.02524603
#
# Stress axis : x y z
#
# Youngs Moduli (GPa) = 76.33241 100.62312 53.23167
#
# Poissons Ratio (x) = 0.47067 0.05298
# Poissons Ratio (y) = 0.35705 0.13927
# Poissons Ratio (z) = 0.07597 0.26327
#
# Static dielectric constant tensor:
#      x y z
#    x 1.924370 0.000000 -0.003840 
#    y 0.000000 1.951070 0.000000 
#    z -0.003840 0.000000 1.849630 
# 
# From -- ./inp_files/129820.got.cif
#   From: 2010.05.17/outbox.cif.g08.bks.cpg/sg12_65_cif.got.tgz:129820.got - 2010.06.03 13:09:07.
