data_PCOD9191558
_publ_section_title
;
Structure prediction by ZEFSAII (Michael W. Deem and Ramdas Pophale) SiO2 
 PCOD9191558
Probable space group: C 2/M
;
_chemical_formula_sum "Si O2"
_cell_formula_units_Z 64
_cell_length_a 23.117504
_cell_length_b 7.511536
_cell_length_c 26.352789
_cell_angle_alpha 90.000000
_cell_angle_beta 138.711237
_cell_angle_gamma 90.000000
_cell_volume 3019.564706
_symmetry_space_group_name_H-M "C 2/M"
_symmetry_group_IT_number 12
_symmetry_cell_setting 'monoclinic'
loop_
_space_group_symop_operation_xyz
x,y,z
-x,y,-z
-x,-y,-z
x,-y,z
1/2+x,1/2+y,z
1/2-x,1/2+y,-z
1/2-x,1/2-y,-z
1/2+x,1/2-y,z
loop_
_atom_site_type_symbol
_atom_site_label
_atom_site_fract_x
_atom_site_fract_y
_atom_site_fract_z
Si Si1 0.522077 0.718305 0.675078
Si Si2 0.221673 0.217670 0.826882
Si Si3 0.685244 0.214869 0.214563
Si Si4 0.692194 0.213768 0.011592
Si Si5 0.502165 0.212269 0.138369
Si Si6 0.037108 0.204643 0.472935
Si Si7 0.414779 0.714020 0.700472
Si Si8 0.231922 0.289624 0.624078
O O1 0.519499 0.500000 0.673525
O O2 0.620836 0.771220 0.753732
O O3 0.494687 0.781531 0.601271
O O4 0.455374 0.778540 0.674771
O O5 0.277318 0.275946 0.814535
O O6 0.222641 0.000000 0.827643
O O7 0.262150 0.278691 0.906786
O O8 0.587621 0.281101 0.164467
O O9 0.748296 0.261908 0.303230
O O10 0.681809 0.000000 0.210720
O O11 0.592971 0.282822 0.939578
O O12 0.686535 0.000000 0.012225
O O13 0.750000 0.250000 0.000000
O O14 0.521934 0.243642 0.210628
O O15 0.500684 0.000000 0.129239
O O16 0.141696 0.206013 0.546581
O O17 0.000000 0.289013 0.500000
O O18 0.004682 0.000000 0.451059
O O19 0.408752 0.500000 0.693974
O O20 0.318086 0.780219 0.651666
O O21 0.224573 0.500000 0.610223
#
# Coordination Sequence:
#
# PCOD9191558 Si02
#       8
#     8   8   8   8   8   8   8   8
#     4   9  17  30  49  72  95 124 166 207 239 282
#     4   9  17  30  51  75  97 126 166 207 244 285
#     4   9  17  32  53  74  98 130 166 203 243 288
#     4  10  20  33  50  74 102 132 166 204 246 291
#     4   9  18  31  49  75 103 128 160 204 248 288
#     4  10  20  34  53  74  96 126 165 206 246 290
#     4   9  18  33  52  72  98 133 166 195 236 293
#     4  10  20  33  50  74 102 130 161 198 243 294
#
# _framework density 21.195108999999999
#
# number of rings (size 3 to 8) (size 9 to 14) (size 15 to 20)
#    0.000    2.625    0.000    1.875    0.000    5.250 
#    0.000    3.750    0.000    3.000    0.000    4.375 
#    0.000    0.000    0.000    0.000    0.000    0.000 
#
# Total GULP energy -178703.355334 kJ/mol
# GULP energy per Si atom -5584.479854 kJ/mol
# Density = 2.114687 g / cm^3
# Si number density = 21.195109 Si / 1000 Ang^3
#
#
#
# Elastic Constant Matrix: (Units=GPa)
#
#
# Indices 1 2 3 4 5 6 
#
# 1 143.0292 -2.5233 83.3081 -0.0005 -26.7418 -0.0001
# 2 -2.5233 57.6154 -7.6809 -0.0059 -0.8927 -0.0021
# 3 83.3081 -7.6809 157.6530 -0.0006 -3.2681 0.0000
# 4 -0.0005 -0.0059 -0.0006 71.5865 0.0000 -10.6277
# 5 -26.7418 -0.8927 -3.2681 0.0000 28.1008 0.0000
# 6 -0.0001 -0.0021 0.0000 -10.6277 0.0000 -0.3961
#
#
#
# Elastic Compliance Matrix: (Units=1/GPa)
#
#
# Indices 1 2 3 4 5 6 
#
# 1 0.013041 -0.000136 -0.006657 0.000000 0.011632 -0.000001
# 2 -0.000136 0.017483 0.000935 -0.000003 0.000535 -0.000027
# 3 -0.006657 0.000935 0.009799 0.000000 -0.005166 -0.000001
# 4 0.000000 -0.000003 0.000000 0.002803 0.000000 -0.075212
# 5 0.011632 0.000535 -0.005166 0.000000 0.046072 -0.000002
# 6 -0.000001 -0.000027 -0.000001 -0.075212 -0.000002 -0.506618
#
#
# Mechanical properties :
#
#
# Convention : Reuss Voigt Hill
#
# Bulk Modulus (GPa) = 34.95577 56.05614 45.50595
# Shear Modulus (GPa) = -12.62096 38.87118 13.12511
#
# Velocity S-wave (km/s) = -2.44286 4.28713 2.49118
# Velocity P-wave (km/s) = 2.92770 7.14221 5.45814
#
# Compressibility (1/GPa) = 0.02860758
#
# Stress axis : x y z
#
# Youngs Moduli (GPa) = 76.67914 57.19707 102.04923
#
# Poissons Ratio (x) = 0.00778 0.67933
# Poissons Ratio (y) = 0.01043 -0.09539
# Poissons Ratio (z) = 0.51045 -0.05347
#
# Static dielectric constant tensor:
#      x y z
#    x 1.752560 0.000000 0.008290 
#    y 0.000000 1.844920 0.000000 
#    z 0.008290 0.000000 1.717950 
# 
# From -- ./inp_files/346874.got.cif
#   From: 2010.05.17/outbox.cif.g08.bks.cpg/sg12_174_cif.got.tgz:346874.got - 2010.06.03 13:09:07.
