data_PCOD9191013
_publ_section_title
;
Structure prediction by ZEFSAII (Michael W. Deem and Ramdas Pophale) SiO2 
 PCOD9191013
Probable space group: C 2/M
;
_chemical_formula_sum "Si O2"
_cell_formula_units_Z 44
_cell_length_a 12.284785
_cell_length_b 25.887822
_cell_length_c 15.835402
_cell_angle_alpha 90.000000
_cell_angle_beta 149.654504
_cell_angle_gamma 90.000000
_cell_volume 2544.290671
_symmetry_space_group_name_H-M "C 2/M"
_symmetry_group_IT_number 12
_symmetry_cell_setting 'monoclinic'
loop_
_space_group_symop_operation_xyz
x,y,z
-x,y,-z
-x,-y,-z
x,-y,z
1/2+x,1/2+y,z
1/2-x,1/2+y,-z
1/2-x,1/2-y,-z
1/2+x,1/2-y,z
loop_
_atom_site_type_symbol
_atom_site_label
_atom_site_fract_x
_atom_site_fract_y
_atom_site_fract_z
Si Si1 0.000000 0.915661 0.500000
Si Si2 0.852829 0.685427 0.482087
Si Si3 0.476609 0.775981 0.739798
Si Si4 0.981224 0.109640 0.293607
Si Si5 0.647994 0.191177 0.022551
Si Si6 0.652285 0.000000 0.230177
Si Si7 0.815872 0.000000 0.147093
O O1 0.999136 0.887905 0.590797
O O2 0.783019 0.951104 0.355111
O O3 0.737506 0.741354 0.392838
O O4 0.975722 0.692251 0.652935
O O5 0.671779 0.642136 0.377749
O O6 0.000000 0.674426 0.500000
O O7 0.665112 0.733552 0.861422
O O8 0.516155 0.810658 0.847863
O O9 0.758804 0.137598 0.120178
O O10 0.959841 0.051658 0.244023
O O11 0.500000 0.208175 0.000000
O O12 0.716387 0.000000 0.174638
O O13 0.391171 0.000000 0.054980
#
# Coordination Sequence:
#
# PCOD9191013 Si02
#       7
#     4   8   8   8   8   4   4
#     4   9  18  32  48  82 108 132 182 220 264 331
#     4  10  20  37  56  77 106 146 184 223 270 317
#     4   9  20  36  53  77 105 142 181 221 272 317
#     4  10  22  32  52  81 109 142 183 221 272 323
#     4  10  20  32  51  81 108 137 175 221 272 328
#     4   8  16  30  54  69 104 150 165 217 283 306
#     4   9  18  34  49  75 111 140 177 222 272 326
#
# _framework density 17.293621000000002
#
# number of rings (size 3 to 8) (size 9 to 14) (size 15 to 20)
#    0.000    2.545    0.000    1.636    7.636    0.000 
#    3.273    0.455    0.000    0.000    0.000    2.545 
#    0.000    0.000    0.000    0.000    0.000    0.000 
#
# Total GULP energy -122575.124297 kJ/mol
# GULP energy per Si atom -5571.596559 kJ/mol
# Density = 1.725426 g / cm^3
# Si number density = 17.293621 Si / 1000 Ang^3
#
#
#
# Elastic Constant Matrix: (Units=GPa)
#
#
# Indices 1 2 3 4 5 6 
#
# 1 109.3214 22.5099 45.7492 0.0000 -16.6319 -0.0001
# 2 22.5099 58.3191 26.4059 0.0000 -13.3101 -0.0001
# 3 45.7492 26.4059 96.1450 -0.0001 -32.1053 -0.0004
# 4 0.0000 0.0000 -0.0001 8.4276 0.0000 -9.5964
# 5 -16.6319 -13.3101 -32.1053 0.0000 24.8092 -0.0003
# 6 -0.0001 -0.0001 -0.0004 -9.5964 -0.0003 20.3932
#
#
#
# Elastic Compliance Matrix: (Units=1/GPa)
#
#
# Indices 1 2 3 4 5 6 
#
# 1 0.011682 -0.002239 -0.004807 0.000000 0.000410 0.000000
# 2 -0.002239 0.020577 -0.002467 0.000000 0.006346 0.000000
# 3 -0.004807 -0.002467 0.020864 0.000002 0.022453 0.000002
# 4 0.000000 0.000000 0.000002 0.255636 0.000004 0.120294
# 5 0.000410 0.006346 0.022453 0.000004 0.073043 0.000004
# 6 0.000000 0.000000 0.000002 0.120294 0.000004 0.105642
#
#
# Mechanical properties :
#
#
# Convention : Reuss Voigt Hill
#
# Bulk Modulus (GPa) = 29.32853 50.34616 39.83734
# Shear Modulus (GPa) = 9.65558 22.00070 15.82814
#
# Velocity S-wave (km/s) = 2.36547 3.57064 3.02861
# Velocity P-wave (km/s) = 4.94536 6.79522 5.94271
#
# Compressibility (1/GPa) = 0.03409650
#
# Stress axis : x y z
#
# Youngs Moduli (GPa) = 85.59871 48.59909 47.93050
#
# Poissons Ratio (x) = 0.10882 0.23041
# Poissons Ratio (y) = 0.19166 0.11823
# Poissons Ratio (z) = 0.41149 0.11988
#
# Static dielectric constant tensor:
#      x y z
#    x 1.549650 0.000000 -0.003920 
#    y 0.000000 1.615220 0.000000 
#    z -0.003920 0.000000 1.636830 
# 
# From -- ./inp_files/209250.got.cif
#   From: 2010.05.17/outbox.cif.g08.bks.cpg/sg12_105_cif.got.tgz:209250.got - 2010.06.03 13:09:07.
