data_PCOD9191136
_publ_section_title
;
Structure prediction by ZEFSAII (Michael W. Deem and Ramdas Pophale) SiO2 
 PCOD9191136
Probable space group: C 2/M
;
_chemical_formula_sum "Si O2"
_cell_formula_units_Z 52
_cell_length_a 16.211441
_cell_length_b 23.697918
_cell_length_c 11.587849
_cell_angle_alpha 90.000000
_cell_angle_beta 42.934710
_cell_angle_gamma 90.000000
_cell_volume 3032.401196
_symmetry_space_group_name_H-M "C 2/M"
_symmetry_group_IT_number 12
_symmetry_cell_setting 'monoclinic'
loop_
_space_group_symop_operation_xyz
x,y,z
-x,y,-z
-x,-y,-z
x,-y,z
1/2+x,1/2+y,z
1/2-x,1/2+y,-z
1/2-x,1/2-y,-z
1/2+x,1/2-y,z
loop_
_atom_site_type_symbol
_atom_site_label
_atom_site_fract_x
_atom_site_fract_y
_atom_site_fract_z
Si Si1 0.608292 0.000000 0.290651
Si Si2 0.223853 0.121943 0.700271
Si Si3 0.947602 0.227031 0.169636
Si Si4 0.339767 0.302318 0.874754
Si Si5 0.141350 0.000000 0.819305
Si Si6 0.000000 0.765800 0.500000
Si Si7 0.084602 0.312752 0.609571
Si Si8 0.340806 0.880362 0.836585
O O1 0.500000 0.000000 0.500000
O O2 0.744413 0.000000 0.207276
O O3 0.605569 0.943319 0.217969
O O4 0.132800 0.174114 0.784575
O O5 0.325964 0.135894 0.502445
O O6 0.287423 0.124451 0.761037
O O7 0.163552 0.061305 0.739864
O O8 0.885268 0.274517 0.311679
O O9 0.054484 0.202793 0.139451
O O10 0.000000 0.253748 0.000000
O O11 0.407178 0.296827 0.682426
O O12 0.250000 0.250000 0.000000
O O13 0.265753 0.359991 0.969806
O O14 0.000000 0.000000 0.000000
O O15 0.917448 0.727294 0.500926
O O16 0.949580 0.337376 0.749740
#
# Coordination Sequence:
#
# PCOD9191136 Si02
#       8
#     4   8   8   8   4   4   8   8
#     4  10  22  34  58  87 107 147 196 239 281 333
#     4  11  20  35  51  79 115 143 183 221 275 341
#     4  11  22  32  50  79 113 146 180 219 283 332
#     4  11  20  36  55  78 111 152 181 232 281 332
#     4  10  22  34  52  76 113 154 175 222 290 338
#     4  10  20  32  54  82 106 146 192 216 288 326
#     4  11  20  34  55  81 109 148 179 234 275 329
#     4  11  19  35  57  79 114 145 182 231 285 327
#
# _framework density 17.148128
#
# number of rings (size 3 to 8) (size 9 to 14) (size 15 to 20)
#    0.000    1.231    6.154    2.769    2.154    0.000 
#    0.000    0.000    0.000    0.462    0.000    7.538 
#    0.000    0.000    0.000    0.000    0.000    0.000 
#
# Total GULP energy -144825.514845 kJ/mol
# GULP energy per Si atom -5570.212109 kJ/mol
# Density = 1.710910 g / cm^3
# Si number density = 17.148128 Si / 1000 Ang^3
#
#
#
# Elastic Constant Matrix: (Units=GPa)
#
#
# Indices 1 2 3 4 5 6 
#
# 1 25.4345 14.6072 13.1744 0.0000 2.4505 0.0000
# 2 14.6072 119.6738 60.1522 0.0000 4.1003 0.0000
# 3 13.1744 60.1522 127.6831 0.0000 2.8200 0.0000
# 4 0.0000 0.0000 0.0000 33.8904 0.0000 -3.6494
# 5 2.4505 4.1003 2.8200 0.0000 30.2495 0.0000
# 6 0.0000 0.0000 0.0000 -3.6494 0.0000 25.1749
#
#
#
# Elastic Compliance Matrix: (Units=1/GPa)
#
#
# Indices 1 2 3 4 5 6 
#
# 1 0.043137 -0.003885 -0.002561 0.000000 -0.002729 0.000000
# 2 -0.003885 0.011329 -0.004920 0.000000 -0.000762 0.000000
# 3 -0.002561 -0.004920 0.010416 0.000000 -0.000097 0.000000
# 4 0.000000 0.000000 0.000000 0.029975 0.000000 0.004345
# 5 -0.002729 -0.000762 -0.000097 0.000000 0.033392 0.000000
# 6 0.000000 0.000000 0.000000 0.004345 0.000000 0.040352
#
#
# Mechanical properties :
#
#
# Convention : Reuss Voigt Hill
#
# Bulk Modulus (GPa) = 23.72350 49.85100 36.78725
# Shear Modulus (GPa) = 24.34505 30.18680 27.26593
#
# Velocity S-wave (km/s) = 3.77197 4.20021 3.99184
# Velocity P-wave (km/s) = 5.73017 7.25647 6.53801
#
# Compressibility (1/GPa) = 0.04215229
#
# Stress axis : x y z
#
# Youngs Moduli (GPa) = 23.18204 88.26872 96.00767
#
# Poissons Ratio (x) = 0.34290 0.24583
# Poissons Ratio (y) = 0.09005 0.47231
# Poissons Ratio (z) = 0.05936 0.43424
#
# Static dielectric constant tensor:
#      x y z
#    x 1.601790 0.000000 -0.043300 
#    y 0.000000 1.652540 0.000000 
#    z -0.043300 0.000000 1.643780 
# 
# From -- ./inp_files/160613.got.cif
#   From: 2010.05.17/outbox.cif.g08.bks.cpg/sg12_81_cif.got.tgz:160613.got - 2010.06.03 13:09:07.
