data_PCOD9191755
_publ_section_title
;
Structure prediction by ZEFSAII (Michael W. Deem and Ramdas Pophale) SiO2 
 PCOD9191755
Probable space group: C 2/M
;
_chemical_formula_sum "Si O2"
_cell_formula_units_Z 56
_cell_length_a 25.504036
_cell_length_b 10.558258
_cell_length_c 14.417144
_cell_angle_alpha 90.000000
_cell_angle_beta 139.926279
_cell_angle_gamma 90.000000
_cell_volume 2499.268947
_symmetry_space_group_name_H-M "C 2/M"
_symmetry_group_IT_number 12
_symmetry_cell_setting 'monoclinic'
loop_
_space_group_symop_operation_xyz
x,y,z
-x,y,-z
-x,-y,-z
x,-y,z
1/2+x,1/2+y,z
1/2-x,1/2+y,-z
1/2-x,1/2-y,-z
1/2+x,1/2-y,z
loop_
_atom_site_type_symbol
_atom_site_label
_atom_site_fract_x
_atom_site_fract_y
_atom_site_fract_z
Si Si1 0.269896 0.136657 0.203582
Si Si2 0.516067 0.359095 0.632839
Si Si3 0.138114 0.361970 0.849715
Si Si4 0.382288 0.773896 0.981880
Si Si5 0.458004 0.646961 0.839663
Si Si6 0.666167 0.355221 0.583035
Si Si7 0.666690 0.857115 0.283042
O O1 0.284532 0.143438 0.113460
O O2 0.314846 0.251728 0.313598
O O3 0.301064 0.000000 0.277635
O O4 0.176385 0.152441 0.104894
O O5 0.500000 0.355621 0.500000
O O6 0.547574 0.500000 0.698054
O O7 0.578757 0.250554 0.741625
O O8 0.429187 0.342763 0.566836
O O9 0.099683 0.500000 0.780199
O O10 0.152654 0.349320 0.978205
O O11 0.472318 0.723253 0.120823
O O12 0.371190 0.851820 0.872734
O O13 0.443340 0.500000 0.793276
O O14 0.379052 0.737939 0.732990
O O15 0.500000 0.643469 0.000000
O O16 0.676976 0.500000 0.631589
O O17 0.736309 0.337729 0.600482
O O18 0.652698 0.000000 0.302071
#
# Coordination Sequence:
#
# PCOD9191755 Si02
#       7
#     8   8   8   8   8   8   8
#     4  10  20  33  51  76 106 140 176 214 257 302
#     4  10  20  36  56  75 101 140 181 217 256 308
#     4  11  23  35  51  78 109 141 176 218 261 303
#     4  10  20  34  51  74 108 142 174 206 254 315
#     4   9  18  32  51  75 103 133 169 210 253 306
#     4   9  18  34  54  77 103 136 177 215 257 309
#     4   9  18  32  54  78 102 133 168 211 259 308
#
# _framework density 22.406552000000001
#
# number of rings (size 3 to 8) (size 9 to 14) (size 15 to 20)
#    0.000    2.286    1.429    1.286    0.000    9.143 
#    0.000    0.000    0.000    0.857    0.000    0.000 
#    0.000    0.000    0.000    0.000    0.000    0.000 
#
# Total GULP energy -156264.522234 kJ/mol
# GULP energy per Si atom -5580.875794 kJ/mol
# Density = 2.235555 g / cm^3
# Si number density = 22.406552 Si / 1000 Ang^3
#
#
#
# Elastic Constant Matrix: (Units=GPa)
#
#
# Indices 1 2 3 4 5 6 
#
# 1 57.4899 24.5919 9.3799 0.0000 20.7411 0.0000
# 2 24.5919 121.5653 27.4297 0.0000 16.8087 0.0000
# 3 9.3799 27.4297 40.8712 0.0000 7.3660 0.0000
# 4 0.0000 0.0000 0.0000 22.2196 0.0000 5.5374
# 5 20.7411 16.8087 7.3660 0.0000 33.1717 0.0000
# 6 0.0000 0.0000 0.0000 5.5374 0.0000 12.2930
#
#
#
# Elastic Compliance Matrix: (Units=1/GPa)
#
#
# Indices 1 2 3 4 5 6 
#
# 1 0.023436 -0.002658 -0.001246 0.000000 -0.013030 0.000000
# 2 -0.002658 0.010430 -0.005976 0.000000 -0.002296 0.000000
# 3 -0.001246 -0.005976 0.029248 0.000000 -0.002687 0.000000
# 4 0.000000 0.000000 0.000000 0.050696 0.000000 -0.022836
# 5 -0.013030 -0.002296 -0.002687 0.000000 0.040053 0.000000
# 6 0.000000 0.000000 0.000000 -0.022836 0.000000 0.091633
#
#
# Mechanical properties :
#
#
# Convention : Reuss Voigt Hill
#
# Bulk Modulus (GPa) = 23.06647 38.08104 30.57376
# Shear Modulus (GPa) = 17.87583 24.10519 20.99051
#
# Velocity S-wave (km/s) = 2.82759 3.28351 3.06404
# Velocity P-wave (km/s) = 4.58009 5.60425 5.11786
#
# Compressibility (1/GPa) = 0.04335297
#
# Stress axis : x y z
#
# Youngs Moduli (GPa) = 42.67011 95.88152 34.19044
#
# Poissons Ratio (x) = 0.25486 0.04261
# Poissons Ratio (y) = 0.11342 0.20431
# Poissons Ratio (z) = 0.05318 0.57296
#
# Static dielectric constant tensor:
#      x y z
#    x 1.900230 0.000000 -0.021100 
#    y 0.000000 1.823040 0.000000 
#    z -0.021100 0.000000 1.823030 
# 
# From -- ./inp_files/292580.got.cif
#   From: 2010.05.17/outbox.cif.g08.bks.cpg/sg12_147_cif.got.tgz:292580.got - 2010.06.03 13:09:07.
