data_PCOD9191345
_publ_section_title
;
Structure prediction by ZEFSAII (Michael W. Deem and Ramdas Pophale) SiO2 
 PCOD9191345
Probable space group: C 2/M
;
_chemical_formula_sum "Si O2"
_cell_formula_units_Z 44
_cell_length_a 7.735319
_cell_length_b 13.653469
_cell_length_c 18.634799
_cell_angle_alpha 90.000000
_cell_angle_beta 97.437494
_cell_angle_gamma 90.000000
_cell_volume 1951.536275
_symmetry_space_group_name_H-M "C 2/M"
_symmetry_group_IT_number 12
_symmetry_cell_setting 'monoclinic'
loop_
_space_group_symop_operation_xyz
x,y,z
-x,y,-z
-x,-y,-z
x,-y,z
1/2+x,1/2+y,z
1/2-x,1/2+y,-z
1/2-x,1/2-y,-z
1/2+x,1/2-y,z
loop_
_atom_site_type_symbol
_atom_site_label
_atom_site_fract_x
_atom_site_fract_y
_atom_site_fract_z
Si Si1 0.736186 0.000000 0.950323
Si Si2 0.368272 0.000000 0.888603
Si Si3 0.656190 0.677339 0.551420
Si Si4 0.000000 0.835417 0.000000
Si Si5 0.530678 0.176873 0.345979
Si Si6 0.119073 0.177583 0.853503
Si Si7 0.284506 0.674795 0.755476
O O1 0.574471 0.000000 0.888382
O O2 0.858555 0.093991 0.955373
O O3 0.667293 0.000000 0.028127
O O4 0.271582 0.902533 0.858294
O O5 0.500000 0.623881 0.500000
O O6 0.750000 0.750000 0.500000
O O7 0.559350 0.746342 0.604143
O O8 0.814605 0.623826 0.601513
O O9 0.916964 0.787542 0.066190
O O10 0.630011 0.242953 0.292138
O O11 0.367165 0.122797 0.299345
O O12 0.181636 0.269864 0.812472
O O13 0.951914 0.129871 0.804230
#
# Coordination Sequence:
#
# PCOD9191345 Si02
#       7
#     4   4   8   4   8   8   8
#     4   8  16  32  52  70  88 112 142 197 276 300
#     4   9  18  34  54  70  86 114 158 205 241 294
#     4   8  12  19  36  61  85 118 158 190 218 262
#     4   9  18  32  50  70  90 113 156 214 248 283
#     4   8  14  25  38  56  91 132 150 177 232 287
#     4  10  20  33  49  69  92 124 164 201 245 290
#     4   9  18  30  43  63  96 133 155 179 239 301
#
# _framework density 22.546340000000001
#
# number of rings (size 3 to 8) (size 9 to 14) (size 15 to 20)
#    0.000    3.273    0.000    0.545    0.000    3.636 
#    0.000    1.818    0.000    0.000    0.000    0.000 
#    0.000    0.000    0.000 1404.000    0.000    0.000 
#
# Total GULP energy -122478.695981 kJ/mol
# GULP energy per Si atom -5567.213454 kJ/mol
# Density = 2.249502 g / cm^3
# Si number density = 22.546340 Si / 1000 Ang^3
#
#
#
# Elastic Constant Matrix: (Units=GPa)
#
#
# Indices 1 2 3 4 5 6 
#
# 1 137.6735 19.4183 67.0803 0.0000 45.3063 0.0000
# 2 19.4183 30.3400 18.7916 0.0000 8.6586 0.0000
# 3 67.0803 18.7916 120.9664 0.0000 23.9110 0.0000
# 4 0.0000 0.0000 0.0000 -11.0087 0.0000 3.4329
# 5 45.3063 8.6586 23.9110 0.0000 93.6586 0.0000
# 6 0.0000 0.0000 0.0000 3.4329 0.0000 12.7615
#
#
#
# Elastic Compliance Matrix: (Units=1/GPa)
#
#
# Indices 1 2 3 4 5 6 
#
# 1 0.011493 -0.003055 -0.005114 0.000000 -0.003972 0.000000
# 2 -0.003055 0.037650 -0.003958 0.000000 -0.000992 0.000000
# 3 -0.005114 -0.003958 0.011749 0.000000 -0.000160 0.000000
# 4 0.000000 0.000000 0.000000 -0.083807 0.000000 0.022544
# 5 -0.003972 -0.000992 -0.000160 0.000000 0.012731 0.000000
# 6 0.000000 0.000000 0.000000 0.022544 0.000000 0.072296
#
#
# Mechanical properties :
#
#
# Convention : Reuss Voigt Hill
#
# Bulk Modulus (GPa) = 27.29434 55.50672 41.40053
# Shear Modulus (GPa) = 50.72058 31.32825 41.02441
#
# Velocity S-wave (km/s) = 4.74816 3.73165 4.27026
# Velocity P-wave (km/s) = 6.49555 6.57566 6.53573
#
# Compressibility (1/GPa) = 0.03663763
#
# Stress axis : x y z
#
# Youngs Moduli (GPa) = 87.00869 26.56034 85.11358
#
# Poissons Ratio (x) = 0.08115 0.43524
# Poissons Ratio (y) = 0.26583 0.33692
# Poissons Ratio (z) = 0.44493 0.10514
#
# Static dielectric constant tensor:
#      x y z
#    x 1.957910 0.000000 0.082550 
#    y 0.000000 1.788370 0.000000 
#    z 0.082550 0.000000 1.897090 
# 
# From -- ./inp_files/256245.got.cif
#   From: 2010.05.17/outbox.cif.g08.bks.cpg/sg12_129_cif.got.tgz:256245.got - 2010.06.03 13:09:07.
