data_PCOD9191639
_publ_section_title
;
Structure prediction by ZEFSAII (Michael W. Deem and Ramdas Pophale) SiO2 
 PCOD9191639
Probable space group: C 2/M
;
_chemical_formula_sum "Si O2"
_cell_formula_units_Z 56
_cell_length_a 18.638336
_cell_length_b 28.200905
_cell_length_c 7.507756
_cell_angle_alpha 90.000000
_cell_angle_beta 39.718500
_cell_angle_gamma 90.000000
_cell_volume 2521.692976
_symmetry_space_group_name_H-M "C 2/M"
_symmetry_group_IT_number 12
_symmetry_cell_setting 'monoclinic'
loop_
_space_group_symop_operation_xyz
x,y,z
-x,y,-z
-x,-y,-z
x,-y,z
1/2+x,1/2+y,z
1/2-x,1/2+y,-z
1/2-x,1/2-y,-z
1/2+x,1/2-y,z
loop_
_atom_site_type_symbol
_atom_site_label
_atom_site_fract_x
_atom_site_fract_y
_atom_site_fract_z
Si Si1 0.194865 0.551813 0.416941
Si Si2 0.216021 0.050813 0.348269
Si Si3 0.993879 0.683114 0.727201
Si Si4 0.755435 0.656416 0.701209
Si Si5 0.955237 0.579494 0.787888
Si Si6 0.555616 0.714489 0.201942
Si Si7 0.593602 0.635056 0.694892
O O1 0.218118 0.500000 0.289527
O O2 0.252468 0.551815 0.500855
O O3 0.232637 0.601602 0.256010
O O4 0.060016 0.557216 0.693421
O O5 0.139878 0.096985 0.466845
O O6 0.162679 0.000000 0.408755
O O7 0.336580 0.054494 0.025402
O O8 0.121842 0.678490 0.546931
O O9 0.000000 0.682162 0.500000
O O10 0.936616 0.633605 0.888529
O O11 0.938811 0.732513 0.888017
O O12 0.693482 0.653333 0.629781
O O13 0.675658 0.688714 0.974918
O O14 0.000000 0.579216 0.500000
O O15 0.500000 0.719146 0.500000
O O16 0.472025 0.679648 0.257773
O O17 0.500000 0.610232 0.000000
#
# Coordination Sequence:
#
# PCOD9191639 Si02
#       7
#     8   8   8   8   8   8   8
#     4   9  18  34  54  74 103 143 180 214 260 322
#     4  10  20  34  55  79 105 143 181 217 269 323
#     4   9  20  35  54  80 109 145 180 213 267 332
#     4   9  19  37  55  78 110 140 180 226 270 318
#     4  10  20  33  50  79 114 140 173 221 268 322
#     4  10  21  36  56  79 104 141 185 227 271 321
#     4   9  20  38  56  78 109 142 184 231 269 312
#
# _framework density 22.207305000000002
#
# number of rings (size 3 to 8) (size 9 to 14) (size 15 to 20)
#    0.000    2.571    0.000    0.857    0.000   10.000 
#    0.000   13.571    0.000    0.857    0.000    0.000 
#    0.000    0.000    0.000    0.000    0.000    0.000 
#
# Total GULP energy -156280.202245 kJ/mol
# GULP energy per Si atom -5581.435794 kJ/mol
# Density = 2.215676 g / cm^3
# Si number density = 22.207305 Si / 1000 Ang^3
#
#
#
# Elastic Constant Matrix: (Units=GPa)
#
#
# Indices 1 2 3 4 5 6 
#
# 1 34.2335 -5.3532 -2.1699 0.0000 -11.4777 0.0000
# 2 -5.3532 157.7244 26.7754 0.0000 -5.2913 0.0000
# 3 -2.1699 26.7754 50.4266 0.0000 -2.3420 0.0000
# 4 0.0000 0.0000 0.0000 5.5181 0.0000 13.7254
# 5 -11.4777 -5.2913 -2.3420 0.0000 15.2774 0.0000
# 6 0.0000 0.0000 0.0000 13.7254 0.0000 2.0613
#
#
#
# Elastic Compliance Matrix: (Units=1/GPa)
#
#
# Indices 1 2 3 4 5 6 
#
# 1 0.040114 0.002053 0.002083 0.000000 0.031168 0.000000
# 2 0.002053 0.007126 -0.003534 0.000000 0.003469 0.000000
# 3 0.002083 -0.003534 0.021969 0.000000 0.003709 0.000000
# 4 0.000000 0.000000 0.000000 -0.011645 0.000000 0.077539
# 5 0.031168 0.003469 0.003709 0.000000 0.090642 0.000000
# 6 0.000000 0.000000 0.000000 0.077539 0.000000 -0.031174
#
#
# Mechanical properties :
#
#
# Convention : Reuss Voigt Hill
#
# Bulk Modulus (GPa) = 14.20159 31.20990 22.70574
# Shear Modulus (GPa) = 35.89378 19.44684 27.67031
#
# Velocity S-wave (km/s) = 4.02469 2.96243 3.53370
# Velocity P-wave (km/s) = 5.29211 5.07796 5.18614
#
# Compressibility (1/GPa) = 0.07041466
#
# Stress axis : x y z
#
# Youngs Moduli (GPa) = 24.92888 140.32627 45.51783
#
# Poissons Ratio (x) = -0.28815 -0.09483
# Poissons Ratio (y) = -0.05119 0.16088
# Poissons Ratio (z) = -0.05194 0.49597
#
# Static dielectric constant tensor:
#      x y z
#    x 1.847080 0.000000 0.049170 
#    y 0.000000 1.879920 0.000000 
#    z 0.049170 0.000000 1.819450 
# 
# From -- ./inp_files/91571.got.cif
#   From: 2010.05.17/outbox.cif.g08.bks.cpg/sg12_46_cif.got.tgz:91571.got - 2010.06.03 13:09:07.
