data_PCOD9191995
_publ_section_title
;
Structure prediction by ZEFSAII (Michael W. Deem and Ramdas Pophale) SiO2 
 PCOD9191995
Probable space group: C 2/M
;
_chemical_formula_sum "Si O2"
_cell_formula_units_Z 56
_cell_length_a 19.124488
_cell_length_b 8.522670
_cell_length_c 23.382558
_cell_angle_alpha 90.000000
_cell_angle_beta 51.951342
_cell_angle_gamma 90.000000
_cell_volume 3001.243602
_symmetry_space_group_name_H-M "C 2/M"
_symmetry_group_IT_number 12
_symmetry_cell_setting 'monoclinic'
loop_
_space_group_symop_operation_xyz
x,y,z
-x,y,-z
-x,-y,-z
x,-y,z
1/2+x,1/2+y,z
1/2-x,1/2+y,-z
1/2-x,1/2-y,-z
1/2+x,1/2-y,z
loop_
_atom_site_type_symbol
_atom_site_label
_atom_site_fract_x
_atom_site_fract_y
_atom_site_fract_z
Si Si1 0.327388 0.309971 0.501389
Si Si2 0.153914 0.811650 0.067147
Si Si3 0.853725 0.189950 0.797761
Si Si4 0.695382 0.686601 0.799727
Si Si5 0.495142 0.188059 0.068616
Si Si6 0.478572 0.690480 0.633875
Si Si7 0.686970 0.689717 0.360155
O O1 0.328436 0.500000 0.500452
O O2 0.250000 0.250000 0.500000
O O3 0.423258 0.253772 0.430402
O O4 0.311413 0.260672 0.574954
O O5 0.137104 0.760798 0.141296
O O6 0.077397 0.751770 0.063681
O O7 0.154651 0.000000 0.065543
O O8 0.250000 0.750000 0.000000
O O9 0.763888 0.251769 0.813528
O O10 0.935362 0.240455 0.715886
O O11 0.849698 0.000000 0.798087
O O12 0.691519 0.500000 0.804321
O O13 0.598250 0.756056 0.858677
O O14 0.736975 0.739949 0.718336
O O15 0.498548 0.000000 0.067624
O O16 0.500000 0.240845 0.000000
O O17 0.481897 0.500000 0.633004
O O18 0.407049 0.733787 0.621408
O O19 0.693564 0.500000 0.354137
#
# Coordination Sequence:
#
# PCOD9191995 Si02
#       7
#     8   8   8   8   8   8   8
#     4  10  20  33  52  79 109 142 180 226 279 331
#     4  11  23  38  58  85 115 149 188 229 276 329
#     4   9  19  37  59  82 110 144 181 224 278 336
#     4  11  22  36  58  86 113 143 183 231 277 326
#     4  11  24  41  60  82 112 150 187 227 278 333
#     4   8  15  32  57  78  99 135 183 224 259 315
#     4   9  18  35  57  78 104 143 187 226 270 329
#
# _framework density 18.658932
#
# number of rings (size 3 to 8) (size 9 to 14) (size 15 to 20)
#    0.000    2.143    0.000    4.286    0.000    9.143 
#    0.000    4.286    0.000    4.286    0.000    0.000 
#    0.000    0.000    0.000    0.000    0.000    0.000 
#
# Total GULP energy -156364.306630 kJ/mol
# GULP energy per Si atom -5584.439523 kJ/mol
# Density = 1.861646 g / cm^3
# Si number density = 18.658932 Si / 1000 Ang^3
#
#
#
# Elastic Constant Matrix: (Units=GPa)
#
#
# Indices 1 2 3 4 5 6 
#
# 1 169.4154 33.6280 142.0047 0.0000 6.9174 0.0004
# 2 33.6280 30.0099 35.6130 0.0001 4.6786 0.0007
# 3 142.0047 35.6130 177.0614 0.0001 2.3604 -0.0001
# 4 0.0000 0.0001 0.0001 14.6496 0.0000 -3.3743
# 5 6.9174 4.6786 2.3604 0.0000 38.8910 0.0000
# 6 0.0004 0.0007 -0.0001 -3.3743 0.0000 33.1128
#
#
#
# Elastic Compliance Matrix: (Units=1/GPa)
#
#
# Indices 1 2 3 4 5 6 
#
# 1 0.018531 -0.003743 -0.014083 0.000000 -0.001991 0.000000
# 2 -0.003743 0.045414 -0.006074 -0.000001 -0.004429 -0.000001
# 3 -0.014083 -0.006074 0.018135 0.000000 0.002135 0.000000
# 4 0.000000 -0.000001 0.000000 0.069902 0.000000 0.007123
# 5 -0.001991 -0.004429 0.002135 0.000000 0.026470 0.000000
# 6 0.000000 -0.000001 0.000000 0.007123 0.000000 0.030926
#
#
# Mechanical properties :
#
#
# Convention : Reuss Voigt Hill
#
# Bulk Modulus (GPa) = 29.16923 88.77533 58.97228
# Shear Modulus (GPa) = 18.61473 28.34675 23.48074
#
# Velocity S-wave (km/s) = 3.16196 3.90193 3.55127
# Velocity P-wave (km/s) = 5.38492 8.24508 6.96343
#
# Compressibility (1/GPa) = 0.03428270
#
# Stress axis : x y z
#
# Youngs Moduli (GPa) = 53.96342 22.01942 55.14077
#
# Poissons Ratio (x) = 0.08241 0.77653
# Poissons Ratio (y) = 0.20197 0.33491
# Poissons Ratio (z) = 0.75995 0.13374
#
# Static dielectric constant tensor:
#      x y z
#    x 1.607070 0.000000 0.013800 
#    y 0.000000 1.640600 0.000000 
#    z 0.013800 0.000000 1.642800 
# 
# From -- ./inp_files/342266.got.cif
#   From: 2010.05.17/outbox.cif.g08.bks.cpg/sg12_172_cif.got.tgz:342266.got - 2010.06.03 13:09:07.
