data_PCOD9191229
_publ_section_title
;
Structure prediction by ZEFSAII (Michael W. Deem and Ramdas Pophale) SiO2 
 PCOD9191229
Probable space group: C 2/M
;
_chemical_formula_sum "Si O2"
_cell_formula_units_Z 34
_cell_length_a 13.932777
_cell_length_b 18.422908
_cell_length_c 5.427645
_cell_angle_alpha 90.000000
_cell_angle_beta 100.037649
_cell_angle_gamma 90.000000
_cell_volume 1371.855431
_symmetry_space_group_name_H-M "C 2/M"
_symmetry_group_IT_number 12
_symmetry_cell_setting 'monoclinic'
loop_
_space_group_symop_operation_xyz
x,y,z
-x,y,-z
-x,-y,-z
x,-y,z
1/2+x,1/2+y,z
1/2-x,1/2+y,-z
1/2-x,1/2-y,-z
1/2+x,1/2-y,z
loop_
_atom_site_type_symbol
_atom_site_label
_atom_site_fract_x
_atom_site_fract_y
_atom_site_fract_z
Si Si1 0.742242 0.000000 0.663827
Si Si2 0.900900 0.614727 0.611357
Si Si3 0.900056 0.838680 0.204442
Si Si4 0.365659 0.500000 0.217735
Si Si5 0.500000 0.000000 0.000000
Si Si6 0.880860 0.220706 0.699129
O O1 0.673820 0.929953 0.591917
O O2 0.816725 0.000000 0.466238
O O3 0.791003 0.000000 0.953323
O O4 0.928676 0.562954 0.849640
O O5 0.868641 0.693684 0.681380
O O6 0.000000 0.623130 0.500000
O O7 0.846693 0.816108 0.430916
O O8 0.002812 0.796802 0.247661
O O9 0.921806 0.924254 0.217064
O O10 0.843564 0.815574 0.932977
#
# Coordination Sequence:
#
# PCOD9191229 Si02
#       6
#     4   8   8   4   2   8
#     4  11  28  42  64  95 133 186 209 250 338 392
#     4  11  23  41  69  98 132 159 227 283 318 377
#     4  10  21  40  67  95 132 166 219 269 330 371
#     4  12  26  47  60  93 144 179 213 254 316 433
#     4  10  20  32  64  94 122 168 194 272 324 358
#     4  10  21  39  70 102 119 164 221 290 320 360
#
# _framework density 24.783950999999998
#
# number of rings (size 3 to 8) (size 9 to 14) (size 15 to 20)
#    0.000    1.412    2.353    4.235    6.588    3.765 
#    0.000    7.059    0.000    0.000    0.000    0.000 
#    0.000    0.000    0.000    0.000    0.000    0.000 
#
# Total GULP energy -94947.984388 kJ/mol
# GULP energy per Si atom -5585.175552 kJ/mol
# Density = 2.472754 g / cm^3
# Si number density = 24.783951 Si / 1000 Ang^3
#
#
#
# Elastic Constant Matrix: (Units=GPa)
#
#
# Indices 1 2 3 4 5 6 
#
# 1 74.1486 14.6793 13.9692 0.0000 6.4180 0.0000
# 2 14.6793 233.6400 49.3750 0.0000 6.0758 0.0000
# 3 13.9692 49.3750 175.8844 0.0000 -14.0992 0.0000
# 4 0.0000 0.0000 0.0000 31.9994 0.0000 -1.7712
# 5 6.4180 6.0758 -14.0992 0.0000 29.1982 0.0000
# 6 0.0000 0.0000 0.0000 -1.7712 0.0000 8.4399
#
#
#
# Elastic Compliance Matrix: (Units=1/GPa)
#
#
# Indices 1 2 3 4 5 6 
#
# 1 0.014141 -0.000527 -0.001264 0.000000 -0.003609 0.000000
# 2 -0.000527 0.004645 -0.001384 0.000000 -0.001519 0.000000
# 3 -0.001264 -0.001384 0.006470 0.000000 0.003690 0.000000
# 4 0.000000 0.000000 0.000000 0.031618 0.000000 0.006636
# 5 -0.003609 -0.001519 0.003690 0.000000 0.037140 0.000000
# 6 0.000000 0.000000 0.000000 0.006636 0.000000 0.119877
#
#
# Mechanical properties :
#
#
# Convention : Reuss Voigt Hill
#
# Bulk Modulus (GPa) = 52.89474 71.08001 61.98738
# Shear Modulus (GPa) = 22.07065 40.97082 31.52073
#
# Velocity S-wave (km/s) = 2.98740 4.07027 3.57013
# Velocity P-wave (km/s) = 5.76958 7.12962 6.48535
#
# Compressibility (1/GPa) = 0.01890547
#
# Stress axis : x y z
#
# Youngs Moduli (GPa) = 70.71412 215.27687 154.55266
#
# Poissons Ratio (x) = 0.11354 0.19542
# Poissons Ratio (y) = 0.03730 0.21388
# Poissons Ratio (z) = 0.08941 0.29792
#
# Static dielectric constant tensor:
#      x y z
#    x 1.974930 0.000000 -0.068730 
#    y 0.000000 1.879420 0.000000 
#    z -0.068730 0.000000 1.823270 
# 
# From -- ./inp_files/15014.got.cif
#   From: 2010.05.17/outbox.cif.g08.bks.cpg/sg12_8_cif.got.tgz:15014.got - 2010.06.03 13:09:07.
