data_PCOD9191268
_publ_section_title
;
Structure prediction by ZEFSAII (Michael W. Deem and Ramdas Pophale) SiO2 
 PCOD9191268
Probable space group: C 2/M
;
_chemical_formula_sum "Si O2"
_cell_formula_units_Z 40
_cell_length_a 14.831331
_cell_length_b 24.564416
_cell_length_c 5.339627
_cell_angle_alpha 90.000000
_cell_angle_beta 69.505745
_cell_angle_gamma 90.000000
_cell_volume 1822.222463
_symmetry_space_group_name_H-M "C 2/M"
_symmetry_group_IT_number 12
_symmetry_cell_setting 'monoclinic'
loop_
_space_group_symop_operation_xyz
x,y,z
-x,y,-z
-x,-y,-z
x,-y,z
1/2+x,1/2+y,z
1/2-x,1/2+y,-z
1/2-x,1/2-y,-z
1/2+x,1/2-y,z
loop_
_atom_site_type_symbol
_atom_site_label
_atom_site_fract_x
_atom_site_fract_y
_atom_site_fract_z
Si Si1 0.934252 0.059369 0.316527
Si Si2 0.214796 0.326919 0.009502
Si Si3 0.609125 0.331991 0.816282
Si Si4 0.622657 0.788244 0.599192
Si Si5 0.531365 0.110100 0.219508
O O1 0.867901 0.112897 0.359369
O O2 0.000000 0.065518 0.500000
O O3 0.885240 0.000000 0.383268
O O4 0.000000 0.056382 0.000000
O O5 0.321516 0.331736 0.010047
O O6 0.164792 0.290667 0.278581
O O7 0.144623 0.378761 0.101779
O O8 0.197006 0.306726 0.745175
O O9 0.605266 0.274313 0.679843
O O10 0.500000 0.338655 0.000000
O O11 0.533812 0.831989 0.712581
O O12 0.500000 0.081452 0.500000
O O13 0.500000 0.081574 0.000000
#
# Coordination Sequence:
#
# PCOD9191268 Si02
#       5
#     8   8   8   8   8
#     4   9  20  37  53  70  95 128 169 216 256 290
#     4  10  20  33  47  69 101 131 163 202 240 287
#     4  11  22  33  51  74  99 134 171 201 245 299
#     4  10  20  33  48  69  99 132 166 201 239 289
#     4   8  15  28  44  60  87 123 156 190 228 269
#
# _framework density 21.951215000000001
#
# number of rings (size 3 to 8) (size 9 to 14) (size 15 to 20)
#    0.000    2.400    0.000    3.000    0.000    8.800 
#    0.000    0.000    0.000    0.000    0.000    0.000 
#    0.000   14.400    0.000    0.000    0.000   29.400 
#
# Total GULP energy -111415.209484 kJ/mol
# GULP energy per Si atom -5570.760474 kJ/mol
# Density = 2.190125 g / cm^3
# Si number density = 21.951215 Si / 1000 Ang^3
#
#
#
# Elastic Constant Matrix: (Units=GPa)
#
#
# Indices 1 2 3 4 5 6 
#
# 1 121.9921 3.9546 20.7342 0.0000 12.3669 0.0000
# 2 3.9546 65.7774 3.7013 0.0000 11.4859 0.0000
# 3 20.7342 3.7013 78.7787 0.0000 35.7539 0.0000
# 4 0.0000 0.0000 0.0000 13.3686 0.0000 -9.1683
# 5 12.3669 11.4859 35.7539 0.0000 43.4630 0.0000
# 6 0.0000 0.0000 0.0000 -9.1683 0.0000 53.1431
#
#
#
# Elastic Compliance Matrix: (Units=1/GPa)
#
#
# Indices 1 2 3 4 5 6 
#
# 1 0.008609 -0.000266 -0.001873 0.000000 -0.000839 0.000000
# 2 -0.000266 0.016118 0.001933 0.000000 -0.005774 0.000000
# 3 -0.001873 0.001933 0.020882 0.000000 -0.017156 0.000000
# 4 0.000000 0.000000 0.000000 0.084840 0.000000 0.014637
# 5 -0.000839 -0.005774 -0.017156 0.000000 0.038886 0.000000
# 6 0.000000 0.000000 0.000000 0.014637 0.000000 0.021342
#
#
# Mechanical properties :
#
#
# Convention : Reuss Voigt Hill
#
# Bulk Modulus (GPa) = 22.12406 35.92540 29.02473
# Shear Modulus (GPa) = 24.25360 37.87216 31.06288
#
# Velocity S-wave (km/s) = 3.32759 4.15816 3.76585
# Velocity P-wave (km/s) = 4.98642 6.28135 5.67097
#
# Compressibility (1/GPa) = 0.04519967
#
# Stress axis : x y z
#
# Youngs Moduli (GPa) = 116.15491 62.04133 47.88741
#
# Poissons Ratio (x) = 0.01649 0.08968
# Poissons Ratio (y) = 0.03087 -0.09258
# Poissons Ratio (z) = 0.21752 -0.11995
#
# Static dielectric constant tensor:
#      x y z
#    x 1.833570 0.000000 -0.018110 
#    y 0.000000 1.872220 0.000000 
#    z -0.018110 0.000000 1.875300 
# 
# From -- ./inp_files/11317.got.cif
#   From: 2010.05.17/outbox.cif.g08.bks.cpg/sg12_6_cif.got.tgz:11317.got - 2010.06.03 13:09:07.
