data_PCOD9191504
_publ_section_title
;
Structure prediction by ZEFSAII (Michael W. Deem and Ramdas Pophale) SiO2 
 PCOD9191504
Probable space group: C 2/M
;
_chemical_formula_sum "Si O2"
_cell_formula_units_Z 64
_cell_length_a 29.607929
_cell_length_b 13.697325
_cell_length_c 13.077374
_cell_angle_alpha 90.000000
_cell_angle_beta 45.380606
_cell_angle_gamma 90.000000
_cell_volume 3774.984747
_symmetry_space_group_name_H-M "C 2/M"
_symmetry_group_IT_number 12
_symmetry_cell_setting 'monoclinic'
loop_
_space_group_symop_operation_xyz
x,y,z
-x,y,-z
-x,-y,-z
x,-y,z
1/2+x,1/2+y,z
1/2-x,1/2+y,-z
1/2-x,1/2-y,-z
1/2+x,1/2-y,z
loop_
_atom_site_type_symbol
_atom_site_label
_atom_site_fract_x
_atom_site_fract_y
_atom_site_fract_z
Si Si1 0.735727 0.892129 0.988401
Si Si2 0.912659 0.115838 0.420200
Si Si3 0.229554 0.112246 0.304435
Si Si4 0.519019 0.114936 0.156576
Si Si5 0.484872 0.247547 0.638679
Si Si6 0.347770 0.706986 0.915957
Si Si7 0.641563 0.216444 0.878252
Si Si8 0.056071 0.215430 0.838020
O O1 0.763229 0.886191 0.829827
O O2 0.794584 0.870456 0.968948
O O3 0.709298 0.000000 0.046936
O O4 0.682485 0.808974 0.076976
O O5 0.840163 0.147657 0.555625
O O6 0.929696 0.143446 0.277013
O O7 0.960765 0.177071 0.413203
O O8 0.917414 0.000000 0.431298
O O9 0.289354 0.172184 0.249283
O O10 0.235162 0.000000 0.329599
O O11 0.517913 0.160846 0.272531
O O12 0.470614 0.182841 0.168404
O O13 0.505272 0.000000 0.176035
O O14 0.588804 0.136432 0.997680
O O15 0.500000 0.214284 0.500000
O O16 0.416818 0.301627 0.756442
O O17 0.355074 0.714638 0.026779
O O18 0.614693 0.265316 0.819393
O O19 0.000000 0.177663 0.000000
#
# Coordination Sequence:
#
# PCOD9191504 Si02
#       8
#     8   8   8   8   8   8   8   8
#     4   9  17  31  50  71  97 123 149 193 244 284
#     4  10  21  35  49  69  98 129 163 202 240 281
#     4   9  17  29  48  72  93 120 159 198 242 287
#     4   9  18  32  50  74 101 126 157 198 242 288
#     4  10  20  33  50  72  99 130 162 195 234 283
#     4   9  18  31  48  72  96 122 160 194 230 286
#     4   9  17  30  50  72  96 123 160 203 240 280
#     4   9  19  34  50  71  97 128 163 199 243 287
#
# _framework density 16.953710000000001
#
# number of rings (size 3 to 8) (size 9 to 14) (size 15 to 20)
#    0.000    2.750    0.000    1.875    0.000    7.500 
#    0.000    0.625    0.000    0.000    0.000    0.000 
#    0.000    0.000    0.000    0.000    0.000    0.000 
#
# Total GULP energy -178316.462105 kJ/mol
# GULP energy per Si atom -5572.389441 kJ/mol
# Density = 1.691512 g / cm^3
# Si number density = 16.953710 Si / 1000 Ang^3
#
#
#
# Elastic Constant Matrix: (Units=GPa)
#
#
# Indices 1 2 3 4 5 6 
#
# 1 86.8472 1.0111 21.8517 0.0000 -9.1770 0.0000
# 2 1.0111 35.5002 3.6661 0.0000 -10.0050 0.0000
# 3 21.8517 3.6661 64.6739 0.0000 -17.8180 0.0000
# 4 0.0000 0.0000 0.0000 12.7035 0.0000 -1.1901
# 5 -9.1770 -10.0050 -17.8180 0.0000 29.2434 0.0000
# 6 0.0000 0.0000 0.0000 -1.1901 0.0000 8.1967
#
#
#
# Elastic Compliance Matrix: (Units=1/GPa)
#
#
# Indices 1 2 3 4 5 6 
#
# 1 0.012659 0.000552 -0.003800 0.000000 0.001846 0.000000
# 2 0.000552 0.031306 0.001247 0.000000 0.011644 0.000000
# 3 -0.003800 0.001247 0.019786 0.000000 0.011289 0.000000
# 4 0.000000 0.000000 0.000000 0.079804 0.000000 0.011587
# 5 0.001846 0.011644 0.011289 0.000000 0.045637 0.000000
# 6 0.000000 0.000000 0.000000 0.011587 0.000000 0.123682
#
#
# Mechanical properties :
#
#
# Convention : Reuss Voigt Hill
#
# Bulk Modulus (GPa) = 16.73673 26.67547 21.70610
# Shear Modulus (GPa) = 14.84592 20.72822 17.78707
#
# Velocity S-wave (km/s) = 2.96239 3.50041 3.24258
# Velocity P-wave (km/s) = 4.64698 5.66619 5.18170
#
# Compressibility (1/GPa) = 0.05974881
#
# Stress axis : x y z
#
# Youngs Moduli (GPa) = 78.99379 31.94287 50.54156
#
# Poissons Ratio (x) = -0.01764 0.19205
# Poissons Ratio (y) = -0.04362 -0.06301
# Poissons Ratio (z) = 0.30017 -0.03982
#
# Static dielectric constant tensor:
#      x y z
#    x 1.587080 0.000000 -0.001530 
#    y 0.000000 1.563950 0.000000 
#    z -0.001530 0.000000 1.562720 
# 
# From -- ./inp_files/189439.got.cif
#   From: 2010.05.17/outbox.cif.g08.bks.cpg/sg12_95_cif.got.tgz:189439.got - 2010.06.03 13:09:07.
