data_PCOD9191382
_publ_section_title
;
Structure prediction by ZEFSAII (Michael W. Deem and Ramdas Pophale) SiO2 
 PCOD9191382
Probable space group: C 2/M
;
_chemical_formula_sum "Si O2"
_cell_formula_units_Z 56
_cell_length_a 15.686838
_cell_length_b 7.662860
_cell_length_c 25.223844
_cell_angle_alpha 90.000000
_cell_angle_beta 41.834622
_cell_angle_gamma 90.000000
_cell_volume 2022.330908
_symmetry_space_group_name_H-M "C 2/M"
_symmetry_group_IT_number 12
_symmetry_cell_setting 'monoclinic'
loop_
_space_group_symop_operation_xyz
x,y,z
-x,y,-z
-x,-y,-z
x,-y,z
1/2+x,1/2+y,z
1/2-x,1/2+y,-z
1/2-x,1/2-y,-z
1/2+x,1/2-y,z
loop_
_atom_site_type_symbol
_atom_site_label
_atom_site_fract_x
_atom_site_fract_y
_atom_site_fract_z
Si Si1 0.721919 0.290876 0.333360
Si Si2 0.409408 0.209025 0.383410
Si Si3 0.877963 0.699815 0.512227
Si Si4 0.770444 0.790114 0.053075
Si Si5 0.820172 0.792547 0.766185
Si Si6 0.001680 0.296711 0.799649
Si Si7 0.958588 0.792264 0.096474
O O1 0.733458 0.500000 0.324160
O O2 0.621139 0.259217 0.426909
O O3 0.692281 0.220821 0.288761
O O4 0.863396 0.220580 0.282215
O O5 0.274918 0.286897 0.428473
O O6 0.432421 0.282496 0.432645
O O7 0.533603 0.242091 0.289707
O O8 0.390957 0.000000 0.393483
O O9 0.917041 0.500000 0.492607
O O10 0.640753 0.716689 0.140251
O O11 0.766159 0.000000 0.062584
O O12 0.750000 0.750000 0.000000
O O13 0.916576 0.730431 0.993793
O O14 0.687833 0.732306 0.854339
O O15 0.814921 0.000000 0.767998
O O16 0.995023 0.500000 0.787125
O O17 0.027369 0.292635 0.851913
O O18 0.974895 0.000000 0.094920
#
# Coordination Sequence:
#
# PCOD9191382 Si02
#       7
#     8   8   8   8   8   8   8
#     4   9  18  31  48  71 100 132 162 195 235 280
#     4  10  21  37  55  73  94 122 158 198 238 285
#     4  10  21  36  54  74  96 123 156 196 239 285
#     4   8  13  21  35  56  85 121 158 193 229 272
#     4  10  20  33  49  71 100 131 161 196 239 284
#     4   8  14  25  39  59  90 126 160 193 232 276
#     4   9  15  23  38  62  91 123 158 196 236 276
#
# _framework density 27.690819000000001
#
# number of rings (size 3 to 8) (size 9 to 14) (size 15 to 20)
#    0.000    2.857    0.000    2.571    0.000    5.714 
#    0.000    2.857    0.000    0.000    0.000    1.000 
#    0.000    8.000    0.000    0.000    0.000    0.000 
#
# Total GULP energy -156509.587472 kJ/mol
# GULP energy per Si atom -5589.628124 kJ/mol
# Density = 2.762779 g / cm^3
# Si number density = 27.690819 Si / 1000 Ang^3
#
#
#
# Elastic Constant Matrix: (Units=GPa)
#
#
# Indices 1 2 3 4 5 6 
#
# 1 69.9136 -9.2664 -3.2074 0.0000 -17.2563 0.0002
# 2 -9.2664 89.0771 -10.2397 0.0001 1.2226 0.0006
# 3 -3.2074 -10.2397 227.8056 0.0000 -18.7104 0.0000
# 4 0.0000 0.0001 0.0000 17.4500 0.0000 -3.2909
# 5 -17.2563 1.2226 -18.7104 0.0000 57.9684 0.0001
# 6 0.0002 0.0006 0.0000 -3.2909 0.0001 24.0566
#
#
#
# Elastic Compliance Matrix: (Units=1/GPa)
#
#
# Indices 1 2 3 4 5 6 
#
# 1 0.015759 0.001653 0.000697 0.000000 0.004881 0.000000
# 2 0.001653 0.011458 0.000574 0.000000 0.000436 0.000000
# 3 0.000697 0.000574 0.004562 0.000000 0.001668 0.000000
# 4 0.000000 0.000000 0.000000 0.058824 0.000000 0.008047
# 5 0.004881 0.000436 0.001668 0.000000 0.019233 0.000000
# 6 0.000000 0.000000 0.000000 0.008047 0.000000 0.042670
#
#
# Mechanical properties :
#
#
# Convention : Reuss Voigt Hill
#
# Bulk Modulus (GPa) = 26.57662 37.92993 32.25327
# Shear Modulus (GPa) = 31.40674 47.19566 39.30120
#
# Velocity S-wave (km/s) = 3.37143 4.13289 3.77143
# Velocity P-wave (km/s) = 4.97734 6.04167 5.53514
#
# Compressibility (1/GPa) = 0.03762706
#
# Stress axis : x y z
#
# Youngs Moduli (GPa) = 63.45490 87.27416 219.18664
#
# Poissons Ratio (x) = -0.14422 -0.15279
# Poissons Ratio (y) = -0.10486 -0.12583
# Poissons Ratio (z) = -0.04423 -0.05010
#
# Static dielectric constant tensor:
#      x y z
#    x 2.400580 0.000000 0.025520 
#    y 0.000000 1.953300 0.000000 
#    z 0.025520 0.000000 2.194210 
# 
# From -- ./inp_files/377679.got.cif
#   From: 2010.05.17/outbox.cif.g08.bks.cpg/sg12_189_cif.got.tgz:377679.got - 2010.06.03 13:09:07.
