data_PCOD9191617
_publ_section_title
;
Structure prediction by ZEFSAII (Michael W. Deem and Ramdas Pophale) SiO2 
 PCOD9191617
Probable space group: C 2/M
;
_chemical_formula_sum "Si O2"
_cell_formula_units_Z 56
_cell_length_a 26.812071
_cell_length_b 13.321387
_cell_length_c 8.389886
_cell_angle_alpha 90.000000
_cell_angle_beta 58.071847
_cell_angle_gamma 90.000000
_cell_volume 2543.291693
_symmetry_space_group_name_H-M "C 2/M"
_symmetry_group_IT_number 12
_symmetry_cell_setting 'monoclinic'
loop_
_space_group_symop_operation_xyz
x,y,z
-x,y,-z
-x,-y,-z
x,-y,z
1/2+x,1/2+y,z
1/2-x,1/2+y,-z
1/2-x,1/2-y,-z
1/2+x,1/2-y,z
loop_
_atom_site_type_symbol
_atom_site_label
_atom_site_fract_x
_atom_site_fract_y
_atom_site_fract_z
Si Si1 0.722606 0.675527 0.842330
Si Si2 0.015062 0.111670 0.160122
Si Si3 0.669494 0.392981 0.600240
Si Si4 0.378481 0.612531 0.801472
Si Si5 0.448521 0.776282 0.478738
Si Si6 0.652458 0.173828 0.526741
Si Si7 0.795496 0.606967 0.227002
O O1 0.695567 0.622378 0.731919
O O2 0.791974 0.670298 0.688384
O O3 0.699874 0.790669 0.878451
O O4 0.690531 0.626562 0.046386
O O5 0.982930 0.200628 0.304432
O O6 0.083508 0.117924 0.097763
O O7 0.996743 0.000000 0.247168
O O8 0.000000 0.118270 0.000000
O O9 0.637711 0.500000 0.643668
O O10 0.640021 0.289579 0.600490
O O11 0.727077 0.396600 0.391718
O O12 0.387769 0.500000 0.719759
O O13 0.405659 0.701515 0.651359
O O14 0.500000 0.821267 0.500000
O O15 0.407165 0.855321 0.459378
O O16 0.670987 0.120868 0.659828
O O17 0.812382 0.500000 0.125317
#
# Coordination Sequence:
#
# PCOD9191617 Si02
#       7
#     8   8   8   8   8   8   8
#     4   9  17  29  48  78 107 135 174 216 264 321
#     4   9  19  33  51  76 103 138 181 214 248 310
#     4   8  14  25  44  73 105 133 162 206 263 319
#     4  10  20  33  50  76 115 150 170 205 258 316
#     4  10  21  36  50  70 106 149 183 212 254 308
#     4   9  18  30  50  75 102 138 180 219 263 315
#     4   8  15  29  48  73 103 130 165 221 274 307
#
# _framework density 22.018709999999999
#
# number of rings (size 3 to 8) (size 9 to 14) (size 15 to 20)
#    0.000    3.000    0.000    2.571    4.000    4.000 
#    0.000    0.000    0.000    1.286    0.000    7.000 
#    0.000    0.000    0.000    0.000    0.000    0.000 
#
# Total GULP energy -156162.916942 kJ/mol
# GULP energy per Si atom -5577.247034 kJ/mol
# Density = 2.196859 g / cm^3
# Si number density = 22.018710 Si / 1000 Ang^3
#
#
#
# Elastic Constant Matrix: (Units=GPa)
#
#
# Indices 1 2 3 4 5 6 
#
# 1 82.3759 -3.4348 0.8328 0.0000 -11.1801 0.0000
# 2 -3.4348 61.0076 -6.5269 0.0000 -2.3596 0.0000
# 3 0.8328 -6.5269 38.6657 0.0000 -10.1116 0.0000
# 4 0.0000 0.0000 0.0000 5.7159 0.0000 -5.7404
# 5 -11.1801 -2.3596 -10.1116 0.0000 25.7813 0.0000
# 6 0.0000 0.0000 0.0000 -5.7404 0.0000 8.1769
#
#
#
# Elastic Compliance Matrix: (Units=1/GPa)
#
#
# Indices 1 2 3 4 5 6 
#
# 1 0.013037 0.001150 0.001582 0.000000 0.006379 0.000000
# 2 0.001150 0.016996 0.003768 0.000000 0.003532 0.000000
# 3 0.001582 0.003768 0.029790 0.000000 0.012714 0.000000
# 4 0.000000 0.000000 0.000000 0.593131 0.000000 0.416397
# 5 0.006379 0.003532 0.012714 0.000000 0.046864 0.000000
# 6 0.000000 0.000000 0.000000 0.416397 0.000000 0.414621
#
#
# Mechanical properties :
#
#
# Convention : Reuss Voigt Hill
#
# Bulk Modulus (GPa) = 13.73225 18.19905 15.96565
# Shear Modulus (GPa) = 4.44163 20.68003 12.56083
#
# Velocity S-wave (km/s) = 1.42182 3.06797 2.39103
# Velocity P-wave (km/s) = 2.99092 4.56433 3.85867
#
# Compressibility (1/GPa) = 0.07282130
#
# Stress axis : x y z
#
# Youngs Moduli (GPa) = 76.70357 58.83793 33.56869
#
# Poissons Ratio (x) = -0.06766 -0.05309
# Poissons Ratio (y) = -0.08820 -0.12648
# Poissons Ratio (z) = -0.12131 -0.22169
#
# Static dielectric constant tensor:
#      x y z
#    x 1.882980 0.000000 0.020110 
#    y 0.000000 1.833080 0.000000 
#    z 0.020110 0.000000 1.803630 
# 
# From -- ./inp_files/104720.got.cif
#   From: 2010.05.17/outbox.cif.g08.bks.cpg/sg12_53_cif.got.tgz:104720.got - 2010.06.03 13:09:07.
