data_PCOD9191553
_publ_section_title
;
Structure prediction by ZEFSAII (Michael W. Deem and Ramdas Pophale) SiO2 
 PCOD9191553
Probable space group: C 2/M
;
_chemical_formula_sum "Si O2"
_cell_formula_units_Z 64
_cell_length_a 22.740346
_cell_length_b 7.593172
_cell_length_c 21.348074
_cell_angle_alpha 90.000000
_cell_angle_beta 54.649184
_cell_angle_gamma 90.000000
_cell_volume 3006.556769
_symmetry_space_group_name_H-M "C 2/M"
_symmetry_group_IT_number 12
_symmetry_cell_setting 'monoclinic'
loop_
_space_group_symop_operation_xyz
x,y,z
-x,y,-z
-x,-y,-z
x,-y,z
1/2+x,1/2+y,z
1/2-x,1/2+y,-z
1/2-x,1/2-y,-z
1/2+x,1/2-y,z
loop_
_atom_site_type_symbol
_atom_site_label
_atom_site_fract_x
_atom_site_fract_y
_atom_site_fract_z
Si Si1 0.934276 0.706943 0.167683
Si Si2 0.135785 0.711967 0.579851
Si Si3 0.142371 0.714576 0.118305
Si Si4 0.579888 0.298686 0.020970
Si Si5 0.235921 0.209846 0.408257
Si Si6 0.226836 0.713192 0.750709
Si Si7 0.003460 0.714716 0.737455
Si Si8 0.724982 0.291835 0.887346
O O1 0.923184 0.500000 0.183989
O O2 0.856164 0.779669 0.199711
O O3 0.961890 0.775124 0.217800
O O4 0.999497 0.725540 0.078432
O O5 0.135825 0.500000 0.583802
O O6 0.165331 0.757262 0.493218
O O7 0.195900 0.777778 0.592915
O O8 0.056887 0.773871 0.649688
O O9 0.143119 0.500000 0.112644
O O10 0.116047 0.786148 0.067951
O O11 0.219562 0.777817 0.095085
O O12 0.080109 0.764394 0.206664
O O13 0.569679 0.500000 0.008207
O O14 0.643887 0.214742 0.940372
O O15 0.237036 0.274533 0.336284
O O16 0.245905 0.000000 0.398426
O O17 0.227980 0.500000 0.750894
O O18 0.257405 0.771154 0.798405
O O19 0.004109 0.500000 0.736962
O O20 0.717521 0.500000 0.904405
#
# Coordination Sequence:
#
# PCOD9191553 Si02
#       8
#     8   8   8   8   8   8   8   8
#     4   9  17  32  51  71  96 129 166 199 237 288
#     4   9  15  26  47  73  98 122 151 191 240 287
#     4   9  18  34  55  73  93 127 166 204 243 285
#     4  10  20  33  50  74 101 124 154 206 257 290
#     4   9  17  29  45  70 101 126 153 193 237 283
#     4  10  20  34  52  70  96 134 170 201 234 284
#     4   8  13  26  50  73  93 119 156 200 238 276
#     4  10  22  36  49  70  99 130 164 203 248 290
#
# _framework density 21.286809000000002
#
# number of rings (size 3 to 8) (size 9 to 14) (size 15 to 20)
#    0.000    2.750    1.250    1.500    0.000    3.000 
#    0.000    5.000    0.000    0.750    0.000    5.250 
#    0.000    0.000    0.000    0.000    0.000    0.000 
#
# Total GULP energy -178461.781335 kJ/mol
# GULP energy per Si atom -5576.930667 kJ/mol
# Density = 2.123836 g / cm^3
# Si number density = 21.286809 Si / 1000 Ang^3
#
#
#
# Elastic Constant Matrix: (Units=GPa)
#
#
# Indices 1 2 3 4 5 6 
#
# 1 29.7748 -1.2407 13.5392 -0.0012 1.8048 0.0014
# 2 -1.2407 44.2514 -10.1768 -0.0097 -4.3079 0.0047
# 3 13.5392 -10.1768 139.3704 -0.0008 0.6346 0.0002
# 4 -0.0012 -0.0097 -0.0008 19.2308 0.0004 -0.4569
# 5 1.8048 -4.3079 0.6346 0.0004 24.3053 -0.0001
# 6 0.0014 0.0047 0.0002 -0.4569 -0.0001 7.4943
#
#
#
# Elastic Compliance Matrix: (Units=1/GPa)
#
#
# Indices 1 2 3 4 5 6 
#
# 1 0.035293 -0.000044 -0.003420 0.000002 -0.002539 -0.000006
# 2 -0.000044 0.023386 0.001693 0.000011 0.004104 -0.000014
# 3 -0.003420 0.001693 0.007629 0.000001 0.000355 -0.000001
# 4 0.000002 0.000011 0.000001 0.052075 0.000001 0.003175
# 5 -0.002539 0.004104 0.000355 0.000001 0.042050 -0.000001
# 6 -0.000006 -0.000014 -0.000001 0.003175 -0.000001 0.133627
#
#
# Mechanical properties :
#
#
# Convention : Reuss Voigt Hill
#
# Bulk Modulus (GPa) = 15.93227 24.18221 20.05724
# Shear Modulus (GPa) = 15.69734 24.29107 19.99421
#
# Velocity S-wave (km/s) = 2.71850 3.38173 3.06809
# Velocity P-wave (km/s) = 4.16587 5.16071 4.68975
#
# Compressibility (1/GPa) = 0.06276569
#
# Stress axis : x y z
#
# Youngs Moduli (GPa) = 28.33440 42.76089 131.07182
#
# Poissons Ratio (x) = 0.00189 0.44829
# Poissons Ratio (y) = 0.00125 -0.22194
# Poissons Ratio (z) = 0.09691 -0.07240
#
# Static dielectric constant tensor:
#      x y z
#    x 1.756950 0.000000 -0.018640 
#    y 0.000000 1.802330 0.000000 
#    z -0.018640 0.000000 1.812150 
# 
# From -- ./inp_files/324090.got.cif
#   From: 2010.05.17/outbox.cif.g08.bks.cpg/sg12_163_cif.got.tgz:324090.got - 2010.06.03 13:09:07.
