data_PCOD9191586
_publ_section_title
;
Structure prediction by ZEFSAII (Michael W. Deem and Ramdas Pophale) SiO2 
 PCOD9191586
Probable space group: C 2/M
;
_chemical_formula_sum "Si O2"
_cell_formula_units_Z 48
_cell_length_a 14.432168
_cell_length_b 9.197503
_cell_length_c 21.552239
_cell_angle_alpha 90.000000
_cell_angle_beta 93.101890
_cell_angle_gamma 90.000000
_cell_volume 2856.650772
_symmetry_space_group_name_H-M "C 2/M"
_symmetry_group_IT_number 12
_symmetry_cell_setting 'monoclinic'
loop_
_space_group_symop_operation_xyz
x,y,z
-x,y,-z
-x,-y,-z
x,-y,z
1/2+x,1/2+y,z
1/2-x,1/2+y,-z
1/2-x,1/2-y,-z
1/2+x,1/2-y,z
loop_
_atom_site_type_symbol
_atom_site_label
_atom_site_fract_x
_atom_site_fract_y
_atom_site_fract_z
Si Si1 0.348441 0.174182 0.998007
Si Si2 0.983515 0.673919 0.569897
Si Si3 0.139649 0.325829 0.677400
Si Si4 0.006236 0.173555 0.766006
Si Si5 0.492609 0.174741 0.897520
Si Si6 0.850728 0.173859 0.657972
O O1 0.416647 0.209722 0.057856
O O2 0.337029 0.000000 0.997319
O O3 0.250000 0.250000 0.000000
O O4 0.404425 0.213323 0.937389
O O5 0.968996 0.500000 0.569082
O O6 0.073666 0.703592 0.615801
O O7 0.000000 0.722107 0.500000
O O8 0.897246 0.749280 0.600733
O O9 0.137594 0.500000 0.688816
O O10 0.093668 0.243193 0.733402
O O11 0.245177 0.282235 0.667537
O O12 0.993990 0.243652 0.832713
O O13 0.917117 0.205882 0.719127
O O14 0.016085 0.000000 0.770597
O O15 0.491418 0.000000 0.888126
O O16 0.852033 0.000000 0.648358
#
# Coordination Sequence:
#
# PCOD9191586 Si02
#       6
#     8   8   8   8   8   8
#     4   9  19  35  54  75 100 130 164 200 239 288
#     4   9  18  32  50  73  99 127 162 202 243 290
#     4   9  18  34  52  69  97 134 163 195 246 298
#     4  10  20  33  50  74  99 124 163 209 242 279
#     4   9  19  36  53  71 100 135 163 192 242 299
#     4   9  19  34  50  70  97 129 164 200 242 291
#
# _framework density 16.802894999999999
#
# number of rings (size 3 to 8) (size 9 to 14) (size 15 to 20)
#    0.000    2.833    0.000    1.500    0.000    5.000 
#    0.000    6.667    0.000    0.000    0.000    0.000 
#    0.000    0.000    0.000    0.000    0.000    0.000 
#
# Total GULP energy -133830.685245 kJ/mol
# GULP energy per Si atom -5576.278552 kJ/mol
# Density = 1.676465 g / cm^3
# Si number density = 16.802895 Si / 1000 Ang^3
#
#
#
# Elastic Constant Matrix: (Units=GPa)
#
#
# Indices 1 2 3 4 5 6 
#
# 1 143.6945 50.5314 80.6227 0.0000 -34.4306 0.0000
# 2 50.5314 32.8993 63.3773 0.0000 -8.2786 0.0000
# 3 80.6227 63.3773 173.9817 0.0000 -14.8175 0.0000
# 4 0.0000 0.0000 0.0000 31.9701 0.0000 -5.7078
# 5 -34.4306 -8.2786 -14.8175 0.0000 14.7252 0.0000
# 6 0.0000 0.0000 0.0000 -5.7078 0.0000 28.9805
#
#
#
# Elastic Compliance Matrix: (Units=1/GPa)
#
#
# Indices 1 2 3 4 5 6 
#
# 1 0.040711 -0.067574 0.011617 0.000000 0.068890 0.000000
# 2 -0.067574 0.220906 -0.056914 0.000000 -0.091078 0.000000
# 3 0.011617 -0.056914 0.022624 0.000000 0.017932 0.000000
# 4 0.000000 0.000000 0.000000 0.032419 0.000000 0.006385
# 5 0.068890 -0.091078 0.017932 0.000000 0.195829 0.000000
# 6 0.000000 0.000000 0.000000 0.006385 0.000000 0.035764
#
#
# Mechanical properties :
#
#
# Convention : Reuss Voigt Hill
#
# Bulk Modulus (GPa) = 17.09412 82.18202 49.63807
# Shear Modulus (GPa) = 6.30126 25.53810 15.91968
#
# Velocity S-wave (km/s) = 1.93862 3.90277 3.08139
# Velocity P-wave (km/s) = 3.89954 8.32613 6.50119
#
# Compressibility (1/GPa) = 0.05849965
#
# Stress axis : x y z
#
# Youngs Moduli (GPa) = 24.56368 4.52682 44.20125
#
# Poissons Ratio (x) = 0.30589 -0.51351
# Poissons Ratio (y) = 1.65986 2.51566
# Poissons Ratio (z) = -0.28537 0.25764
#
# Static dielectric constant tensor:
#      x y z
#    x 1.552930 0.000000 0.007590 
#    y 0.000000 1.555800 0.000000 
#    z 0.007590 0.000000 1.542480 
# 
# From -- ./inp_files/307981.got.cif
#   From: 2010.05.17/outbox.cif.g08.bks.cpg/sg12_154_cif.got.tgz:307981.got - 2010.06.03 13:09:07.
