data_PCOD9191411
_publ_section_title
;
Structure prediction by ZEFSAII (Michael W. Deem and Ramdas Pophale) SiO2 
 PCOD9191411
Probable space group: C 2/M
;
_chemical_formula_sum "Si O2"
_cell_formula_units_Z 48
_cell_length_a 21.270084
_cell_length_b 14.202556
_cell_length_c 18.379231
_cell_angle_alpha 90.000000
_cell_angle_beta 158.572891
_cell_angle_gamma 90.000000
_cell_volume 2028.304941
_symmetry_space_group_name_H-M "C 2/M"
_symmetry_group_IT_number 12
_symmetry_cell_setting 'monoclinic'
loop_
_space_group_symop_operation_xyz
x,y,z
-x,y,-z
-x,-y,-z
x,-y,z
1/2+x,1/2+y,z
1/2-x,1/2+y,-z
1/2-x,1/2-y,-z
1/2+x,1/2-y,z
loop_
_atom_site_type_symbol
_atom_site_label
_atom_site_fract_x
_atom_site_fract_y
_atom_site_fract_z
Si Si1 0.130185 0.889706 0.782465
Si Si2 0.002856 0.101179 0.872919
Si Si3 0.349964 0.106684 0.150053
Si Si4 0.592899 0.198694 0.169342
Si Si5 0.785839 0.145975 0.507897
Si Si6 0.528816 0.230164 0.455914
O O1 0.956612 0.874423 0.643488
O O2 0.102646 0.818804 0.686893
O O3 0.145678 0.000000 0.781966
O O4 0.286759 0.859156 0.003202
O O5 0.995928 0.201151 0.906109
O O6 0.841124 0.097549 0.642788
O O7 0.004153 0.000000 0.914521
O O8 0.177713 0.104309 0.013761
O O9 0.482941 0.170233 0.335703
O O10 0.412352 0.000000 0.209156
O O11 0.631382 0.134654 0.282483
O O12 0.780524 0.232207 0.345582
O O13 0.500000 0.153361 0.000000
O O14 0.750000 0.250000 0.500000
O O15 0.500000 0.175928 0.500000
#
# Coordination Sequence:
#
# PCOD9191411 Si02
#       6
#     8   8   8   8   8   8
#     4   9  18  34  56  79 105 138 177 220 265 314
#     4   9  17  32  55  78 100 129 166 210 262 319
#     4   9  18  34  56  81 106 133 170 219 272 320
#     4  10  20  33  49  72 103 137 171 207 254 309
#     4   8  15  29  51  76  98 126 166 210 253 301
#     4  11  22  34  52  77 107 143 178 218 262 310
#
# _framework density 23.66508
#
# number of rings (size 3 to 8) (size 9 to 14) (size 15 to 20)
#    0.000    2.667    0.000    3.000    0.000    1.667 
#    0.000    1.667    0.000   12.500    0.000   26.833 
#    0.000    0.000    0.000    0.000    0.000    0.000 
#
# Total GULP energy -133819.418833 kJ/mol
# GULP energy per Si atom -5575.809118 kJ/mol
# Density = 2.361122 g / cm^3
# Si number density = 23.665080 Si / 1000 Ang^3
#
#
#
# Elastic Constant Matrix: (Units=GPa)
#
#
# Indices 1 2 3 4 5 6 
#
# 1 47.9428 -5.1621 20.8446 -0.0008 7.4362 -0.0004
# 2 -5.1621 46.6440 11.2486 -0.0001 4.1123 -0.0001
# 3 20.8446 11.2486 133.3640 -0.0019 -18.1003 -0.0008
# 4 -0.0008 -0.0001 -0.0019 4.0189 -0.0003 -4.1258
# 5 7.4362 4.1123 -18.1003 -0.0003 25.1006 -0.0002
# 6 -0.0004 -0.0001 -0.0008 -4.1258 -0.0002 10.7147
#
#
#
# Elastic Compliance Matrix: (Units=1/GPa)
#
#
# Indices 1 2 3 4 5 6 
#
# 1 0.026313 0.005630 -0.006397 0.000003 -0.013331 0.000001
# 2 0.005630 0.023783 -0.004036 -0.000001 -0.008475 0.000000
# 3 -0.006397 -0.004036 0.010182 0.000008 0.009899 0.000004
# 4 0.000003 -0.000001 0.000008 0.411488 0.000011 0.158446
# 5 -0.013331 -0.008475 0.009899 0.000011 0.052315 0.000005
# 6 0.000001 0.000000 0.000004 0.158446 0.000005 0.154340
#
#
# Mechanical properties :
#
#
# Convention : Reuss Voigt Hill
#
# Bulk Modulus (GPa) = 19.73481 31.31257 25.52369
# Shear Modulus (GPa) = 7.09302 21.36814 14.23058
#
# Velocity S-wave (km/s) = 1.73314 3.00816 2.45487
# Velocity P-wave (km/s) = 3.51601 5.03246 4.34096
#
# Compressibility (1/GPa) = 0.05067189
#
# Stress axis : x y z
#
# Youngs Moduli (GPa) = 38.00367 42.04761 98.21272
#
# Poissons Ratio (x) = -0.23673 0.62825
# Poissons Ratio (y) = -0.21396 0.39640
# Poissons Ratio (z) = 0.24310 0.16971
#
# Static dielectric constant tensor:
#      x y z
#    x 1.905430 0.000000 -0.006620 
#    y 0.000000 1.903310 0.000000 
#    z -0.006620 0.000000 1.928840 
# 
# From -- ./inp_files/328219.got.cif
#   From: 2010.05.17/outbox.cif.g08.bks.cpg/sg12_165_cif.got.tgz:328219.got - 2010.06.03 13:09:07.
