data_PCOD9191503
_publ_section_title
;
Structure prediction by ZEFSAII (Michael W. Deem and Ramdas Pophale) SiO2 
 PCOD9191503
Probable space group: C 2/M
;
_chemical_formula_sum "Si O2"
_cell_formula_units_Z 34
_cell_length_a 24.421502
_cell_length_b 7.372623
_cell_length_c 6.760916
_cell_angle_alpha 90.000000
_cell_angle_beta 97.913194
_cell_angle_gamma 90.000000
_cell_volume 1205.715039
_symmetry_space_group_name_H-M "C 2/M"
_symmetry_group_IT_number 12
_symmetry_cell_setting 'monoclinic'
loop_
_space_group_symop_operation_xyz
x,y,z
-x,y,-z
-x,-y,-z
x,-y,z
1/2+x,1/2+y,z
1/2-x,1/2+y,-z
1/2-x,1/2-y,-z
1/2+x,1/2-y,z
loop_
_atom_site_type_symbol
_atom_site_label
_atom_site_fract_x
_atom_site_fract_y
_atom_site_fract_z
Si Si1 0.585925 0.791394 0.548020
Si Si2 0.704462 0.717839 0.721525
Si Si3 0.561805 0.219785 0.996356
Si Si4 0.677569 0.789025 0.168497
Si Si5 0.500000 0.500000 0.500000
O O1 0.652185 0.770661 0.560823
O O2 0.576047 0.742271 0.775078
O O3 0.542019 0.657781 0.433374
O O4 0.571427 0.000000 0.503357
O O5 0.706261 0.500000 0.727316
O O6 0.766307 0.790249 0.709769
O O7 0.690604 0.782380 0.937742
O O8 0.560969 0.000000 0.018313
O O9 0.500000 0.287214 0.000000
O O10 0.615218 0.285613 0.146010
O O11 0.674884 0.000000 0.220602
#
# Coordination Sequence:
#
# PCOD9191503 Si02
#       5
#     8   8   8   8   2
#     4  10  20  33  50  72  99 128 163 203 243 288
#     4   9  14  24  40  64  96 125 153 194 239 286
#     4   8  14  27  47  73 105 131 155 191 242 301
#     4   8  14  22  39  65  96 130 154 182 238 297
#     4  12  22  36  50  70  96 132 168 210 240 274
#
# _framework density 28.199036
#
# number of rings (size 3 to 8) (size 9 to 14) (size 15 to 20)
#    0.000    3.059    1.176    2.471    0.000    0.941 
#    0.000    0.588    0.000    0.000    0.000    1.647 
#    0.000    0.000    0.000    0.000    0.000    0.000 
#
# Total GULP energy -94929.918799 kJ/mol
# GULP energy per Si atom -5584.112871 kJ/mol
# Density = 2.813485 g / cm^3
# Si number density = 28.199036 Si / 1000 Ang^3
#
#
#
# Elastic Constant Matrix: (Units=GPa)
#
#
# Indices 1 2 3 4 5 6 
#
# 1 338.5701 43.1460 56.5424 0.0000 21.2523 0.0000
# 2 43.1460 143.5464 -4.2567 0.0000 3.0590 0.0000
# 3 56.5424 -4.2567 117.8731 0.0000 29.4388 0.0000
# 4 0.0000 0.0000 0.0000 1.8266 0.0000 3.1238
# 5 21.2523 3.0590 29.4388 0.0000 56.6801 0.0000
# 6 0.0000 0.0000 0.0000 3.1238 0.0000 24.0115
#
#
#
# Elastic Compliance Matrix: (Units=1/GPa)
#
#
# Indices 1 2 3 4 5 6 
#
# 1 0.003372 -0.001051 -0.001556 0.000000 -0.000400 0.000000
# 2 -0.001051 0.007318 0.000883 0.000000 -0.000460 0.000000
# 3 -0.001556 0.000883 0.010489 0.000000 -0.004912 0.000000
# 4 0.000000 0.000000 0.000000 0.704103 0.000000 -0.091600
# 5 -0.000400 -0.000460 -0.004912 0.000000 0.020369 0.000000
# 6 0.000000 0.000000 0.000000 -0.091600 0.000000 0.053563
#
#
# Mechanical properties :
#
#
# Convention : Reuss Voigt Hill
#
# Bulk Modulus (GPa) = 56.39550 87.87256 72.13403
# Shear Modulus (GPa) = 6.18373 50.14083 28.16228
#
# Velocity S-wave (km/s) = 1.48245 4.22133 3.16364
# Velocity P-wave (km/s) = 4.79298 7.41544 6.24345
#
# Compressibility (1/GPa) = 0.01773191
#
# Stress axis : x y z
#
# Youngs Moduli (GPa) = 296.51599 136.64244 95.34061
#
# Poissons Ratio (x) = 0.14365 0.14834
# Poissons Ratio (y) = 0.31173 -0.08422
# Poissons Ratio (z) = 0.46135 -0.12070
#
# Static dielectric constant tensor:
#      x y z
#    x 2.227810 0.000000 -0.009140 
#    y 0.000000 2.016300 0.000000 
#    z -0.009140 0.000000 2.354880 
# 
# From -- ./inp_files/92485.got.cif
#   From: 2010.05.17/outbox.cif.g08.bks.cpg/sg12_47_cif.got.tgz:92485.got - 2010.06.03 13:09:07.
