data_PCOD9191218
_publ_section_title
;
Structure prediction by ZEFSAII (Michael W. Deem and Ramdas Pophale) SiO2 
 PCOD9191218
Probable space group: C 2/M
;
_chemical_formula_sum "Si O2"
_cell_formula_units_Z 58
_cell_length_a 20.772827
_cell_length_b 17.691901
_cell_length_c 12.658958
_cell_angle_alpha 90.000000
_cell_angle_beta 38.431186
_cell_angle_gamma 90.000000
_cell_volume 2891.752230
_symmetry_space_group_name_H-M "C 2/M"
_symmetry_group_IT_number 12
_symmetry_cell_setting 'monoclinic'
loop_
_space_group_symop_operation_xyz
x,y,z
-x,y,-z
-x,-y,-z
x,-y,z
1/2+x,1/2+y,z
1/2-x,1/2+y,-z
1/2-x,1/2-y,-z
1/2+x,1/2-y,z
loop_
_atom_site_type_symbol
_atom_site_label
_atom_site_fract_x
_atom_site_fract_y
_atom_site_fract_z
Si Si1 0.685506 0.368732 0.004534
Si Si2 0.690914 0.223975 0.851097
Si Si3 0.513633 0.874508 0.157032
Si Si4 0.017329 0.082911 0.851435
Si Si5 0.393896 0.697542 0.680683
Si Si6 0.635273 0.265052 0.689706
Si Si7 0.000000 0.500000 0.000000
Si Si8 0.922922 0.625193 0.693143
O O1 0.683353 0.286727 0.951453
O O2 0.802374 0.399117 0.839559
O O3 0.593220 0.412485 0.065329
O O4 0.657377 0.352824 0.162239
O O5 0.812159 0.206104 0.690562
O O6 0.643979 0.256921 0.805041
O O7 0.625527 0.152475 0.971013
O O8 0.440923 0.800747 0.251088
O O9 0.530331 0.900162 0.255458
O O10 0.475453 0.934603 0.121647
O O11 0.087621 0.153242 0.725297
O O12 0.064021 0.000000 0.771328
O O13 0.000000 0.089797 0.000000
O O14 0.500000 0.665368 0.500000
O O15 0.417233 0.782153 0.695740
O O16 0.750000 0.250000 0.500000
O O17 0.000000 0.602206 0.500000
#
# Coordination Sequence:
#
# PCOD9191218 Si02
#       8
#     8   8   8   8   8   8   2   8
#     4  11  19  38  63  94 130 174 217 276 345 406
#     4  11  19  37  64  93 128 170 226 276 335 405
#     4  12  22  45  64  96 130 180 233 275 344 402
#     4  11  23  42  67  96 130 171 224 279 338 404
#     4  10  20  32  62 102 131 164 221 285 333 404
#     4  12  25  39  69  98 132 181 226 284 343 420
#     4  12  28  44  70  92 132 184 236 278 330 408
#     4  10  21  36  64  97 133 171 225 287 341 413
#
# _framework density 20.057044000000001
#
# number of rings (size 3 to 8) (size 9 to 14) (size 15 to 20)
#    0.000    0.966    6.897    0.828    7.724    0.000 
#    2.483    0.345    0.000    0.414    0.000    0.000 
#    0.000    0.000    0.000    0.000    0.000    0.000 
#
# Total GULP energy -161701.898645 kJ/mol
# GULP energy per Si atom -5575.927539 kJ/mol
# Density = 2.001139 g / cm^3
# Si number density = 20.057044 Si / 1000 Ang^3
#
#
#
# Elastic Constant Matrix: (Units=GPa)
#
#
# Indices 1 2 3 4 5 6 
#
# 1 116.7670 24.5458 40.9320 0.0000 -3.4024 0.0000
# 2 24.5458 99.0020 31.9457 0.0000 -8.7783 0.0000
# 3 40.9320 31.9457 107.5509 0.0000 -11.9746 0.0000
# 4 0.0000 0.0000 0.0000 -0.2190 0.0000 -0.0814
# 5 -3.4024 -8.7783 -11.9746 0.0000 35.1440 0.0000
# 6 0.0000 0.0000 0.0000 -0.0814 0.0000 -3.4775
#
#
#
# Elastic Compliance Matrix: (Units=1/GPa)
#
#
# Indices 1 2 3 4 5 6 
#
# 1 0.010063 -0.001426 -0.003469 0.000000 -0.000564 0.000000
# 2 -0.001426 0.011475 -0.002663 0.000000 0.001821 0.000000
# 3 -0.003469 -0.002663 0.011743 0.000000 0.003000 0.000000
# 4 0.000000 0.000000 0.000000 -4.606000 0.000000 0.107764
# 5 -0.000564 0.001821 0.003000 0.000000 0.029877 0.000000
# 6 0.000000 0.000000 0.000000 0.107764 0.000000 -0.290081
#
#
# Mechanical properties :
#
#
# Convention : Reuss Voigt Hill
#
# Bulk Modulus (GPa) = 55.04858 57.57408 56.31133
# Shear Modulus (GPa) = -1.03912 21.34926 10.15507
#
# Velocity S-wave (km/s) = -0.72056 3.26610 2.25257
# Velocity P-wave (km/s) = 5.17816 6.55673 5.90779
#
# Compressibility (1/GPa) = 0.01816577
#
# Stress axis : x y z
#
# Youngs Moduli (GPa) = 99.36945 87.14570 85.15453
#
# Poissons Ratio (x) = 0.12423 0.29543
# Poissons Ratio (y) = 0.14166 0.22678
# Poissons Ratio (z) = 0.34474 0.23208
#
# Static dielectric constant tensor:
#      x y z
#    x 1.728970 0.000000 -0.012880 
#    y 0.000000 1.706010 0.000000 
#    z -0.012880 0.000000 1.716940 
# 
# From -- ./inp_files/168934.got.cif
#   From: 2010.05.17/outbox.cif.g08.bks.cpg/sg12_85_cif.got.tgz:168934.got - 2010.06.03 13:09:07.
