data_PCOD9191949
_publ_section_title
;
Structure prediction by ZEFSAII (Michael W. Deem and Ramdas Pophale) SiO2 
 PCOD9191949
Probable space group: C 2/M
;
_chemical_formula_sum "Si O2"
_cell_formula_units_Z 56
_cell_length_a 23.325545
_cell_length_b 7.222374
_cell_length_c 19.385985
_cell_angle_alpha 90.000000
_cell_angle_beta 40.046183
_cell_angle_gamma 90.000000
_cell_volume 2101.280296
_symmetry_space_group_name_H-M "C 2/M"
_symmetry_group_IT_number 12
_symmetry_cell_setting 'monoclinic'
loop_
_space_group_symop_operation_xyz
x,y,z
-x,y,-z
-x,-y,-z
x,-y,z
1/2+x,1/2+y,z
1/2-x,1/2+y,-z
1/2-x,1/2-y,-z
1/2+x,1/2-y,z
loop_
_atom_site_type_symbol
_atom_site_label
_atom_site_fract_x
_atom_site_fract_y
_atom_site_fract_z
Si Si1 0.306016 0.780584 0.380591
Si Si2 0.506014 0.789741 0.416986
Si Si3 0.516252 0.226070 0.709106
Si Si4 0.987200 0.711829 0.092896
Si Si5 0.292801 0.275155 0.812971
Si Si6 0.358606 0.224354 0.949073
Si Si7 0.291060 0.775637 0.253661
O O1 0.250000 0.750000 0.500000
O O2 0.406195 0.715073 0.309577
O O3 0.248049 0.721539 0.366392
O O4 0.316264 0.000000 0.361943
O O5 0.500000 0.707619 0.500000
O O6 0.462546 0.707729 0.387836
O O7 0.608448 0.791101 0.296271
O O8 0.472817 0.000000 0.455300
O O9 0.418035 0.283110 0.828213
O O10 0.515139 0.000000 0.708027
O O11 0.981067 0.500000 0.124064
O O12 0.889074 0.791209 0.185044
O O13 0.072970 0.783683 0.052920
O O14 0.000000 0.705483 0.000000
O O15 0.295178 0.500000 0.812587
O O16 0.239777 0.213978 0.792528
O O17 0.238317 0.215021 0.932269
O O18 0.352986 0.000000 0.951543
O O19 0.291070 0.000000 0.246164
#
# Coordination Sequence:
#
# PCOD9191949 Si02
#       7
#     8   8   8   8   8   8   8
#     4  10  20  33  52  78 106 136 171 213 258 304
#     4  10  23  41  56  70  97 143 190 219 245 297
#     4   9  18  34  54  75 102 139 180 217 253 303
#     4   9  12  19  39  71 106 131 150 186 244 308
#     4  10  20  33  54  85 110 130 163 216 273 314
#     4   9  15  26  49  80 108 130 163 212 265 315
#     4   9  16  27  46  77 110 131 157 203 260 311
#
# _framework density 26.650417999999998
#
# number of rings (size 3 to 8) (size 9 to 14) (size 15 to 20)
#    0.000    2.571    2.857    0.000    2.000    0.857 
#    0.000    0.714    0.000    0.857    0.000    1.000 
#    0.000    0.000    0.000    0.000    0.000    0.000 
#
# Total GULP energy -156098.797633 kJ/mol
# GULP energy per Si atom -5574.957058 kJ/mol
# Density = 2.658976 g / cm^3
# Si number density = 26.650418 Si / 1000 Ang^3
#
#
#
# Elastic Constant Matrix: (Units=GPa)
#
#
# Indices 1 2 3 4 5 6 
#
# 1 112.9729 6.4478 33.7508 -0.0071 34.8212 0.0068
# 2 6.4478 128.2631 -9.3532 -0.0043 7.6259 0.0278
# 3 33.7508 -9.3532 131.5103 -0.0044 23.5050 0.0037
# 4 -0.0071 -0.0043 -0.0044 14.5046 0.0016 -6.0950
# 5 34.8212 7.6259 23.5050 0.0016 62.7938 -0.0046
# 6 0.0068 0.0278 0.0037 -6.0950 -0.0046 -12.3306
#
#
#
# Elastic Compliance Matrix: (Units=1/GPa)
#
#
# Indices 1 2 3 4 5 6 
#
# 1 0.011109 -0.000377 -0.001913 0.000007 -0.005398 0.000003
# 2 -0.000377 0.007942 0.000854 0.000008 -0.001075 0.000014
# 3 -0.001913 0.000854 0.008557 0.000003 -0.002246 0.000003
# 4 0.000007 0.000008 0.000003 0.057086 -0.000009 -0.028218
# 5 -0.005398 -0.001075 -0.002246 -0.000009 0.019890 -0.000009
# 6 0.000003 0.000014 0.000003 -0.028218 -0.000009 -0.067151
#
#
# Mechanical properties :
#
#
# Convention : Reuss Voigt Hill
#
# Bulk Modulus (GPa) = 40.42874 48.27080 44.34977
# Shear Modulus (GPa) = 102.98814 35.78696 69.38755
#
# Velocity S-wave (km/s) = 6.22318 3.66844 5.10810
# Velocity P-wave (km/s) = 8.17559 6.00793 7.17410
#
# Compressibility (1/GPa) = 0.02473488
#
# Stress axis : x y z
#
# Youngs Moduli (GPa) = 90.02070 125.91944 116.86297
#
# Poissons Ratio (x) = 0.04747 0.22354
# Poissons Ratio (y) = 0.03393 -0.09976
# Poissons Ratio (z) = 0.17220 -0.10750
#
# Static dielectric constant tensor:
#      x y z
#    x 2.156240 0.000000 0.087000 
#    y 0.000000 2.055530 0.000030 
#    z 0.087000 0.000030 2.459580 
# 
# From -- ./inp_files/325128.got.cif
#   From: 2010.05.17/outbox.cif.g08.bks.cpg/sg12_163_cif.got.tgz:325128.got - 2010.06.03 13:09:07.
