data_PCOD9191005
_publ_section_title
;
Structure prediction by ZEFSAII (Michael W. Deem and Ramdas Pophale) SiO2 
 PCOD9191005
Probable space group: C 2/M
;
_chemical_formula_sum "Si O2"
_cell_formula_units_Z 64
_cell_length_a 28.031093
_cell_length_b 17.508089
_cell_length_c 19.014555
_cell_angle_alpha 90.000000
_cell_angle_beta 22.536368
_cell_angle_gamma 90.000000
_cell_volume 3576.592991
_symmetry_space_group_name_H-M "C 2/M"
_symmetry_group_IT_number 12
_symmetry_cell_setting 'monoclinic'
loop_
_space_group_symop_operation_xyz
x,y,z
-x,y,-z
-x,-y,-z
x,-y,z
1/2+x,1/2+y,z
1/2-x,1/2+y,-z
1/2-x,1/2-y,-z
1/2+x,1/2-y,z
loop_
_atom_site_type_symbol
_atom_site_label
_atom_site_fract_x
_atom_site_fract_y
_atom_site_fract_z
Si Si1 0.535852 0.849188 0.029753
Si Si2 0.893246 0.800450 0.979471
Si Si3 0.881259 0.752405 0.614219
Si Si4 0.830637 0.411839 0.406541
Si Si5 0.687366 0.413171 0.354037
Si Si6 0.869766 0.152488 0.419818
Si Si7 0.122983 0.915542 0.877983
Si Si8 0.672768 0.808788 0.463427
O O1 0.428450 0.899927 0.210634
O O2 0.500000 0.827946 0.000000
O O3 0.552165 0.771432 0.051655
O O4 0.665320 0.895168 0.850806
O O5 0.746652 0.777666 0.174458
O O6 0.899752 0.877562 0.016117
O O7 0.989142 0.818214 0.785752
O O8 0.870526 0.843084 0.611817
O O9 0.892097 0.712451 0.522287
O O10 0.000000 0.736492 0.500000
O O11 0.817381 0.500000 0.444117
O O12 0.698962 0.381071 0.555158
O O13 0.883603 0.362431 0.399474
O O14 0.661743 0.500000 0.366081
O O15 0.643043 0.402302 0.495425
O O16 0.795553 0.228812 0.543319
O O17 0.208620 0.856173 0.721215
O O18 0.179295 0.000000 0.807550
O O19 0.000000 0.921308 0.000000
#
# Coordination Sequence:
#
# PCOD9191005 Si02
#       8
#     8   8   8   8   8   8   8   8
#     4  11  21  34  54  82 120 166 198 221 265 339
#     4  10  21  35  58  81 112 149 190 240 282 334
#     4   9  21  42  65  86 101 145 201 247 297 343
#     4  12  23  32  54  86 123 161 190 227 274 337
#     4  10  21  36  56  86 123 153 189 238 284 335
#     4  11  21  34  53  86 120 158 189 220 274 345
#     4  10  20  32  51  79 112 149 188 229 276 331
#     4  10  21  37  54  78 116 149 190 236 280 336
#
# _framework density 17.894124999999999
#
# number of rings (size 3 to 8) (size 9 to 14) (size 15 to 20)
#    0.000    1.625    2.500    3.375    1.750    2.750 
#    0.000    2.500    0.000    9.375    0.000    0.000 
#    0.000    0.000    0.000    0.000    0.000    0.000 
#
# Total GULP energy -178404.017340 kJ/mol
# GULP energy per Si atom -5575.125542 kJ/mol
# Density = 1.785340 g / cm^3
# Si number density = 17.894125 Si / 1000 Ang^3
#
#
#
# Elastic Constant Matrix: (Units=GPa)
#
#
# Indices 1 2 3 4 5 6 
#
# 1 60.8996 29.4752 39.3775 0.0011 -9.8239 0.0007
# 2 29.4752 106.8919 29.5121 -0.0027 -7.3182 -0.0014
# 3 39.3775 29.5121 77.9716 -0.0032 4.6284 -0.0017
# 4 0.0011 -0.0027 -0.0032 955.4268 -0.0011 518.2557
# 5 -9.8239 -7.3182 4.6284 -0.0011 27.8332 -0.0006
# 6 0.0007 -0.0014 -0.0017 518.2557 -0.0006 292.6313
#
#
#
# Elastic Compliance Matrix: (Units=1/GPa)
#
#
# Indices 1 2 3 4 5 6 
#
# 1 0.029034 -0.003309 -0.014107 0.000000 0.011724 0.000000
# 2 -0.003309 0.011160 -0.002684 0.000000 0.002213 0.000000
# 3 -0.014107 -0.002684 0.021515 0.000000 -0.009263 0.000000
# 4 0.000000 0.000000 0.000000 0.026606 0.000000 -0.047119
# 5 0.011724 0.002213 -0.009263 0.000000 0.042188 0.000000
# 6 0.000000 0.000000 0.000000 -0.047119 0.000000 0.086866
#
#
# Mechanical properties :
#
#
# Convention : Reuss Voigt Hill
#
# Bulk Modulus (GPa) = 46.48962 49.16586 47.82774
# Shear Modulus (GPa) = 18.88644 265.00482 141.94563
#
# Velocity S-wave (km/s) = 3.25230 12.18267 8.91614
# Velocity P-wave (km/s) = 6.33562 15.01418 11.52314
#
# Compressibility (1/GPa) = 0.02151018
#
# Stress axis : x y z
#
# Youngs Moduli (GPa) = 34.44190 89.60327 46.47868
#
# Poissons Ratio (x) = 0.29648 0.65566
# Poissons Ratio (y) = 0.11396 0.12477
# Poissons Ratio (z) = 0.48586 0.24054
#
# Static dielectric constant tensor:
#      x y z
#    x 1.777720 0.000000 0.255890 
#    y 0.000000 1.627480 0.000000 
#    z 0.255890 0.000000 1.911440 
# 
# From -- ./inp_files/330496.got.cif
#   From: 2010.05.17/outbox.cif.g08.bks.cpg/sg12_166_cif.got.tgz:330496.got - 2010.06.03 13:09:07.
