data_PCOD9191184
_publ_section_title
;
Structure prediction by ZEFSAII (Michael W. Deem and Ramdas Pophale) SiO2 
 PCOD9191184
Probable space group: C 2/M
;
_chemical_formula_sum "Si O2"
_cell_formula_units_Z 44
_cell_length_a 31.229042
_cell_length_b 9.888146
_cell_length_c 10.501597
_cell_angle_alpha 90.000000
_cell_angle_beta 131.879852
_cell_angle_gamma 90.000000
_cell_volume 2414.463336
_symmetry_space_group_name_H-M "C 2/M"
_symmetry_group_IT_number 12
_symmetry_cell_setting 'monoclinic'
loop_
_space_group_symop_operation_xyz
x,y,z
-x,y,-z
-x,-y,-z
x,-y,z
1/2+x,1/2+y,z
1/2-x,1/2+y,-z
1/2-x,1/2-y,-z
1/2+x,1/2-y,z
loop_
_atom_site_type_symbol
_atom_site_label
_atom_site_fract_x
_atom_site_fract_y
_atom_site_fract_z
Si Si1 0.000000 0.750054 0.500000
Si Si2 0.594477 0.731573 0.879387
Si Si3 0.079474 0.500000 0.263366
Si Si4 0.560236 0.500000 0.296527
Si Si5 0.308364 0.164394 0.111122
Si Si6 0.076953 0.000000 0.033572
Si Si7 0.904744 0.279840 0.505226
Si Si8 0.445582 0.000000 0.065418
O O1 0.047364 0.824240 0.683217
O O2 0.043186 0.674861 0.487170
O O3 0.652627 0.776288 0.925808
O O4 0.601858 0.629346 0.009909
O O5 0.567283 0.867961 0.879946
O O6 0.100515 0.369526 0.379851
O O7 0.011183 0.500000 0.152157
O O8 0.091003 0.500000 0.137254
O O9 0.491643 0.500000 0.133804
O O10 0.579017 0.630539 0.414637
O O11 0.585466 0.500000 0.202355
O O12 0.346902 0.200479 0.310866
O O13 0.301391 0.000000 0.088121
O O14 0.250000 0.250000 0.000000
#
# Coordination Sequence:
#
# PCOD9191184 Si02
#       8
#     4   8   4   4   8   4   8   4
#     4  10  20  32  56  86 124 154 200 234 312 352
#     4  11  22  37  60  88 126 160 201 253 301 367
#     4  11  20  34  58  91 125 163 199 239 300 369
#     4  11  22  38  58  93 135 169 203 241 292 365
#     4  11  26  44  66  91 118 157 206 264 316 364
#     4  11  22  38  58  93 135 169 203 241 292 365
#     4  11  22  37  60  88 126 160 201 253 301 367
#     4  11  20  34  58  91 125 163 199 239 300 369
#
# _framework density 18.223511999999999
#
# number of rings (size 3 to 8) (size 9 to 14) (size 15 to 20)
#    0.000    1.091    5.455    1.091    2.545    6.545 
#    0.000    0.000    0.000    6.545    0.000    0.000 
#    0.000    0.000    0.000    0.000    0.000    0.000 
#
# Total GULP energy -122687.576686 kJ/mol
# GULP energy per Si atom -5576.708031 kJ/mol
# Density = 1.818203 g / cm^3
# Si number density = 18.223512 Si / 1000 Ang^3
#
#
#
# Elastic Constant Matrix: (Units=GPa)
#
#
# Indices 1 2 3 4 5 6 
#
# 1 99.4334 43.6688 63.7784 0.0000 2.3842 0.0000
# 2 43.6688 132.4447 43.5723 0.0000 -1.9942 0.0000
# 3 63.7784 43.5723 100.2667 0.0000 -0.0816 0.0000
# 4 0.0000 0.0000 0.0000 12.2530 0.0000 -10.9217
# 5 2.3842 -1.9942 -0.0816 0.0000 35.7443 0.0000
# 6 0.0000 0.0000 0.0000 -10.9217 0.0000 7.7706
#
#
#
# Elastic Compliance Matrix: (Units=1/GPa)
#
#
# Indices 1 2 3 4 5 6 
#
# 1 0.017725 -0.002514 -0.010183 0.000000 -0.001346 0.000000
# 2 -0.002514 0.009175 -0.002387 0.000000 0.000674 0.000000
# 3 -0.010183 -0.002387 0.017489 0.000000 0.000586 0.000000
# 4 0.000000 0.000000 0.000000 -0.322830 0.000000 -0.453743
# 5 -0.001346 0.000674 0.000586 0.000000 0.028105 0.000000
# 6 0.000000 0.000000 0.000000 -0.453743 0.000000 -0.509053
#
#
# Mechanical properties :
#
#
# Convention : Reuss Voigt Hill
#
# Bulk Modulus (GPa) = 70.32733 70.46488 70.39610
# Shear Modulus (GPa) = -6.90151 23.22859 8.16354
#
# Velocity S-wave (km/s) = -1.94817 3.57410 2.11882
# Velocity P-wave (km/s) = 5.79783 7.46881 6.68573
#
# Compressibility (1/GPa) = 0.01421922
#
# Stress axis : x y z
#
# Youngs Moduli (GPa) = 56.41678 108.99387 57.17985
#
# Poissons Ratio (x) = 0.27405 0.58228
# Poissons Ratio (y) = 0.14185 0.13650
# Poissons Ratio (z) = 0.57451 0.26018
#
# Static dielectric constant tensor:
#      x y z
#    x 1.617420 0.000000 -0.018890 
#    y 0.000000 1.621540 0.000000 
#    z -0.018890 0.000000 1.653710 
# 
# From -- ./inp_files/103417.got.cif
#   From: 2010.05.17/outbox.cif.g08.bks.cpg/sg12_52_cif.got.tgz:103417.got - 2010.06.03 13:09:07.
