data_PCOD9191865
_publ_section_title
;
Structure prediction by ZEFSAII (Michael W. Deem and Ramdas Pophale) SiO2 
 PCOD9191865
Probable space group: C 2/M
;
_chemical_formula_sum "Si O2"
_cell_formula_units_Z 64
_cell_length_a 10.122798
_cell_length_b 27.088936
_cell_length_c 12.258367
_cell_angle_alpha 90.000000
_cell_angle_beta 98.959131
_cell_angle_gamma 90.000000
_cell_volume 3320.427603
_symmetry_space_group_name_H-M "C 2/M"
_symmetry_group_IT_number 12
_symmetry_cell_setting 'monoclinic'
loop_
_space_group_symop_operation_xyz
x,y,z
-x,y,-z
-x,-y,-z
x,-y,z
1/2+x,1/2+y,z
1/2-x,1/2+y,-z
1/2-x,1/2-y,-z
1/2+x,1/2-y,z
loop_
_atom_site_type_symbol
_atom_site_label
_atom_site_fract_x
_atom_site_fract_y
_atom_site_fract_z
Si Si1 0.183452 0.555875 0.866628
Si Si2 0.825814 0.556983 0.586116
Si Si3 0.736639 0.592553 0.349996
Si Si4 0.564938 0.118681 0.213096
Si Si5 0.220606 0.056477 0.887987
Si Si6 0.602368 0.786518 0.355129
Si Si7 0.041875 0.056696 0.669216
Si Si8 0.191154 0.299019 0.608211
O O1 0.124708 0.500000 0.866819
O O2 0.252715 0.561667 0.758952
O O3 0.072586 0.599135 0.856619
O O4 0.281110 0.561194 0.982570
O O5 0.858106 0.500000 0.606806
O O6 0.821329 0.569589 0.459090
O O7 0.923966 0.589858 0.670074
O O8 0.676622 0.565560 0.617401
O O9 0.582443 0.591557 0.368463
O O10 0.785517 0.647851 0.336786
O O11 0.678323 0.096083 0.149764
O O12 0.593793 0.174698 0.254171
O O13 0.086001 0.061210 0.801108
O O14 0.268542 0.000000 0.869625
O O15 0.688247 0.737458 0.347189
O O16 0.673963 0.807463 0.475022
O O17 0.449097 0.776786 0.369100
O O18 0.999799 0.000000 0.641439
#
# Coordination Sequence:
#
# PCOD9191865 Si02
#       8
#     8   8   8   8   8   8   8   8
#     4  11  22  34  55  86 121 158 194 233 288 349
#     4  10  20  33  51  81 121 156 186 228 285 361
#     4  12  21  34  54  84 117 151 189 236 297 355
#     4  11  19  35  58  82 112 150 193 240 291 344
#     4   9  20  37  55  82 116 156 205 242 274 340
#     4  10  21  40  60  83 115 153 195 249 300 357
#     4   9  19  35  53  77 114 155 196 236 278 343
#     4  10  22  40  58  85 119 149 194 247 301 365
#
# _framework density 19.274626000000001
#
# number of rings (size 3 to 8) (size 9 to 14) (size 15 to 20)
#    0.000    1.750    2.500    3.750    0.000    5.000 
#    4.500    3.125    0.000    0.750    3.250    0.000 
#    0.000    0.000    0.000    0.000    0.000    0.000 
#
# Total GULP energy -178583.402073 kJ/mol
# GULP energy per Si atom -5580.731315 kJ/mol
# Density = 1.923076 g / cm^3
# Si number density = 19.274626 Si / 1000 Ang^3
#
#
#
# Elastic Constant Matrix: (Units=GPa)
#
#
# Indices 1 2 3 4 5 6 
#
# 1 46.0122 19.8129 -3.9047 0.0000 9.8945 0.0000
# 2 19.8129 58.3857 19.1548 0.0000 10.3800 0.0000
# 3 -3.9047 19.1548 108.4288 0.0000 8.9311 0.0000
# 4 0.0000 0.0000 0.0000 23.4874 0.0000 -0.2168
# 5 9.8945 10.3800 8.9311 0.0000 18.5558 0.0000
# 6 0.0000 0.0000 0.0000 -0.2168 0.0000 24.1897
#
#
#
# Elastic Compliance Matrix: (Units=1/GPa)
#
#
# Indices 1 2 3 4 5 6 
#
# 1 0.028330 -0.008645 0.003533 0.000000 -0.011971 0.000000
# 2 -0.008645 0.022380 -0.003763 0.000000 -0.006098 0.000000
# 3 0.003533 -0.003763 0.010409 0.000000 -0.004789 0.000000
# 4 0.000000 0.000000 0.000000 0.042579 0.000000 0.000382
# 5 -0.011971 -0.006098 -0.004789 0.000000 0.065992 0.000000
# 6 0.000000 0.000000 0.000000 0.000382 0.000000 0.041343
#
#
# Mechanical properties :
#
#
# Convention : Reuss Voigt Hill
#
# Bulk Modulus (GPa) = 23.05680 31.43920 27.24800
# Shear Modulus (GPa) = 20.55605 25.09749 22.82677
#
# Velocity S-wave (km/s) = 3.26925 3.61238 3.44509
# Velocity P-wave (km/s) = 5.12239 5.80910 5.47652
#
# Compressibility (1/GPa) = 0.04337115
#
# Stress axis : x y z
#
# Youngs Moduli (GPa) = 35.29841 44.68363 96.07016
#
# Poissons Ratio (x) = 0.38627 -0.33945
# Poissons Ratio (y) = 0.30514 0.36146
# Poissons Ratio (z) = -0.12472 0.16812
#
# Static dielectric constant tensor:
#      x y z
#    x 1.715980 0.000000 -0.016760 
#    y 0.000000 1.650320 0.000000 
#    z -0.016760 0.000000 1.694610 
# 
# From -- ./inp_files/135400.got.cif
#   From: 2010.05.17/outbox.cif.g08.bks.cpg/sg12_68_cif.got.tgz:135400.got - 2010.06.03 13:09:07.
