data_PCOD9191486
_publ_section_title
;
Structure prediction by ZEFSAII (Michael W. Deem and Ramdas Pophale) SiO2 
 PCOD9191486
Probable space group: C 2/M
;
_chemical_formula_sum "Si O2"
_cell_formula_units_Z 40
_cell_length_a 26.950310
_cell_length_b 10.990344
_cell_length_c 7.169465
_cell_angle_alpha 90.000000
_cell_angle_beta 73.241066
_cell_angle_gamma 90.000000
_cell_volume 2033.351976
_symmetry_space_group_name_H-M "C 2/M"
_symmetry_group_IT_number 12
_symmetry_cell_setting 'monoclinic'
loop_
_space_group_symop_operation_xyz
x,y,z
-x,y,-z
-x,-y,-z
x,-y,z
1/2+x,1/2+y,z
1/2-x,1/2+y,-z
1/2-x,1/2-y,-z
1/2+x,1/2-y,z
loop_
_atom_site_type_symbol
_atom_site_label
_atom_site_fract_x
_atom_site_fract_y
_atom_site_fract_z
Si Si1 0.602796 0.856036 0.857010
Si Si2 0.132771 0.363491 0.237966
Si Si3 0.037603 0.639444 0.612894
Si Si4 0.716750 0.238772 0.723388
Si Si5 0.795953 0.869193 0.895864
O O1 0.553369 0.807988 0.796267
O O2 0.657599 0.795491 0.744619
O O3 0.606367 0.000000 0.811779
O O4 0.600074 0.846312 0.082779
O O5 0.156806 0.500000 0.203630
O O6 0.093170 0.363881 0.450406
O O7 0.170967 0.248711 0.201869
O O8 0.017913 0.500000 0.663445
O O9 0.000000 0.698036 0.500000
O O10 0.750000 0.250000 0.500000
O O11 0.744396 0.138979 0.826115
O O12 0.715556 0.350823 0.871577
O O13 0.821322 0.000000 0.837934
#
# Coordination Sequence:
#
# PCOD9191486 Si02
#       5
#     8   8   8   8   8
#     4   9  17  29  45  67  95 126 161 201 248 299
#     4   9  18  33  51  71 101 136 165 202 254 308
#     4   9  17  29  48  74  98 123 163 213 258 300
#     4  10  20  33  50  72 102 140 175 208 251 304
#     4  10  21  34  51  78 107 136 174 215 253 300
#
# _framework density 19.671949000000001
#
# number of rings (size 3 to 8) (size 9 to 14) (size 15 to 20)
#    0.000    2.600    0.000    1.800    0.000    7.200 
#    0.000    4.000    0.000    0.600    0.000    5.600 
#    0.000    0.000    0.000    0.000    0.000    0.000 
#
# Total GULP energy -111356.630893 kJ/mol
# GULP energy per Si atom -5567.831545 kJ/mol
# Density = 1.962718 g / cm^3
# Si number density = 19.671949 Si / 1000 Ang^3
#
#
#
# Elastic Constant Matrix: (Units=GPa)
#
#
# Indices 1 2 3 4 5 6 
#
# 1 98.8076 20.4369 5.0972 0.0000 35.5438 0.0000
# 2 20.4369 92.7305 3.9952 0.0000 -0.5126 0.0000
# 3 5.0972 3.9952 59.6237 0.0000 2.5174 0.0000
# 4 0.0000 0.0000 0.0000 7.6837 0.0000 -4.6457
# 5 35.5438 -0.5126 2.5174 0.0000 27.4489 0.0000
# 6 0.0000 0.0000 0.0000 -4.6457 0.0000 12.3538
#
#
#
# Elastic Compliance Matrix: (Units=1/GPa)
#
#
# Indices 1 2 3 4 5 6 
#
# 1 0.020848 -0.004730 -0.000323 0.000000 -0.027055 0.000000
# 2 -0.004730 0.011890 -0.000663 0.000000 0.006408 0.000000
# 3 -0.000323 -0.000663 0.016892 0.000000 -0.001143 0.000000
# 4 0.000000 0.000000 0.000000 0.168446 0.000000 0.063345
# 5 -0.027055 0.006408 -0.001143 0.000000 0.071690 0.000000
# 6 0.000000 0.000000 0.000000 0.063345 0.000000 0.104768
#
#
# Mechanical properties :
#
#
# Convention : Reuss Voigt Hill
#
# Bulk Modulus (GPa) = 26.17924 34.46892 30.32408
# Shear Modulus (GPa) = 11.94172 24.27279 18.10725
#
# Velocity S-wave (km/s) = 2.46650 3.51647 3.03720
# Velocity P-wave (km/s) = 4.63123 5.83501 5.26762
#
# Compressibility (1/GPa) = 0.03819820
#
# Stress axis : x y z
#
# Youngs Moduli (GPa) = 47.96562 84.10104 59.19902
#
# Poissons Ratio (x) = 0.39783 0.01912
# Poissons Ratio (y) = 0.22690 0.03924
# Poissons Ratio (z) = 0.01549 0.05575
#
# Static dielectric constant tensor:
#      x y z
#    x 1.759980 0.000000 0.015110 
#    y 0.000000 1.682000 0.000000 
#    z 0.015110 0.000000 1.753900 
# 
# From -- ./inp_files/93655.got.cif
#   From: 2010.05.17/outbox.cif.g08.bks.cpg/sg12_47_cif.got.tgz:93655.got - 2010.06.03 13:09:07.
