data_PCOD9191741
_publ_section_title
;
Structure prediction by ZEFSAII (Michael W. Deem and Ramdas Pophale) SiO2 
 PCOD9191741
Probable space group: C 2/M
;
_chemical_formula_sum "Si O2"
_cell_formula_units_Z 56
_cell_length_a 20.558088
_cell_length_b 7.595599
_cell_length_c 14.227313
_cell_angle_alpha 90.000000
_cell_angle_beta 99.516931
_cell_angle_gamma 90.000000
_cell_volume 2191.032568
_symmetry_space_group_name_H-M "C 2/M"
_symmetry_group_IT_number 12
_symmetry_cell_setting 'monoclinic'
loop_
_space_group_symop_operation_xyz
x,y,z
-x,y,-z
-x,-y,-z
x,-y,z
1/2+x,1/2+y,z
1/2-x,1/2+y,-z
1/2-x,1/2-y,-z
1/2+x,1/2-y,z
loop_
_atom_site_type_symbol
_atom_site_label
_atom_site_fract_x
_atom_site_fract_y
_atom_site_fract_z
Si Si1 0.183708 0.295598 0.896195
Si Si2 0.610240 0.287852 0.686257
Si Si3 0.233160 0.207568 0.603483
Si Si4 0.027195 0.302311 0.413506
Si Si5 0.939702 0.708583 0.765312
Si Si6 0.804709 0.204108 0.815880
Si Si7 0.048900 0.715832 0.928136
O O1 0.193322 0.500000 0.923231
O O2 0.147609 0.283059 0.786270
O O3 0.255419 0.217834 0.884422
O O4 0.124714 0.220503 0.946980
O O5 0.603009 0.500000 0.691857
O O6 0.656960 0.249887 0.607882
O O7 0.541885 0.191897 0.657880
O O8 0.250000 0.250000 0.500000
O O9 0.273144 0.281829 0.702925
O O10 0.242113 0.000000 0.616615
O O11 0.050460 0.500000 0.444700
O O12 0.000000 0.207589 0.500000
O O13 0.073329 0.220636 0.343795
O O14 0.947493 0.500000 0.753723
O O15 0.878104 0.725797 0.820302
O O16 0.005779 0.780324 0.829163
O O17 0.809710 0.000000 0.839080
O O18 0.052027 0.500000 0.926022
O O19 0.000000 0.763872 0.000000
#
# Coordination Sequence:
#
# PCOD9191741 Si02
#       7
#     8   8   8   8   8   8   8
#     4   9  17  35  58  79 106 142 183 219 263 326
#     4  10  20  33  51  76 104 137 178 226 273 316
#     4  10  21  35  51  75 106 142 188 233 274 324
#     4  10  21  35  52  75 104 145 187 223 269 324
#     4  10  20  36  56  81 112 144 184 232 277 328
#     4  10  21  35  54  78 109 149 183 224 279 329
#     4   9  17  33  61  89 108 136 184 232 272 327
#
# _framework density 25.558727000000001
#
# number of rings (size 3 to 8) (size 9 to 14) (size 15 to 20)
#    0.000    2.286    1.429    1.286    2.000    3.143 
#    0.000    0.714    0.000    1.714    0.000    0.000 
#    0.000    0.000    0.000    0.000    0.000    0.000 
#
# Total GULP energy -156212.615852 kJ/mol
# GULP energy per Si atom -5579.021995 kJ/mol
# Density = 2.550055 g / cm^3
# Si number density = 25.558727 Si / 1000 Ang^3
#
#
#
# Elastic Constant Matrix: (Units=GPa)
#
#
# Indices 1 2 3 4 5 6 
#
# 1 156.5037 10.6851 42.5332 0.0000 -41.9945 0.0000
# 2 10.6851 85.3170 11.8237 0.0000 -3.1676 0.0000
# 3 42.5332 11.8237 110.7100 0.0000 -43.5630 0.0000
# 4 0.0000 0.0000 0.0000 12.1695 0.0000 -6.3886
# 5 -41.9945 -3.1676 -43.5630 0.0000 52.7104 0.0000
# 6 0.0000 0.0000 0.0000 -6.3886 0.0000 23.7617
#
#
#
# Elastic Compliance Matrix: (Units=1/GPa)
#
#
# Indices 1 2 3 4 5 6 
#
# 1 0.008223 -0.000705 -0.000775 0.000000 0.005869 0.000000
# 2 -0.000705 0.011966 -0.001401 0.000000 -0.001000 0.000000
# 3 -0.000775 -0.001401 0.013639 0.000000 0.010571 0.000000
# 4 0.000000 0.000000 0.000000 0.095676 0.000000 0.025724
# 5 0.005869 -0.001000 0.010571 0.000000 0.032324 0.000000
# 6 0.000000 0.000000 0.000000 0.025724 0.000000 0.049001
#
#
# Mechanical properties :
#
#
# Convention : Reuss Voigt Hill
#
# Bulk Modulus (GPa) = 35.62684 53.62385 44.62535
# Shear Modulus (GPa) = 22.12924 36.89425 29.51174
#
# Velocity S-wave (km/s) = 2.94567 3.80348 3.40172
# Velocity P-wave (km/s) = 5.05359 6.34939 5.73819
#
# Compressibility (1/GPa) = 0.02806872
#
# Stress axis : x y z
#
# Youngs Moduli (GPa) = 121.60993 83.56845 73.31702
#
# Poissons Ratio (x) = 0.05888 0.05679
# Poissons Ratio (y) = 0.08569 0.10270
# Poissons Ratio (z) = 0.09420 0.11706
#
# Static dielectric constant tensor:
#      x y z
#    x 2.085450 0.000000 -0.070020 
#    y 0.000000 1.998870 0.000000 
#    z -0.070020 0.000000 2.199480 
# 
# From -- ./inp_files/231023.got.cif
#   From: 2010.05.17/outbox.cif.g08.bks.cpg/sg12_116_cif.got.tgz:231023.got - 2010.06.03 13:09:07.
