data_PCOD9191150
_publ_section_title
;
Structure prediction by ZEFSAII (Michael W. Deem and Ramdas Pophale) SiO2 
 PCOD9191150
Probable space group: C 2/M
;
_chemical_formula_sum "Si O2"
_cell_formula_units_Z 58
_cell_length_a 24.173376
_cell_length_b 9.871474
_cell_length_c 23.994572
_cell_angle_alpha 90.000000
_cell_angle_beta 151.787814
_cell_angle_gamma 90.000000
_cell_volume 2706.780340
_symmetry_space_group_name_H-M "C 2/M"
_symmetry_group_IT_number 12
_symmetry_cell_setting 'monoclinic'
loop_
_space_group_symop_operation_xyz
x,y,z
-x,y,-z
-x,-y,-z
x,-y,z
1/2+x,1/2+y,z
1/2-x,1/2+y,-z
1/2-x,1/2-y,-z
1/2+x,1/2-y,z
loop_
_atom_site_type_symbol
_atom_site_label
_atom_site_fract_x
_atom_site_fract_y
_atom_site_fract_z
Si Si1 0.279439 0.846442 0.375183
Si Si2 0.890441 0.846315 0.208868
Si Si3 0.784840 0.345721 0.581637
Si Si4 0.558763 0.845560 0.844567
Si Si5 0.293049 0.653789 0.812478
Si Si6 0.965829 0.742880 0.388499
Si Si7 0.628947 0.847014 0.026826
Si Si8 0.500000 0.500000 0.500000
O O1 0.252454 0.730213 0.395310
O O2 0.212991 0.816320 0.258556
O O3 0.419593 0.838749 0.491360
O O4 0.249498 0.000000 0.366918
O O5 0.882194 0.755518 0.146504
O O6 0.763821 0.852033 0.125757
O O7 0.972761 0.778925 0.328845
O O8 0.927377 0.000000 0.228778
O O9 0.739034 0.500000 0.537370
O O10 0.750000 0.250000 0.500000
O O11 0.924850 0.353209 0.707326
O O12 0.608436 0.000000 0.887125
O O13 0.563272 0.798751 0.912820
O O14 0.331191 0.500000 0.854660
O O15 0.369645 0.752967 0.918168
O O16 0.157108 0.668371 0.710807
O O17 0.965521 0.881068 0.423660
O O18 0.590296 0.000000 0.005635
#
# Coordination Sequence:
#
# PCOD9191150 Si02
#       8
#     8   8   8   8   8   8   8   2
#     4  11  23  38  57  82 116 153 192 235 284 336
#     4  10  20  32  54  87 113 144 185 226 276 338
#     4  11  25  42  62  83 111 148 194 237 286 337
#     4  10  22  41  58  80 111 148 186 236 285 334
#     4  10  21  36  56  86 118 149 185 229 284 340
#     4  11  21  33  56  84 122 155 188 229 284 337
#     4   9  20  37  59  83 114 146 185 228 280 341
#     4  12  20  32  54  88 124 154 198 228 282 340
#
# _framework density 21.427672999999999
#
# number of rings (size 3 to 8) (size 9 to 14) (size 15 to 20)
#    0.000    1.655    2.069    2.069    1.931    8.276 
#    0.000    0.690    0.000    4.138    0.000    0.000 
#    0.000    0.000    0.000    0.000    0.000    0.000 
#
# Total GULP energy -161785.144714 kJ/mol
# GULP energy per Si atom -5578.798094 kJ/mol
# Density = 2.137890 g / cm^3
# Si number density = 21.427673 Si / 1000 Ang^3
#
#
#
# Elastic Constant Matrix: (Units=GPa)
#
#
# Indices 1 2 3 4 5 6 
#
# 1 58.1456 56.4968 17.8395 0.0000 -26.4268 0.0000
# 2 56.4968 135.3658 44.4347 0.0000 -47.0466 0.0000
# 3 17.8395 44.4347 94.8272 0.0000 -47.0589 0.0000
# 4 0.0000 0.0000 0.0000 26.6501 0.0000 -15.1758
# 5 -26.4268 -47.0466 -47.0589 0.0000 39.1449 0.0000
# 6 0.0000 0.0000 0.0000 -15.1758 0.0000 21.9972
#
#
#
# Elastic Compliance Matrix: (Units=1/GPa)
#
#
# Indices 1 2 3 4 5 6 
#
# 1 0.033642 -0.009117 0.009361 0.000000 0.023007 0.000000
# 2 -0.009117 0.015808 0.001690 0.000000 0.014875 0.000000
# 3 0.009361 0.001690 0.030085 0.000000 0.044518 0.000000
# 4 0.000000 0.000000 0.000000 0.061803 0.000000 0.042637
# 5 0.023007 0.014875 0.044518 0.000000 0.112473 0.000000
# 6 0.000000 0.000000 0.000000 0.042637 0.000000 0.074876
#
#
# Mechanical properties :
#
#
# Convention : Reuss Voigt Hill
#
# Bulk Modulus (GPa) = 11.99029 58.43118 35.21074
# Shear Modulus (GPa) = 14.17956 28.86296 21.52126
#
# Velocity S-wave (km/s) = 2.57522 3.67412 3.17261
# Velocity P-wave (km/s) = 3.80134 6.73254 5.46705
#
# Compressibility (1/GPa) = 0.08340082
#
# Stress axis : x y z
#
# Youngs Moduli (GPa) = 29.72496 63.25996 33.23918
#
# Poissons Ratio (x) = 0.57677 -0.31115
# Poissons Ratio (y) = 0.27102 -0.05616
# Poissons Ratio (z) = -0.27825 -0.10689
#
# Static dielectric constant tensor:
#      x y z
#    x 1.795040 0.000000 0.011560 
#    y 0.000000 1.759990 0.000000 
#    z 0.011560 0.000000 1.794620 
# 
# From -- ./inp_files/351482.got.cif
#   From: 2010.05.17/outbox.cif.g08.bks.cpg/sg12_176_cif.got.tgz:351482.got - 2010.06.03 13:09:07.
