data_PCOD9191647
_publ_section_title
;
Structure prediction by ZEFSAII (Michael W. Deem and Ramdas Pophale) SiO2 
 PCOD9191647
Probable space group: C 2/M
;
_chemical_formula_sum "Si O2"
_cell_formula_units_Z 48
_cell_length_a 12.078840
_cell_length_b 21.500124
_cell_length_c 10.170635
_cell_angle_alpha 90.000000
_cell_angle_beta 58.684189
_cell_angle_gamma 90.000000
_cell_volume 2256.485330
_symmetry_space_group_name_H-M "C 2/M"
_symmetry_group_IT_number 12
_symmetry_cell_setting 'monoclinic'
loop_
_space_group_symop_operation_xyz
x,y,z
-x,y,-z
-x,-y,-z
x,-y,z
1/2+x,1/2+y,z
1/2-x,1/2+y,-z
1/2-x,1/2-y,-z
1/2+x,1/2-y,z
loop_
_atom_site_type_symbol
_atom_site_label
_atom_site_fract_x
_atom_site_fract_y
_atom_site_fract_z
Si Si1 0.862400 0.669469 0.865613
Si Si2 0.769416 0.716970 0.193968
Si Si3 0.865207 0.800831 0.361268
Si Si4 0.632262 0.429544 0.002076
Si Si5 0.919997 0.110588 0.678748
Si Si6 0.593054 0.170721 0.559933
O O1 0.830786 0.731918 0.802311
O O2 0.008035 0.650551 0.736984
O O3 0.848865 0.689842 0.023526
O O4 0.749145 0.619396 0.905019
O O5 0.853613 0.758920 0.238976
O O6 0.696123 0.656341 0.296612
O O7 0.741978 0.846719 0.450908
O O8 0.881872 0.745793 0.458545
O O9 0.988115 0.842454 0.298682
O O10 0.665292 0.500000 0.939360
O O11 0.618694 0.431005 0.171441
O O12 0.500000 0.413181 0.000000
O O13 0.000000 0.087549 0.500000
O O14 0.500000 0.151852 0.500000
#
# Coordination Sequence:
#
# PCOD9191647 Si02
#       6
#     8   8   8   8   8   8
#     4  10  20  36  52  78 116 147 191 239 280 354
#     4  10  20  33  50  83 120 151 186 224 291 360
#     4  11  19  31  52  78 125 157 173 225 276 359
#     4  10  23  42  63  83 107 153 208 254 294 334
#     4  11  21  36  58  89 122 151 189 238 295 354
#     4  11  20  31  47  78 116 152 185 217 281 347
#
# _framework density 21.272019
#
# number of rings (size 3 to 8) (size 9 to 14) (size 15 to 20)
#    0.000    1.500    3.333    3.500    0.000    1.000 
#    0.000    0.000    0.000    1.500    0.000   15.167 
#    0.000    0.000    0.000    0.000    0.000    0.000 
#
# Total GULP energy -133699.873766 kJ/mol
# GULP energy per Si atom -5570.828074 kJ/mol
# Density = 2.122360 g / cm^3
# Si number density = 21.272019 Si / 1000 Ang^3
#
#
#
# Elastic Constant Matrix: (Units=GPa)
#
#
# Indices 1 2 3 4 5 6 
#
# 1 102.9995 22.8132 29.0304 0.0000 -0.9476 0.0000
# 2 22.8132 59.8242 22.5480 0.0000 -12.1332 0.0000
# 3 29.0304 22.5480 87.5752 0.0000 4.9879 0.0000
# 4 0.0000 0.0000 0.0000 12.9610 0.0000 1.8115
# 5 -0.9476 -12.1332 4.9879 0.0000 35.1846 0.0000
# 6 0.0000 0.0000 0.0000 1.8115 0.0000 19.6374
#
#
#
# Elastic Compliance Matrix: (Units=1/GPa)
#
#
# Indices 1 2 3 4 5 6 
#
# 1 0.011239 -0.003298 -0.002852 0.000000 -0.000430 0.000000
# 2 -0.003298 0.021434 -0.004881 0.000000 0.007995 0.000000
# 3 -0.002852 -0.004881 0.013833 0.000000 -0.003721 0.000000
# 4 0.000000 0.000000 0.000000 0.078162 0.000000 -0.007210
# 5 -0.000430 0.007995 -0.003721 0.000000 0.031694 0.000000
# 6 0.000000 0.000000 0.000000 -0.007210 0.000000 0.051588
#
#
# Mechanical properties :
#
#
# Convention : Reuss Voigt Hill
#
# Bulk Modulus (GPa) = 40.90920 44.35356 42.63138
# Shear Modulus (GPa) = 20.99417 25.29041 23.14229
#
# Velocity S-wave (km/s) = 3.14497 3.45179 3.30194
# Velocity P-wave (km/s) = 5.69745 6.06485 5.88402
#
# Compressibility (1/GPa) = 0.02444438
#
# Stress axis : x y z
#
# Youngs Moduli (GPa) = 88.97436 46.65401 72.29238
#
# Poissons Ratio (x) = 0.15388 0.20618
# Poissons Ratio (y) = 0.29346 0.35284
# Poissons Ratio (z) = 0.25375 0.22770
#
# Static dielectric constant tensor:
#      x y z
#    x 1.922270 0.000000 -0.000300 
#    y 0.000000 1.740670 0.000000 
#    z -0.000300 0.000000 1.950410 
# 
# From -- ./inp_files/135206.got.cif
#   From: 2010.05.17/outbox.cif.g08.bks.cpg/sg12_68_cif.got.tgz:135206.got - 2010.06.03 13:09:07.
