data_PCOD9191389
_publ_section_title
;
Structure prediction by ZEFSAII (Michael W. Deem and Ramdas Pophale) SiO2 
 PCOD9191389
Probable space group: C 2/M
;
_chemical_formula_sum "Si O2"
_cell_formula_units_Z 40
_cell_length_a 20.910203
_cell_length_b 13.879917
_cell_length_c 7.366289
_cell_angle_alpha 90.000000
_cell_angle_beta 93.252542
_cell_angle_gamma 90.000000
_cell_volume 2134.488042
_symmetry_space_group_name_H-M "C 2/M"
_symmetry_group_IT_number 12
_symmetry_cell_setting 'monoclinic'
loop_
_space_group_symop_operation_xyz
x,y,z
-x,y,-z
-x,-y,-z
x,-y,z
1/2+x,1/2+y,z
1/2-x,1/2+y,-z
1/2-x,1/2-y,-z
1/2+x,1/2-y,z
loop_
_atom_site_type_symbol
_atom_site_label
_atom_site_fract_x
_atom_site_fract_y
_atom_site_fract_z
Si Si1 0.822133 0.217806 0.053680
Si Si2 0.345582 0.250215 0.658905
Si Si3 0.407395 0.107521 0.141414
Si Si4 0.278097 0.611496 0.369293
Si Si5 0.050831 0.392298 0.278855
O O1 0.857908 0.306125 0.160142
O O2 0.814806 0.127918 0.184766
O O3 0.750000 0.250000 0.000000
O O4 0.853543 0.205957 0.862142
O O5 0.320679 0.333212 0.524143
O O6 0.289425 0.168725 0.653095
O O7 0.409702 0.192134 0.620250
O O8 0.474654 0.121287 0.255056
O O9 0.382172 0.000000 0.179074
O O10 0.424896 0.107545 0.928193
O O11 0.267861 0.500000 0.406530
O O12 0.063970 0.500000 0.353371
#
# Coordination Sequence:
#
# PCOD9191389 Si02
#       5
#     8   8   8   8   8
#     4   9  18  31  48  71  98 128 157 189 234 284
#     4   9  18  33  51  73  97 125 159 196 241 286
#     4   8  14  26  47  75 100 123 156 196 240 290
#     4  10  20  33  49  71  98 126 161 200 235 280
#     4   8  13  25  49  75  98 125 154 193 246 290
#
# _framework density 18.739857000000001
#
# number of rings (size 3 to 8) (size 9 to 14) (size 15 to 20)
#    0.000    3.200    0.000    1.800    0.000    5.600 
#    0.000   10.000    0.000    4.800    0.000    5.600 
#    0.000    0.000    0.000    0.000    0.000    0.000 
#
# Total GULP energy -111502.632147 kJ/mol
# GULP energy per Si atom -5575.131607 kJ/mol
# Density = 1.869720 g / cm^3
# Si number density = 18.739857 Si / 1000 Ang^3
#
#
#
# Elastic Constant Matrix: (Units=GPa)
#
#
# Indices 1 2 3 4 5 6 
#
# 1 41.3272 22.0077 5.7701 0.0000 9.8903 0.0000
# 2 22.0077 98.3159 35.8310 0.0000 8.0791 0.0000
# 3 5.7701 35.8310 65.0407 0.0000 4.7409 0.0000
# 4 0.0000 0.0000 0.0000 16.5912 0.0000 -2.6638
# 5 9.8903 8.0791 4.7409 0.0000 20.7413 0.0000
# 6 0.0000 0.0000 0.0000 -2.6638 0.0000 27.7191
#
#
#
# Elastic Compliance Matrix: (Units=1/GPa)
#
#
# Indices 1 2 3 4 5 6 
#
# 1 0.030324 -0.006406 0.001740 0.000000 -0.012362 0.000000
# 2 -0.006406 0.014322 -0.007258 0.000000 -0.000865 0.000000
# 3 0.001740 -0.007258 0.019397 0.000000 -0.002436 0.000000
# 4 0.000000 0.000000 0.000000 0.061217 0.000000 0.005883
# 5 -0.012362 -0.000865 -0.002436 0.000000 0.055001 0.000000
# 6 0.000000 0.000000 0.000000 0.005883 0.000000 0.036642
#
#
# Mechanical properties :
#
#
# Convention : Reuss Voigt Hill
#
# Bulk Modulus (GPa) = 24.87966 36.87794 30.87880
# Shear Modulus (GPa) = 19.67340 22.41533 21.04436
#
# Velocity S-wave (km/s) = 3.24360 3.46227 3.35472
# Velocity P-wave (km/s) = 5.22811 5.97534 5.61417
#
# Compressibility (1/GPa) = 0.04019348
#
# Stress axis : x y z
#
# Youngs Moduli (GPa) = 32.97693 69.82399 51.55466
#
# Poissons Ratio (x) = 0.44731 -0.08971
# Poissons Ratio (y) = 0.21126 0.37421
# Poissons Ratio (z) = -0.05738 0.50682
#
# Static dielectric constant tensor:
#      x y z
#    x 1.655440 0.000000 -0.042090 
#    y 0.000000 1.617340 0.000000 
#    z -0.042090 0.000000 1.752410 
# 
# From -- ./inp_files/83385.got.cif
#   From: 2010.05.17/outbox.cif.g08.bks.cpg/sg12_42_cif.got.tgz:83385.got - 2010.06.03 13:09:07.
