data_PCOD9191745
_publ_section_title
;
Structure prediction by ZEFSAII (Michael W. Deem and Ramdas Pophale) SiO2 
 PCOD9191745
Probable space group: C 2/M
;
_chemical_formula_sum "Si O2"
_cell_formula_units_Z 64
_cell_length_a 19.388229
_cell_length_b 9.565235
_cell_length_c 21.854812
_cell_angle_alpha 90.000000
_cell_angle_beta 122.164231
_cell_angle_gamma 90.000000
_cell_volume 3431.002160
_symmetry_space_group_name_H-M "C 2/M"
_symmetry_group_IT_number 12
_symmetry_cell_setting 'monoclinic'
loop_
_space_group_symop_operation_xyz
x,y,z
-x,y,-z
-x,-y,-z
x,-y,z
1/2+x,1/2+y,z
1/2-x,1/2+y,-z
1/2-x,1/2-y,-z
1/2+x,1/2-y,z
loop_
_atom_site_type_symbol
_atom_site_label
_atom_site_fract_x
_atom_site_fract_y
_atom_site_fract_z
Si Si1 0.378257 0.341431 0.290411
Si Si2 0.733435 0.834892 0.930518
Si Si3 0.137397 0.661294 0.469399
Si Si4 0.463389 0.161297 0.415349
Si Si5 0.054899 0.335783 0.789240
Si Si6 0.198681 0.338223 0.149551
Si Si7 0.256537 0.162910 0.604009
Si Si8 0.382453 0.169942 0.767017
O O1 0.406937 0.500000 0.307900
O O2 0.392832 0.262770 0.360763
O O3 0.425533 0.256712 0.260414
O O4 0.284363 0.341680 0.226438
O O5 0.637069 0.824084 0.868594
O O6 0.784977 0.761713 0.900283
O O7 0.752606 0.000000 0.944828
O O8 0.750000 0.750000 0.000000
O O9 0.138960 0.500000 0.490798
O O10 0.043797 0.697728 0.414094
O O11 0.179983 0.751423 0.542208
O O12 0.184091 0.669420 0.427380
O O13 0.500000 0.176286 0.500000
O O14 0.439931 0.000000 0.394773
O O15 0.046139 0.500000 0.767953
O O16 0.971675 0.291910 0.783757
O O17 0.181035 0.500000 0.122457
O O18 0.134602 0.288914 0.170784
O O19 0.310212 0.215929 0.686611
O O20 0.235159 0.000000 0.604848
O O21 0.378960 0.000000 0.764816
#
# Coordination Sequence:
#
# PCOD9191745 Si02
#       8
#     8   8   8   8   8   8   8   8
#     4  10  20  33  51  76 105 136 172 219 272 320
#     4  10  20  36  60  86 111 143 177 209 250 302
#     4   9  18  32  45  64  92 125 170 217 262 311
#     4  10  21  34  48  66  93 133 178 221 265 312
#     4   9  18  35  59  82 104 138 180 213 248 305
#     4   9  19  35  55  81 111 140 173 214 264 317
#     4   9  17  29  49  69  91 126 164 209 263 313
#     4   9  17  32  55  79 103 135 176 219 260 306
#
# _framework density 18.653441999999998
#
# number of rings (size 3 to 8) (size 9 to 14) (size 15 to 20)
#    0.000    2.625    0.000    1.500    1.750    3.750 
#    0.000    5.000    0.000    3.750    0.000    0.000 
#    0.000    0.000    0.000    0.000    0.000    0.000 
#
# Total GULP energy -178427.525942 kJ/mol
# GULP energy per Si atom -5575.860186 kJ/mol
# Density = 1.861099 g / cm^3
# Si number density = 18.653442 Si / 1000 Ang^3
#
#
#
# Elastic Constant Matrix: (Units=GPa)
#
#
# Indices 1 2 3 4 5 6 
#
# 1 70.5032 21.2735 15.1740 0.0000 -15.8852 0.0000
# 2 21.2735 70.2087 44.2085 0.0000 -5.1887 0.0000
# 3 15.1740 44.2085 74.7018 0.0000 -13.2334 0.0000
# 4 0.0000 0.0000 0.0000 26.9670 0.0000 -0.3443
# 5 -15.8852 -5.1887 -13.2334 0.0000 17.3704 0.0000
# 6 0.0000 0.0000 0.0000 -0.3443 0.0000 13.5421
#
#
#
# Elastic Compliance Matrix: (Units=1/GPa)
#
#
# Indices 1 2 3 4 5 6 
#
# 1 0.019635 -0.006584 0.003168 0.000000 0.018403 0.000000
# 2 -0.006584 0.025154 -0.015357 0.000000 -0.010207 0.000000
# 3 0.003168 -0.015357 0.024891 0.000000 0.017273 0.000000
# 4 0.000000 0.000000 0.000000 0.037094 0.000000 0.000943
# 5 0.018403 -0.010207 0.017273 0.000000 0.084509 0.000000
# 6 0.000000 0.000000 0.000000 0.000943 0.000000 0.073868
#
#
# Mechanical properties :
#
#
# Convention : Reuss Voigt Hill
#
# Bulk Modulus (GPa) = 31.11944 41.85842 36.48893
# Shear Modulus (GPa) = 15.95364 20.55974 18.25669
#
# Velocity S-wave (km/s) = 2.92766 3.32353 3.13186
# Velocity P-wave (km/s) = 5.30542 6.10054 5.71682
#
# Compressibility (1/GPa) = 0.03213425
#
# Stress axis : x y z
#
# Youngs Moduli (GPa) = 50.92926 39.75558 40.17521
#
# Poissons Ratio (x) = 0.26177 -0.12729
# Poissons Ratio (y) = 0.33534 0.61696
# Poissons Ratio (z) = -0.16136 0.61051
#
# Static dielectric constant tensor:
#      x y z
#    x 1.699910 0.000000 -0.020510 
#    y 0.000000 1.640830 0.000000 
#    z -0.020510 0.000000 1.651390 
# 
# From -- ./inp_files/320062.got.cif
#   From: 2010.05.17/outbox.cif.g08.bks.cpg/sg12_161_cif.got.tgz:320062.got - 2010.06.03 13:09:07.
