data_PCOD9191387
_publ_section_title
;
Structure prediction by ZEFSAII (Michael W. Deem and Ramdas Pophale) SiO2 
 PCOD9191387
Probable space group: C 2/M
;
_chemical_formula_sum "Si O2"
_cell_formula_units_Z 64
_cell_length_a 22.838547
_cell_length_b 9.172044
_cell_length_c 17.978700
_cell_angle_alpha 90.000000
_cell_angle_beta 83.103467
_cell_angle_gamma 90.000000
_cell_volume 3738.859733
_symmetry_space_group_name_H-M "C 2/M"
_symmetry_group_IT_number 12
_symmetry_cell_setting 'monoclinic'
loop_
_space_group_symop_operation_xyz
x,y,z
-x,y,-z
-x,-y,-z
x,-y,z
1/2+x,1/2+y,z
1/2-x,1/2+y,-z
1/2-x,1/2-y,-z
1/2+x,1/2-y,z
loop_
_atom_site_type_symbol
_atom_site_label
_atom_site_fract_x
_atom_site_fract_y
_atom_site_fract_z
Si Si1 0.288044 0.827377 0.748517
Si Si2 0.852132 0.171166 0.206894
Si Si3 0.681115 0.326805 0.947096
Si Si4 0.366511 0.330381 0.619044
Si Si5 0.690085 0.329795 0.532038
Si Si6 0.803925 0.828065 0.893753
Si Si7 0.487624 0.174285 0.588221
Si Si8 0.393452 0.826456 0.340213
O O1 0.217691 0.800981 0.766593
O O2 0.315963 0.750758 0.673056
O O3 0.318659 0.761581 0.817755
O O4 0.296807 0.000000 0.743736
O O5 0.860575 0.198132 0.117434
O O6 0.889440 0.268344 0.257059
O O7 0.862823 0.000000 0.219989
O O8 0.698803 0.500000 0.939929
O O9 0.737871 0.225497 0.924611
O O10 0.660369 0.302275 0.034856
O O11 0.367057 0.500000 0.639505
O O12 0.351826 0.319695 0.533819
O O13 0.429380 0.256694 0.623350
O O14 0.701006 0.500000 0.547066
O O15 0.750000 0.250000 0.500000
O O16 0.657979 0.252217 0.605257
O O17 0.804539 0.000000 0.877438
O O18 0.500000 0.212137 0.500000
O O19 0.544699 0.208415 0.629145
O O20 0.477516 0.000000 0.592797
O O21 0.384996 0.000000 0.344489
#
# Coordination Sequence:
#
# PCOD9191387 Si02
#       8
#     8   8   8   8   8   8   8   8
#     4  10  20  33  49  71 104 140 168 199 248 304
#     4   9  18  32  49  72 104 139 169 201 245 295
#     4   8  15  27  43  66  98 136 169 198 242 295
#     4  11  23  36  53  76  98 125 167 213 250 289
#     4  11  23  36  52  74 100 130 163 200 245 296
#     4   9  15  25  44  69  98 131 169 207 239 284
#     4  10  21  39  58  73  94 128 165 206 256 304
#     4  11  22  35  53  75  98 128 167 206 248 296
#
# _framework density 17.117518
#
# number of rings (size 3 to 8) (size 9 to 14) (size 15 to 20)
#    0.000    2.125    1.250    3.375    0.000    7.750 
#    0.000    0.000    0.000    0.000    0.000    0.875 
#    0.000    7.000    0.000    0.000    0.000    0.000 
#
# Total GULP energy -178459.832398 kJ/mol
# GULP energy per Si atom -5576.869762 kJ/mol
# Density = 1.707856 g / cm^3
# Si number density = 17.117518 Si / 1000 Ang^3
#
#
#
# Elastic Constant Matrix: (Units=GPa)
#
#
# Indices 1 2 3 4 5 6 
#
# 1 43.0309 28.8276 3.0162 0.0000 18.3935 0.0000
# 2 28.8276 55.5643 28.4458 0.0000 17.6328 0.0000
# 3 3.0162 28.4458 73.1098 0.0000 27.0622 0.0000
# 4 0.0000 0.0000 0.0000 31.4621 0.0000 0.9520
# 5 18.3935 17.6328 27.0622 0.0000 20.9844 0.0000
# 6 0.0000 0.0000 0.0000 0.9520 0.0000 22.5361
#
#
#
# Elastic Compliance Matrix: (Units=1/GPa)
#
#
# Indices 1 2 3 4 5 6 
#
# 1 0.112423 -0.046393 0.067847 0.000000 -0.147057 0.000000
# 2 -0.046393 0.044211 -0.031742 0.000000 0.044451 0.000000
# 3 0.067847 -0.031742 0.067676 0.000000 -0.120076 0.000000
# 4 0.000000 0.000000 0.000000 0.031825 0.000000 -0.001344
# 5 -0.147057 0.044451 -0.120076 0.000000 0.294057 0.000000
# 6 0.000000 0.000000 0.000000 -0.001344 0.000000 0.044430
#
#
# Mechanical properties :
#
#
# Convention : Reuss Voigt Hill
#
# Bulk Modulus (GPa) = 4.90838 32.47603 18.69220
# Shear Modulus (GPa) = 7.31948 22.42421 14.87184
#
# Velocity S-wave (km/s) = 2.07010 3.62334 2.95075
# Velocity P-wave (km/s) = 2.93043 6.04304 4.74899
#
# Compressibility (1/GPa) = 0.20373333
#
# Stress axis : x y z
#
# Youngs Moduli (GPa) = 8.89500 22.61905 14.77625
#
# Poissons Ratio (x) = 1.04938 -1.00252
# Poissons Ratio (y) = 0.41267 0.46902
# Poissons Ratio (z) = -0.60350 0.71796
#
# Static dielectric constant tensor:
#      x y z
#    x 1.552710 0.000000 0.030380 
#    y 0.000000 1.571200 0.000000 
#    z 0.030380 0.000000 1.618630 
# 
# From -- ./inp_files/281226.got.cif
#   From: 2010.05.17/outbox.cif.g08.bks.cpg/sg12_141_cif.got.tgz:281226.got - 2010.06.03 13:09:07.
