data_PCOD9191373
_publ_section_title
;
Structure prediction by ZEFSAII (Michael W. Deem and Ramdas Pophale) SiO2 
 PCOD9191373
Probable space group: C 2/M
;
_chemical_formula_sum "Si O2"
_cell_formula_units_Z 64
_cell_length_a 30.646262
_cell_length_b 7.433947
_cell_length_c 15.503324
_cell_angle_alpha 90.000000
_cell_angle_beta 120.277176
_cell_angle_gamma 90.000000
_cell_volume 3050.230425
_symmetry_space_group_name_H-M "C 2/M"
_symmetry_group_IT_number 12
_symmetry_cell_setting 'monoclinic'
loop_
_space_group_symop_operation_xyz
x,y,z
-x,y,-z
-x,-y,-z
x,-y,z
1/2+x,1/2+y,z
1/2-x,1/2+y,-z
1/2-x,1/2-y,-z
1/2+x,1/2-y,z
loop_
_atom_site_type_symbol
_atom_site_label
_atom_site_fract_x
_atom_site_fract_y
_atom_site_fract_z
Si Si1 0.217192 0.713641 0.051277
Si Si2 0.470083 0.720302 0.229039
Si Si3 0.551567 0.280781 0.599514
Si Si4 0.893085 0.207424 0.010819
Si Si5 0.139144 0.220029 0.557008
Si Si6 0.358975 0.715945 0.791197
Si Si7 0.086691 0.219726 0.327943
Si Si8 0.253208 0.285629 0.271744
O O1 0.211409 0.500000 0.054283
O O2 0.244119 0.782738 0.165251
O O3 0.250000 0.750000 0.000000
O O4 0.160617 0.789386 0.993538
O O5 0.468672 0.500000 0.227477
O O6 0.449658 0.777001 0.302342
O O7 0.435578 0.785219 0.115691
O O8 0.528331 0.773772 0.277184
O O9 0.500000 0.225404 0.500000
O O10 0.551450 0.500000 0.599363
O O11 0.600085 0.224371 0.592853
O O12 0.907737 0.000000 0.010817
O O13 0.881804 0.285997 0.904684
O O14 0.117539 0.277288 0.443101
O O15 0.195783 0.282651 0.633698
O O16 0.139074 0.000000 0.555982
O O17 0.364010 0.500000 0.798249
O O18 0.387528 0.781147 0.734877
O O19 0.299151 0.752962 0.730878
O O20 0.087108 0.000000 0.328084
O O21 0.259526 0.500000 0.271423
#
# Coordination Sequence:
#
# PCOD9191373 Si02
#       8
#     8   8   8   8   8   8   8   8
#     4  10  20  33  49  70  96 126 159 198 237 280
#     4   9  16  25  42  68  96 125 157 193 234 284
#     4   9  14  22  38  62  94 124 149 190 243 283
#     4   9  18  31  47  69  97 128 159 192 231 281
#     4   9  16  26  42  67  96 123 154 195 239 281
#     4   9  18  32  48  67  97 129 156 195 241 281
#     4   9  16  27  44  68  96 125 157 196 243 282
#     4   9  19  33  49  69  94 124 160 198 234 278
#
# _framework density 20.982021
#
# number of rings (size 3 to 8) (size 9 to 14) (size 15 to 20)
#    0.000    2.875    1.250    0.375    1.750    1.500 
#    0.000    2.500    0.000    0.750    0.000    3.500 
#    0.000    2.000    0.000    0.000    0.000    0.000 
#
# Total GULP energy -178625.422706 kJ/mol
# GULP energy per Si atom -5582.044460 kJ/mol
# Density = 2.093427 g / cm^3
# Si number density = 20.982021 Si / 1000 Ang^3
#
#
#
# Elastic Constant Matrix: (Units=GPa)
#
#
# Indices 1 2 3 4 5 6 
#
# 1 141.0641 -4.2019 131.1581 0.0000 -19.5424 0.0000
# 2 -4.2019 65.3396 6.4139 0.0000 3.1354 0.0000
# 3 131.1581 6.4139 190.7978 0.0000 19.1893 0.0000
# 4 0.0000 0.0000 0.0000 -3.2711 0.0000 5.5692
# 5 -19.5424 3.1354 19.1893 0.0000 34.2907 0.0000
# 6 0.0000 0.0000 0.0000 5.5692 0.0000 10.2655
#
#
#
# Elastic Compliance Matrix: (Units=1/GPa)
#
#
# Indices 1 2 3 4 5 6 
#
# 1 0.058067 0.005448 -0.045965 0.000000 0.058317 0.000000
# 2 0.005448 0.015912 -0.004711 0.000000 0.004286 0.000000
# 3 -0.045965 -0.004711 0.041949 0.000000 -0.049240 0.000000
# 4 0.000000 0.000000 0.000000 -0.158921 0.000000 0.086216
# 5 0.058317 0.004286 -0.049240 0.000000 0.089560 0.000000
# 6 0.000000 0.000000 0.000000 0.086216 0.000000 0.050640
#
#
# Mechanical properties :
#
#
# Convention : Reuss Voigt Hill
#
# Bulk Modulus (GPa) = 39.25874 73.77129 56.51501
# Shear Modulus (GPa) = 25.49019 25.84580 25.66799
#
# Velocity S-wave (km/s) = 3.48926 3.51352 3.50141
# Velocity P-wave (km/s) = 5.91477 7.18995 6.58331
#
# Compressibility (1/GPa) = 0.02547204
#
# Stress axis : x y z
#
# Youngs Moduli (GPa) = 17.22137 62.84663 23.83848
#
# Poissons Ratio (x) = -0.34238 1.09574
# Poissons Ratio (y) = -0.09382 0.11230
# Poissons Ratio (z) = 0.79158 0.29606
#
# Static dielectric constant tensor:
#      x y z
#    x 1.700580 0.000000 -0.003440 
#    y 0.000000 1.836350 0.000000 
#    z -0.003440 0.000000 1.739800 
# 
# From -- ./inp_files/249122.got.cif
#   From: 2010.05.17/outbox.cif.g08.bks.cpg/sg12_125_cif.got.tgz:249122.got - 2010.06.03 13:09:07.
