data_PCOD9191968
_publ_section_title
;
Structure prediction by ZEFSAII (Michael W. Deem and Ramdas Pophale) SiO2 
 PCOD9191968
Probable space group: C 2/M
;
_chemical_formula_sum "Si O2"
_cell_formula_units_Z 56
_cell_length_a 24.424824
_cell_length_b 14.193930
_cell_length_c 24.290842
_cell_angle_alpha 90.000000
_cell_angle_beta 158.704479
_cell_angle_gamma 90.000000
_cell_volume 3058.416848
_symmetry_space_group_name_H-M "C 2/M"
_symmetry_group_IT_number 12
_symmetry_cell_setting 'monoclinic'
loop_
_space_group_symop_operation_xyz
x,y,z
-x,y,-z
-x,-y,-z
x,-y,z
1/2+x,1/2+y,z
1/2-x,1/2+y,-z
1/2-x,1/2-y,-z
1/2+x,1/2-y,z
loop_
_atom_site_type_symbol
_atom_site_label
_atom_site_fract_x
_atom_site_fract_y
_atom_site_fract_z
Si Si1 0.940106 0.108540 0.006257
Si Si2 0.107705 0.805853 0.473531
Si Si3 0.917798 0.218078 0.761998
Si Si4 0.824299 0.897712 0.353315
Si Si5 0.948932 0.111094 0.217301
Si Si6 0.861798 0.610742 0.014709
Si Si7 0.713922 0.273046 0.780392
O O1 0.051740 0.157860 0.154341
O O2 0.911751 0.000000 0.995386
O O3 0.794505 0.175499 0.869030
O O4 0.000000 0.109692 0.000000
O O5 0.241012 0.733236 0.586235
O O6 0.176443 0.877813 0.582771
O O7 0.044959 0.853539 0.359749
O O8 0.961347 0.764805 0.367825
O O9 0.997866 0.165613 0.786591
O O10 0.999958 0.319465 0.844814
O O11 0.761429 0.811671 0.258298
O O12 0.000000 0.902604 0.500000
O O13 0.755468 0.000000 0.276136
O O14 0.972058 0.000000 0.232061
O O15 0.772427 0.125795 0.066573
O O16 0.898854 0.500000 0.047589
O O17 0.786165 0.646359 0.886986
#
# Coordination Sequence:
#
# PCOD9191968 Si02
#       7
#     8   8   8   8   8   8   8
#     4  10  21  38  57  76 101 137 179 220 260 303
#     4  10  20  33  52  78 110 139 168 212 264 311
#     4  11  21  35  55  78 105 136 174 217 262 310
#     4   9  16  28  50  78 106 136 167 200 249 311
#     4  10  20  36  54  73 102 141 179 214 256 306
#     4   9  19  34  54  79 106 136 172 214 259 309
#     4   9  18  34  55  79 108 139 171 211 259 313
#
# _framework density 18.310127000000001
#
# number of rings (size 3 to 8) (size 9 to 14) (size 15 to 20)
#    0.000    2.286    0.000    3.000    0.000    4.571 
#    0.000    1.429    0.000   10.286    0.000    0.000 
#    0.000    0.000    0.000    0.000    0.000    0.000 
#
# Total GULP energy -156161.190206 kJ/mol
# GULP energy per Si atom -5577.185365 kJ/mol
# Density = 1.826845 g / cm^3
# Si number density = 18.310127 Si / 1000 Ang^3
#
#
#
# Elastic Constant Matrix: (Units=GPa)
#
#
# Indices 1 2 3 4 5 6 
#
# 1 68.9963 24.4467 13.2709 -0.0002 -8.0134 -0.0002
# 2 24.4467 112.7814 36.5058 -0.0021 9.1439 -0.0011
# 3 13.2709 36.5058 67.1810 -0.0006 6.3836 -0.0006
# 4 -0.0002 -0.0021 -0.0006 14.2650 -0.0004 -3.1914
# 5 -8.0134 9.1439 6.3836 -0.0004 13.4112 -0.0003
# 6 -0.0002 -0.0011 -0.0006 -3.1914 -0.0003 21.7341
#
#
#
# Elastic Compliance Matrix: (Units=1/GPa)
#
#
# Indices 1 2 3 4 5 6 
#
# 1 0.018309 -0.004322 -0.002710 0.000000 0.015177 0.000000
# 2 -0.004322 0.012079 -0.004904 0.000001 -0.008484 0.000001
# 3 -0.002710 -0.004904 0.018770 0.000000 -0.007211 0.000000
# 4 0.000000 0.000001 0.000000 0.072483 0.000001 0.010643
# 5 0.015177 -0.008484 -0.007211 0.000001 0.092849 0.000001
# 6 0.000000 0.000001 0.000000 0.010643 0.000001 0.047574
#
#
# Mechanical properties :
#
#
# Convention : Reuss Voigt Hill
#
# Bulk Modulus (GPa) = 39.54730 44.15617 41.85174
# Shear Modulus (GPa) = 16.98582 21.53107 19.25845
#
# Velocity S-wave (km/s) = 3.04908 3.43288 3.24665
# Velocity P-wave (km/s) = 5.83449 6.31513 6.07957
#
# Compressibility (1/GPa) = 0.02528617
#
# Stress axis : x y z
#
# Youngs Moduli (GPa) = 54.61857 82.79139 53.27559
#
# Poissons Ratio (x) = 0.35781 0.14440
# Poissons Ratio (y) = 0.23605 0.26124
# Poissons Ratio (z) = 0.14804 0.40597
#
# Static dielectric constant tensor:
#      x y z
#    x 1.638760 0.000000 0.007600 
#    y 0.000000 1.615000 0.000000 
#    z 0.007600 0.000000 1.624820 
# 
# From -- ./inp_files/104425.got.cif
#   From: 2010.05.17/outbox.cif.g08.bks.cpg/sg12_53_cif.got.tgz:104425.got - 2010.06.03 13:09:07.
