data_PCOD9191417
_publ_section_title
;
Structure prediction by ZEFSAII (Michael W. Deem and Ramdas Pophale) SiO2 
 PCOD9191417
Probable space group: C 2/M
;
_chemical_formula_sum "Si O2"
_cell_formula_units_Z 64
_cell_length_a 10.811522
_cell_length_b 19.778205
_cell_length_c 20.307324
_cell_angle_alpha 90.000000
_cell_angle_beta 50.226204
_cell_angle_gamma 90.000000
_cell_volume 3337.439005
_symmetry_space_group_name_H-M "C 2/M"
_symmetry_group_IT_number 12
_symmetry_cell_setting 'monoclinic'
loop_
_space_group_symop_operation_xyz
x,y,z
-x,y,-z
-x,-y,-z
x,-y,z
1/2+x,1/2+y,z
1/2-x,1/2+y,-z
1/2-x,1/2-y,-z
1/2+x,1/2-y,z
loop_
_atom_site_type_symbol
_atom_site_label
_atom_site_fract_x
_atom_site_fract_y
_atom_site_fract_z
Si Si1 0.707348 0.346846 0.821563
Si Si2 0.159825 0.423182 0.911718
Si Si3 0.625101 0.787979 0.590097
Si Si4 0.302424 0.799373 0.921310
Si Si5 0.265342 0.766740 0.676068
Si Si6 0.617598 0.576344 0.040527
Si Si7 0.048541 0.578572 0.688672
Si Si8 0.345692 0.144521 0.219167
O O1 0.737668 0.289561 0.868236
O O2 0.681140 0.314655 0.758697
O O3 0.557676 0.391945 0.894090
O O4 0.867329 0.392081 0.758622
O O5 0.114234 0.500000 0.908853
O O6 0.301491 0.424330 0.915453
O O7 0.208242 0.385015 0.830652
O O8 0.000000 0.392469 0.000000
O O9 0.750000 0.750000 0.500000
O O10 0.452642 0.788276 0.610958
O O11 0.657194 0.746777 0.648188
O O12 0.638143 0.866674 0.610486
O O13 0.492140 0.811663 0.849996
O O14 0.250000 0.750000 0.000000
O O15 0.228221 0.872544 0.962825
O O16 0.279915 0.694081 0.705600
O O17 0.620364 0.500000 0.014338
O O18 0.052792 0.500000 0.666993
O O19 0.116829 0.587985 0.739178
#
# Coordination Sequence:
#
# PCOD9191417 Si02
#       8
#     8   8   8   8   8   8   8   8
#     4  10  22  36  55  83 112 150 194 247 294 335
#     4  10  20  33  49  72 104 153 200 241 288 331
#     4  10  21  40  66  94 118 149 180 226 287 358
#     4  11  23  36  52  78 111 154 203 251 296 332
#     4  10  22  37  61  90 115 149 189 229 292 348
#     4  11  23  36  52  76 110 155 202 246 294 332
#     4   9  19  37  61  87 113 147 190 230 282 351
#     4  10  20  33  54  77 109 152 191 243 284 333
#
# _framework density 19.176380999999999
#
# number of rings (size 3 to 8) (size 9 to 14) (size 15 to 20)
#    0.000    1.875    1.250    3.000    3.500    3.000 
#    0.000    0.000    0.000   13.500    0.000    0.000 
#    0.000    0.000    0.000    0.000    0.000    0.000 
#
# Total GULP energy -178256.196027 kJ/mol
# GULP energy per Si atom -5570.506126 kJ/mol
# Density = 1.913274 g / cm^3
# Si number density = 19.176381 Si / 1000 Ang^3
#
#
#
# Elastic Constant Matrix: (Units=GPa)
#
#
# Indices 1 2 3 4 5 6 
#
# 1 55.6028 21.7704 2.5757 0.0000 13.0408 0.0000
# 2 21.7704 88.8952 30.8748 0.0001 4.0347 0.0000
# 3 2.5757 30.8748 56.7012 0.0001 5.9943 -0.0001
# 4 0.0000 0.0001 0.0001 23.8531 0.0000 0.8741
# 5 13.0408 4.0347 5.9943 0.0000 29.9612 0.0000
# 6 0.0000 0.0000 -0.0001 0.8741 0.0000 20.1797
#
#
#
# Elastic Compliance Matrix: (Units=1/GPa)
#
#
# Indices 1 2 3 4 5 6 
#
# 1 0.022544 -0.006267 0.003409 0.000000 -0.009650 0.000000
# 2 -0.006267 0.015619 -0.008465 0.000000 0.002318 0.000000
# 3 0.003409 -0.008465 0.022605 0.000000 -0.004866 0.000000
# 4 0.000000 0.000000 0.000000 0.041990 0.000000 -0.001819
# 5 -0.009650 0.002318 -0.004866 0.000000 0.038238 0.000000
# 6 0.000000 0.000000 0.000000 -0.001819 0.000000 0.049634
#
#
# Mechanical properties :
#
#
# Convention : Reuss Voigt Hill
#
# Bulk Modulus (GPa) = 26.23212 34.62678 30.42945
# Shear Modulus (GPa) = 22.12552 24.53070 23.32811
#
# Velocity S-wave (km/s) = 3.40043 3.58049 3.49162
# Velocity P-wave (km/s) = 5.39688 5.93207 5.67079
#
# Compressibility (1/GPa) = 0.03812120
#
# Stress axis : x y z
#
# Youngs Moduli (GPa) = 44.35805 64.02541 44.23742
#
# Poissons Ratio (x) = 0.40123 -0.15078
# Poissons Ratio (y) = 0.27798 0.37447
# Poissons Ratio (z) = -0.15120 0.54198
#
# Static dielectric constant tensor:
#      x y z
#    x 1.777500 0.000000 -0.025730 
#    y 0.000000 1.698620 0.000000 
#    z -0.025730 0.000000 1.719960 
# 
# From -- ./inp_files/306179.got.cif
#   From: 2010.05.17/outbox.cif.g08.bks.cpg/sg12_154_cif.got.tgz:306179.got - 2010.06.03 13:09:07.
