data_PCOD9191238
_publ_section_title
;
Structure prediction by ZEFSAII (Michael W. Deem and Ramdas Pophale) SiO2 
 PCOD9191238
Probable space group: C 2/M
;
_chemical_formula_sum "Si O2"
_cell_formula_units_Z 36
_cell_length_a 16.647085
_cell_length_b 27.926407
_cell_length_c 16.693465
_cell_angle_alpha 90.000000
_cell_angle_beta 162.988555
_cell_angle_gamma 90.000000
_cell_volume 2270.485546
_symmetry_space_group_name_H-M "C 2/M"
_symmetry_group_IT_number 12
_symmetry_cell_setting 'monoclinic'
loop_
_space_group_symop_operation_xyz
x,y,z
-x,y,-z
-x,-y,-z
x,-y,z
1/2+x,1/2+y,z
1/2-x,1/2+y,-z
1/2-x,1/2-y,-z
1/2+x,1/2-y,z
loop_
_atom_site_type_symbol
_atom_site_label
_atom_site_fract_x
_atom_site_fract_y
_atom_site_fract_z
Si Si1 0.467198 0.102190 0.372320
Si Si2 0.463475 0.242539 0.871555
Si Si3 0.513958 0.344290 0.171444
Si Si4 0.547901 0.285194 0.357538
Si Si5 0.716078 0.000000 0.777167
O O1 0.500000 0.106982 0.500000
O O2 0.342789 0.049828 0.234840
O O3 0.767652 0.113165 0.625696
O O4 0.261658 0.140085 0.136344
O O5 0.757222 0.236604 0.107305
O O6 0.500000 0.234553 0.000000
O O7 0.373725 0.297521 0.769091
O O8 0.235828 0.207790 0.615207
O O9 0.483560 0.327783 0.234408
O O10 0.750000 0.250000 0.500000
O O11 0.500000 0.000000 0.500000
O O12 0.000000 0.000000 0.000000
#
# Coordination Sequence:
#
# PCOD9191238 Si02
#       5
#     8   8   8   8   4
#     4  11  20  31  47  67  90 122 160 195 225 268
#     4  11  20  32  48  68  93 126 163 197 228 274
#     4  11  20  31  47  67  90 122 160 195 226 268
#     4  10  20  33  46  65  95 125 154 196 244 273
#     4  10  20  34  46  64  94 124 153 194 243 274
#
# _framework density 15.855639999999999
#
# number of rings (size 3 to 8) (size 9 to 14) (size 15 to 20)
#    0.000    1.333    0.000   12.000    0.000    0.000 
#    0.000    0.000    0.000    0.000    0.000    0.000 
#    0.000    0.000    0.000   70.000    0.000    0.000 
#
# Total GULP energy -100334.595948 kJ/mol
# GULP energy per Si atom -5574.144219 kJ/mol
# Density = 1.581955 g / cm^3
# Si number density = 15.855640 Si / 1000 Ang^3
#
#
#
# Elastic Constant Matrix: (Units=GPa)
#
#
# Indices 1 2 3 4 5 6 
#
# 1 63.4570 31.6510 21.8385 0.0018 -12.0765 -0.0003
# 2 31.6510 50.2848 22.1871 0.0039 -6.9344 0.0018
# 3 21.8385 22.1871 105.2618 0.0013 -6.9282 -0.0002
# 4 0.0018 0.0039 0.0013 23.6333 0.0020 1.1214
# 5 -12.0765 -6.9344 -6.9282 0.0020 42.3115 0.0016
# 6 -0.0003 0.0018 -0.0002 1.1214 0.0016 14.1580
#
#
#
# Elastic Compliance Matrix: (Units=1/GPa)
#
#
# Indices 1 2 3 4 5 6 
#
# 1 0.024062 -0.013752 -0.001809 0.000000 0.004318 0.000002
# 2 -0.013752 0.030135 -0.003469 -0.000004 0.000446 -0.000004
# 3 -0.001809 -0.003469 0.010650 0.000000 0.000659 0.000001
# 4 0.000000 -0.000004 0.000000 0.042473 -0.000002 -0.003364
# 5 0.004318 0.000446 0.000659 -0.000002 0.025048 -0.000003
# 6 0.000002 -0.000004 0.000001 -0.003364 -0.000003 0.070898
#
#
# Mechanical properties :
#
#
# Convention : Reuss Voigt Hill
#
# Bulk Modulus (GPa) = 37.33287 41.15075 39.24181
# Shear Modulus (GPa) = 19.97958 25.57570 22.77764
#
# Velocity S-wave (km/s) = 3.55363 4.02062 3.79432
# Velocity P-wave (km/s) = 6.35880 6.89663 6.63317
#
# Compressibility (1/GPa) = 0.02678604
#
# Stress axis : x y z
#
# Youngs Moduli (GPa) = 41.55899 33.18415 93.89538
#
# Poissons Ratio (x) = 0.45634 0.16989
# Poissons Ratio (y) = 0.57151 0.32576
# Poissons Ratio (z) = 0.07519 0.11513
#
# Static dielectric constant tensor:
#      x y z
#    x 1.549670 0.000000 -0.020350 
#    y 0.000000 1.623170 0.000010 
#    z -0.020350 0.000010 1.575230 
# 
# From -- ./inp_files/16465.got.cif
#   From: 2010.05.17/outbox.cif.g08.bks.cpg/sg12_9_cif.got.tgz:16465.got - 2010.06.03 13:09:07.
