data_PCOD9191420
_publ_section_title
;
Structure prediction by ZEFSAII (Michael W. Deem and Ramdas Pophale) SiO2 
 PCOD9191420
Probable space group: C 2/M
;
_chemical_formula_sum "Si O2"
_cell_formula_units_Z 56
_cell_length_a 15.014107
_cell_length_b 8.743292
_cell_length_c 21.200219
_cell_angle_alpha 90.000000
_cell_angle_beta 98.157317
_cell_angle_gamma 90.000000
_cell_volume 2754.852529
_symmetry_space_group_name_H-M "C 2/M"
_symmetry_group_IT_number 12
_symmetry_cell_setting 'monoclinic'
loop_
_space_group_symop_operation_xyz
x,y,z
-x,y,-z
-x,-y,-z
x,-y,z
1/2+x,1/2+y,z
1/2-x,1/2+y,-z
1/2-x,1/2-y,-z
1/2+x,1/2-y,z
loop_
_atom_site_type_symbol
_atom_site_label
_atom_site_fract_x
_atom_site_fract_y
_atom_site_fract_z
Si Si1 0.209226 0.177154 0.933261
Si Si2 0.025720 0.328515 0.929918
Si Si3 0.422517 0.685058 0.671613
Si Si4 0.746166 0.315311 0.429774
Si Si5 0.955955 0.177729 0.811057
Si Si6 0.330726 0.679340 0.204858
Si Si7 0.882019 0.317550 0.336685
O O1 0.103065 0.202703 0.932267
O O2 0.222098 0.237912 0.862728
O O3 0.234464 0.000000 0.934956
O O4 0.250000 0.250000 0.000000
O O5 0.058245 0.500000 0.915708
O O6 0.948996 0.279046 0.873023
O O7 0.000000 0.333124 0.000000
O O8 0.426641 0.500000 0.673601
O O9 0.343684 0.732728 0.616784
O O10 0.406146 0.732688 0.742888
O O11 0.519161 0.745927 0.659285
O O12 0.745708 0.500000 0.432709
O O13 0.750000 0.250000 0.500000
O O14 0.830370 0.268680 0.394646
O O15 0.062070 0.186603 0.801440
O O16 0.934839 0.000000 0.821795
O O17 0.309669 0.500000 0.211534
O O18 0.324274 0.768485 0.269467
O O19 0.889963 0.500000 0.337161
#
# Coordination Sequence:
#
# PCOD9191420 Si02
#       7
#     8   8   8   8   8   8   8
#     4  10  20  34  52  74 104 140 181 226 275 330
#     4  10  20  33  49  72 107 142 177 226 277 325
#     4   9  19  38  60  81 111 150 188 226 278 340
#     4  10  23  41  59  84 119 151 184 230 279 336
#     4   8  15  30  53  75  98 135 183 225 265 322
#     4   8  16  32  53  76 104 140 179 221 272 332
#     4  10  20  35  58  87 115 143 186 237 280 326
#
# _framework density 20.327767000000001
#
# number of rings (size 3 to 8) (size 9 to 14) (size 15 to 20)
#    0.000    2.714    0.000    3.000    0.000    9.143 
#    2.571    2.857    0.000    0.000    0.000    0.000 
#    0.000    0.000    0.000    0.000    0.000    0.000 
#
# Total GULP energy -156100.831930 kJ/mol
# GULP energy per Si atom -5575.029712 kJ/mol
# Density = 2.028150 g / cm^3
# Si number density = 20.327767 Si / 1000 Ang^3
#
#
#
# Elastic Constant Matrix: (Units=GPa)
#
#
# Indices 1 2 3 4 5 6 
#
# 1 44.8150 0.7270 31.2002 0.0000 12.8052 0.0000
# 2 0.7270 18.5585 32.9672 0.0000 3.2041 0.0000
# 3 31.2002 32.9672 172.5260 0.0000 18.3792 0.0000
# 4 0.0000 0.0000 0.0000 34.8192 0.0000 0.2080
# 5 12.8052 3.2041 18.3792 0.0000 29.0831 0.0000
# 6 0.0000 0.0000 0.0000 0.2080 0.0000 17.5905
#
#
#
# Elastic Compliance Matrix: (Units=1/GPa)
#
#
# Indices 1 2 3 4 5 6 
#
# 1 0.029662 0.012410 -0.006646 0.000000 -0.010227 0.000000
# 2 0.012410 0.086788 -0.018471 0.000000 -0.003353 0.000000
# 3 -0.006646 -0.018471 0.010721 0.000000 -0.001814 0.000000
# 4 0.000000 0.000000 0.000000 0.028722 0.000000 -0.000340
# 5 -0.010227 -0.003353 -0.001814 0.000000 0.040403 0.000000
# 6 0.000000 0.000000 0.000000 -0.000340 0.000000 0.056853
#
#
# Mechanical properties :
#
#
# Convention : Reuss Voigt Hill
#
# Bulk Modulus (GPa) = 9.82740 40.63203 25.22971
# Shear Modulus (GPa) = 16.00091 27.69889 21.84990
#
# Velocity S-wave (km/s) = 2.80865 3.69536 3.28209
# Velocity P-wave (km/s) = 3.91957 6.18381 5.17699
#
# Compressibility (1/GPa) = 0.10175633
#
# Stress axis : x y z
#
# Youngs Moduli (GPa) = 33.71332 11.52228 93.27584
#
# Poissons Ratio (x) = -0.14299 0.61991
# Poissons Ratio (y) = -0.41837 1.72290
# Poissons Ratio (z) = 0.22406 0.21283
#
# Static dielectric constant tensor:
#      x y z
#    x 1.755350 0.000000 0.020730 
#    y 0.000000 1.708040 0.000000 
#    z 0.020730 0.000000 1.767220 
# 
# From -- ./inp_files/313317.got.cif
#   From: 2010.05.17/outbox.cif.g08.bks.cpg/sg12_157_cif.got.tgz:313317.got - 2010.06.03 13:09:07.
