data_PCOD9191666
_publ_section_title
;
Structure prediction by ZEFSAII (Michael W. Deem and Ramdas Pophale) SiO2 
 PCOD9191666
Probable space group: C 2/M
;
_chemical_formula_sum "Si O2"
_cell_formula_units_Z 56
_cell_length_a 20.259269
_cell_length_b 7.754420
_cell_length_c 31.524855
_cell_angle_alpha 90.000000
_cell_angle_beta 36.308267
_cell_angle_gamma 90.000000
_cell_volume 2932.532645
_symmetry_space_group_name_H-M "C 2/M"
_symmetry_group_IT_number 12
_symmetry_cell_setting 'monoclinic'
loop_
_space_group_symop_operation_xyz
x,y,z
-x,y,-z
-x,-y,-z
x,-y,z
1/2+x,1/2+y,z
1/2-x,1/2+y,-z
1/2-x,1/2-y,-z
1/2+x,1/2-y,z
loop_
_atom_site_type_symbol
_atom_site_label
_atom_site_fract_x
_atom_site_fract_y
_atom_site_fract_z
Si Si1 0.131348 0.212124 0.654645
Si Si2 0.121896 0.206016 0.059375
Si Si3 0.030132 0.296515 0.938504
Si Si4 0.275327 0.209318 0.222993
Si Si5 0.830058 0.704930 0.498168
Si Si6 0.025273 0.796297 0.341354
Si Si7 0.429814 0.705941 0.220343
O O1 0.256695 0.265724 0.576134
O O2 0.094749 0.272452 0.719912
O O3 0.045569 0.270927 0.662253
O O4 0.131331 0.000000 0.654116
O O5 0.071441 0.276589 0.041735
O O6 0.041276 0.271515 0.138997
O O7 0.110497 0.000000 0.063598
O O8 0.250000 0.250000 0.000000
O O9 0.051668 0.500000 0.933441
O O10 0.139184 0.226829 0.857648
O O11 0.000000 0.221822 0.000000
O O12 0.149725 0.273799 0.281749
O O13 0.329236 0.259499 0.239937
O O14 0.274747 0.000000 0.221975
O O15 0.841031 0.500000 0.495424
O O16 0.750000 0.750000 0.500000
O O17 0.950054 0.774459 0.422399
O O18 0.036442 0.000000 0.328066
O O19 0.442438 0.500000 0.218004
#
# Coordination Sequence:
#
# PCOD9191666 Si02
#       7
#     8   8   8   8   8   8   8
#     4   8  15  29  49  70  90 117 156 196 229 267
#     4  10  20  33  51  73  98 128 160 198 241 286
#     4   9  18  33  53  74  96 126 163 200 239 285
#     4   9  18  32  49  70  97 126 154 190 236 279
#     4   9  16  28  47  69  93 120 152 193 236 274
#     4   9  17  30  48  69  94 123 155 191 230 275
#     4   9  18  33  51  69  92 124 158 191 231 279
#
# _framework density 19.096122999999999
#
# number of rings (size 3 to 8) (size 9 to 14) (size 15 to 20)
#    0.000    3.000    0.000    1.714    0.000    2.571 
#    0.000    8.571    0.000    7.714    0.000    0.000 
#    0.000    0.000    0.000    0.000    0.000    0.000 
#
# Total GULP energy -155987.440194 kJ/mol
# GULP energy per Si atom -5570.980007 kJ/mol
# Density = 1.905266 g / cm^3
# Si number density = 19.096123 Si / 1000 Ang^3
#
#
#
# Elastic Constant Matrix: (Units=GPa)
#
#
# Indices 1 2 3 4 5 6 
#
# 1 94.3097 -8.5710 111.0720 0.0009 2.5175 0.0149
# 2 -8.5710 18.6368 -7.3167 0.0206 4.0112 -0.0047
# 3 111.0720 -7.3167 169.7031 0.0018 1.5427 0.0070
# 4 0.0009 0.0206 0.0018 15.7918 -0.0001 -2.9332
# 5 2.5175 4.0112 1.5427 -0.0001 38.8323 -0.0020
# 6 0.0149 -0.0047 0.0070 -2.9332 -0.0020 19.8453
#
#
#
# Elastic Compliance Matrix: (Units=1/GPa)
#
#
# Indices 1 2 3 4 5 6 
#
# 1 0.048342 0.010646 -0.031154 -0.000018 -0.002996 -0.000026
# 2 0.010646 0.058233 -0.004398 -0.000077 -0.006531 -0.000005
# 3 -0.031154 -0.004398 0.026081 0.000007 0.001438 0.000014
# 4 -0.000018 -0.000077 0.000007 0.065112 0.000009 0.009624
# 5 -0.002996 -0.006531 0.001438 0.000009 0.026563 0.000004
# 6 -0.000026 -0.000005 0.000014 0.009624 0.000004 0.051812
#
#
# Mechanical properties :
#
#
# Convention : Reuss Voigt Hill
#
# Bulk Modulus (GPa) = 12.07091 52.55758 32.31425
# Shear Modulus (GPa) = 14.14151 27.39156 20.76653
#
# Velocity S-wave (km/s) = 2.72425 3.79146 3.30126
# Velocity P-wave (km/s) = 4.02867 6.83735 5.61157
#
# Compressibility (1/GPa) = 0.08284380
#
# Stress axis : x y z
#
# Youngs Moduli (GPa) = 20.68585 17.17250 38.34275
#
# Poissons Ratio (x) = -0.18283 1.19453
# Poissons Ratio (y) = -0.22023 0.16864
# Poissons Ratio (z) = 0.64445 0.07553
#
# Static dielectric constant tensor:
#      x y z
#    x 1.627240 0.000000 0.008520 
#    y 0.000000 1.720130 0.000000 
#    z 0.008520 0.000000 1.704810 
# 
# From -- ./inp_files/377673.got.cif
#   From: 2010.05.17/outbox.cif.g08.bks.cpg/sg12_189_cif.got.tgz:377673.got - 2010.06.03 13:09:07.
