data_PCOD9191912
_publ_section_title
;
Structure prediction by ZEFSAII (Michael W. Deem and Ramdas Pophale) SiO2 
 PCOD9191912
Probable space group: C 2/M
;
_chemical_formula_sum "Si O2"
_cell_formula_units_Z 56
_cell_length_a 14.538192
_cell_length_b 9.387633
_cell_length_c 24.820864
_cell_angle_alpha 90.000000
_cell_angle_beta 63.357382
_cell_angle_gamma 90.000000
_cell_volume 3027.846962
_symmetry_space_group_name_H-M "C 2/M"
_symmetry_group_IT_number 12
_symmetry_cell_setting 'monoclinic'
loop_
_space_group_symop_operation_xyz
x,y,z
-x,y,-z
-x,-y,-z
x,-y,z
1/2+x,1/2+y,z
1/2-x,1/2+y,-z
1/2-x,1/2-y,-z
1/2+x,1/2-y,z
loop_
_atom_site_type_symbol
_atom_site_label
_atom_site_fract_x
_atom_site_fract_y
_atom_site_fract_z
Si Si1 0.886137 0.335072 0.824799
Si Si2 0.693821 0.341242 0.060127
Si Si3 0.113460 0.667740 0.814566
Si Si4 0.030983 0.161175 0.932500
Si Si5 0.923861 0.170641 0.598918
Si Si6 0.152712 0.830040 0.500947
Si Si7 0.688369 0.830284 0.275278
O O1 0.858988 0.500000 0.842399
O O2 0.814483 0.237551 0.880846
O O3 0.870004 0.306683 0.766201
O O4 0.004478 0.316770 0.812110
O O5 0.737807 0.500000 0.052690
O O6 0.576582 0.351512 0.070556
O O7 0.750000 0.250000 0.000000
O O8 0.137354 0.500000 0.811784
O O9 0.098638 0.736958 0.877599
O O10 0.201847 0.753899 0.760777
O O11 0.075178 0.000000 0.926344
O O12 0.000000 0.213949 0.000000
O O13 0.867509 0.201780 0.556843
O O14 0.873546 0.258898 0.659947
O O15 0.044814 0.204065 0.558988
O O16 0.915199 0.000000 0.610568
O O17 0.250000 0.750000 0.500000
O O18 0.167913 0.000000 0.501385
O O19 0.700052 0.000000 0.279877
#
# Coordination Sequence:
#
# PCOD9191912 Si02
#       7
#     8   8   8   8   8   8   8
#     4   9  21  40  56  74 107 146 184 229 282 340
#     4  10  20  33  52  77 104 135 174 224 282 341
#     4  10  21  38  57  79 108 143 185 234 285 341
#     4   9  19  35  53  74 102 137 175 223 283 342
#     4   9  20  39  58  84 121 156 192 232 278 333
#     4   9  19  37  62  89 121 158 192 232 279 326
#     4  11  23  38  59  84 113 152 193 235 285 337
#
# _framework density 18.494990000000001
#
# number of rings (size 3 to 8) (size 9 to 14) (size 15 to 20)
#    0.000    2.429    0.000    2.143    2.000    4.857 
#    0.000    5.714    0.000    0.000    0.000    0.000 
#    0.000    0.000    0.000    0.000    0.000    0.000 
#
# Total GULP energy -156283.719272 kJ/mol
# GULP energy per Si atom -5581.561403 kJ/mol
# Density = 1.845289 g / cm^3
# Si number density = 18.494990 Si / 1000 Ang^3
#
#
#
# Elastic Constant Matrix: (Units=GPa)
#
#
# Indices 1 2 3 4 5 6 
#
# 1 96.0254 63.5013 57.1568 0.0000 -3.5116 0.0000
# 2 63.5013 125.7003 118.7756 0.0000 -4.9182 0.0000
# 3 57.1568 118.7756 180.9943 0.0000 -7.8394 0.0000
# 4 0.0000 0.0000 0.0000 39.4358 0.0000 -0.3382
# 5 -3.5116 -4.9182 -7.8394 0.0000 13.2748 0.0000
# 6 0.0000 0.0000 0.0000 -0.3382 0.0000 27.0393
#
#
#
# Elastic Compliance Matrix: (Units=1/GPa)
#
#
# Indices 1 2 3 4 5 6 
#
# 1 0.015693 -0.008548 0.000715 0.000000 0.001406 0.000000
# 2 -0.008548 0.025598 -0.014148 0.000000 -0.001133 0.000000
# 3 0.000715 -0.014148 0.014742 0.000000 0.003653 0.000000
# 4 0.000000 0.000000 0.000000 0.025360 0.000000 0.000317
# 5 0.001406 -0.001133 0.003653 0.000000 0.077441 0.000000
# 6 0.000000 0.000000 0.000000 0.000317 0.000000 0.036987
#
#
# Mechanical properties :
#
#
# Convention : Reuss Voigt Hill
#
# Bulk Modulus (GPa) = 82.84872 97.95415 90.40143
# Shear Modulus (GPa) = 20.50799 26.83573 23.67186
#
# Velocity S-wave (km/s) = 3.33354 3.81330 3.58146
# Velocity P-wave (km/s) = 7.72717 8.51269 8.12942
#
# Compressibility (1/GPa) = 0.01207019
#
# Stress axis : x y z
#
# Youngs Moduli (GPa) = 63.72410 39.06524 67.83285
#
# Poissons Ratio (x) = 0.33393 -0.04849
# Poissons Ratio (y) = 0.54472 0.95971
# Poissons Ratio (z) = -0.04555 0.55270
#
# Static dielectric constant tensor:
#      x y z
#    x 1.650300 0.000000 0.003340 
#    y 0.000000 1.643830 0.000000 
#    z 0.003340 0.000000 1.605520 
# 
# From -- ./inp_files/338490.got.cif
#   From: 2010.05.17/outbox.cif.g08.bks.cpg/sg12_170_cif.got.tgz:338490.got - 2010.06.03 13:09:07.
