data_PCOD9191377
_publ_section_title
;
Structure prediction by ZEFSAII (Michael W. Deem and Ramdas Pophale) SiO2 
 PCOD9191377
Probable space group: C 2/M
;
_chemical_formula_sum "Si O2"
_cell_formula_units_Z 48
_cell_length_a 20.924755
_cell_length_b 9.396347
_cell_length_c 31.673695
_cell_angle_alpha 90.000000
_cell_angle_beta 28.709616
_cell_angle_gamma 90.000000
_cell_volume 2991.539015
_symmetry_space_group_name_H-M "C 2/M"
_symmetry_group_IT_number 12
_symmetry_cell_setting 'monoclinic'
loop_
_space_group_symop_operation_xyz
x,y,z
-x,y,-z
-x,-y,-z
x,-y,z
1/2+x,1/2+y,z
1/2-x,1/2+y,-z
1/2-x,1/2-y,-z
1/2+x,1/2-y,z
loop_
_atom_site_type_symbol
_atom_site_label
_atom_site_fract_x
_atom_site_fract_y
_atom_site_fract_z
Si Si1 0.952874 0.832676 0.268166
Si Si2 0.065336 0.663961 0.076320
Si Si3 0.265512 0.171392 0.535081
Si Si4 0.475246 0.173149 0.562429
Si Si5 0.804748 0.336272 0.904685
Si Si6 0.676695 0.668652 0.749298
O O1 0.856289 0.796174 0.362698
O O2 0.870885 0.814992 0.271882
O O3 0.085297 0.739451 0.187924
O O4 0.987903 0.000000 0.250382
O O5 0.050658 0.500000 0.072093
O O6 0.131615 0.664952 0.084878
O O7 0.925421 0.743571 0.163002
O O8 0.168384 0.748702 0.987278
O O9 0.250000 0.250000 0.500000
O O10 0.402488 0.214684 0.478842
O O11 0.268363 0.000000 0.527868
O O12 0.500000 0.221555 0.500000
O O13 0.329678 0.216343 0.662861
O O14 0.473469 0.000000 0.562066
O O15 0.782220 0.500000 0.906042
O O16 0.667424 0.500000 0.764359
#
# Coordination Sequence:
#
# PCOD9191377 Si02
#       6
#     8   8   8   8   8   8
#     4   9  16  27  44  65  89 120 156 194 236 277
#     4   9  16  25  37  59  93 124 149 183 232 284
#     4  10  20  33  49  70  97 128 162 199 238 282
#     4   9  15  28  50  72  91 121 165 203 234 275
#     4   9  16  25  39  60  88 121 155 189 228 276
#     4   9  15  25  45  68  89 116 156 199 233 270
#
# _framework density 16.045252999999999
#
# number of rings (size 3 to 8) (size 9 to 14) (size 15 to 20)
#    0.000    2.833    1.667    1.000    0.000    4.667 
#    0.000    0.833    0.000    1.000    0.000    1.167 
#    0.000    9.333    0.000    0.000    0.000    0.000 
#
# Total GULP energy -133704.578892 kJ/mol
# GULP energy per Si atom -5571.024121 kJ/mol
# Density = 1.600873 g / cm^3
# Si number density = 16.045253 Si / 1000 Ang^3
#
#
#
# Elastic Constant Matrix: (Units=GPa)
#
#
# Indices 1 2 3 4 5 6 
#
# 1 57.6730 34.0559 55.6578 -0.0001 -4.0100 0.0002
# 2 34.0559 83.3628 94.6668 -0.0001 1.6132 0.0005
# 3 55.6578 94.6668 193.7341 0.0003 -8.1569 0.0001
# 4 -0.0001 -0.0001 0.0003 27.6355 0.0001 2.9735
# 5 -4.0100 1.6132 -8.1569 0.0001 11.7559 0.0000
# 6 0.0002 0.0005 0.0001 2.9735 0.0000 16.4114
#
#
#
# Elastic Compliance Matrix: (Units=1/GPa)
#
#
# Indices 1 2 3 4 5 6 
#
# 1 0.025173 -0.005625 -0.004213 0.000000 0.006436 0.000000
# 2 -0.005625 0.030362 -0.013882 0.000000 -0.015717 -0.000001
# 3 -0.004213 -0.013882 0.013572 0.000000 0.009885 0.000000
# 4 0.000000 0.000000 0.000000 0.036905 -0.000001 -0.006687
# 5 0.006436 -0.015717 0.009885 -0.000001 0.096274 0.000000
# 6 0.000000 -0.000001 0.000000 -0.006687 0.000000 0.062145
#
#
# Mechanical properties :
#
#
# Convention : Reuss Voigt Hill
#
# Bulk Modulus (GPa) = 46.15028 78.17010 62.16019
# Shear Modulus (GPa) = 15.66940 21.18652 18.42796
#
# Velocity S-wave (km/s) = 3.12841 3.63770 3.39263
# Velocity P-wave (km/s) = 6.47103 8.15280 7.36011
#
# Compressibility (1/GPa) = 0.02166834
#
# Stress axis : x y z
#
# Youngs Moduli (GPa) = 39.72440 32.93545 73.68333
#
# Poissons Ratio (x) = 0.18525 0.31040
# Poissons Ratio (y) = 0.22344 1.02289
# Poissons Ratio (z) = 0.16734 0.45722
#
# Static dielectric constant tensor:
#      x y z
#    x 1.505870 0.000000 -0.006610 
#    y 0.000000 1.536560 0.000000 
#    z -0.006610 0.000000 1.537370 
# 
# From -- ./inp_files/230350.got.cif
#   From: 2010.05.17/outbox.cif.g08.bks.cpg/sg12_116_cif.got.tgz:230350.got - 2010.06.03 13:09:07.
