data_PCOD9191231
_publ_section_title
;
Structure prediction by ZEFSAII (Michael W. Deem and Ramdas Pophale) SiO2 
 PCOD9191231
Probable space group: C 2/M
;
_chemical_formula_sum "Si O2"
_cell_formula_units_Z 36
_cell_length_a 12.249287
_cell_length_b 30.650502
_cell_length_c 12.414258
_cell_angle_alpha 90.000000
_cell_angle_beta 155.077774
_cell_angle_gamma 90.000000
_cell_volume 1964.042862
_symmetry_space_group_name_H-M "C 2/M"
_symmetry_group_IT_number 12
_symmetry_cell_setting 'monoclinic'
loop_
_space_group_symop_operation_xyz
x,y,z
-x,y,-z
-x,-y,-z
x,-y,z
1/2+x,1/2+y,z
1/2-x,1/2+y,-z
1/2-x,1/2-y,-z
1/2+x,1/2-y,z
loop_
_atom_site_type_symbol
_atom_site_label
_atom_site_fract_x
_atom_site_fract_y
_atom_site_fract_z
Si Si1 0.500000 0.703375 0.000000
Si Si2 0.606931 0.272672 0.731892
Si Si3 0.705752 0.547782 0.281758
Si Si4 0.787326 0.641790 0.406295
Si Si5 0.936153 0.301455 0.739658
O O1 0.256000 0.734986 0.799347
O O2 0.438819 0.672667 0.843657
O O3 0.344787 0.295525 0.457738
O O4 0.505030 0.244601 0.743700
O O5 0.826602 0.306542 0.966334
O O6 0.657877 0.500000 0.289978
O O7 0.691553 0.592366 0.336163
O O8 0.000000 0.546637 0.500000
O O9 0.500000 0.552178 0.000000
O O10 0.904752 0.662982 0.618084
O O11 0.000000 0.641548 0.500000
#
# Coordination Sequence:
#
# PCOD9191231 Si02
#       5
#     4   8   8   8   8
#     4  12  20  30  45  66  84 118 161 184 208 268
#     4  10  21  32  44  60  87 115 146 192 224 250
#     4   9  18  31  44  62  87 112 143 185 222 251
#     4  11  20  29  46  67  85 118 157 184 205 270
#     4  10  20  33  43  61  88 114 146 189 227 247
#
# _framework density 18.329539
#
# number of rings (size 3 to 8) (size 9 to 14) (size 15 to 20)
#    0.000    1.778    3.333    4.000    0.000    0.000 
#    0.000    0.000    0.000    0.000    0.000    0.000 
#    0.000    0.000    0.000    6.000    0.000    0.000 
#
# Total GULP energy -100396.867241 kJ/mol
# GULP energy per Si atom -5577.603736 kJ/mol
# Density = 1.828782 g / cm^3
# Si number density = 18.329539 Si / 1000 Ang^3
#
#
#
# Elastic Constant Matrix: (Units=GPa)
#
#
# Indices 1 2 3 4 5 6 
#
# 1 38.4597 30.0940 19.1736 0.0000 13.2313 0.0000
# 2 30.0940 143.9284 52.9935 0.0000 -16.5554 0.0000
# 3 19.1736 52.9935 145.7817 0.0000 8.0202 0.0000
# 4 0.0000 0.0000 0.0000 14.4882 0.0000 -6.6537
# 5 13.2313 -16.5554 8.0202 0.0000 29.1991 0.0000
# 6 0.0000 0.0000 0.0000 -6.6537 0.0000 13.9565
#
#
#
# Elastic Compliance Matrix: (Units=1/GPa)
#
#
# Indices 1 2 3 4 5 6 
#
# 1 0.045546 -0.012815 0.000207 0.000000 -0.027962 0.000000
# 2 -0.012815 0.012576 -0.003653 0.000000 0.013941 0.000000
# 3 0.000207 -0.003653 0.008406 0.000000 -0.004474 0.000000
# 4 0.000000 0.000000 0.000000 0.088370 0.000000 0.042130
# 5 -0.027962 0.013941 -0.004474 0.000000 0.056051 0.000000
# 6 0.000000 0.000000 0.000000 0.042130 0.000000 0.091736
#
#
# Mechanical properties :
#
#
# Convention : Reuss Voigt Hill
#
# Bulk Modulus (GPa) = 29.40792 59.18801 44.29796
# Shear Modulus (GPa) = 14.42818 26.58936 20.50877
#
# Velocity S-wave (km/s) = 2.80867 3.81284 3.34861
# Velocity P-wave (km/s) = 5.15723 7.19339 6.25867
#
# Compressibility (1/GPa) = 0.03400445
#
# Stress axis : x y z
#
# Youngs Moduli (GPa) = 21.95596 79.51619 118.95652
#
# Poissons Ratio (x) = 1.01904 -0.02458
# Poissons Ratio (y) = 0.28138 0.43455
# Poissons Ratio (z) = -0.00454 0.29047
#
# Static dielectric constant tensor:
#      x y z
#    x 1.731710 0.000000 0.006100 
#    y 0.000000 1.643000 0.000000 
#    z 0.006100 0.000000 1.744970 
# 
# From -- ./inp_files/11799.got.cif
#   From: 2010.05.17/outbox.cif.g08.bks.cpg/sg12_6_cif.got.tgz:11799.got - 2010.06.03 13:09:07.
