data_PCOD9191940
_publ_section_title
;
Structure prediction by ZEFSAII (Michael W. Deem and Ramdas Pophale) SiO2 
 PCOD9191940
Probable space group: C 2/M
;
_chemical_formula_sum "Si O2"
_cell_formula_units_Z 64
_cell_length_a 19.504776
_cell_length_b 7.400818
_cell_length_c 19.443888
_cell_angle_alpha 90.000000
_cell_angle_beta 93.239361
_cell_angle_gamma 90.000000
_cell_volume 2802.265777
_symmetry_space_group_name_H-M "C 2/M"
_symmetry_group_IT_number 12
_symmetry_cell_setting 'monoclinic'
loop_
_space_group_symop_operation_xyz
x,y,z
-x,y,-z
-x,-y,-z
x,-y,z
1/2+x,1/2+y,z
1/2-x,1/2+y,-z
1/2-x,1/2-y,-z
1/2+x,1/2-y,z
loop_
_atom_site_type_symbol
_atom_site_label
_atom_site_fract_x
_atom_site_fract_y
_atom_site_fract_z
Si Si1 0.036792 0.219163 0.071430
Si Si2 0.068490 0.794736 0.537942
Si Si3 0.326589 0.292367 0.859059
Si Si4 0.171049 0.719066 0.422925
Si Si5 0.459848 0.788736 0.209118
Si Si6 0.903723 0.719388 0.722365
Si Si7 0.688182 0.717339 0.628791
Si Si8 0.307895 0.215524 0.212198
O O1 0.114889 0.285675 0.087781
O O2 0.992990 0.272663 0.135614
O O3 0.039157 0.000000 0.070882
O O4 0.000000 0.280143 0.000000
O O5 0.127139 0.795545 0.482749
O O6 0.112424 0.713184 0.603549
O O7 0.000000 0.711236 0.500000
O O8 0.048855 0.000000 0.556240
O O9 0.316736 0.500000 0.880176
O O10 0.362184 0.289620 0.785753
O O11 0.251987 0.210054 0.840298
O O12 0.170585 0.500000 0.428755
O O13 0.131098 0.768892 0.350758
O O14 0.249625 0.780267 0.416718
O O15 0.517782 0.717470 0.264370
O O16 0.384061 0.709054 0.205752
O O17 0.452073 0.000000 0.225484
O O18 0.902354 0.500000 0.727053
O O19 0.685515 0.500000 0.622469
O O20 0.707881 0.758106 0.708159
O O21 0.308928 0.000000 0.199999
#
# Coordination Sequence:
#
# PCOD9191940 Si02
#       8
#     8   8   8   8   8   8   8   8
#     4   9  18  34  55  77 103 137 174 206 240 291
#     4  10  23  39  52  72 102 133 168 212 259 307
#     4   9  17  31  51  76 102 130 166 204 244 291
#     4  10  20  34  54  76  98 130 171 211 254 304
#     4   9  19  33  50  75 107 136 165 205 251 297
#     4   9  17  31  50  73 100 129 164 206 248 295
#     4  10  21  37  54  73 100 134 171 210 254 305
#     4  10  20  33  52  78 105 132 166 210 256 300
#
# _framework density 22.838660999999998
#
# number of rings (size 3 to 8) (size 9 to 14) (size 15 to 20)
#    0.000    2.500    1.250    0.375    1.750    2.500 
#    0.000    0.625    0.000    0.000    0.000    0.000 
#    0.000    0.000    0.000    0.000    0.000    0.000 
#
# Total GULP energy -178639.003616 kJ/mol
# GULP energy per Si atom -5582.468863 kJ/mol
# Density = 2.278668 g / cm^3
# Si number density = 22.838661 Si / 1000 Ang^3
#
#
#
# Elastic Constant Matrix: (Units=GPa)
#
#
# Indices 1 2 3 4 5 6 
#
# 1 186.0267 6.6447 28.2077 0.0000 39.6315 0.0000
# 2 6.6447 84.4700 -8.1380 0.0000 6.6722 0.0000
# 3 28.2077 -8.1380 46.1541 0.0000 34.9499 0.0000
# 4 0.0000 0.0000 0.0000 -12.3571 0.0000 -40.9721
# 5 39.6315 6.6722 34.9499 0.0000 43.2781 0.0000
# 6 0.0000 0.0000 0.0000 -40.9721 0.0000 -44.5305
#
#
#
# Elastic Compliance Matrix: (Units=1/GPa)
#
#
# Indices 1 2 3 4 5 6 
#
# 1 0.006718 0.000214 0.001584 0.000000 -0.007464 0.000000
# 2 0.000214 0.013661 0.010351 0.000000 -0.010661 0.000000
# 3 0.001584 0.010351 0.063918 0.000000 -0.054664 0.000000
# 4 0.000000 0.000000 0.000000 0.039462 0.000000 -0.036308
# 5 -0.007464 -0.010661 -0.054664 0.000000 0.075730 0.000000
# 6 0.000000 0.000000 0.000000 -0.036308 0.000000 0.010951
#
#
# Mechanical properties :
#
#
# Convention : Reuss Voigt Hill
#
# Bulk Modulus (GPa) = 9.20854 41.11995 25.16425
# Shear Modulus (GPa) = 22.48815 16.60720 19.54768
#
# Velocity S-wave (km/s) = 3.14132 2.69950 2.92876
# Velocity P-wave (km/s) = 4.14704 5.26878 4.74120
#
# Compressibility (1/GPa) = 0.10859483
#
# Stress axis : x y z
#
# Youngs Moduli (GPa) = 148.85615 73.20060 15.64510
#
# Poissons Ratio (x) = -0.01565 -0.02478
# Poissons Ratio (y) = -0.03182 -0.16195
# Poissons Ratio (z) = -0.23579 -0.75772
#
# Static dielectric constant tensor:
#      x y z
#    x 1.901960 0.000000 0.049890 
#    y 0.000000 1.862410 0.000000 
#    z 0.049890 0.000000 1.810080 
# 
# From -- ./inp_files/314125.got.cif
#   From: 2010.05.17/outbox.cif.g08.bks.cpg/sg12_158_cif.got.tgz:314125.got - 2010.06.03 13:09:07.
