data_PCOD9191992
_publ_section_title
;
Structure prediction by ZEFSAII (Michael W. Deem and Ramdas Pophale) SiO2 
 PCOD9191992
Probable space group: C 2/M
;
_chemical_formula_sum "Si O2"
_cell_formula_units_Z 56
_cell_length_a 33.143399
_cell_length_b 8.339397
_cell_length_c 11.585318
_cell_angle_alpha 90.000000
_cell_angle_beta 118.946058
_cell_angle_gamma 90.000000
_cell_volume 2802.110791
_symmetry_space_group_name_H-M "C 2/M"
_symmetry_group_IT_number 12
_symmetry_cell_setting 'monoclinic'
loop_
_space_group_symop_operation_xyz
x,y,z
-x,y,-z
-x,-y,-z
x,-y,z
1/2+x,1/2+y,z
1/2-x,1/2+y,-z
1/2-x,1/2-y,-z
1/2+x,1/2-y,z
loop_
_atom_site_type_symbol
_atom_site_label
_atom_site_fract_x
_atom_site_fract_y
_atom_site_fract_z
Si Si1 0.360117 0.807461 0.151808
Si Si2 0.047968 0.193254 0.837781
Si Si3 0.270988 0.189599 0.409637
Si Si4 0.598389 0.306556 0.142110
Si Si5 0.556364 0.693772 0.328426
Si Si6 0.689428 0.191196 0.145931
Si Si7 0.139058 0.694082 0.587910
O O1 0.411975 0.762553 0.186937
O O2 0.350465 0.749666 0.267526
O O3 0.356381 0.000000 0.146508
O O4 0.326805 0.748672 0.002766
O O5 0.996507 0.249203 0.738294
O O6 0.049096 0.000000 0.829516
O O7 0.062588 0.232408 0.989667
O O8 0.250000 0.250000 0.500000
O O9 0.235374 0.230878 0.258648
O O10 0.321321 0.254127 0.444534
O O11 0.275031 0.000000 0.425709
O O12 0.603785 0.500000 0.151560
O O13 0.579076 0.253475 0.238516
O O14 0.647098 0.231501 0.173366
O O15 0.555591 0.500000 0.326295
O O16 0.589316 0.751077 0.475810
O O17 0.695413 0.000000 0.150768
O O18 0.139923 0.500000 0.589467
#
# Coordination Sequence:
#
# PCOD9191992 Si02
#       7
#     8   8   8   8   8   8   8
#     4   9  20  39  57  76 105 141 180 218 260 312
#     4   9  18  33  54  80 108 139 177 221 266 313
#     4  11  23  39  59  83 110 139 173 214 263 318
#     4   9  17  32  54  79 109 143 177 215 264 320
#     4  10  20  33  52  79 109 141 178 221 267 312
#     4  10  20  35  57  82 108 138 174 220 267 311
#     4  10  23  40  55  74 105 143 180 218 260 313
#
# _framework density 19.984933000000002
#
# number of rings (size 3 to 8) (size 9 to 14) (size 15 to 20)
#    0.000    2.286    0.000    2.143    0.000    8.571 
#    0.000    2.857    0.000    4.286    0.000    0.000 
#    0.000    0.000    0.000    0.000    0.000    0.000 
#
# Total GULP energy -156353.966574 kJ/mol
# GULP energy per Si atom -5584.070235 kJ/mol
# Density = 1.993945 g / cm^3
# Si number density = 19.984933 Si / 1000 Ang^3
#
#
#
# Elastic Constant Matrix: (Units=GPa)
#
#
# Indices 1 2 3 4 5 6 
#
# 1 25.6102 -2.2414 22.2705 0.0000 -3.6306 0.0000
# 2 -2.2414 5.1624 -0.0235 0.0000 -5.5016 0.0000
# 3 22.2705 -0.0235 66.3887 0.0000 0.0990 0.0000
# 4 0.0000 0.0000 0.0000 29.6195 0.0000 1.7157
# 5 -3.6306 -5.5016 0.0990 0.0000 37.4958 0.0000
# 6 0.0000 0.0000 0.0000 1.7157 0.0000 22.8295
#
#
#
# Elastic Compliance Matrix: (Units=1/GPa)
#
#
# Indices 1 2 3 4 5 6 
#
# 1 0.062429 0.039722 -0.020946 0.000000 0.011928 0.000000
# 2 0.039722 0.254887 -0.013296 0.000000 0.041280 0.000000
# 3 -0.020946 -0.013296 0.022091 0.000000 -0.004037 0.000000
# 4 0.000000 0.000000 0.000000 0.033909 0.000000 -0.002548
# 5 0.011928 0.041280 -0.004037 0.000000 0.033892 0.000000
# 6 0.000000 0.000000 0.000000 -0.002548 0.000000 0.043994
#
#
# Mechanical properties :
#
#
# Convention : Reuss Voigt Hill
#
# Bulk Modulus (GPa) = 2.85416 15.24139 9.04777
# Shear Modulus (GPa) = 8.97616 23.13268 16.05442
#
# Velocity S-wave (km/s) = 2.12161 3.40590 2.83738
# Velocity P-wave (km/s) = 2.72633 4.80728 3.90786
#
# Compressibility (1/GPa) = 0.35036591
#
# Stress axis : x y z
#
# Youngs Moduli (GPa) = 16.01820 3.92331 45.26815
#
# Poissons Ratio (x) = -0.15584 0.94818
# Poissons Ratio (y) = -0.63628 0.60190
# Poissons Ratio (z) = 0.33552 0.05217
#
# Static dielectric constant tensor:
#      x y z
#    x 1.702860 0.000000 -0.010650 
#    y 0.000000 1.694660 0.000000 
#    z -0.010650 0.000000 1.704380 
# 
# From -- ./inp_files/180715.got.cif
#   From: 2010.05.17/outbox.cif.g08.bks.cpg/sg12_91_cif.got.tgz:180715.got - 2010.06.03 13:09:07.
