data_PCOD9191331
_publ_section_title
;
Structure prediction by ZEFSAII (Michael W. Deem and Ramdas Pophale) SiO2 
 PCOD9191331
Probable space group: C 2/M
;
_chemical_formula_sum "Si O2"
_cell_formula_units_Z 40
_cell_length_a 16.198270
_cell_length_b 7.324855
_cell_length_c 12.720228
_cell_angle_alpha 90.000000
_cell_angle_beta 74.294993
_cell_angle_gamma 90.000000
_cell_volume 1452.911429
_symmetry_space_group_name_H-M "C 2/M"
_symmetry_group_IT_number 12
_symmetry_cell_setting 'monoclinic'
loop_
_space_group_symop_operation_xyz
x,y,z
-x,y,-z
-x,-y,-z
x,-y,z
1/2+x,1/2+y,z
1/2-x,1/2+y,-z
1/2-x,1/2-y,-z
1/2+x,1/2-y,z
loop_
_atom_site_type_symbol
_atom_site_label
_atom_site_fract_x
_atom_site_fract_y
_atom_site_fract_z
Si Si1 0.846873 0.718120 0.433308
Si Si2 0.259259 0.280048 0.838112
Si Si3 0.105932 0.712222 0.019896
Si Si4 0.099713 0.287430 0.367181
Si Si5 0.526715 0.776498 0.773655
O O1 0.857575 0.500000 0.427262
O O2 0.750000 0.750000 0.500000
O O3 0.900228 0.789070 0.515696
O O4 0.883086 0.780282 0.308494
O O5 0.256067 0.500000 0.839790
O O6 0.326106 0.218878 0.905898
O O7 0.304605 0.225098 0.714580
O O8 0.164842 0.212840 0.905038
O O9 0.091417 0.500000 0.999548
O O10 0.018225 0.785813 0.102653
O O11 0.077109 0.500000 0.383635
O O12 0.037944 0.216111 0.297565
O O13 0.525765 0.000000 0.781828
#
# Coordination Sequence:
#
# PCOD9191331 Si02
#       5
#     8   8   8   8   8
#     4  10  20  33  49  67  89 118 151 188 229 269
#     4   9  15  23  40  68  96 117 141 180 226 264
#     4   8  14  25  42  65  92 119 147 179 218 265
#     4   9  17  30  48  68  90 119 153 184 217 264
#     4   8  14  28  50  70  87 114 153 188 216 257
#
# _framework density 27.530929
#
# number of rings (size 3 to 8) (size 9 to 14) (size 15 to 20)
#    0.000    3.200    0.000    2.400    0.000    4.000 
#    0.000    4.000    0.000    7.200    0.000    8.400 
#    0.000    0.000    0.000    0.000    0.000    0.000 
#
# Total GULP energy -111749.796522 kJ/mol
# GULP energy per Si atom -5587.489826 kJ/mol
# Density = 2.746827 g / cm^3
# Si number density = 27.530929 Si / 1000 Ang^3
#
#
#
# Elastic Constant Matrix: (Units=GPa)
#
#
# Indices 1 2 3 4 5 6 
#
# 1 94.9057 -4.5827 74.3642 0.0000 -19.5667 0.0000
# 2 -4.5827 118.0273 -3.2334 0.0000 2.4125 0.0000
# 3 74.3642 -3.2334 306.7746 0.0000 -19.9663 0.0000
# 4 0.0000 0.0000 0.0000 8.6855 0.0000 -8.7472
# 5 -19.5667 2.4125 -19.9663 0.0000 68.6968 0.0000
# 6 0.0000 0.0000 0.0000 -8.7472 0.0000 0.1002
#
#
#
# Elastic Compliance Matrix: (Units=1/GPa)
#
#
# Indices 1 2 3 4 5 6 
#
# 1 0.013593 0.000382 -0.003098 0.000000 0.002958 0.000000
# 2 0.000382 0.008491 -0.000016 0.000000 -0.000194 0.000000
# 3 -0.003098 -0.000016 0.004029 0.000000 0.000289 0.000000
# 4 0.000000 0.000000 0.000000 -0.001325 0.000000 -0.115638
# 5 0.002958 -0.000194 0.000289 0.000000 0.015490 0.000000
# 6 0.000000 0.000000 0.000000 -0.115638 0.000000 -0.114821
#
#
# Mechanical properties :
#
#
# Convention : Reuss Voigt Hill
#
# Bulk Modulus (GPa) = 48.42713 72.53375 60.48044
# Shear Modulus (GPa) = -80.39106 45.70714 -17.34196
#
# Velocity S-wave (km/s) = -5.40959 4.07899 -2.51252
# Velocity P-wave (km/s) = 4.62493 6.97049 3.68766
#
# Compressibility (1/GPa) = 0.02064958
#
# Stress axis : x y z
#
# Youngs Moduli (GPa) = 73.56810 117.77187 248.17192
#
# Poissons Ratio (x) = -0.04504 0.76895
# Poissons Ratio (y) = -0.02814 0.00393
# Poissons Ratio (z) = 0.22795 0.00186
#
# Static dielectric constant tensor:
#      x y z
#    x 2.230540 0.000000 -0.036170 
#    y 0.000000 2.696630 0.000000 
#    z -0.036170 0.000000 2.151770 
# 
# From -- ./inp_files/220548.got.cif
#   From: 2010.05.17/outbox.cif.g08.bks.cpg/sg12_111_cif.got.tgz:220548.got - 2010.06.03 13:09:07.
