data_PCOD9191993
_publ_section_title
;
Structure prediction by ZEFSAII (Michael W. Deem and Ramdas Pophale) SiO2 
 PCOD9191993
Probable space group: C 2/M
;
_chemical_formula_sum "Si O2"
_cell_formula_units_Z 56
_cell_length_a 8.638776
_cell_length_b 27.737224
_cell_length_c 13.759756
_cell_angle_alpha 90.000000
_cell_angle_beta 57.963750
_cell_angle_gamma 90.000000
_cell_volume 2794.953627
_symmetry_space_group_name_H-M "C 2/M"
_symmetry_group_IT_number 12
_symmetry_cell_setting 'monoclinic'
loop_
_space_group_symop_operation_xyz
x,y,z
-x,y,-z
-x,-y,-z
x,-y,z
1/2+x,1/2+y,z
1/2-x,1/2+y,-z
1/2-x,1/2-y,-z
1/2+x,1/2-y,z
loop_
_atom_site_type_symbol
_atom_site_label
_atom_site_fract_x
_atom_site_fract_y
_atom_site_fract_z
Si Si1 0.059195 0.791779 0.749766
Si Si2 0.391882 0.908218 0.285897
Si Si3 0.348902 0.053765 0.966273
Si Si4 0.491668 0.371266 0.619681
Si Si5 0.410824 0.811413 0.766740
Si Si6 0.667947 0.346009 0.018420
Si Si7 0.193518 0.445098 0.480715
O O1 0.244621 0.801515 0.748046
O O2 0.042637 0.822578 0.657511
O O3 0.033538 0.735786 0.735738
O O4 0.895257 0.812323 0.872454
O O5 0.540100 0.934126 0.169308
O O6 0.210990 0.890750 0.289517
O O7 0.480498 0.859285 0.298947
O O8 0.328813 0.941236 0.395662
O O9 0.218267 0.099248 0.029103
O O10 0.265667 0.000000 0.988795
O O11 0.500000 0.053343 0.000000
O O12 0.500000 0.365756 0.500000
O O13 0.641198 0.410494 0.601634
O O14 0.331064 0.823217 0.900847
O O15 0.500000 0.348571 0.000000
O O16 0.229817 0.500000 0.439121
O O17 0.000000 0.430147 0.500000
#
# Coordination Sequence:
#
# PCOD9191993 Si02
#       7
#     8   8   8   8   8   8   8
#     4  11  20  37  56  79 112 144 179 225 271 318
#     4  10  20  37  56  79 109 142 180 226 270 318
#     4  10  20  33  52  79 109 142 178 219 269 321
#     4  10  22  37  56  81 109 143 184 223 265 317
#     4  10  21  35  58  84 108 141 180 219 273 328
#     4   9  20  36  55  80 109 141 180 222 266 323
#     4  10  21  38  59  82 108 141 181 224 270 318
#
# _framework density 20.036110999999998
#
# number of rings (size 3 to 8) (size 9 to 14) (size 15 to 20)
#    0.000    2.000    0.000    3.429    0.000    4.571 
#    0.000    8.571    0.000    0.000    0.000    0.000 
#    0.000    0.000    0.000    0.000    0.000    0.000 
#
# Total GULP energy -156369.511151 kJ/mol
# GULP energy per Si atom -5584.625398 kJ/mol
# Density = 1.999051 g / cm^3
# Si number density = 20.036111 Si / 1000 Ang^3
#
#
#
# Elastic Constant Matrix: (Units=GPa)
#
#
# Indices 1 2 3 4 5 6 
#
# 1 64.3633 32.8645 -3.2446 0.0000 0.8141 0.0000
# 2 32.8645 103.6895 2.5686 0.0000 1.9281 0.0000
# 3 -3.2446 2.5686 13.1162 0.0000 2.7878 0.0000
# 4 0.0000 0.0000 0.0000 -23.8844 0.0000 8.5541
# 5 0.8141 1.9281 2.7878 0.0000 22.5383 0.0000
# 6 0.0000 0.0000 0.0000 8.5541 0.0000 28.1970
#
#
#
# Elastic Compliance Matrix: (Units=1/GPa)
#
#
# Indices 1 2 3 4 5 6 
#
# 1 0.018999 -0.006156 0.006100 0.000000 -0.000914 0.000000
# 2 -0.006156 0.011694 -0.003746 0.000000 -0.000315 0.000000
# 3 0.006100 -0.003746 0.080581 0.000000 -0.009867 0.000000
# 4 0.000000 0.000000 0.000000 -0.037765 0.000000 0.011457
# 5 -0.000914 -0.000315 -0.009867 0.000000 0.045649 0.000000
# 6 0.000000 0.000000 0.000000 0.011457 0.000000 0.031989
#
#
# Mechanical properties :
#
#
# Convention : Reuss Voigt Hill
#
# Bulk Modulus (GPa) = 9.64599 27.28288 18.46444
# Shear Modulus (GPa) = 25.86536 15.30221 20.58379
#
# Velocity S-wave (km/s) = 3.59686 2.76657 3.20868
# Velocity P-wave (km/s) = 4.69836 4.88381 4.79198
#
# Compressibility (1/GPa) = 0.10367000
#
# Stress axis : x y z
#
# Youngs Moduli (GPa) = 52.63403 85.51437 12.40982
#
# Poissons Ratio (x) = 0.52642 -0.07570
# Poissons Ratio (y) = 0.32401 0.04649
# Poissons Ratio (z) = -0.32105 0.32034
#
# Static dielectric constant tensor:
#      x y z
#    x 1.695140 0.000000 -0.012980 
#    y 0.000000 1.678120 0.000000 
#    z -0.012980 0.000000 1.723660 
# 
# From -- ./inp_files/198782.got.cif
#   From: 2010.05.17/outbox.cif.g08.bks.cpg/sg12_100_cif.got.tgz:198782.got - 2010.06.03 13:09:07.
