data_PCOD9191546
_publ_section_title
;
Structure prediction by ZEFSAII (Michael W. Deem and Ramdas Pophale) SiO2 
 PCOD9191546
Probable space group: C 2/M
;
_chemical_formula_sum "Si O2"
_cell_formula_units_Z 40
_cell_length_a 14.743312
_cell_length_b 8.555670
_cell_length_c 27.138204
_cell_angle_alpha 90.000000
_cell_angle_beta 141.095581
_cell_angle_gamma 90.000000
_cell_volume 2149.838260
_symmetry_space_group_name_H-M "C 2/M"
_symmetry_group_IT_number 12
_symmetry_cell_setting 'monoclinic'
loop_
_space_group_symop_operation_xyz
x,y,z
-x,y,-z
-x,-y,-z
x,-y,z
1/2+x,1/2+y,z
1/2-x,1/2+y,-z
1/2-x,1/2-y,-z
1/2+x,1/2-y,z
loop_
_atom_site_type_symbol
_atom_site_label
_atom_site_fract_x
_atom_site_fract_y
_atom_site_fract_z
Si Si1 0.074327 0.188841 0.377101
Si Si2 0.519458 0.686370 0.901359
Si Si3 0.268886 0.811305 0.930582
Si Si4 0.614715 0.311297 0.507490
Si Si5 0.278786 0.688553 0.201582
O O1 0.222567 0.250946 0.416340
O O2 0.071534 0.236901 0.433544
O O3 0.930211 0.242278 0.288330
O O4 0.078215 0.000000 0.377437
O O5 0.512145 0.500000 0.899052
O O6 0.631016 0.734042 0.905628
O O7 0.360965 0.755335 0.827892
O O8 0.591244 0.745667 0.982516
O O9 0.244874 0.758186 0.864713
O O10 0.280240 0.000000 0.935608
O O11 0.500000 0.257570 0.500000
O O12 0.617145 0.500000 0.509709
O O13 0.280584 0.500000 0.202168
#
# Coordination Sequence:
#
# PCOD9191546 Si02
#       5
#     8   8   8   8   8
#     4   9  19  34  51  74 100 127 163 199 234 288
#     4  10  20  33  50  73  98 126 165 207 242 282
#     4   9  19  35  51  68  96 133 166 198 242 291
#     4   9  18  34  54  74  99 129 158 195 244 289
#     4  10  20  34  51  71  99 132 162 197 243 290
#
# _framework density 18.606051000000001
#
# number of rings (size 3 to 8) (size 9 to 14) (size 15 to 20)
#    0.000    2.600    0.000    1.200    0.000    6.800 
#    0.000    0.000    0.000    0.000    0.000    0.000 
#    0.000    0.000    0.000    0.000    0.000    0.000 
#
# Total GULP energy -111593.577195 kJ/mol
# GULP energy per Si atom -5579.678860 kJ/mol
# Density = 1.856370 g / cm^3
# Si number density = 18.606051 Si / 1000 Ang^3
#
#
#
# Elastic Constant Matrix: (Units=GPa)
#
#
# Indices 1 2 3 4 5 6 
#
# 1 97.7814 13.0374 54.1138 0.0000 27.1066 0.0000
# 2 13.0374 -0.7939 16.4851 0.0000 2.6593 0.0000
# 3 54.1138 16.4851 137.3826 0.0000 31.9294 0.0000
# 4 0.0000 0.0000 0.0000 28.0990 0.0000 8.9897
# 5 27.1066 2.6593 31.9294 0.0000 22.3857 0.0000
# 6 0.0000 0.0000 0.0000 8.9897 0.0000 22.1203
#
#
#
# Elastic Compliance Matrix: (Units=1/GPa)
#
#
# Indices 1 2 3 4 5 6 
#
# 1 0.012053 0.032332 -0.006496 0.000000 -0.009171 0.000000
# 2 0.032332 -0.262454 0.030831 0.000000 -0.051948 0.000000
# 3 -0.006496 0.030831 0.007720 0.000000 -0.006809 0.000000
# 4 0.000000 0.000000 0.000000 0.040907 0.000000 -0.016625
# 5 -0.009171 -0.051948 -0.006809 0.000000 0.071659 0.000000
# 6 0.000000 0.000000 0.000000 -0.016625 0.000000 0.051964
#
#
# Mechanical properties :
#
#
# Convention : Reuss Voigt Hill
#
# Bulk Modulus (GPa) = -7.73119 44.62696 18.44788
# Shear Modulus (GPa) = -21.31289 24.56990 1.62851
#
# Velocity S-wave (km/s) = -3.38817 3.63786 0.93657
# Velocity P-wave (km/s) = 4.41254 6.45621 3.33258
#
# Compressibility (1/GPa) = -0.12934620
#
# Stress axis : x y z
#
# Youngs Moduli (GPa) = 82.96536 -3.81019 129.52545
#
# Poissons Ratio (x) = 0.12319 0.84139
# Poissons Ratio (y) = -2.68242 -3.99342
# Poissons Ratio (z) = 0.53894 0.11747
#
# Static dielectric constant tensor:
#      x y z
#    x 1.650920 0.000000 -0.005990 
#    y 0.000000 1.633510 0.000000 
#    z -0.005990 0.000000 1.622740 
# 
# From -- ./inp_files/211345.got.cif
#   From: 2010.05.17/outbox.cif.g08.bks.cpg/sg12_106_cif.got.tgz:211345.got - 2010.06.03 13:09:07.
