data_PCOD9191728
_publ_section_title
;
Structure prediction by ZEFSAII (Michael W. Deem and Ramdas Pophale) SiO2 
 PCOD9191728
Probable space group: C 2/M
;
_chemical_formula_sum "Si O2"
_cell_formula_units_Z 48
_cell_length_a 15.882452
_cell_length_b 8.375418
_cell_length_c 22.760812
_cell_angle_alpha 90.000000
_cell_angle_beta 140.639817
_cell_angle_gamma 90.000000
_cell_volume 1920.142603
_symmetry_space_group_name_H-M "C 2/M"
_symmetry_group_IT_number 12
_symmetry_cell_setting 'monoclinic'
loop_
_space_group_symop_operation_xyz
x,y,z
-x,y,-z
-x,-y,-z
x,-y,z
1/2+x,1/2+y,z
1/2-x,1/2+y,-z
1/2-x,1/2-y,-z
1/2+x,1/2-y,z
loop_
_atom_site_type_symbol
_atom_site_label
_atom_site_fract_x
_atom_site_fract_y
_atom_site_fract_z
Si Si1 0.801753 0.312143 0.882521
Si Si2 0.520072 0.811938 0.729743
Si Si3 0.549514 0.187069 0.603204
Si Si4 0.609648 0.810875 0.946078
Si Si5 0.663998 0.686708 0.228432
Si Si6 0.733817 0.308962 0.558434
O O1 0.823812 0.500000 0.880976
O O2 0.648008 0.286344 0.818726
O O3 0.820309 0.211352 0.833759
O O4 0.891810 0.262705 0.986044
O O5 0.528802 0.803174 0.662898
O O6 0.370503 0.752577 0.663347
O O7 0.534113 0.000000 0.753342
O O8 0.696837 0.259489 0.672509
O O9 0.413374 0.254443 0.502977
O O10 0.555840 0.000000 0.592411
O O11 0.481417 0.758134 0.840524
O O12 0.611875 0.000000 0.946575
O O13 0.750000 0.750000 0.000000
O O14 0.661789 0.500000 0.240921
O O15 0.738297 0.500000 0.561639
O O16 0.750000 0.250000 0.500000
#
# Coordination Sequence:
#
# PCOD9191728 Si02
#       6
#     8   8   8   8   8   8
#     4  10  20  33  51  76 102 129 166 208 246 291
#     4   8  15  26  40  63  95 129 163 197 238 288
#     4   8  15  26  40  63  94 126 160 195 234 283
#     4  11  24  39  54  74  99 128 165 207 251 300
#     4  10  20  34  53  76 102 133 167 203 246 295
#     4   9  15  22  35  59  92 127 160 194 234 281
#
# _framework density 24.998142999999999
#
# number of rings (size 3 to 8) (size 9 to 14) (size 15 to 20)
#    0.000    2.667    0.000    4.500    0.000   12.000 
#    0.000    0.000    0.000    0.000    0.000    1.167 
#    0.000    9.333    0.000    0.000    0.000    0.000 
#
# Total GULP energy -134183.213612 kJ/mol
# GULP energy per Si atom -5590.967234 kJ/mol
# Density = 2.494125 g / cm^3
# Si number density = 24.998143 Si / 1000 Ang^3
#
#
#
# Elastic Constant Matrix: (Units=GPa)
#
#
# Indices 1 2 3 4 5 6 
#
# 1 88.3174 -7.8111 41.9205 0.0000 28.3906 0.0000
# 2 -7.8111 32.2035 24.2415 0.0000 8.9534 0.0000
# 3 41.9205 24.2415 236.6101 0.0000 22.1678 0.0000
# 4 0.0000 0.0000 0.0000 37.3161 0.0000 12.7995
# 5 28.3906 8.9534 22.1678 0.0000 62.6019 0.0000
# 6 0.0000 0.0000 0.0000 12.7995 0.0000 16.7330
#
#
#
# Elastic Compliance Matrix: (Units=1/GPa)
#
#
# Indices 1 2 3 4 5 6 
#
# 1 0.015763 0.008053 -0.002938 0.000000 -0.007260 0.000000
# 2 0.008053 0.038619 -0.004679 0.000000 -0.007519 0.000000
# 3 -0.002938 -0.004679 0.005212 0.000000 0.000156 0.000000
# 4 0.000000 0.000000 0.000000 0.036330 0.000000 -0.027790
# 5 -0.007260 -0.007519 0.000156 0.000000 0.020287 0.000000
# 6 0.000000 0.000000 0.000000 -0.027790 0.000000 0.081019
#
#
# Mechanical properties :
#
#
# Convention : Reuss Voigt Hill
#
# Bulk Modulus (GPa) = 16.53792 52.64808 34.59300
# Shear Modulus (GPa) = 23.09343 43.24887 33.17115
#
# Velocity S-wave (km/s) = 3.04271 4.16394 3.64668
# Velocity P-wave (km/s) = 4.35594 6.65014 5.62132
#
# Compressibility (1/GPa) = 0.06046709
#
# Stress axis : x y z
#
# Youngs Moduli (GPa) = 63.43794 25.89430 191.87947
#
# Poissons Ratio (x) = -0.20854 0.56369
# Poissons Ratio (y) = -0.51090 0.89781
# Poissons Ratio (z) = 0.18636 0.12116
#
# Static dielectric constant tensor:
#      x y z
#    x 2.146580 0.000000 -0.001840 
#    y 0.000000 1.838120 0.000000 
#    z -0.001840 0.000000 2.038930 
# 
# From -- ./inp_files/274085.got.cif
#   From: 2010.05.17/outbox.cif.g08.bks.cpg/sg12_138_cif.got.tgz:274085.got - 2010.06.03 13:09:07.
