data_PCOD9191712
_publ_section_title
;
Structure prediction by ZEFSAII (Michael W. Deem and Ramdas Pophale) SiO2 
 PCOD9191712
Probable space group: C 2/M
;
_chemical_formula_sum "Si O2"
_cell_formula_units_Z 64
_cell_length_a 31.524142
_cell_length_b 8.754659
_cell_length_c 15.722282
_cell_angle_alpha 90.000000
_cell_angle_beta 57.167851
_cell_angle_gamma 90.000000
_cell_volume 3645.969920
_symmetry_space_group_name_H-M "C 2/M"
_symmetry_group_IT_number 12
_symmetry_cell_setting 'monoclinic'
loop_
_space_group_symop_operation_xyz
x,y,z
-x,y,-z
-x,-y,-z
x,-y,z
1/2+x,1/2+y,z
1/2-x,1/2+y,-z
1/2-x,1/2-y,-z
1/2+x,1/2-y,z
loop_
_atom_site_type_symbol
_atom_site_label
_atom_site_fract_x
_atom_site_fract_y
_atom_site_fract_z
Si Si1 0.543086 0.680695 0.142746
Si Si2 0.056402 0.318680 0.823558
Si Si3 0.349181 0.316659 0.369152
Si Si4 0.982671 0.682219 0.647632
Si Si5 0.574282 0.316635 0.451312
Si Si6 0.116360 0.318359 0.932265
Si Si7 0.317200 0.683460 0.593328
Si Si8 0.210079 0.181549 0.738716
O O1 0.543439 0.500000 0.154428
O O2 0.494923 0.730431 0.138707
O O3 0.536049 0.762772 0.240678
O O4 0.592527 0.735828 0.039005
O O5 0.047200 0.500000 0.827863
O O6 0.098711 0.267242 0.709777
O O7 0.080571 0.284796 0.889359
O O8 0.358285 0.500000 0.360126
O O9 0.326904 0.272271 0.484398
O O10 0.310974 0.282231 0.333375
O O11 0.986742 0.500000 0.639987
O O12 0.945398 0.741235 0.614047
O O13 0.036757 0.756200 0.565429
O O14 0.569184 0.500000 0.451402
O O15 0.631846 0.279046 0.411039
O O16 0.116216 0.500000 0.944957
O O17 0.171615 0.261261 0.845480
O O18 0.310587 0.500000 0.602650
O O19 0.267059 0.761275 0.682646
O O20 0.207113 0.000000 0.752897
#
# Coordination Sequence:
#
# PCOD9191712 Si02
#       8
#     8   8   8   8   8   8   8   8
#     4  12  23  35  54  78 105 138 177 218 261 313
#     4  10  20  33  51  77 108 141 176 215 260 310
#     4   9  18  32  49  74 108 144 179 214 257 307
#     4  11  22  37  57  81 109 139 172 213 263 316
#     4  10  20  36  57  82 111 141 173 212 262 316
#     4  10  21  37  54  74 105 141 178 219 261 308
#     4  10  20  33  52  76 104 140 178 216 260 309
#     4  10  20  33  51  75 105 141 181 221 258 302
#
# _framework density 17.553629000000001
#
# number of rings (size 3 to 8) (size 9 to 14) (size 15 to 20)
#    0.000    1.750    0.000    6.000    0.000    6.000 
#    0.000    0.000    0.000    0.750    0.000    0.000 
#    0.000    0.000    0.000    0.000    0.000    0.000 
#
# Total GULP energy -178829.010846 kJ/mol
# GULP energy per Si atom -5588.406589 kJ/mol
# Density = 1.751368 g / cm^3
# Si number density = 17.553629 Si / 1000 Ang^3
#
#
#
# Elastic Constant Matrix: (Units=GPa)
#
#
# Indices 1 2 3 4 5 6 
#
# 1 67.8494 30.9027 34.6385 0.0000 -20.3881 0.0000
# 2 30.9027 62.7768 33.8882 0.0000 -6.4554 0.0000
# 3 34.6385 33.8882 93.8857 0.0000 -13.0860 0.0000
# 4 0.0000 0.0000 0.0000 31.3778 0.0000 -5.2807
# 5 -20.3881 -6.4554 -13.0860 0.0000 19.1897 0.0000
# 6 0.0000 0.0000 0.0000 -5.2807 0.0000 26.7046
#
#
#
# Elastic Compliance Matrix: (Units=1/GPa)
#
#
# Indices 1 2 3 4 5 6 
#
# 1 0.028175 -0.009424 -0.003606 0.000000 0.024306 0.000000
# 2 -0.009424 0.023004 -0.005684 0.000000 -0.006150 0.000000
# 3 -0.003606 -0.005684 0.014623 0.000000 0.004229 0.000000
# 4 0.000000 0.000000 0.000000 0.032967 0.000000 0.006519
# 5 0.024306 -0.006150 0.004229 0.000000 0.078750 0.000000
# 6 0.000000 0.000000 0.000000 0.006519 0.000000 0.038736
#
#
# Mechanical properties :
#
#
# Convention : Reuss Voigt Hill
#
# Bulk Modulus (GPa) = 35.24173 47.04119 41.14146
# Shear Modulus (GPa) = 19.00138 23.79326 21.39732
#
# Velocity S-wave (km/s) = 3.29367 3.68565 3.49516
# Velocity P-wave (km/s) = 5.88086 6.70588 6.30687
#
# Compressibility (1/GPa) = 0.02837545
#
# Stress axis : x y z
#
# Youngs Moduli (GPa) = 35.49239 43.47027 68.38773
#
# Poissons Ratio (x) = 0.40965 0.24659
# Poissons Ratio (y) = 0.33447 0.38870
# Poissons Ratio (z) = 0.12798 0.24707
#
# Static dielectric constant tensor:
#      x y z
#    x 1.586450 0.000000 0.005070 
#    y 0.000000 1.583700 0.000000 
#    z 0.005070 0.000000 1.584140 
# 
# From -- ./inp_files/249040.got.cif
#   From: 2010.05.17/outbox.cif.g08.bks.cpg/sg12_125_cif.got.tgz:249040.got - 2010.06.03 13:09:07.
