data_PCOD9191908
_publ_section_title
;
Structure prediction by ZEFSAII (Michael W. Deem and Ramdas Pophale) SiO2 
 PCOD9191908
Probable space group: C 2/M
;
_chemical_formula_sum "Si O2"
_cell_formula_units_Z 48
_cell_length_a 4.879957
_cell_length_b 33.585681
_cell_length_c 15.838395
_cell_angle_alpha 90.000000
_cell_angle_beta 90.858094
_cell_angle_gamma 90.000000
_cell_volume 2595.569226
_symmetry_space_group_name_H-M "C 2/M"
_symmetry_group_IT_number 12
_symmetry_cell_setting 'monoclinic'
loop_
_space_group_symop_operation_xyz
x,y,z
-x,y,-z
-x,-y,-z
x,-y,z
1/2+x,1/2+y,z
1/2-x,1/2+y,-z
1/2-x,1/2-y,-z
1/2+x,1/2-y,z
loop_
_atom_site_type_symbol
_atom_site_label
_atom_site_fract_x
_atom_site_fract_y
_atom_site_fract_z
Si Si1 0.527183 0.651283 0.209219
Si Si2 0.748677 0.337183 0.443907
Si Si3 0.095055 0.917083 0.905220
Si Si4 0.520969 0.723880 0.689217
Si Si5 0.085758 0.546923 0.813605
Si Si6 0.971426 0.616060 0.700984
O O1 0.430376 0.628907 0.124744
O O2 0.507584 0.698073 0.225357
O O3 0.837577 0.638756 0.229608
O O4 0.333832 0.631312 0.281367
O O5 0.500000 0.353377 0.500000
O O6 0.601587 0.304129 0.384788
O O7 0.902358 0.369864 0.386548
O O8 0.000000 0.319530 0.500000
O O9 0.392339 0.934235 0.885314
O O10 0.891986 0.941390 0.842266
O O11 0.000000 0.922341 0.000000
O O12 0.835234 0.736725 0.684540
O O13 0.051368 0.500000 0.807779
O O14 0.004229 0.570276 0.727649
#
# Coordination Sequence:
#
# PCOD9191908 Si02
#       6
#     8   8   8   8   8   8
#     4   9  18  34  51  68  95 134 172 195 229 294
#     4  11  21  33  50  72  99 129 163 205 250 295
#     4  10  20  33  52  77 104 133 163 200 244 290
#     4  11  21  33  50  72  99 129 161 203 250 295
#     4  10  20  33  52  77 104 133 163 200 244 290
#     4   9  18  34  51  68  95 134 172 195 229 294
#
# _framework density 18.493051000000001
#
# number of rings (size 3 to 8) (size 9 to 14) (size 15 to 20)
#    0.000    2.000    0.000    6.000    0.000    4.000 
#    0.000    0.000    0.000    2.000    0.000    0.000 
#    0.000    0.000    0.000    0.000    0.000    0.000 
#
# Total GULP energy -133790.687215 kJ/mol
# GULP energy per Si atom -5574.611967 kJ/mol
# Density = 1.845096 g / cm^3
# Si number density = 18.493051 Si / 1000 Ang^3
#
#
#
# Elastic Constant Matrix: (Units=GPa)
#
#
# Indices 1 2 3 4 5 6 
#
# 1 71.7437 -0.1111 -4.3506 0.0000 -3.4116 0.0000
# 2 -0.1111 63.5012 42.2410 0.0000 -2.0208 0.0000
# 3 -4.3506 42.2410 19.7105 0.0000 -8.8836 0.0000
# 4 0.0000 0.0000 0.0000 11.5493 0.0000 -0.0962
# 5 -3.4116 -2.0208 -8.8836 0.0000 25.2134 0.0000
# 6 0.0000 0.0000 0.0000 -0.0962 0.0000 22.5103
#
#
#
# Elastic Compliance Matrix: (Units=1/GPa)
#
#
# Indices 1 2 3 4 5 6 
#
# 1 0.013528 0.004497 -0.006734 0.000000 -0.000182 0.000000
# 2 0.004497 -0.023088 0.059334 0.000000 0.019664 0.000000
# 3 -0.006734 0.059334 -0.090558 0.000000 -0.028063 0.000000
# 4 0.000000 0.000000 0.000000 0.086589 0.000000 0.000370
# 5 -0.000182 0.019664 -0.028063 0.000000 0.031325 0.000000
# 6 0.000000 0.000000 0.000000 0.000370 0.000000 0.044426
#
#
# Mechanical properties :
#
#
# Convention : Reuss Voigt Hill
#
# Bulk Modulus (GPa) = 71.03253 25.61267 48.32260
# Shear Modulus (GPa) = -105.75100 19.66633 -43.04234
#
# Velocity S-wave (km/s) = -7.57023 3.26459 -4.82964
# Velocity P-wave (km/s) = 6.15770 5.30000 2.21668
#
# Compressibility (1/GPa) = 0.01407806
#
# Stress axis : x y z
#
# Youngs Moduli (GPa) = 73.91824 -43.31253 -11.04264
#
# Poissons Ratio (x) = 0.19479 -0.07436
# Poissons Ratio (y) = -0.33244 0.65521
# Poissons Ratio (z) = 0.49777 2.56993
#
# Static dielectric constant tensor:
#      x y z
#    x 1.636840 0.000000 0.003840 
#    y 0.000000 1.655820 0.000000 
#    z 0.003840 0.000000 1.667590 
# 
# From -- ./inp_files/192401.got.cif
#   From: 2010.05.17/outbox.cif.g08.bks.cpg/sg12_97_cif.got.tgz:192401.got - 2010.06.03 13:09:07.
