data_PCOD9192559
_publ_section_title
;
Structure prediction by ZEFSAII (Michael W. Deem and Ramdas Pophale) SiO2 
 PCOD9192559
Probable space group: C 2/M
;
_chemical_formula_sum "Si O2"
_cell_formula_units_Z 48
_cell_length_a 7.984863
_cell_length_b 17.313698
_cell_length_c 18.035791
_cell_angle_alpha 90.000000
_cell_angle_beta 131.932938
_cell_angle_gamma 90.000000
_cell_volume 1854.911165
_symmetry_space_group_name_H-M "C 2/M"
_symmetry_group_IT_number 12
_symmetry_cell_setting 'monoclinic'
loop_
_space_group_symop_operation_xyz
x,y,z
-x,y,-z
-x,-y,-z
x,-y,z
1/2+x,1/2+y,z
1/2-x,1/2+y,-z
1/2-x,1/2-y,-z
1/2+x,1/2-y,z
loop_
_atom_site_type_symbol
_atom_site_label
_atom_site_fract_x
_atom_site_fract_y
_atom_site_fract_z
Si Si1 0.856530 0.338834 0.215755
Si Si2 0.847298 0.176702 0.121970
Si Si3 0.493691 0.705999 0.574332
Si Si4 0.903738 0.916315 0.271179
Si Si5 0.386148 0.130658 0.385366
Si Si6 0.759270 0.412782 0.045428
O O1 0.859353 0.256705 0.171737
O O2 0.601505 0.338858 0.170320
O O3 0.985744 0.364943 0.330205
O O4 0.899711 0.397951 0.161881
O O5 0.774715 0.113025 0.160844
O O6 0.713565 0.156356 0.006791
O O7 0.500000 0.660161 0.500000
O O8 0.250000 0.750000 0.500000
O O9 0.573062 0.651050 0.662051
O O10 0.663972 0.777759 0.621576
O O11 0.163794 0.919203 0.320366
O O12 0.838574 0.000000 0.279220
O O13 0.500000 0.111639 0.500000
O O14 0.790630 0.500000 0.025320
O O15 0.500000 0.409033 0.000000
#
# Coordination Sequence:
#
# PCOD9192559 Si02
#       6
#     8   8   8   8   8   8
#     4  10  20  33  58  83 108 145 191 228 274 343
#     4  10  20  35  56  86 110 145 184 234 279 341
#     4  11  20  37  59  80 112 157 191 231 286 339
#     4  11  22  36  58  88 115 147 193 241 285 333
#     4  10  20  36  56  84 113 152 189 231 280 334
#     4   9  18  34  55  80 112 142 181 236 287 327
#
# _framework density 25.877251000000001
#
# number of rings (size 3 to 8) (size 9 to 14) (size 15 to 20)
#    0.000    1.833    5.000    1.000    0.000    4.667 
#    0.000    0.000    0.000    3.000    0.000    0.000 
#    0.000    0.000    0.000    0.000    0.000    0.000 
#
# Total GULP energy -133671.685183 kJ/mol
# GULP energy per Si atom -5569.653549 kJ/mol
# Density = 2.581835 g / cm^3
# Si number density = 25.877251 Si / 1000 Ang^3
#
#
#
# Elastic Constant Matrix: (Units=GPa)
#
#
# Indices 1 2 3 4 5 6 
#
# 1 65.8529 19.6703 45.0657 -0.0001 -12.1878 0.0000
# 2 19.6703 99.4197 30.3952 0.0000 -7.8118 0.0000
# 3 45.0657 30.3952 211.9489 0.0000 -35.2050 0.0000
# 4 -0.0001 0.0000 0.0000 20.8224 -0.0001 -1.9136
# 5 -12.1878 -7.8118 -35.2050 -0.0001 47.9090 0.0000
# 6 0.0000 0.0000 0.0000 -1.9136 0.0000 16.7137
#
#
#
# Elastic Compliance Matrix: (Units=1/GPa)
#
#
# Indices 1 2 3 4 5 6 
#
# 1 0.018521 -0.002518 -0.003261 0.000000 0.001905 0.000000
# 2 -0.002518 0.010882 -0.000953 0.000000 0.000433 0.000000
# 3 -0.003261 -0.000953 0.006133 0.000000 0.003522 0.000000
# 4 0.000000 0.000000 0.000000 0.048536 0.000000 0.005557
# 5 0.001905 0.000433 0.003522 0.000000 0.024016 0.000000
# 6 0.000000 0.000000 0.000000 0.005557 0.000000 0.060468
#
#
# Mechanical properties :
#
#
# Convention : Reuss Voigt Hill
#
# Bulk Modulus (GPa) = 45.30404 63.05376 54.17890
# Shear Modulus (GPa) = 26.40232 35.89505 31.14868
#
# Velocity S-wave (km/s) = 3.19766 3.72846 3.47322
# Velocity P-wave (km/s) = 5.58379 6.55397 6.08824
#
# Compressibility (1/GPa) = 0.02207309
#
# Stress axis : x y z
#
# Youngs Moduli (GPa) = 53.99155 91.89475 163.05009
#
# Poissons Ratio (x) = 0.23139 0.53164
# Poissons Ratio (y) = 0.13595 0.15542
# Poissons Ratio (z) = 0.17604 0.08759
#
# Static dielectric constant tensor:
#      x y z
#    x 2.203000 0.000000 0.042960 
#    y 0.000000 1.976990 0.000000 
#    z 0.042960 0.000000 2.143650 
# 
# From -- ./inp_files/264009.got.cif
#   From: 2010.05.17/outbox.cif.g08.bks.cpg/sg12_133_cif.got.tgz:264009.got - 2010.06.03 13:09:07.
