data_PCOD9192619
_publ_section_title
;
Structure prediction by ZEFSAII (Michael W. Deem and Ramdas Pophale) SiO2 
 PCOD9192619
Probable space group: C 2/M
;
_chemical_formula_sum "Si O2"
_cell_formula_units_Z 48
_cell_length_a 13.783056
_cell_length_b 22.821255
_cell_length_c 11.853602
_cell_angle_alpha 90.000000
_cell_angle_beta 33.802918
_cell_angle_gamma 90.000000
_cell_volume 2074.311907
_symmetry_space_group_name_H-M "C 2/M"
_symmetry_group_IT_number 12
_symmetry_cell_setting 'monoclinic'
loop_
_space_group_symop_operation_xyz
x,y,z
-x,y,-z
-x,-y,-z
x,-y,z
1/2+x,1/2+y,z
1/2-x,1/2+y,-z
1/2-x,1/2-y,-z
1/2+x,1/2-y,z
loop_
_atom_site_type_symbol
_atom_site_label
_atom_site_fract_x
_atom_site_fract_y
_atom_site_fract_z
Si Si1 0.078988 0.714999 0.306610
Si Si2 0.776060 0.000000 0.585240
Si Si3 0.041866 0.835578 0.082891
Si Si4 0.099013 0.706627 0.745928
Si Si5 0.024592 0.584265 0.104723
Si Si6 0.518812 0.657651 0.604263
Si Si7 0.323179 0.500000 0.812418
O O1 0.000000 0.696012 0.500000
O O2 0.929224 0.706378 0.360071
O O3 0.107216 0.785267 0.279087
O O4 0.253909 0.680706 0.110818
O O5 0.651066 0.055370 0.672486
O O6 0.809822 0.000000 0.688328
O O7 0.974358 0.000000 0.348318
O O8 0.946109 0.771643 0.171353
O O9 0.995235 0.863310 0.251220
O O10 0.000000 0.863819 0.000000
O O11 0.970632 0.653891 0.903031
O O12 0.288106 0.684136 0.593029
O O13 0.000000 0.565804 0.000000
O O14 0.205213 0.554989 0.967981
O O15 0.500000 0.624117 0.500000
#
# Coordination Sequence:
#
# PCOD9192619 Si02
#       7
#     8   4   8   8   8   8   4
#     4  10  20  35  51  68  98 145 182 214 262 307
#     4   8  15  33  48  71  89 139 163 198 257 329
#     4  11  20  34  53  70 101 146 187 218 260 307
#     4  11  20  32  48  76 105 128 172 224 259 303
#     4   9  18  30  48  72 102 131 164 209 259 313
#     4  10  20  34  48  71 104 142 177 217 265 307
#     4   8  15  33  52  63 101 129 169 196 258 328
#
# _framework density 23.140204000000001
#
# number of rings (size 3 to 8) (size 9 to 14) (size 15 to 20)
#    0.000    2.167    0.000    8.500    0.000    1.333 
#   12.000    0.000    0.000    0.000    0.000    2.333 
#    0.000    1.333    0.000    0.000    0.000    0.000 
#
# Total GULP energy -133825.816896 kJ/mol
# GULP energy per Si atom -5576.075704 kJ/mol
# Density = 2.308754 g / cm^3
# Si number density = 23.140204 Si / 1000 Ang^3
#
#
#
# Elastic Constant Matrix: (Units=GPa)
#
#
# Indices 1 2 3 4 5 6 
#
# 1 142.4433 0.1332 56.8433 -0.0011 17.6572 -0.0008
# 2 0.1332 72.9799 18.7813 0.0004 -8.5568 0.0007
# 3 56.8433 18.7813 131.4454 -0.0011 -13.9009 -0.0009
# 4 -0.0011 0.0004 -0.0011 130.2774 0.0016 135.6044
# 5 17.6572 -8.5568 -13.9009 0.0016 61.6303 0.0014
# 6 -0.0008 0.0007 -0.0009 135.6044 0.0014 198.1307
#
#
#
# Elastic Compliance Matrix: (Units=1/GPa)
#
#
# Indices 1 2 3 4 5 6 
#
# 1 0.009248 0.000718 -0.004478 0.000000 -0.003560 0.000000
# 2 0.000718 0.014428 -0.002235 0.000000 0.001293 0.000000
# 3 -0.004478 -0.002235 0.010210 0.000000 0.003276 0.000000
# 4 0.000000 0.000000 0.000000 0.026690 0.000000 -0.018267
# 5 -0.003560 0.001293 0.003276 0.000000 0.018164 0.000000
# 6 0.000000 0.000000 0.000000 -0.018267 0.000000 0.017550
#
#
# Mechanical properties :
#
#
# Convention : Reuss Voigt Hill
#
# Bulk Modulus (GPa) = 45.67207 55.37603 50.52405
# Shear Modulus (GPa) = 43.26023 96.08173 69.67098
#
# Velocity S-wave (km/s) = 4.32844 6.45071 5.49305
# Velocity P-wave (km/s) = 6.69033 8.91431 7.88116
#
# Compressibility (1/GPa) = 0.02189522
#
# Stress axis : x y z
#
# Youngs Moduli (GPa) = 108.13002 69.30977 97.94109
#
# Poissons Ratio (x) = -0.04978 0.43862
# Poissons Ratio (y) = -0.07766 0.21893
# Poissons Ratio (z) = 0.48425 0.15493
#
# Static dielectric constant tensor:
#      x y z
#    x 1.911240 0.000000 0.018410 
#    y 0.000000 1.948400 0.000000 
#    z 0.018410 0.000000 1.956770 
# 
# From -- ./inp_files/149685.got.cif
#   From: 2010.05.17/outbox.cif.g08.bks.cpg/sg12_75_cif.got.tgz:149685.got - 2010.06.03 13:09:07.
