data_PCOD9192219
_publ_section_title
;
Structure prediction by ZEFSAII (Michael W. Deem and Ramdas Pophale) SiO2 
 PCOD9192219
Probable space group: C 2/M
;
_chemical_formula_sum "Si O2"
_cell_formula_units_Z 64
_cell_length_a 32.191322
_cell_length_b 7.611841
_cell_length_c 15.833364
_cell_angle_alpha 90.000000
_cell_angle_beta 135.199286
_cell_angle_gamma 90.000000
_cell_volume 2733.826131
_symmetry_space_group_name_H-M "C 2/M"
_symmetry_group_IT_number 12
_symmetry_cell_setting 'monoclinic'
loop_
_space_group_symop_operation_xyz
x,y,z
-x,y,-z
-x,-y,-z
x,-y,z
1/2+x,1/2+y,z
1/2-x,1/2+y,-z
1/2-x,1/2-y,-z
1/2+x,1/2-y,z
loop_
_atom_site_type_symbol
_atom_site_label
_atom_site_fract_x
_atom_site_fract_y
_atom_site_fract_z
Si Si1 0.152994 0.699736 0.212800
Si Si2 0.775827 0.209632 0.445227
Si Si3 0.513739 0.211794 0.424480
Si Si4 0.037663 0.800806 0.133647
Si Si5 0.217258 0.710227 0.864040
Si Si6 0.111893 0.712990 0.811107
Si Si7 0.408996 0.290964 0.619340
Si Si8 0.324900 0.703792 0.925575
O O1 0.152889 0.500000 0.245163
O O2 0.220018 0.771052 0.309572
O O3 0.104878 0.802687 0.196014
O O4 0.138392 0.701047 0.093195
O O5 0.750000 0.250000 0.500000
O O6 0.841934 0.280374 0.529734
O O7 0.780333 0.000000 0.439146
O O8 0.500000 0.273909 0.500000
O O9 0.455024 0.266688 0.290515
O O10 0.567161 0.265789 0.441120
O O11 0.517100 0.000000 0.434535
O O12 0.047490 0.722383 0.242393
O O13 0.014119 0.000000 0.109650
O O14 0.000000 0.721281 0.000000
O O15 0.216497 0.500000 0.851712
O O16 0.150752 0.769724 0.785588
O O17 0.259624 0.780387 0.851981
O O18 0.250000 0.750000 0.000000
O O19 0.114691 0.500000 0.816996
O O20 0.141661 0.783067 0.937787
O O21 0.406394 0.500000 0.631764
O O22 0.321313 0.500000 0.897228
#
# Coordination Sequence:
#
# PCOD9192219 Si02
#       8
#     8   8   8   8   8   8   8   8
#     4  11  23  37  57  88 121 154 194 243 295 354
#     4  10  21  39  62  87 117 154 199 248 301 359
#     4  10  23  41  60  86 119 158 206 254 303 361
#     4  10  22  40  62  90 124 161 198 243 297 361
#     4   8  15  29  49  73 102 139 181 226 278 336
#     4   9  18  35  57  79 112 153 195 248 301 353
#     4  10  22  41  64  90 123 162 203 252 307 359
#     4  10  20  33  53  84 117 152 194 237 295 362
#
# _framework density 23.410412999999998
#
# number of rings (size 3 to 8) (size 9 to 14) (size 15 to 20)
#    0.000    2.250    1.250    0.750    1.750    4.000 
#    0.000    1.250    0.000    0.000    0.000    0.000 
#    0.000    0.000    0.000    0.000    0.000    0.000 
#
# Total GULP energy -178384.652814 kJ/mol
# GULP energy per Si atom -5574.520400 kJ/mol
# Density = 2.335713 g / cm^3
# Si number density = 23.410413 Si / 1000 Ang^3
#
#
#
# Elastic Constant Matrix: (Units=GPa)
#
#
# Indices 1 2 3 4 5 6 
#
# 1 135.4810 -2.6624 35.0525 0.0000 -7.5918 0.0000
# 2 -2.6624 54.7083 7.4182 0.0000 2.9071 0.0000
# 3 35.0525 7.4182 74.6654 0.0000 -0.9816 0.0000
# 4 0.0000 0.0000 0.0000 8.3144 0.0000 1.8804
# 5 -7.5918 2.9071 -0.9816 0.0000 38.0217 0.0000
# 6 0.0000 0.0000 0.0000 1.8804 0.0000 17.3534
#
#
#
# Elastic Compliance Matrix: (Units=1/GPa)
#
#
# Indices 1 2 3 4 5 6 
#
# 1 0.008539 0.000887 -0.004077 0.000000 0.001532 0.000000
# 2 0.000887 0.018702 -0.002292 0.000000 -0.001312 0.000000
# 3 -0.004077 -0.002292 0.015532 0.000000 -0.000238 0.000000
# 4 0.000000 0.000000 0.000000 0.123294 0.000000 -0.013360
# 5 0.001532 -0.001312 -0.000238 0.000000 0.026701 0.000000
# 6 0.000000 0.000000 0.000000 -0.013360 0.000000 0.059073
#
#
# Mechanical properties :
#
#
# Convention : Reuss Voigt Hill
#
# Bulk Modulus (GPa) = 31.43675 38.27458 34.85566
# Shear Modulus (GPa) = 18.28767 27.74099 23.01433
#
# Velocity S-wave (km/s) = 2.79799 3.44610 3.13881
# Velocity P-wave (km/s) = 4.88835 5.67618 5.29693
#
# Compressibility (1/GPa) = 0.03180990
#
# Stress axis : x y z
#
# Youngs Moduli (GPa) = 117.10764 53.46907 64.38510
#
# Poissons Ratio (x) = -0.04742 0.26248
# Poissons Ratio (y) = -0.10387 0.14756
# Poissons Ratio (z) = 0.47742 0.12254
#
# Static dielectric constant tensor:
#      x y z
#    x 1.913520 0.000000 -0.006690 
#    y 0.000000 1.977530 0.000000 
#    z -0.006690 0.000000 1.992040 
# 
# From -- ./inp_files/250003.got.cif
#   From: 2010.05.17/outbox.cif.g08.bks.cpg/sg12_126_cif.got.tgz:250003.got - 2010.06.03 13:09:07.
