data_PCOD9192912
_publ_section_title
;
Structure prediction by ZEFSAII (Michael W. Deem and Ramdas Pophale) SiO2 
 PCOD9192912
Probable space group: C 2/M
;
_chemical_formula_sum "Si O2"
_cell_formula_units_Z 58
_cell_length_a 14.337442
_cell_length_b 7.599075
_cell_length_c 20.344458
_cell_angle_alpha 90.000000
_cell_angle_beta 99.413035
_cell_angle_gamma 90.000000
_cell_volume 2186.709126
_symmetry_space_group_name_H-M "C 2/M"
_symmetry_group_IT_number 12
_symmetry_cell_setting 'monoclinic'
loop_
_space_group_symop_operation_xyz
x,y,z
-x,y,-z
-x,-y,-z
x,-y,z
1/2+x,1/2+y,z
1/2-x,1/2+y,-z
1/2-x,1/2-y,-z
1/2+x,1/2-y,z
loop_
_atom_site_type_symbol
_atom_site_label
_atom_site_fract_x
_atom_site_fract_y
_atom_site_fract_z
Si Si1 0.902243 0.696859 0.549526
Si Si2 0.954543 0.187840 0.697755
Si Si3 0.645506 0.797629 0.039122
Si Si4 0.177050 0.211410 0.865565
Si Si5 0.200065 0.714071 0.581491
Si Si6 0.660627 0.204662 0.724172
Si Si7 0.041943 0.781383 0.161582
Si Si8 0.500000 0.500000 0.000000
O O1 0.936710 0.500000 0.546740
O O2 0.889813 0.772616 0.474029
O O3 0.793374 0.702668 0.561584
O O4 0.950668 0.763504 0.621063
O O5 0.066139 0.183646 0.723090
O O6 0.922140 0.278309 0.761754
O O7 0.904434 0.000000 0.694450
O O8 0.752613 0.735815 0.068160
O O9 0.599499 0.792407 0.107709
O O10 0.580760 0.653737 0.996395
O O11 0.639707 0.000000 0.015951
O O12 0.214688 0.277741 0.798803
O O13 0.068393 0.271677 0.857685
O O14 0.178450 0.000000 0.864058
O O15 0.204575 0.500000 0.576096
O O16 0.201063 0.758599 0.658359
O O17 0.632385 0.000000 0.713275
O O18 0.044879 0.000000 0.157015
#
# Coordination Sequence:
#
# PCOD9192912 Si02
#       8
#     8   8   8   8   8   8   8   2
#     4  10  20  34  52  73 106 149 201 253 305 370
#     4  10  21  36  55  81 117 152 196 251 309 368
#     4  11  24  44  73 100 135 177 213 263 312 372
#     4   9  21  40  64  95 133 166 210 261 319 375
#     4   9  20  36  50  72 108 151 195 251 312 371
#     4  10  20  34  56  83 113 149 199 251 307 370
#     4   9  19  40  65  92 130 170 208 264 321 374
#     4  12  26  48  72 102 144 166 226 252 312 374
#
# _framework density 26.523873999999999
#
# number of rings (size 3 to 8) (size 9 to 14) (size 15 to 20)
#    0.000    2.207    0.690    2.276    2.897    4.966 
#    0.000    3.448    0.000    0.000    0.000    0.000 
#    0.000    0.000    0.000    0.000    0.000    0.000 
#
# Total GULP energy -161727.615873 kJ/mol
# GULP energy per Si atom -5576.814340 kJ/mol
# Density = 2.646350 g / cm^3
# Si number density = 26.523874 Si / 1000 Ang^3
#
#
#
# Elastic Constant Matrix: (Units=GPa)
#
#
# Indices 1 2 3 4 5 6 
#
# 1 51.2038 12.8427 12.5850 0.0000 10.9894 0.0000
# 2 12.8427 104.5621 25.6464 0.0000 4.7472 0.0000
# 3 12.5850 25.6464 193.8470 0.0000 0.9093 0.0000
# 4 0.0000 0.0000 0.0000 36.2437 0.0000 -3.7689
# 5 10.9894 4.7472 0.9093 0.0000 54.6918 0.0000
# 6 0.0000 0.0000 0.0000 -3.7689 0.0000 26.5372
#
#
#
# Elastic Compliance Matrix: (Units=1/GPa)
#
#
# Indices 1 2 3 4 5 6 
#
# 1 0.021205 -0.002157 -0.001072 0.000000 -0.004056 0.000000
# 2 -0.002157 0.010142 -0.001200 0.000000 -0.000427 0.000000
# 3 -0.001072 -0.001200 0.005386 0.000000 0.000230 0.000000
# 4 0.000000 0.000000 0.000000 0.028005 0.000000 0.003977
# 5 -0.004056 -0.000427 0.000230 0.000000 0.019132 0.000000
# 6 0.000000 0.000000 0.000000 0.003977 0.000000 0.038248
#
#
# Mechanical properties :
#
#
# Convention : Reuss Voigt Hill
#
# Bulk Modulus (GPa) = 35.87515 50.19570 43.03542
# Shear Modulus (GPa) = 35.64598 43.39712 39.52155
#
# Velocity S-wave (km/s) = 3.66993 4.04933 3.86429
# Velocity P-wave (km/s) = 5.61363 6.38972 6.01421
#
# Compressibility (1/GPa) = 0.02787445
#
# Stress axis : x y z
#
# Youngs Moduli (GPa) = 47.15898 98.59668 185.66737
#
# Poissons Ratio (x) = 0.21271 0.19908
# Poissons Ratio (y) = 0.10174 0.22276
# Poissons Ratio (z) = 0.05057 0.11830
#
# Static dielectric constant tensor:
#      x y z
#    x 2.103930 0.000000 -0.017490 
#    y 0.000000 1.990420 0.000000 
#    z -0.017490 0.000000 2.307170 
# 
# From -- ./inp_files/314294.got.cif
#   From: 2010.05.17/outbox.cif.g08.bks.cpg/sg12_158_cif.got.tgz:314294.got - 2010.06.03 13:09:07.
