data_PCOD9192686
_publ_section_title
;
Structure prediction by ZEFSAII (Michael W. Deem and Ramdas Pophale) SiO2 
 PCOD9192686
Probable space group: C 2/M
;
_chemical_formula_sum "Si O2"
_cell_formula_units_Z 64
_cell_length_a 29.558867
_cell_length_b 8.540536
_cell_length_c 14.342771
_cell_angle_alpha 90.000000
_cell_angle_beta 104.408327
_cell_angle_gamma 90.000000
_cell_volume 3506.926625
_symmetry_space_group_name_H-M "C 2/M"
_symmetry_group_IT_number 12
_symmetry_cell_setting 'monoclinic'
loop_
_space_group_symop_operation_xyz
x,y,z
-x,y,-z
-x,-y,-z
x,-y,z
1/2+x,1/2+y,z
1/2-x,1/2+y,-z
1/2-x,1/2-y,-z
1/2+x,1/2-y,z
loop_
_atom_site_type_symbol
_atom_site_label
_atom_site_fract_x
_atom_site_fract_y
_atom_site_fract_z
Si Si1 0.303534 0.190557 0.326066
Si Si2 0.529705 0.312889 0.222013
Si Si3 0.803020 0.687527 0.531156
Si Si4 0.564228 0.810491 0.915606
Si Si5 0.110520 0.311146 0.747682
Si Si6 0.108683 0.686759 0.133645
Si Si7 0.304017 0.686819 0.728286
Si Si8 0.983333 0.189233 0.389782
O O1 0.322317 0.232864 0.439295
O O2 0.340006 0.244493 0.267207
O O3 0.249729 0.243733 0.287763
O O4 0.301919 0.000000 0.322825
O O5 0.533937 0.500000 0.223198
O O6 0.485739 0.261586 0.135836
O O7 0.575633 0.239301 0.201363
O O8 0.516939 0.262056 0.321058
O O9 0.803334 0.500000 0.538167
O O10 0.750000 0.750000 0.500000
O O11 0.822474 0.757695 0.636333
O O12 0.598568 0.767434 0.847816
O O13 0.610178 0.000000 0.743211
O O14 0.584846 0.759370 0.025009
O O15 0.067968 0.249600 0.663066
O O16 0.196873 0.000000 0.271897
O O17 0.059098 0.500000 0.914340
O O18 0.160278 0.752468 0.176621
O O19 0.388991 0.000000 0.867545
O O20 0.000000 0.242984 0.500000
O O21 0.982349 0.000000 0.389515
#
# Coordination Sequence:
#
# PCOD9192686 Si02
#       8
#     8   8   8   8   8   8   8   8
#     4   8  16  31  52  75  99 130 167 205 243 290
#     4  10  20  34  54  77 100 130 166 201 244 300
#     4   9  16  29  48  71  99 131 165 201 243 289
#     4   9  19  35  54  74  98 129 164 205 252 300
#     4   9  17  33  55  75  96 128 170 206 241 292
#     4  11  22  35  51  73 101 131 165 208 256 300
#     4  10  20  34  50  72 102 134 169 209 253 296
#     4   9  19  35  51  73 107 136 159 196 244 291
#
# _framework density 18.249597999999999
#
# number of rings (size 3 to 8) (size 9 to 14) (size 15 to 20)
#    0.000    2.625    0.000    2.625    0.000    4.250 
#    0.000    6.875    0.000    0.000    0.000    0.000 
#    0.000    0.000    0.000    0.000    0.000    0.000 
#
# Total GULP energy -178397.585202 kJ/mol
# GULP energy per Si atom -5574.924538 kJ/mol
# Density = 1.820806 g / cm^3
# Si number density = 18.249598 Si / 1000 Ang^3
#
#
#
# Elastic Constant Matrix: (Units=GPa)
#
#
# Indices 1 2 3 4 5 6 
#
# 1 102.7912 13.9358 45.6985 0.0000 -9.3182 0.0000
# 2 13.9358 22.4577 18.8820 0.0000 -0.6961 0.0000
# 3 45.6985 18.8820 110.1520 0.0000 7.0301 0.0000
# 4 0.0000 0.0000 0.0000 26.1476 0.0000 4.8583
# 5 -9.3182 -0.6961 7.0301 0.0000 13.7720 0.0000
# 6 0.0000 0.0000 0.0000 4.8583 0.0000 22.2711
#
#
#
# Elastic Compliance Matrix: (Units=1/GPa)
#
#
# Indices 1 2 3 4 5 6 
#
# 1 0.013967 -0.003211 -0.006034 0.000000 0.012368 0.000000
# 2 -0.003211 0.053510 -0.008139 0.000000 0.004687 0.000000
# 3 -0.006034 -0.008139 0.013710 0.000000 -0.011492 0.000000
# 4 0.000000 0.000000 0.000000 0.039860 0.000000 -0.008695
# 5 0.012368 0.004687 -0.011492 0.000000 0.087083 0.000000
# 6 0.000000 0.000000 0.000000 -0.008695 0.000000 0.046798
#
#
# Mechanical properties :
#
#
# Convention : Reuss Voigt Hill
#
# Bulk Modulus (GPa) = 21.54286 43.60371 32.57328
# Shear Modulus (GPa) = 16.38437 22.89711 19.64074
#
# Velocity S-wave (km/s) = 2.99957 3.54597 3.28415
# Velocity P-wave (km/s) = 4.88127 6.38044 5.68053
#
# Compressibility (1/GPa) = 0.04641910
#
# Stress axis : x y z
#
# Youngs Moduli (GPa) = 71.59582 18.68825 72.93852
#
# Poissons Ratio (x) = 0.06001 0.44007
# Poissons Ratio (y) = 0.22989 0.59368
# Poissons Ratio (z) = 0.43197 0.15211
#
# Static dielectric constant tensor:
#      x y z
#    x 1.621890 0.000000 -0.021650 
#    y 0.000000 1.622090 0.000000 
#    z -0.021650 0.000000 1.638770 
# 
# From -- ./inp_files/244178.got.cif
#   From: 2010.05.17/outbox.cif.g08.bks.cpg/sg12_123_cif.got.tgz:244178.got - 2010.06.03 13:09:07.
