data_PCOD9192345
_publ_section_title
;
Structure prediction by ZEFSAII (Michael W. Deem and Ramdas Pophale) SiO2 
 PCOD9192345
Probable space group: C 2/M
;
_chemical_formula_sum "Si O2"
_cell_formula_units_Z 64
_cell_length_a 17.038294
_cell_length_b 14.839243
_cell_length_c 24.404778
_cell_angle_alpha 90.000000
_cell_angle_beta 30.358131
_cell_angle_gamma 90.000000
_cell_volume 3118.536478
_symmetry_space_group_name_H-M "C 2/M"
_symmetry_group_IT_number 12
_symmetry_cell_setting 'monoclinic'
loop_
_space_group_symop_operation_xyz
x,y,z
-x,y,-z
-x,-y,-z
x,-y,z
1/2+x,1/2+y,z
1/2-x,1/2+y,-z
1/2-x,1/2-y,-z
1/2+x,1/2-y,z
loop_
_atom_site_type_symbol
_atom_site_label
_atom_site_fract_x
_atom_site_fract_y
_atom_site_fract_z
Si Si1 0.878868 0.899136 0.253862
Si Si2 0.235094 0.357997 0.456127
Si Si3 0.814338 0.605583 0.103042
Si Si4 0.338131 0.348732 0.509956
Si Si5 0.651927 0.264987 0.113523
Si Si6 0.684980 0.392922 0.302574
Si Si7 0.573276 0.107329 0.399272
Si Si8 0.924065 0.602446 0.250325
O O1 0.798260 0.901879 0.362725
O O2 0.748625 0.860227 0.290965
O O3 0.019818 0.834546 0.175893
O O4 0.924395 0.000000 0.210623
O O5 0.328068 0.384630 0.453835
O O6 0.234984 0.251086 0.447776
O O7 0.051935 0.378756 0.572119
O O8 0.784448 0.500000 0.103482
O O9 0.728586 0.619243 0.212879
O O10 0.750623 0.681782 0.100161
O O11 0.000000 0.613165 0.000000
O O12 0.519306 0.347994 0.417008
O O13 0.218717 0.399597 0.620697
O O14 0.559567 0.172734 0.184539
O O15 0.750000 0.250000 0.000000
O O16 0.662203 0.500000 0.326076
O O17 0.833102 0.366215 0.250122
O O18 0.500000 0.144988 0.500000
O O19 0.589344 0.000000 0.396988
O O20 0.982860 0.500000 0.207420
#
# Coordination Sequence:
#
# PCOD9192345 Si02
#       8
#     8   8   8   8   8   8   8   8
#     4  10  20  37  61  89 120 156 205 255 304 366
#     4  10  20  33  54  89 127 164 202 251 306 369
#     4  10  22  44  72  99 126 158 207 268 320 364
#     4  11  22  34  56  90 125 167 211 254 312 377
#     4  12  25  41  64  93 121 160 206 262 320 371
#     4  10  22  39  64  92 122 168 218 264 309 366
#     4   8  16  30  51  80 114 151 186 230 295 361
#     4  11  25  43  61  89 131 172 209 252 316 380
#
# _framework density 20.522448000000001
#
# number of rings (size 3 to 8) (size 9 to 14) (size 15 to 20)
#    0.000    1.750    1.250    3.750    3.500    7.000 
#    0.000    0.000    0.000    0.375    0.000    0.875 
#    0.000    0.000    0.000    0.000    0.000    0.000 
#
# Total GULP energy -178548.871432 kJ/mol
# GULP energy per Si atom -5579.652232 kJ/mol
# Density = 2.047574 g / cm^3
# Si number density = 20.522448 Si / 1000 Ang^3
#
#
#
# Elastic Constant Matrix: (Units=GPa)
#
#
# Indices 1 2 3 4 5 6 
#
# 1 95.0456 40.8053 27.1428 -0.0026 -14.1198 0.0006
# 2 40.8053 102.8459 35.0658 -0.0025 -10.8488 0.0002
# 3 27.1428 35.0658 82.1183 -0.0076 -8.6496 0.0021
# 4 -0.0026 -0.0025 -0.0076 10.2501 0.0015 -11.3778
# 5 -14.1198 -10.8488 -8.6496 0.0015 29.5533 -0.0004
# 6 0.0006 0.0002 0.0021 -11.3778 -0.0004 35.9768
#
#
#
# Elastic Compliance Matrix: (Units=1/GPa)
#
#
# Indices 1 2 3 4 5 6 
#
# 1 0.013596 -0.004170 -0.002260 0.000000 0.004304 0.000000
# 2 -0.004170 0.012895 -0.003962 -0.000001 0.001582 0.000000
# 3 -0.002260 -0.003962 0.014806 0.000013 0.001799 0.000003
# 4 0.000000 -0.000001 0.000013 0.150334 -0.000004 0.047544
# 5 0.004304 0.001582 0.001799 -0.000004 0.037001 -0.000001
# 6 0.000000 0.000000 0.000003 0.047544 -0.000001 0.042832
#
#
# Mechanical properties :
#
#
# Convention : Reuss Voigt Hill
#
# Bulk Modulus (GPa) = 48.74665 54.00418 51.37542
# Shear Modulus (GPa) = 16.71765 26.95578 21.83671
#
# Velocity S-wave (km/s) = 2.85722 3.62812 3.26550
# Velocity P-wave (km/s) = 5.88977 6.62743 6.26946
#
# Compressibility (1/GPa) = 0.02051423
#
# Stress axis : x y z
#
# Youngs Moduli (GPa) = 73.54948 77.54734 67.54126
#
# Poissons Ratio (x) = 0.32337 0.15265
# Poissons Ratio (y) = 0.30670 0.26757
# Poissons Ratio (z) = 0.16623 0.30721
#
# Static dielectric constant tensor:
#      x y z
#    x 1.698390 0.000000 0.216490 
#    y 0.000000 1.772450 0.000000 
#    z 0.216490 0.000000 1.002650 
# 
# From -- ./inp_files/344052.got.cif
#   From: 2010.05.17/outbox.cif.g08.bks.cpg/sg12_173_cif.got.tgz:344052.got - 2010.06.03 13:09:07.
