data_PCOD9192725
_publ_section_title
;
Structure prediction by ZEFSAII (Michael W. Deem and Ramdas Pophale) SiO2 
 PCOD9192725
Probable space group: C 2/M
;
_chemical_formula_sum "Si O2"
_cell_formula_units_Z 36
_cell_length_a 18.824732
_cell_length_b 17.974824
_cell_length_c 18.225964
_cell_angle_alpha 90.000000
_cell_angle_beta 164.075381
_cell_angle_gamma 90.000000
_cell_volume 1692.093813
_symmetry_space_group_name_H-M "C 2/M"
_symmetry_group_IT_number 12
_symmetry_cell_setting 'monoclinic'
loop_
_space_group_symop_operation_xyz
x,y,z
-x,y,-z
-x,-y,-z
x,-y,z
1/2+x,1/2+y,z
1/2-x,1/2+y,-z
1/2-x,1/2-y,-z
1/2+x,1/2-y,z
loop_
_atom_site_type_symbol
_atom_site_label
_atom_site_fract_x
_atom_site_fract_y
_atom_site_fract_z
Si Si1 0.737494 0.909831 0.447577
Si Si2 0.751630 0.500000 0.803250
Si Si3 0.244573 0.303511 0.797170
Si Si4 0.440575 0.644730 0.355553
Si Si5 0.765626 0.836079 0.983034
O O1 0.478618 0.879240 0.226364
O O2 0.800382 0.869742 0.432342
O O3 0.744153 0.000000 0.447689
O O4 0.975215 0.875902 0.730857
O O5 0.500000 0.500000 0.500000
O O6 0.735248 0.573393 0.835227
O O7 0.000000 0.500000 0.000000
O O8 0.201159 0.222169 0.790426
O O9 0.260817 0.347471 0.889743
O O10 0.000000 0.318980 0.500000
O O11 0.500000 0.305852 0.000000
O O12 0.500000 0.643225 0.500000
O O13 0.750000 0.750000 0.000000
#
# Coordination Sequence:
#
# PCOD9192725 Si02
#       5
#     8   4   8   8   8
#     4  12  26  45  68 101 143 188 226 281 349 408
#     4  10  20  34  50  80 130 180 212 248 298 390
#     4  11  24  42  68  99 132 173 227 288 342 400
#     4  10  22  37  60  96 137 180 218 264 324 414
#     4  12  26  45  72 101 139 182 232 288 338 404
#
# _framework density 21.275416
#
# number of rings (size 3 to 8) (size 9 to 14) (size 15 to 20)
#    0.000    0.889    3.333    3.333    6.222    3.556 
#    0.000    0.000    0.000   13.333    0.000    0.000 
#    0.000    0.000    0.000    0.000    0.000    0.000 
#
# Total GULP energy -100457.940766 kJ/mol
# GULP energy per Si atom -5580.996709 kJ/mol
# Density = 2.122699 g / cm^3
# Si number density = 21.275416 Si / 1000 Ang^3
#
#
#
# Elastic Constant Matrix: (Units=GPa)
#
#
# Indices 1 2 3 4 5 6 
#
# 1 168.2346 51.9677 64.1826 -0.2092 -1.0950 0.3729
# 2 51.9677 46.9851 36.1476 -0.0084 6.5928 -0.1716
# 3 64.1826 36.1476 150.2413 -0.0960 13.5566 0.4449
# 4 -0.2092 -0.0084 -0.0960 31.7162 -0.0898 4.0973
# 5 -1.0950 6.5928 13.5566 -0.0898 45.1855 0.2646
# 6 0.3729 -0.1716 0.4449 4.0973 0.2646 51.3363
#
#
#
# Elastic Compliance Matrix: (Units=1/GPa)
#
#
# Indices 1 2 3 4 5 6 
#
# 1 0.009648 -0.009398 -0.002061 0.000074 0.002224 -0.000101
# 2 -0.009398 0.035447 -0.004139 -0.000110 -0.004160 0.000253
# 3 -0.002061 -0.004139 0.008718 0.000014 -0.002061 -0.000065
# 4 0.000074 -0.000110 0.000014 0.031859 0.000092 -0.002544
# 5 0.002224 -0.004160 -0.002061 0.000092 0.023411 -0.000140
# 6 -0.000101 0.000253 -0.000065 -0.002544 -0.000140 0.019685
#
#
# Mechanical properties :
#
#
# Convention : Reuss Voigt Hill
#
# Bulk Modulus (GPa) = 44.21364 74.45077 59.33221
# Shear Modulus (GPa) = 29.84981 39.85848 34.85414
#
# Velocity S-wave (km/s) = 3.74975 4.33304 4.05190
# Velocity P-wave (km/s) = 6.29080 7.75264 7.05966
#
# Compressibility (1/GPa) = 0.02261745
#
# Stress axis : x y z
#
# Youngs Moduli (GPa) = 103.64573 28.21085 114.70019
#
# Poissons Ratio (x) = 0.26514 0.23638
# Poissons Ratio (y) = 0.97410 0.47475
# Poissons Ratio (z) = 0.21360 0.11677
#
# Static dielectric constant tensor:
#      x y z
#    x 1.808550 0.000030 -0.043650 
#    y 0.000030 2.029360 -0.000100 
#    z -0.043650 -0.000100 1.796590 
# 
# From -- ./inp_files/278769.got.cif
#   From: 2010.05.17/outbox.cif.g08.bks.cpg/sg12_140_cif.got.tgz:278769.got - 2010.06.03 13:09:07.
