data_PCOD9192019
_publ_section_title
;
Structure prediction by ZEFSAII (Michael W. Deem and Ramdas Pophale) SiO2 
 PCOD9192019
Probable space group: C 2/M
;
_chemical_formula_sum "Si O2"
_cell_formula_units_Z 48
_cell_length_a 26.546128
_cell_length_b 7.346302
_cell_length_c 12.013049
_cell_angle_alpha 90.000000
_cell_angle_beta 58.609326
_cell_angle_gamma 90.000000
_cell_volume 1999.842180
_symmetry_space_group_name_H-M "C 2/M"
_symmetry_group_IT_number 12
_symmetry_cell_setting 'monoclinic'
loop_
_space_group_symop_operation_xyz
x,y,z
-x,y,-z
-x,-y,-z
x,-y,z
1/2+x,1/2+y,z
1/2-x,1/2+y,-z
1/2-x,1/2-y,-z
1/2+x,1/2-y,z
loop_
_atom_site_type_symbol
_atom_site_label
_atom_site_fract_x
_atom_site_fract_y
_atom_site_fract_z
Si Si1 0.776080 0.784422 0.092455
Si Si2 0.174465 0.722365 0.372920
Si Si3 0.390286 0.791281 0.082129
Si Si4 0.877158 0.721118 0.339057
Si Si5 0.014182 0.722208 0.186583
Si Si6 0.440674 0.778708 0.631064
O O1 0.731683 0.716091 0.239467
O O2 0.840584 0.709453 0.044598
O O3 0.781069 0.000000 0.098367
O O4 0.750000 0.750000 0.000000
O O5 0.175719 0.500000 0.371341
O O6 0.163776 0.783831 0.512066
O O7 0.117511 0.779399 0.366403
O O8 0.364569 0.716354 0.227459
O O9 0.405341 0.000000 0.091901
O O10 0.450152 0.712375 0.962236
O O11 0.873713 0.500000 0.348499
O O12 0.945880 0.773268 0.277804
O O13 0.014150 0.500000 0.184546
O O14 0.051368 0.779425 0.251463
O O15 0.500000 0.722875 0.500000
O O16 0.439483 0.000000 0.631445
#
# Coordination Sequence:
#
# PCOD9192019 Si02
#       6
#     8   8   8   8   8   8
#     4  11  23  39  57  76 102 136 176 218 261 312
#     4   9  17  29  47  75 107 137 171 214 261 308
#     4  10  20  33  52  80 110 140 174 212 257 310
#     4   9  16  28  48  77 111 140 171 216 264 304
#     4   9  15  25  45  75 109 139 171 215 262 303
#     4   9  13  20  38  65  98 129 160 205 259 300
#
# _framework density 24.001895000000001
#
# number of rings (size 3 to 8) (size 9 to 14) (size 15 to 20)
#    0.000    2.500    1.667    2.000    0.000    5.333 
#    0.000    0.000    0.000    3.000    0.000    1.167 
#    0.000    0.000    0.000    0.000    0.000    0.000 
#
# Total GULP energy -134096.170610 kJ/mol
# GULP energy per Si atom -5587.340442 kJ/mol
# Density = 2.394727 g / cm^3
# Si number density = 24.001895 Si / 1000 Ang^3
#
#
#
# Elastic Constant Matrix: (Units=GPa)
#
#
# Indices 1 2 3 4 5 6 
#
# 1 40.4388 -13.7439 31.8868 0.0000 13.0847 0.0000
# 2 -13.7439 92.9452 1.9222 0.0000 -0.3715 0.0000
# 3 31.8868 1.9222 184.5186 0.0000 4.9571 0.0000
# 4 0.0000 0.0000 0.0000 -7.7555 0.0000 -0.3405
# 5 13.0847 -0.3715 4.9571 0.0000 43.4462 0.0000
# 6 0.0000 0.0000 0.0000 -0.3405 0.0000 -8.3517
#
#
#
# Elastic Compliance Matrix: (Units=1/GPa)
#
#
# Indices 1 2 3 4 5 6 
#
# 1 0.034037 0.005112 -0.005678 0.000000 -0.009559 0.000000
# 2 0.005112 0.011530 -0.000968 0.000000 -0.001331 0.000000
# 3 -0.005678 -0.000968 0.006385 0.000000 0.000973 0.000000
# 4 0.000000 0.000000 0.000000 -0.129172 0.000000 0.005266
# 5 -0.009559 -0.001331 0.000973 0.000000 0.025773 0.000000
# 6 0.000000 0.000000 0.000000 0.005266 0.000000 -0.119950
#
#
# Mechanical properties :
#
#
# Convention : Reuss Voigt Hill
#
# Bulk Modulus (GPa) = 20.45687 39.78144 30.11916
# Shear Modulus (GPa) = -32.88697 25.32363 -3.78167
#
# Velocity S-wave (km/s) = -3.70561 3.25171 -1.25658
# Velocity P-wave (km/s) = 3.12526 5.54151 3.23583
#
# Compressibility (1/GPa) = 0.04888334
#
# Stress axis : x y z
#
# Youngs Moduli (GPa) = 29.37998 86.73264 156.62379
#
# Poissons Ratio (x) = -0.44340 0.88937
# Poissons Ratio (y) = -0.15020 0.15158
# Poissons Ratio (z) = 0.16683 0.08394
#
# Static dielectric constant tensor:
#      x y z
#    x 1.885980 0.000000 0.018530 
#    y 0.000000 1.958310 0.000000 
#    z 0.018530 0.000000 1.924070 
# 
# From -- ./inp_files/164682.got.cif
#   From: 2010.05.17/outbox.cif.g08.bks.cpg/sg12_83_cif.got.tgz:164682.got - 2010.06.03 13:09:07.
