data_PCOD9192764
_publ_section_title
;
Structure prediction by ZEFSAII (Michael W. Deem and Ramdas Pophale) SiO2 
 PCOD9192764
Probable space group: C 2/M
;
_chemical_formula_sum "Si O2"
_cell_formula_units_Z 56
_cell_length_a 11.997794
_cell_length_b 15.202962
_cell_length_c 17.919032
_cell_angle_alpha 90.000000
_cell_angle_beta 54.954427
_cell_angle_gamma 90.000000
_cell_volume 2675.879748
_symmetry_space_group_name_H-M "C 2/M"
_symmetry_group_IT_number 12
_symmetry_cell_setting 'monoclinic'
loop_
_space_group_symop_operation_xyz
x,y,z
-x,y,-z
-x,-y,-z
x,-y,z
1/2+x,1/2+y,z
1/2-x,1/2+y,-z
1/2-x,1/2-y,-z
1/2+x,1/2-y,z
loop_
_atom_site_type_symbol
_atom_site_label
_atom_site_fract_x
_atom_site_fract_y
_atom_site_fract_z
Si Si1 0.994883 0.161683 0.158503
Si Si2 0.165453 0.102382 0.226532
Si Si3 0.280071 0.895903 0.789031
Si Si4 0.140747 0.107745 0.408919
Si Si5 0.962914 0.367165 0.139905
Si Si6 0.243260 0.150035 0.972832
Si Si7 0.928727 0.599826 0.327794
O O1 0.847669 0.118041 0.215076
O O2 0.968911 0.261727 0.144085
O O3 0.073316 0.157517 0.206277
O O4 0.101378 0.115938 0.060412
O O5 0.146223 0.131128 0.319499
O O6 0.327060 0.109222 0.147869
O O7 0.126121 0.000000 0.234869
O O8 0.244720 0.853230 0.882714
O O9 0.426023 0.861210 0.703843
O O10 0.296835 0.000000 0.796338
O O11 0.279314 0.140616 0.395685
O O12 0.000000 0.135768 0.500000
O O13 0.146237 0.000000 0.409236
O O14 0.943019 0.402631 0.231761
O O15 0.114442 0.394141 0.056756
O O16 0.250000 0.250000 0.000000
O O17 0.922784 0.500000 0.359512
#
# Coordination Sequence:
#
# PCOD9192764 Si02
#       7
#     8   8   8   8   8   8   8
#     4  11  22  32  51  74 105 140 177 213 261 311
#     4  10  21  36  53  80 109 133 173 224 270 315
#     4  10  20  34  51  72 103 140 176 213 258 313
#     4   8  14  29  56  83 103 129 169 216 262 312
#     4   9  19  33  52  70 101 137 175 215 262 305
#     4   9  20  35  50  71  99 134 183 223 255 299
#     4   8  15  30  52  76  98 128 172 214 252 307
#
# _framework density 20.927696999999998
#
# number of rings (size 3 to 8) (size 9 to 14) (size 15 to 20)
#    0.000    2.714    0.000    2.143    6.000    2.857 
#    0.000    0.714    0.000    4.286    0.000    5.000 
#    0.000    0.000    0.000    0.000    0.000    0.000 
#
# Total GULP energy -156099.788105 kJ/mol
# GULP energy per Si atom -5574.992432 kJ/mol
# Density = 2.088006 g / cm^3
# Si number density = 20.927697 Si / 1000 Ang^3
#
#
#
# Elastic Constant Matrix: (Units=GPa)
#
#
# Indices 1 2 3 4 5 6 
#
# 1 149.5616 2.1752 47.1801 0.0000 -45.1330 0.0000
# 2 2.1752 50.2202 -1.5631 0.0000 -3.0877 0.0000
# 3 47.1801 -1.5631 69.1662 0.0000 -39.1579 0.0000
# 4 0.0000 0.0000 0.0000 221.4310 0.0000 -129.5434
# 5 -45.1330 -3.0877 -39.1579 0.0000 40.3280 0.0000
# 6 0.0000 0.0000 0.0000 -129.5434 0.0000 91.1835
#
#
#
# Elastic Compliance Matrix: (Units=1/GPa)
#
#
# Indices 1 2 3 4 5 6 
#
# 1 0.010134 0.000162 -0.001068 0.000000 0.010317 0.000000
# 2 0.000162 0.020280 0.002953 0.000000 0.004601 0.000000
# 3 -0.001068 0.002953 0.032656 0.000000 0.030739 0.000000
# 4 0.000000 0.000000 0.000000 0.026745 0.000000 0.037996
# 5 0.010317 0.004601 0.030739 0.000000 0.066542 0.000000
# 6 0.000000 0.000000 0.000000 0.037996 0.000000 0.064948
#
#
# Mechanical properties :
#
#
# Convention : Reuss Voigt Hill
#
# Bulk Modulus (GPa) = 14.88921 40.50359 27.69640
# Shear Modulus (GPa) = 20.86810 85.33221 53.10015
#
# Velocity S-wave (km/s) = 3.16120 6.39244 5.04264
# Velocity P-wave (km/s) = 4.52264 8.59537 6.86785
#
# Compressibility (1/GPa) = 0.06716274
#
# Stress axis : x y z
#
# Youngs Moduli (GPa) = 98.67662 49.30946 30.62221
#
# Poissons Ratio (x) = -0.00799 0.03272
# Poissons Ratio (y) = -0.01599 -0.09042
# Poissons Ratio (z) = 0.10543 -0.14559
#
# Static dielectric constant tensor:
#      x y z
#    x 1.806110 0.000000 -0.052490 
#    y 0.000000 1.792180 0.000000 
#    z -0.052490 0.000000 1.765920 
# 
# From -- ./inp_files/264227.got.cif
#   From: 2010.05.17/outbox.cif.g08.bks.cpg/sg12_133_cif.got.tgz:264227.got - 2010.06.03 13:09:07.
