data_PCOD9192763
_publ_section_title
;
Structure prediction by ZEFSAII (Michael W. Deem and Ramdas Pophale) SiO2 
 PCOD9192763
Probable space group: C 2/M
;
_chemical_formula_sum "Si O2"
_cell_formula_units_Z 58
_cell_length_a 23.202548
_cell_length_b 9.349890
_cell_length_c 18.808726
_cell_angle_alpha 90.000000
_cell_angle_beta 125.279542
_cell_angle_gamma 90.000000
_cell_volume 3331.000484
_symmetry_space_group_name_H-M "C 2/M"
_symmetry_group_IT_number 12
_symmetry_cell_setting 'monoclinic'
loop_
_space_group_symop_operation_xyz
x,y,z
-x,y,-z
-x,-y,-z
x,-y,z
1/2+x,1/2+y,z
1/2-x,1/2+y,-z
1/2-x,1/2-y,-z
1/2+x,1/2-y,z
loop_
_atom_site_type_symbol
_atom_site_label
_atom_site_fract_x
_atom_site_fract_y
_atom_site_fract_z
Si Si1 0.754980 0.336303 0.281862
Si Si2 0.703121 0.669882 0.822343
Si Si3 0.712610 0.326679 0.407550
Si Si4 0.574414 0.670803 0.836295
Si Si5 0.403885 0.253282 0.870118
Si Si6 0.356038 0.163356 0.986453
Si Si7 0.500000 0.500000 0.000000
Si Si8 0.069348 0.335431 0.266451
O O1 0.777102 0.500000 0.290580
O O2 0.796402 0.242567 0.254225
O O3 0.755834 0.295598 0.365369
O O4 0.672628 0.321623 0.201470
O O5 0.709030 0.500000 0.816431
O O6 0.634714 0.699646 0.820640
O O7 0.774939 0.711424 0.915585
O O8 0.707998 0.500000 0.411412
O O9 0.750000 0.250000 0.500000
O O10 0.635631 0.255721 0.342166
O O11 0.562917 0.500000 0.833181
O O12 0.503056 0.754447 0.767433
O O13 0.604908 0.730984 0.932231
O O14 0.392495 0.168271 0.935168
O O15 0.424836 0.166174 0.815423
O O16 0.459687 0.376026 0.924770
O O17 0.357077 0.000000 0.014376
O O18 0.071048 0.500000 0.292185
#
# Coordination Sequence:
#
# PCOD9192763 Si02
#       8
#     8   8   8   8   8   8   2   8
#     4   9  18  34  55  81 108 137 179 221 264 318
#     4   9  20  36  52  74 104 145 190 235 275 322
#     4  10  21  38  63  93 119 140 173 215 276 342
#     4  11  23  35  50  73 106 146 190 233 280 325
#     4  10  21  31  50  74 106 142 185 226 277 328
#     4  10  20  34  51  72 102 140 193 241 280 320
#     4  12  20  28  46  72 108 144 186 220 272 326
#     4  11  23  38  56  78 112 148 185 229 285 336
#
# _framework density 17.412185999999998
#
# number of rings (size 3 to 8) (size 9 to 14) (size 15 to 20)
#    0.000    1.931    0.690    2.897    4.828    5.517 
#    0.000    2.069    0.000    0.828    0.000    5.793 
#    0.000    0.000    0.000    0.000    0.000    0.000 
#
# Total GULP energy -161588.529201 kJ/mol
# GULP energy per Si atom -5572.018248 kJ/mol
# Density = 1.737255 g / cm^3
# Si number density = 17.412186 Si / 1000 Ang^3
#
#
#
# Elastic Constant Matrix: (Units=GPa)
#
#
# Indices 1 2 3 4 5 6 
#
# 1 89.2530 48.9460 51.5493 0.0000 3.6331 0.0000
# 2 48.9460 93.6626 55.3524 0.0000 2.0288 0.0000
# 3 51.5493 55.3524 97.2421 0.0000 -11.6072 0.0000
# 4 0.0000 0.0000 0.0000 21.4833 0.0000 -2.2851
# 5 3.6331 2.0288 -11.6072 0.0000 22.4640 0.0000
# 6 0.0000 0.0000 0.0000 -2.2851 0.0000 17.5271
#
#
#
# Elastic Compliance Matrix: (Units=1/GPa)
#
#
# Indices 1 2 3 4 5 6 
#
# 1 0.018785 -0.004997 -0.007910 0.000000 -0.006674 0.000000
# 2 -0.004997 0.018389 -0.008441 0.000000 -0.005214 0.000000
# 3 -0.007910 -0.008441 0.020809 0.000000 0.012794 0.000000
# 4 0.000000 0.000000 0.000000 0.047202 0.000000 0.006154
# 5 -0.006674 -0.005214 0.012794 0.000000 0.052676 0.000000
# 6 0.000000 0.000000 0.000000 0.006154 0.000000 0.057857
#
#
# Mechanical properties :
#
#
# Convention : Reuss Voigt Hill
#
# Bulk Modulus (GPa) = 65.41800 65.76143 65.58972
# Shear Modulus (GPa) = 18.97456 20.58222 19.77839
#
# Velocity S-wave (km/s) = 3.30468 3.44184 3.37396
# Velocity P-wave (km/s) = 7.22586 7.32424 7.27522
#
# Compressibility (1/GPa) = 0.01528631
#
# Stress axis : x y z
#
# Youngs Moduli (GPa) = 53.23430 54.37921 48.05670
#
# Poissons Ratio (x) = 0.27175 0.38014
# Poissons Ratio (y) = 0.26603 0.40564
# Poissons Ratio (z) = 0.42109 0.45901
#
# Static dielectric constant tensor:
#      x y z
#    x 1.610920 0.000000 0.002440 
#    y 0.000000 1.591760 0.000000 
#    z 0.002440 0.000000 1.576300 
# 
# From -- ./inp_files/324644.got.cif
#   From: 2010.05.17/outbox.cif.g08.bks.cpg/sg12_163_cif.got.tgz:324644.got - 2010.06.03 13:09:07.
