data_PCOD9192027
_publ_section_title
;
Structure prediction by ZEFSAII (Michael W. Deem and Ramdas Pophale) SiO2 
 PCOD9192027
Probable space group: C 2/M
;
_chemical_formula_sum "Si O2"
_cell_formula_units_Z 48
_cell_length_a 29.955371
_cell_length_b 7.825419
_cell_length_c 18.429904
_cell_angle_alpha 90.000000
_cell_angle_beta 154.487502
_cell_angle_gamma 90.000000
_cell_volume 1860.751094
_symmetry_space_group_name_H-M "C 2/M"
_symmetry_group_IT_number 12
_symmetry_cell_setting 'monoclinic'
loop_
_space_group_symop_operation_xyz
x,y,z
-x,y,-z
-x,-y,-z
x,-y,z
1/2+x,1/2+y,z
1/2-x,1/2+y,-z
1/2-x,1/2-y,-z
1/2+x,1/2-y,z
loop_
_atom_site_type_symbol
_atom_site_label
_atom_site_fract_x
_atom_site_fract_y
_atom_site_fract_z
Si Si1 0.960440 0.205706 0.862587
Si Si2 0.013781 0.806694 0.408664
Si Si3 0.751714 0.209394 0.614677
Si Si4 0.756861 0.695282 0.238521
Si Si5 0.485573 0.201481 0.745894
Si Si6 0.798816 0.296256 0.148353
O O1 0.840665 0.267202 0.690473
O O2 0.020822 0.265397 0.879740
O O3 0.962255 0.000000 0.862843
O O4 0.000000 0.256585 0.000000
O O5 0.917734 0.762964 0.318629
O O6 0.116639 0.693840 0.567638
O O7 0.972158 0.789066 0.264491
O O8 0.047655 0.000000 0.470359
O O9 0.777884 0.268564 0.735252
O O10 0.634679 0.263487 0.428320
O O11 0.752201 0.000000 0.616172
O O12 0.718133 0.500000 0.179895
O O13 0.742325 0.775137 0.137538
O O14 0.489482 0.000000 0.738073
O O15 0.798152 0.500000 0.154124
O O16 0.750000 0.250000 0.000000
#
# Coordination Sequence:
#
# PCOD9192027 Si02
#       6
#     8   8   8   8   8   8
#     4  10  20  33  52  80 113 146 180 222 274 333
#     4  11  22  37  59  84 110 142 186 237 285 334
#     4   8  16  33  55  78 104 138 180 223 269 321
#     4   9  19  37  59  81 109 147 188 231 279 330
#     4  10  20  36  57  78 105 142 185 231 277 329
#     4  11  23  38  57  83 117 153 187 225 274 332
#
# _framework density 25.796036000000001
#
# number of rings (size 3 to 8) (size 9 to 14) (size 15 to 20)
#    0.000    2.167    0.000    4.500    0.000    5.000 
#    0.000    6.667    0.000    0.000    0.000    0.000 
#    0.000    0.000    0.000    0.000    0.000    0.000 
#
# Total GULP energy -134231.889640 kJ/mol
# GULP energy per Si atom -5592.995402 kJ/mol
# Density = 2.573732 g / cm^3
# Si number density = 25.796036 Si / 1000 Ang^3
#
#
#
# Elastic Constant Matrix: (Units=GPa)
#
#
# Indices 1 2 3 4 5 6 
#
# 1 187.3364 0.4713 7.0670 0.0000 -19.3140 0.0000
# 2 0.4713 68.0979 -7.3017 0.0000 0.7551 0.0000
# 3 7.0670 -7.3017 64.1929 0.0000 -15.3697 0.0000
# 4 0.0000 0.0000 0.0000 19.8366 0.0000 -8.8946
# 5 -19.3140 0.7551 -15.3697 0.0000 53.4456 0.0000
# 6 0.0000 0.0000 0.0000 -8.8946 0.0000 22.5783
#
#
#
# Elastic Compliance Matrix: (Units=1/GPa)
#
#
# Indices 1 2 3 4 5 6 
#
# 1 0.005546 -0.000076 -0.000149 0.000000 0.001962 0.000000
# 2 -0.000076 0.014871 0.001765 0.000000 0.000270 0.000000
# 3 -0.000149 0.001765 0.016943 0.000000 0.004793 0.000000
# 4 0.000000 0.000000 0.000000 0.061227 0.000000 0.024120
# 5 0.001962 0.000270 0.004793 0.000000 0.020794 0.000000
# 6 0.000000 0.000000 0.000000 0.024120 0.000000 0.053792
#
#
# Mechanical properties :
#
#
# Convention : Reuss Voigt Hill
#
# Bulk Modulus (GPa) = 24.72888 35.56669 30.14779
# Shear Modulus (GPa) = 27.23671 40.46481 33.85076
#
# Velocity S-wave (km/s) = 3.25291 3.96491 3.62642
# Velocity P-wave (km/s) = 4.86987 5.89731 5.40805
#
# Compressibility (1/GPa) = 0.04043855
#
# Stress axis : x y z
#
# Youngs Moduli (GPa) = 180.30576 67.24278 59.02175
#
# Poissons Ratio (x) = 0.00512 0.00882
# Poissons Ratio (y) = 0.01373 -0.10415
# Poissons Ratio (z) = 0.02694 -0.11865
#
# Static dielectric constant tensor:
#      x y z
#    x 3.564310 0.000000 -1.016470 
#    y 0.000000 1.938790 0.000000 
#    z -1.016470 0.000000 2.746020 
# 
# From -- ./inp_files/274026.got.cif
#   From: 2010.05.17/outbox.cif.g08.bks.cpg/sg12_138_cif.got.tgz:274026.got - 2010.06.03 13:09:07.
