data_PCOD9192650
_publ_section_title
;
Structure prediction by ZEFSAII (Michael W. Deem and Ramdas Pophale) SiO2 
 PCOD9192650
Probable space group: C 2/M
;
_chemical_formula_sum "Si O2"
_cell_formula_units_Z 56
_cell_length_a 21.065263
_cell_length_b 30.805429
_cell_length_c 10.820273
_cell_angle_alpha 90.000000
_cell_angle_beta 161.288388
_cell_angle_gamma 90.000000
_cell_volume 2252.544762
_symmetry_space_group_name_H-M "C 2/M"
_symmetry_group_IT_number 12
_symmetry_cell_setting 'monoclinic'
loop_
_space_group_symop_operation_xyz
x,y,z
-x,y,-z
-x,-y,-z
x,-y,z
1/2+x,1/2+y,z
1/2-x,1/2+y,-z
1/2-x,1/2-y,-z
1/2+x,1/2-y,z
loop_
_atom_site_type_symbol
_atom_site_label
_atom_site_fract_x
_atom_site_fract_y
_atom_site_fract_z
Si Si1 0.756251 0.359124 0.711258
Si Si2 0.734948 0.544725 0.953770
Si Si3 0.781705 0.545980 0.759186
Si Si4 0.727555 0.358220 0.206609
Si Si5 0.233044 0.198931 0.445803
Si Si6 0.370339 0.450806 0.886745
Si Si7 0.764748 0.858751 0.042897
O O1 0.832578 0.406314 0.806579
O O2 0.810967 0.323105 0.713985
O O3 0.813113 0.353287 0.960697
O O4 0.514030 0.359326 0.256543
O O5 0.500000 0.544356 0.500000
O O6 0.788018 0.500000 0.118622
O O7 0.828625 0.544500 0.990286
O O8 0.777882 0.591862 0.081269
O O9 0.844802 0.500000 0.817980
O O10 0.542315 0.545877 0.306440
O O11 0.803713 0.325509 0.452507
O O12 0.757131 0.408193 0.313495
O O13 0.794982 0.337841 0.197539
O O14 0.250000 0.250000 0.500000
O O15 0.000000 0.190209 0.000000
O O16 0.282634 0.500000 0.714258
O O17 0.500000 0.443196 0.000000
O O18 0.000000 0.853234 0.500000
#
# Coordination Sequence:
#
# PCOD9192650 Si02
#       7
#     8   8   8   8   8   8   8
#     4   8  14  25  39  57  83 112 140 172 209 251
#     4   8  11  14  22  39  67 104 140 164 183 223
#     4   8  12  17  27  46  74 108 139 162 190 236
#     4   9  15  24  38  58  83 111 141 175 212 252
#     4  10  20  34  50  65  83 109 143 180 219 261
#     4   9  14  18  27  47  78 114 145 171 204 248
#     4   8  13  20  33  53  78 108 139 169 206 249
#
# _framework density 24.860771
#
# number of rings (size 3 to 8) (size 9 to 14) (size 15 to 20)
#    0.000    3.429    0.000    4.714    0.000    1.714 
#    0.000    0.714    0.000    0.000    0.000    0.000 
#    0.000    2.286    0.000    0.000    0.000   14.286 
#
# Total GULP energy -155918.069995 kJ/mol
# GULP energy per Si atom -5568.502500 kJ/mol
# Density = 2.480419 g / cm^3
# Si number density = 24.860771 Si / 1000 Ang^3
#
#
#
# Elastic Constant Matrix: (Units=GPa)
#
#
# Indices 1 2 3 4 5 6 
#
# 1 161.3310 86.7416 32.7905 -0.0005 -41.4823 0.0000
# 2 86.7416 162.1095 12.9947 0.0000 -35.0260 0.0000
# 3 32.7905 12.9947 118.8109 -0.0010 -12.3148 0.0001
# 4 -0.0005 0.0000 -0.0010 -40.6919 -0.0006 6.0948
# 5 -41.4823 -35.0260 -12.3148 -0.0006 47.4495 0.0001
# 6 0.0000 0.0000 0.0001 6.0948 0.0001 5.7311
#
#
#
# Elastic Compliance Matrix: (Units=1/GPa)
#
#
# Indices 1 2 3 4 5 6 
#
# 1 0.010169 -0.004137 -0.001797 0.000000 0.005370 0.000000
# 2 -0.004137 0.009029 0.000483 0.000000 0.003174 0.000000
# 3 -0.001797 0.000483 0.008975 0.000000 0.001115 0.000000
# 4 0.000000 0.000000 0.000000 -0.021198 0.000000 0.022544
# 5 0.005370 0.003174 0.001115 0.000000 0.028402 0.000000
# 6 0.000000 0.000000 0.000000 0.022544 0.000000 0.150513
#
#
# Mechanical properties :
#
#
# Convention : Reuss Voigt Hill
#
# Bulk Modulus (GPa) = 57.89954 78.58943 68.24449
# Shear Modulus (GPa) = 24.68538 23.14605 23.91571
#
# Velocity S-wave (km/s) = 3.15452 3.05458 3.10495
# Velocity P-wave (km/s) = 6.05046 6.64237 6.35331
#
# Compressibility (1/GPa) = 0.01727129
#
# Stress axis : x y z
#
# Youngs Moduli (GPa) = 98.34173 110.75145 111.41446
#
# Poissons Ratio (x) = 0.45815 0.20026
# Poissons Ratio (y) = 0.40682 -0.05383
# Poissons Ratio (z) = 0.17676 -0.05351
#
# Static dielectric constant tensor:
#      x y z
#    x 2.076440 0.000000 0.076980 
#    y 0.000000 1.997470 0.000000 
#    z 0.076980 0.000000 2.092690 
# 
# From -- ./inp_files/178500.got.cif
#   From: 2010.05.17/outbox.cif.g08.bks.cpg/sg12_90_cif.got.tgz:178500.got - 2010.06.03 13:09:07.
