data_PCOD9192305
_publ_section_title
;
Structure prediction by ZEFSAII (Michael W. Deem and Ramdas Pophale) SiO2 
 PCOD9192305
Probable space group: C 2/M
;
_chemical_formula_sum "Si O2"
_cell_formula_units_Z 64
_cell_length_a 25.571410
_cell_length_b 9.296921
_cell_length_c 14.765683
_cell_angle_alpha 90.000000
_cell_angle_beta 85.321661
_cell_angle_gamma 90.000000
_cell_volume 3498.629863
_symmetry_space_group_name_H-M "C 2/M"
_symmetry_group_IT_number 12
_symmetry_cell_setting 'monoclinic'
loop_
_space_group_symop_operation_xyz
x,y,z
-x,y,-z
-x,-y,-z
x,-y,z
1/2+x,1/2+y,z
1/2-x,1/2+y,-z
1/2-x,1/2-y,-z
1/2+x,1/2-y,z
loop_
_atom_site_type_symbol
_atom_site_label
_atom_site_fract_x
_atom_site_fract_y
_atom_site_fract_z
Si Si1 0.554128 0.173451 0.437443
Si Si2 0.242072 0.835525 0.618592
Si Si3 0.799991 0.666353 0.024538
Si Si4 0.915990 0.672544 0.962147
Si Si5 0.059426 0.835908 0.857956
Si Si6 0.336273 0.327327 0.533995
Si Si7 0.318415 0.657099 0.185881
Si Si8 0.474116 0.171604 0.766083
O O1 0.500000 0.208855 0.500000
O O2 0.606762 0.252842 0.465607
O O3 0.546561 0.208820 0.331275
O O4 0.561326 0.000000 0.444073
O O5 0.293777 0.737030 0.610756
O O6 0.196513 0.793236 0.553455
O O7 0.213615 0.837124 0.718216
O O8 0.258244 0.000000 0.593089
O O9 0.794290 0.500000 0.007934
O O10 0.805007 0.705882 0.128437
O O11 0.750000 0.750000 0.000000
O O12 0.854841 0.714236 0.973073
O O13 0.920848 0.500000 0.977159
O O14 0.937756 0.703087 0.859062
O O15 0.941428 0.752783 0.045132
O O16 0.119064 0.839842 0.814584
O O17 0.026078 0.755932 0.786655
O O18 0.041296 0.000000 0.873850
O O19 0.341789 0.500000 0.540277
O O20 0.306240 0.500000 0.143291
O O21 0.483397 0.000000 0.764199
#
# Coordination Sequence:
#
# PCOD9192305 Si02
#       8
#     8   8   8   8   8   8   8   8
#     4  10  23  41  58  81 114 153 195 236 283 342
#     4   9  19  37  60  83 111 148 185 228 284 344
#     4  10  20  34  52  77 108 142 179 223 272 326
#     4   9  19  36  55  75 105 144 184 221 266 330
#     4  10  20  33  54  84 114 140 177 229 277 323
#     4  10  21  37  59  86 113 143 186 238 288 336
#     4   9  19  35  54  78 108 144 182 220 273 335
#     4  10  21  37  56  77 104 147 190 222 270 333
#
# _framework density 18.292874999999999
#
# number of rings (size 3 to 8) (size 9 to 14) (size 15 to 20)
#    0.000    2.375    0.000    1.500    1.750    5.750 
#    0.000    2.500    0.000    0.000    0.000    0.000 
#    0.000    0.000    0.000    0.000    0.000    0.000 
#
# Total GULP energy -178266.886735 kJ/mol
# GULP energy per Si atom -5570.840210 kJ/mol
# Density = 1.825124 g / cm^3
# Si number density = 18.292875 Si / 1000 Ang^3
#
#
#
# Elastic Constant Matrix: (Units=GPa)
#
#
# Indices 1 2 3 4 5 6 
#
# 1 122.2920 53.8533 43.4876 0.0000 6.7676 0.0000
# 2 53.8533 35.6425 16.4190 0.0000 3.6223 0.0000
# 3 43.4876 16.4190 42.1273 0.0000 -8.4994 0.0000
# 4 0.0000 0.0000 0.0000 20.8096 0.0000 7.5797
# 5 6.7676 3.6223 -8.4994 0.0000 25.9024 0.0000
# 6 0.0000 0.0000 0.0000 7.5797 0.0000 33.2455
#
#
#
# Elastic Compliance Matrix: (Units=1/GPa)
#
#
# Indices 1 2 3 4 5 6 
#
# 1 0.034742 -0.041362 -0.021855 0.000000 -0.010464 0.000000
# 2 -0.041362 0.085934 0.009596 0.000000 0.001938 0.000000
# 3 -0.021855 0.009596 0.046519 0.000000 0.019632 0.000000
# 4 0.000000 0.000000 0.000000 0.052407 0.000000 -0.011948
# 5 -0.010464 0.001938 0.019632 0.000000 0.047511 0.000000
# 6 0.000000 0.000000 0.000000 -0.011948 0.000000 0.032803
#
#
# Mechanical properties :
#
#
# Convention : Reuss Voigt Hill
#
# Bulk Modulus (GPa) = 16.67939 47.50907 32.09423
# Shear Modulus (GPa) = 11.70569 21.74494 16.72532
#
# Velocity S-wave (km/s) = 2.53238 3.45151 3.02703
# Velocity P-wave (km/s) = 4.20575 6.47392 5.45894
#
# Compressibility (1/GPa) = 0.05995421
#
# Stress axis : x y z
#
# Youngs Moduli (GPa) = 28.78327 11.63682 21.49673
#
# Poissons Ratio (x) = 0.48133 0.46980
# Poissons Ratio (y) = 1.19054 -0.20629
# Poissons Ratio (z) = 0.62905 -0.11167
#
# Static dielectric constant tensor:
#      x y z
#    x 1.692870 0.000000 0.016190 
#    y 0.000000 1.642690 0.000000 
#    z 0.016190 0.000000 1.646970 
# 
# From -- ./inp_files/238687.got.cif
#   From: 2010.05.17/outbox.cif.g08.bks.cpg/sg12_120_cif.got.tgz:238687.got - 2010.06.03 13:09:07.
