data_PCOD9192484
_publ_section_title
;
Structure prediction by ZEFSAII (Michael W. Deem and Ramdas Pophale) SiO2 
 PCOD9192484
Probable space group: C 2/M
;
_chemical_formula_sum "Si O2"
_cell_formula_units_Z 34
_cell_length_a 14.492456
_cell_length_b 7.438132
_cell_length_c 18.116995
_cell_angle_alpha 90.000000
_cell_angle_beta 133.116630
_cell_angle_gamma 90.000000
_cell_volume 1425.586044
_symmetry_space_group_name_H-M "C 2/M"
_symmetry_group_IT_number 12
_symmetry_cell_setting 'monoclinic'
loop_
_space_group_symop_operation_xyz
x,y,z
-x,y,-z
-x,-y,-z
x,-y,z
1/2+x,1/2+y,z
1/2-x,1/2+y,-z
1/2-x,1/2-y,-z
1/2+x,1/2-y,z
loop_
_atom_site_type_symbol
_atom_site_label
_atom_site_fract_x
_atom_site_fract_y
_atom_site_fract_z
Si Si1 0.044097 0.288213 0.399446
Si Si2 0.841676 0.713821 0.981028
Si Si3 0.731286 0.217235 0.373604
Si Si4 0.500000 0.500000 0.000000
Si Si5 0.758128 0.796789 0.230388
O O1 0.021647 0.500000 0.377635
O O2 0.130899 0.263352 0.518820
O O3 0.129592 0.220837 0.378031
O O4 0.908608 0.199048 0.324592
O O5 0.868614 0.500000 0.995016
O O6 0.963307 0.840351 0.041312
O O7 0.771601 0.778118 0.866591
O O8 0.750000 0.750000 0.000000
O O9 0.709827 0.288536 0.279827
O O10 0.725125 0.000000 0.367972
O O11 0.708577 0.000000 0.200784
#
# Coordination Sequence:
#
# PCOD9192484 Si02
#       5
#     8   8   8   2   8
#     4  10  20  33  56  88 123 168 211 267 323 386
#     4  11  25  48  74 106 143 184 239 298 365 435
#     4   9  19  37  55  81 126 170 213 257 322 394
#     4  12  26  48  80 104 138 192 224 308 366 432
#     4  10  22  39  61  90 124 167 221 270 332 407
#
# _framework density 23.84984
#
# number of rings (size 3 to 8) (size 9 to 14) (size 15 to 20)
#    0.000    1.882    1.176    1.765    1.647    6.588 
#    0.000    2.353    0.000    0.000    0.000    0.000 
#    0.000    0.000    0.000    0.000    0.000    0.000 
#
# Total GULP energy -94742.258235 kJ/mol
# GULP energy per Si atom -5573.074014 kJ/mol
# Density = 2.379556 g / cm^3
# Si number density = 23.849840 Si / 1000 Ang^3
#
#
#
# Elastic Constant Matrix: (Units=GPa)
#
#
# Indices 1 2 3 4 5 6 
#
# 1 120.0196 23.9606 44.9026 0.0000 -36.0079 0.0000
# 2 23.9606 150.9609 -0.9893 0.0000 -5.4910 0.0000
# 3 44.9026 -0.9893 119.6163 0.0000 -41.3761 0.0000
# 4 0.0000 0.0000 0.0000 -12.0057 0.0000 -32.7614
# 5 -36.0079 -5.4910 -41.3761 0.0000 41.3630 0.0000
# 6 0.0000 0.0000 0.0000 -32.7614 0.0000 -4.6563
#
#
#
# Elastic Compliance Matrix: (Units=1/GPa)
#
#
# Indices 1 2 3 4 5 6 
#
# 1 0.011763 -0.001565 -0.001465 0.000000 0.008566 0.000000
# 2 -0.001565 0.006888 0.000749 0.000000 0.000301 0.000000
# 3 -0.001465 0.000749 0.013012 0.000000 0.011840 0.000000
# 4 0.000000 0.000000 0.000000 0.004577 0.000000 -0.032201
# 5 0.008566 0.000301 0.011840 0.000000 0.043517 0.000000
# 6 0.000000 0.000000 0.000000 -0.032201 0.000000 0.011800
#
#
# Mechanical properties :
#
#
# Convention : Reuss Voigt Hill
#
# Bulk Modulus (GPa) = 36.90168 58.48274 47.69221
# Shear Modulus (GPa) = 47.54970 26.45505 37.00238
#
# Velocity S-wave (km/s) = 4.46994 3.33413 3.94315
# Velocity P-wave (km/s) = 6.49204 6.27665 6.38526
#
# Compressibility (1/GPa) = 0.02709904
#
# Stress axis : x y z
#
# Youngs Moduli (GPa) = 85.01478 145.16998 76.85376
#
# Poissons Ratio (x) = 0.22719 0.11262
# Poissons Ratio (y) = 0.13305 -0.05753
# Poissons Ratio (z) = 0.12458 -0.10866
#
# Static dielectric constant tensor:
#      x y z
#    x 1.922170 0.000000 0.029770 
#    y 0.000000 1.929120 0.000000 
#    z 0.029770 0.000000 1.980170 
# 
# From -- ./inp_files/210650.got.cif
#   From: 2010.05.17/outbox.cif.g08.bks.cpg/sg12_106_cif.got.tgz:210650.got - 2010.06.03 13:09:07.
