data_PCOD9192495
_publ_section_title
;
Structure prediction by ZEFSAII (Michael W. Deem and Ramdas Pophale) SiO2 
 PCOD9192495
Probable space group: C 2/M
;
_chemical_formula_sum "Si O2"
_cell_formula_units_Z 56
_cell_length_a 26.769764
_cell_length_b 14.932900
_cell_length_c 9.484181
_cell_angle_alpha 90.000000
_cell_angle_beta 133.805653
_cell_angle_gamma 90.000000
_cell_volume 2736.153042
_symmetry_space_group_name_H-M "C 2/M"
_symmetry_group_IT_number 12
_symmetry_cell_setting 'monoclinic'
loop_
_space_group_symop_operation_xyz
x,y,z
-x,y,-z
-x,-y,-z
x,-y,z
1/2+x,1/2+y,z
1/2-x,1/2+y,-z
1/2-x,1/2-y,-z
1/2+x,1/2-y,z
loop_
_atom_site_type_symbol
_atom_site_label
_atom_site_fract_x
_atom_site_fract_y
_atom_site_fract_z
Si Si1 0.268345 0.731388 0.699465
Si Si2 0.554106 0.393425 0.314612
Si Si3 0.847391 0.598271 0.873470
Si Si4 0.562872 0.895574 0.219505
Si Si5 0.921780 0.600112 0.294399
Si Si6 0.599981 0.606194 0.078850
Si Si7 0.875200 0.274272 0.427855
O O1 0.250000 0.750000 0.500000
O O2 0.295113 0.825454 0.810192
O O3 0.332551 0.662582 0.830588
O O4 0.200288 0.709370 0.654340
O O5 0.560655 0.500000 0.358966
O O6 0.583791 0.378976 0.213744
O O7 0.596393 0.326649 0.498451
O O8 0.471752 0.371609 0.143175
O O9 0.816345 0.500000 0.827801
O O10 0.872841 0.608814 0.763323
O O11 0.911787 0.603835 0.106842
O O12 0.575243 0.833972 0.375669
O O13 0.552182 0.000000 0.236491
O O14 0.500000 0.864150 0.000000
O O15 0.896111 0.500000 0.286913
O O16 0.881150 0.681222 0.287015
O O17 0.000000 0.606159 0.500000
O O18 0.612106 0.500000 0.084299
#
# Coordination Sequence:
#
# PCOD9192495 Si02
#       7
#     8   8   8   8   8   8   8
#     4  12  23  36  56  96 126 156 203 254 315 366
#     4   9  19  35  57  84 115 161 208 247 296 354
#     4  10  22  40  59  82 125 168 197 241 308 374
#     4  10  20  33  56  91 121 151 197 255 311 361
#     4  10  23  43  64  90 121 161 204 248 312 378
#     4   9  19  35  55  82 122 161 197 249 305 358
#     4  12  23  35  63  92 122 157 203 260 306 368
#
# _framework density 20.466691999999998
#
# number of rings (size 3 to 8) (size 9 to 14) (size 15 to 20)
#    0.000    1.714    2.857    2.143    6.000    5.143 
#    0.000    0.000    0.000    1.286    0.000    0.000 
#    0.000    0.000    0.000    0.000    0.000    0.000 
#
# Total GULP energy -156355.365761 kJ/mol
# GULP energy per Si atom -5584.120206 kJ/mol
# Density = 2.042011 g / cm^3
# Si number density = 20.466692 Si / 1000 Ang^3
#
#
#
# Elastic Constant Matrix: (Units=GPa)
#
#
# Indices 1 2 3 4 5 6 
#
# 1 75.9559 48.2590 10.6151 0.0000 18.5850 0.0000
# 2 48.2590 91.6013 29.9140 0.0000 10.4557 0.0000
# 3 10.6151 29.9140 40.8817 0.0000 1.8170 0.0000
# 4 0.0000 0.0000 0.0000 82.4669 0.0000 38.7408
# 5 18.5850 10.4557 1.8170 0.0000 31.5418 0.0000
# 6 0.0000 0.0000 0.0000 38.7408 0.0000 44.5846
#
#
#
# Elastic Compliance Matrix: (Units=1/GPa)
#
#
# Indices 1 2 3 4 5 6 
#
# 1 0.022595 -0.011872 0.003245 0.000000 -0.009565 0.000000
# 2 -0.011872 0.021149 -0.012423 0.000000 0.000700 0.000000
# 3 0.003245 -0.012423 0.032694 0.000000 0.000323 0.000000
# 4 0.000000 0.000000 0.000000 0.020490 0.000000 -0.017804
# 5 -0.009565 0.000700 0.000323 0.000000 0.037089 0.000000
# 6 0.000000 0.000000 0.000000 -0.017804 0.000000 0.037900
#
#
# Mechanical properties :
#
#
# Convention : Reuss Voigt Hill
#
# Bulk Modulus (GPa) = 29.12240 42.89055 36.00648
# Shear Modulus (GPa) = 22.17644 39.69536 30.93590
#
# Velocity S-wave (km/s) = 3.29528 4.40877 3.89205
# Velocity P-wave (km/s) = 5.36084 6.84967 6.15047
#
# Compressibility (1/GPa) = 0.03433783
#
# Stress axis : x y z
#
# Youngs Moduli (GPa) = 44.25673 47.28422 30.58629
#
# Poissons Ratio (x) = 0.56136 -0.09926
# Poissons Ratio (y) = 0.52542 0.37999
# Poissons Ratio (z) = -0.14362 0.58743
#
# Static dielectric constant tensor:
#      x y z
#    x 1.769150 0.000000 0.048130 
#    y 0.000000 1.746040 0.000000 
#    z 0.048130 0.000000 1.768120 
# 
# From -- ./inp_files/96990.got.cif
#   From: 2010.05.17/outbox.cif.g08.bks.cpg/sg12_49_cif.got.tgz:96990.got - 2010.06.03 13:09:07.
