data_PCOD9192300
_publ_section_title
;
Structure prediction by ZEFSAII (Michael W. Deem and Ramdas Pophale) SiO2 
 PCOD9192300
Probable space group: C 2/M
;
_chemical_formula_sum "Si O2"
_cell_formula_units_Z 56
_cell_length_a 29.381149
_cell_length_b 8.433401
_cell_length_c 18.129901
_cell_angle_alpha 90.000000
_cell_angle_beta 137.968639
_cell_angle_gamma 90.000000
_cell_volume 3007.749861
_symmetry_space_group_name_H-M "C 2/M"
_symmetry_group_IT_number 12
_symmetry_cell_setting 'monoclinic'
loop_
_space_group_symop_operation_xyz
x,y,z
-x,y,-z
-x,-y,-z
x,-y,z
1/2+x,1/2+y,z
1/2-x,1/2+y,-z
1/2-x,1/2-y,-z
1/2+x,1/2-y,z
loop_
_atom_site_type_symbol
_atom_site_label
_atom_site_fract_x
_atom_site_fract_y
_atom_site_fract_z
Si Si1 0.942628 0.310216 0.168886
Si Si2 0.910670 0.191516 0.662753
Si Si3 0.876977 0.308921 0.939422
Si Si4 0.680275 0.309317 0.879093
Si Si5 0.280392 0.307580 0.232961
Si Si6 0.862208 0.810460 0.762600
Si Si7 0.791638 0.192102 0.410248
O O1 0.942094 0.500000 0.167592
O O2 0.883959 0.252491 0.153047
O O3 0.016917 0.249213 0.278543
O O4 0.923734 0.253930 0.063024
O O5 0.899407 0.246519 0.733400
O O6 0.847922 0.245293 0.536320
O O7 0.910135 0.000000 0.661809
O O8 0.877974 0.500000 0.938755
O O9 0.799111 0.259702 0.863926
O O10 0.892852 0.249507 0.876609
O O11 0.680055 0.500000 0.880289
O O12 0.682296 0.254435 0.796125
O O13 0.750000 0.250000 0.000000
O O14 0.280906 0.500000 0.232416
O O15 0.308816 0.258714 0.346809
O O16 0.783849 0.754229 0.664295
O O17 0.863202 0.000000 0.764569
O O18 0.788594 0.000000 0.408416
#
# Coordination Sequence:
#
# PCOD9192300 Si02
#       7
#     8   8   8   8   8   8   8
#     4  11  23  38  55  78 109 145 186 225 268 326
#     4  10  22  38  54  77 110 147 182 222 271 322
#     4   9  18  35  54  76 107 142 182 219 264 327
#     4  11  20  34  57  84 112 140 177 222 271 323
#     4   8  15  31  55  80 104 134 177 220 256 313
#     4  10  20  33  54  84 111 136 178 229 275 317
#     4   9  18  36  59  79 106 144 184 220 261 320
#
# _framework density 18.618569999999998
#
# number of rings (size 3 to 8) (size 9 to 14) (size 15 to 20)
#    0.000    2.286    1.429    2.571    0.000    3.429 
#    0.000    4.286    0.000    4.286    0.000    0.000 
#    0.000    0.000    0.000    0.000    0.000    0.000 
#
# Total GULP energy -156243.174101 kJ/mol
# GULP energy per Si atom -5580.113361 kJ/mol
# Density = 1.857619 g / cm^3
# Si number density = 18.618570 Si / 1000 Ang^3
#
#
#
# Elastic Constant Matrix: (Units=GPa)
#
#
# Indices 1 2 3 4 5 6 
#
# 1 97.2696 2.4486 13.7312 0.0000 -5.5534 0.0000
# 2 2.4486 12.2124 1.2005 0.0000 -2.5351 0.0000
# 3 13.7312 1.2005 15.4034 0.0000 -1.8525 0.0000
# 4 0.0000 0.0000 0.0000 23.5969 0.0000 0.2175
# 5 -5.5534 -2.5351 -1.8525 0.0000 23.2376 0.0000
# 6 0.0000 0.0000 0.0000 0.2175 0.0000 24.1855
#
#
#
# Elastic Compliance Matrix: (Units=1/GPa)
#
#
# Indices 1 2 3 4 5 6 
#
# 1 0.011864 -0.000973 -0.010271 0.000000 0.001910 0.000000
# 2 -0.000973 0.084322 -0.004671 0.000000 0.008594 0.000000
# 3 -0.010271 -0.004671 0.074801 0.000000 0.002999 0.000000
# 4 0.000000 0.000000 0.000000 0.042382 0.000000 -0.000381
# 5 0.001910 0.008594 0.002999 0.000000 0.044667 0.000000
# 6 0.000000 0.000000 0.000000 -0.000381 0.000000 0.041350
#
#
# Mechanical properties :
#
#
# Convention : Reuss Voigt Hill
#
# Bulk Modulus (GPa) = 7.18602 17.73843 12.46222
# Shear Modulus (GPa) = 13.24148 21.37102 17.30625
#
# Velocity S-wave (km/s) = 2.66972 3.39164 3.05210
# Velocity P-wave (km/s) = 3.65666 4.98855 4.37360
#
# Compressibility (1/GPa) = 0.13915902
#
# Stress axis : x y z
#
# Youngs Moduli (GPa) = 84.28774 11.85929 13.36878
#
# Poissons Ratio (x) = 0.01153 0.13730
# Poissons Ratio (y) = 0.08198 0.06244
# Poissons Ratio (z) = 0.86568 0.05539
#
# Static dielectric constant tensor:
#      x y z
#    x 1.641910 0.000000 -0.032600 
#    y 0.000000 1.639830 0.000000 
#    z -0.032600 0.000000 1.635520 
# 
# From -- ./inp_files/288221.got.cif
#   From: 2010.05.17/outbox.cif.g08.bks.cpg/sg12_145_cif.got.tgz:288221.got - 2010.06.03 13:09:07.
