data_PCOD9192991
_publ_section_title
;
Structure prediction by ZEFSAII (Michael W. Deem and Ramdas Pophale) SiO2 
 PCOD9192991
Probable space group: C 2/M
;
_chemical_formula_sum "Si O2"
_cell_formula_units_Z 40
_cell_length_a 19.838045
_cell_length_b 8.224984
_cell_length_c 28.545816
_cell_angle_alpha 90.000000
_cell_angle_beta 152.644470
_cell_angle_gamma 90.000000
_cell_volume 2140.286445
_symmetry_space_group_name_H-M "C 2/M"
_symmetry_group_IT_number 12
_symmetry_cell_setting 'monoclinic'
loop_
_space_group_symop_operation_xyz
x,y,z
-x,y,-z
-x,-y,-z
x,-y,z
1/2+x,1/2+y,z
1/2-x,1/2+y,-z
1/2-x,1/2-y,-z
1/2+x,1/2-y,z
loop_
_atom_site_type_symbol
_atom_site_label
_atom_site_fract_x
_atom_site_fract_y
_atom_site_fract_z
Si Si1 0.862466 0.197788 0.385304
Si Si2 0.847929 0.189620 0.172462
Si Si3 0.723914 0.302934 0.770258
Si Si4 0.033091 0.691110 0.201532
Si Si5 0.049705 0.811504 0.948652
O O1 0.857813 0.247549 0.327903
O O2 0.703529 0.242980 0.308057
O O3 0.000000 0.258715 0.500000
O O4 0.868886 0.000000 0.389763
O O5 0.850907 0.250515 0.227745
O O6 0.950572 0.280055 0.198940
O O7 0.888042 0.000000 0.196450
O O8 0.680681 0.209884 0.051902
O O9 0.730987 0.500000 0.775284
O O10 0.890489 0.239838 0.869464
O O11 0.030073 0.500000 0.187496
O O12 0.956510 0.783155 0.111143
O O13 0.076771 0.000000 0.975518
#
# Coordination Sequence:
#
# PCOD9192991 Si02
#       5
#     8   8   8   8   8
#     4   8  15  32  57  77  93 123 168 210 248 296
#     4  11  21  33  49  72 106 139 167 203 247 294
#     4   9  19  34  52  75 102 134 169 204 246 296
#     4  10  20  34  52  75 102 132 169 207 247 296
#     4  11  21  33  51  74 102 136 172 206 244 293
#
# _framework density 18.689087000000001
#
# number of rings (size 3 to 8) (size 9 to 14) (size 15 to 20)
#    0.000    2.200    0.000    5.400    0.000    4.000 
#    0.000    1.000    0.000   15.000    0.000    0.000 
#    0.000    0.000    0.000    0.000    0.000    0.000 
#
# Total GULP energy -111654.617907 kJ/mol
# GULP energy per Si atom -5582.730895 kJ/mol
# Density = 1.864655 g / cm^3
# Si number density = 18.689087 Si / 1000 Ang^3
#
#
#
# Elastic Constant Matrix: (Units=GPa)
#
#
# Indices 1 2 3 4 5 6 
#
# 1 107.1527 -6.7857 17.2635 0.0001 -16.9501 -0.0001
# 2 -6.7857 20.9326 -12.7511 -0.0001 0.3919 -0.0001
# 3 17.2635 -12.7511 77.5616 -0.0005 -17.9951 0.0000
# 4 0.0001 -0.0001 -0.0005 5.5863 0.0000 2.4678
# 5 -16.9501 0.3919 -17.9951 0.0000 8.3396 0.0000
# 6 -0.0001 -0.0001 0.0000 2.4678 0.0000 23.6429
#
#
#
# Elastic Compliance Matrix: (Units=1/GPa)
#
#
# Indices 1 2 3 4 5 6 
#
# 1 0.018237 0.012604 0.012967 0.000002 0.064454 0.000000
# 2 0.012604 0.066666 0.026776 0.000004 0.080260 0.000000
# 3 0.012967 0.026776 0.040514 0.000005 0.112516 0.000000
# 4 0.000002 0.000004 0.000005 0.187661 0.000015 -0.019588
# 5 0.064454 0.080260 0.112516 0.000015 0.489923 -0.000002
# 6 0.000000 0.000000 0.000000 -0.019588 -0.000002 0.044341
#
#
# Mechanical properties :
#
#
# Convention : Reuss Voigt Hill
#
# Bulk Modulus (GPa) = 4.34575 22.34446 13.34511
# Shear Modulus (GPa) = 6.10238 21.37512 13.73875
#
# Velocity S-wave (km/s) = 1.80895 3.38556 2.71425
# Velocity P-wave (km/s) = 2.58716 5.22155 4.12056
#
# Compressibility (1/GPa) = 0.23010986
#
# Stress axis : x y z
#
# Youngs Moduli (GPa) = 54.83246 15.00018 24.68312
#
# Poissons Ratio (x) = -0.18906 -0.32006
# Poissons Ratio (y) = -0.69111 -0.66091
# Poissons Ratio (z) = -0.71101 -0.40164
#
# Static dielectric constant tensor:
#      x y z
#    x 1.654970 0.000000 -0.014850 
#    y 0.000000 1.646140 0.000000 
#    z -0.014850 0.000000 1.620140 
# 
# From -- ./inp_files/162480.got.cif
#   From: 2010.05.17/outbox.cif.g08.bks.cpg/sg12_82_cif.got.tgz:162480.got - 2010.06.03 13:09:07.
