data_PCOD9192133
_publ_section_title
;
Structure prediction by ZEFSAII (Michael W. Deem and Ramdas Pophale) SiO2 
 PCOD9192133
Probable space group: C 2/M
;
_chemical_formula_sum "Si O2"
_cell_formula_units_Z 64
_cell_length_a 14.718731
_cell_length_b 8.623012
_cell_length_c 26.724370
_cell_angle_alpha 90.000000
_cell_angle_beta 86.780789
_cell_angle_gamma 90.000000
_cell_volume 3386.499165
_symmetry_space_group_name_H-M "C 2/M"
_symmetry_group_IT_number 12
_symmetry_cell_setting 'monoclinic'
loop_
_space_group_symop_operation_xyz
x,y,z
-x,y,-z
-x,-y,-z
x,-y,z
1/2+x,1/2+y,z
1/2-x,1/2+y,-z
1/2-x,1/2-y,-z
1/2+x,1/2-y,z
loop_
_atom_site_type_symbol
_atom_site_label
_atom_site_fract_x
_atom_site_fract_y
_atom_site_fract_z
Si Si1 0.335115 0.815203 0.746028
Si Si2 0.521252 0.686716 0.189144
Si Si3 0.492387 0.312676 0.075567
Si Si4 0.329219 0.184924 0.380477
Si Si5 0.870652 0.812796 0.273487
Si Si6 0.027217 0.812779 0.554581
Si Si7 0.852375 0.313854 0.001987
Si Si8 0.876454 0.186990 0.639250
O O1 0.383227 0.747964 0.793275
O O2 0.229720 0.768758 0.743158
O O3 0.385143 0.753944 0.694575
O O4 0.339470 0.000000 0.746858
O O5 0.522541 0.500000 0.190160
O O6 0.498139 0.733143 0.133434
O O7 0.445654 0.739901 0.231531
O O8 0.490489 0.500000 0.071699
O O9 0.581351 0.250011 0.043814
O O10 0.403756 0.244964 0.050491
O O11 0.379113 0.246254 0.328931
O O12 0.377168 0.252688 0.427758
O O13 0.223742 0.231287 0.377625
O O14 0.333762 0.000000 0.381321
O O15 0.874831 0.000000 0.277049
O O16 0.952091 0.761857 0.597534
O O17 0.000000 0.760307 0.500000
O O18 0.028741 0.000000 0.554295
O O19 0.851460 0.500000 0.000956
O O20 0.750000 0.250000 0.000000
O O21 0.880214 0.000000 0.642953
#
# Coordination Sequence:
#
# PCOD9192133 Si02
#       8
#     8   8   8   8   8   8   8   8
#     4  10  20  33  53  80 107 138 180 220 255 307
#     4  10  21  36  55  79 112 147 175 213 266 316
#     4  10  21  38  58  85 116 147 187 231 276 329
#     4  10  20  34  53  77 102 131 169 214 260 305
#     4   9  19  36  54  75 105 142 177 209 254 313
#     4  10  21  36  53  73  98 132 171 209 258 321
#     4  11  22  39  62  85 111 148 190 233 279 327
#     4   9  19  36  54  72 101 137 170 210 263 317
#
# _framework density 18.898574
#
# number of rings (size 3 to 8) (size 9 to 14) (size 15 to 20)
#    0.000    2.125    0.000    3.750    0.000    7.750 
#    0.000    1.250    0.000    0.000    0.000    0.000 
#    0.000    0.000    0.000    0.000    0.000    0.000 
#
# Total GULP energy -178704.608322 kJ/mol
# GULP energy per Si atom -5584.519010 kJ/mol
# Density = 1.885556 g / cm^3
# Si number density = 18.898574 Si / 1000 Ang^3
#
#
#
# Elastic Constant Matrix: (Units=GPa)
#
#
# Indices 1 2 3 4 5 6 
#
# 1 96.0433 25.0012 47.2161 0.0000 22.0063 0.0000
# 2 25.0012 37.3503 24.7904 0.0000 7.4970 0.0000
# 3 47.2161 24.7904 101.6092 0.0000 32.1274 0.0000
# 4 0.0000 0.0000 0.0000 27.9042 0.0000 8.7854
# 5 22.0063 7.4970 32.1274 0.0000 23.8565 0.0000
# 6 0.0000 0.0000 0.0000 8.7854 0.0000 26.7332
#
#
#
# Elastic Compliance Matrix: (Units=1/GPa)
#
#
# Indices 1 2 3 4 5 6 
#
# 1 0.015507 -0.006768 -0.002968 0.000000 -0.008181 0.000000
# 2 -0.006768 0.034909 -0.006753 0.000000 0.004367 0.000000
# 3 -0.002968 -0.006753 0.019735 0.000000 -0.021717 0.000000
# 4 0.000000 0.000000 0.000000 0.039973 0.000000 -0.013136
# 5 -0.008181 0.004367 -0.021717 0.000000 0.077337 0.000000
# 6 0.000000 0.000000 0.000000 -0.013136 0.000000 0.041724
#
#
# Mechanical properties :
#
#
# Convention : Reuss Voigt Hill
#
# Bulk Modulus (GPa) = 26.90077 47.66870 37.28473
# Shear Modulus (GPa) = 18.21128 24.89844 21.55486
#
# Velocity S-wave (km/s) = 3.10761 3.63364 3.38087
# Velocity P-wave (km/s) = 5.20975 6.54849 5.91710
#
# Compressibility (1/GPa) = 0.03717366
#
# Stress axis : x y z
#
# Youngs Moduli (GPa) = 64.48533 28.64553 50.67145
#
# Poissons Ratio (x) = 0.19388 0.15040
# Poissons Ratio (y) = 0.43645 0.34217
# Poissons Ratio (z) = 0.19140 0.19344
#
# Static dielectric constant tensor:
#      x y z
#    x 1.662030 0.000000 0.000740 
#    y 0.000000 1.638120 0.000000 
#    z 0.000740 0.000000 1.636290 
# 
# From -- ./inp_files/338819.got.cif
#   From: 2010.05.17/outbox.cif.g08.bks.cpg/sg12_170_cif.got.tgz:338819.got - 2010.06.03 13:09:07.
