data_PCOD9192262
_publ_section_title
;
Structure prediction by ZEFSAII (Michael W. Deem and Ramdas Pophale) SiO2 
 PCOD9192262
Probable space group: C 2/M
;
_chemical_formula_sum "Si O2"
_cell_formula_units_Z 40
_cell_length_a 12.431350
_cell_length_b 13.082884
_cell_length_c 12.021542
_cell_angle_alpha 90.000000
_cell_angle_beta 117.786033
_cell_angle_gamma 90.000000
_cell_volume 1729.718215
_symmetry_space_group_name_H-M "C 2/M"
_symmetry_group_IT_number 12
_symmetry_cell_setting 'monoclinic'
loop_
_space_group_symop_operation_xyz
x,y,z
-x,y,-z
-x,-y,-z
x,-y,z
1/2+x,1/2+y,z
1/2-x,1/2+y,-z
1/2-x,1/2-y,-z
1/2+x,1/2-y,z
loop_
_atom_site_type_symbol
_atom_site_label
_atom_site_fract_x
_atom_site_fract_y
_atom_site_fract_z
Si Si1 0.683561 0.882262 0.378682
Si Si2 0.791707 0.384895 0.060988
Si Si3 0.062580 0.811778 0.411868
Si Si4 0.679976 0.773296 0.146309
Si Si5 0.989413 0.111562 0.149586
O O1 0.805331 0.863782 0.508963
O O2 0.585865 0.803693 0.381616
O O3 0.709054 0.845250 0.264542
O O4 0.647575 0.000000 0.363241
O O5 0.832093 0.500000 0.106078
O O6 0.852563 0.339271 0.979050
O O7 0.648469 0.387423 0.958687
O O8 0.789536 0.302390 0.159266
O O9 0.991768 0.871959 0.282484
O O10 0.000000 0.814038 0.500000
O O11 0.574258 0.698229 0.138611
O O12 0.042357 0.000000 0.147742
#
# Coordination Sequence:
#
# PCOD9192262 Si02
#       5
#     8   8   8   8   8
#     4  10  21  37  56  80 111 144 177 219 270 320
#     4  10  20  35  57  81 107 142 181 223 270 317
#     4  10  21  36  57  83 109 139 180 224 266 320
#     4  10  20  33  54  80 110 140 177 219 265 318
#     4  10  20  35  57  82 108 140 179 225 272 316
#
# _framework density 23.125153000000001
#
# number of rings (size 3 to 8) (size 9 to 14) (size 15 to 20)
#    0.000    2.000    0.000    3.600    0.000    5.200 
#    0.000    1.000    0.000   74.400    0.000    0.000 
#    0.000    0.000    0.000    0.000    0.000    0.000 
#
# Total GULP energy -111922.945762 kJ/mol
# GULP energy per Si atom -5596.147288 kJ/mol
# Density = 2.307252 g / cm^3
# Si number density = 23.125153 Si / 1000 Ang^3
#
#
#
# Elastic Constant Matrix: (Units=GPa)
#
#
# Indices 1 2 3 4 5 6 
#
# 1 54.2468 3.6707 15.0339 0.0000 -9.3445 0.0000
# 2 3.6707 142.0915 13.4641 0.0000 1.9709 0.0000
# 3 15.0339 13.4641 89.6714 0.0000 -18.9974 0.0000
# 4 0.0000 0.0000 0.0000 21.8043 0.0000 -3.1209
# 5 -9.3445 1.9709 -18.9974 0.0000 38.3612 0.0000
# 6 0.0000 0.0000 0.0000 -3.1209 0.0000 19.4581
#
#
#
# Elastic Compliance Matrix: (Units=1/GPa)
#
#
# Indices 1 2 3 4 5 6 
#
# 1 0.019769 -0.000323 -0.002505 0.000000 0.003592 0.000000
# 2 -0.000323 0.007179 -0.001250 0.000000 -0.001066 0.000000
# 3 -0.002505 -0.001250 0.013009 0.000000 0.005896 0.000000
# 4 0.000000 0.000000 0.000000 0.046940 0.000000 0.007529
# 5 0.003592 -0.001066 0.005896 0.000000 0.029918 0.000000
# 6 0.000000 0.000000 0.000000 0.007529 0.000000 0.052600
#
#
# Mechanical properties :
#
#
# Convention : Reuss Voigt Hill
#
# Bulk Modulus (GPa) = 31.44532 38.92747 35.18640
# Shear Modulus (GPa) = 26.57159 32.84745 29.70952
#
# Velocity S-wave (km/s) = 3.39342 3.77294 3.58820
# Velocity P-wave (km/s) = 5.38341 5.98749 5.69347
#
# Compressibility (1/GPa) = 0.03180123
#
# Stress axis : x y z
#
# Youngs Moduli (GPa) = 50.58414 139.28976 76.87232
#
# Poissons Ratio (x) = 0.04501 0.19256
# Poissons Ratio (y) = 0.01635 0.09607
# Poissons Ratio (z) = 0.12671 0.17407
#
# Static dielectric constant tensor:
#      x y z
#    x 1.880540 0.000000 0.011630 
#    y 0.000000 1.891160 0.000000 
#    z 0.011630 0.000000 1.882360 
# 
# From -- ./inp_files/140244.got.cif
#   From: 2010.05.17/outbox.cif.g08.bks.cpg/sg12_71_cif.got.tgz:140244.got - 2010.06.03 13:09:07.
