data_PCOD9192595
_publ_section_title
;
Structure prediction by ZEFSAII (Michael W. Deem and Ramdas Pophale) SiO2 
 PCOD9192595
Probable space group: C 2/M
;
_chemical_formula_sum "Si O2"
_cell_formula_units_Z 56
_cell_length_a 11.124139
_cell_length_b 28.707432
_cell_length_c 9.257940
_cell_angle_alpha 90.000000
_cell_angle_beta 117.843941
_cell_angle_gamma 90.000000
_cell_volume 2614.188734
_symmetry_space_group_name_H-M "C 2/M"
_symmetry_group_IT_number 12
_symmetry_cell_setting 'monoclinic'
loop_
_space_group_symop_operation_xyz
x,y,z
-x,y,-z
-x,-y,-z
x,-y,z
1/2+x,1/2+y,z
1/2-x,1/2+y,-z
1/2-x,1/2-y,-z
1/2+x,1/2-y,z
loop_
_atom_site_type_symbol
_atom_site_label
_atom_site_fract_x
_atom_site_fract_y
_atom_site_fract_z
Si Si1 0.303797 0.405938 0.103991
Si Si2 0.961631 0.841532 0.808612
Si Si3 0.143879 0.500000 0.659501
Si Si4 0.518071 0.159624 0.680349
Si Si5 0.759214 0.405439 0.244865
Si Si6 0.645372 0.820710 0.148162
Si Si7 0.348291 0.000000 0.980699
Si Si8 0.584691 0.739204 0.697818
O O1 0.446645 0.380946 0.221521
O O2 0.199849 0.364309 0.085637
O O3 0.326947 0.415051 0.946423
O O4 0.236998 0.454241 0.116277
O O5 0.810149 0.861926 0.716008
O O6 0.994976 0.792688 0.753885
O O7 0.000000 0.836527 0.000000
O O8 0.220025 0.452620 0.658745
O O9 0.137824 0.500000 0.833746
O O10 0.000000 0.500000 0.500000
O O11 0.500000 0.161036 0.500000
O O12 0.599129 0.111894 0.743267
O O13 0.387955 0.161970 0.708763
O O14 0.597598 0.207668 0.757598
O O15 0.765549 0.783165 0.223358
O O16 0.500000 0.805757 0.000000
O O17 0.500000 0.000000 0.000000
O O18 0.500000 0.738470 0.500000
#
# Coordination Sequence:
#
# PCOD9192595 Si02
#       8
#     8   8   4   8   8   8   4   8
#     4   9  19  38  57  90 114 153 198 247 297 355
#     4   9  20  39  61  86 122 157 201 246 298 365
#     4  10  22  39  57  89 115 150 200 245 302 357
#     4  11  25  38  60  89 121 161 202 247 308 359
#     4  10  20  38  61  87 119 152 199 249 300 355
#     4  11  22  41  62  86 123 154 206 253 292 364
#     4  10  20  33  63  81 117 152 192 250 303 355
#     4  10  25  42  59  89 123 164 203 246 306 363
#
# _framework density 21.421559999999999
#
# number of rings (size 3 to 8) (size 9 to 14) (size 15 to 20)
#    0.000    2.000    1.429    0.857    6.000    2.857 
#    0.000    2.857    0.000    0.000    0.000    3.500 
#    0.000    0.000    0.000    0.000    0.000    0.000 
#
# Total GULP energy -156008.556296 kJ/mol
# GULP energy per Si atom -5571.734153 kJ/mol
# Density = 2.137280 g / cm^3
# Si number density = 21.421560 Si / 1000 Ang^3
#
#
#
# Elastic Constant Matrix: (Units=GPa)
#
#
# Indices 1 2 3 4 5 6 
#
# 1 69.7475 10.0552 11.5681 0.0000 -3.0325 0.0000
# 2 10.0552 108.9590 9.7351 0.0000 11.4165 0.0000
# 3 11.5681 9.7351 57.8879 0.0000 -5.0200 0.0000
# 4 0.0000 0.0000 0.0000 25.0771 0.0000 -12.8427
# 5 -3.0325 11.4165 -5.0200 0.0000 23.1639 0.0000
# 6 0.0000 0.0000 0.0000 -12.8427 0.0000 39.8407
#
#
#
# Elastic Compliance Matrix: (Units=1/GPa)
#
#
# Indices 1 2 3 4 5 6 
#
# 1 0.015057 -0.001376 -0.002597 0.000000 0.002087 0.000000
# 2 -0.001376 0.010055 -0.001897 0.000000 -0.005547 0.000000
# 3 -0.002597 -0.001897 0.018512 0.000000 0.004607 0.000000
# 4 0.000000 0.000000 0.000000 0.047762 0.000000 0.015396
# 5 0.002087 -0.005547 0.004607 0.000000 0.047176 0.000000
# 6 0.000000 0.000000 0.000000 0.015396 0.000000 0.030063
#
#
# Mechanical properties :
#
#
# Convention : Reuss Voigt Hill
#
# Bulk Modulus (GPa) = 31.36254 33.25681 32.30968
# Shear Modulus (GPa) = 26.17883 31.29873 28.73878
#
# Velocity S-wave (km/s) = 3.49962 3.82656 3.66673
# Velocity P-wave (km/s) = 5.56796 5.92301 5.74823
#
# Compressibility (1/GPa) = 0.03188517
#
# Stress axis : x y z
#
# Youngs Moduli (GPa) = 66.41333 99.44810 54.01845
#
# Poissons Ratio (x) = 0.13686 0.14026
# Poissons Ratio (y) = 0.09140 0.10248
# Poissons Ratio (z) = 0.17245 0.18866
#
# Static dielectric constant tensor:
#      x y z
#    x 1.809230 0.000000 0.008720 
#    y 0.000000 1.813010 0.000000 
#    z 0.008720 0.000000 1.845540 
# 
# From -- ./inp_files/54857.got.cif
#   From: 2010.05.17/outbox.cif.g08.bks.cpg/sg12_28_cif.got.tgz:54857.got - 2010.06.03 13:09:07.
