data_PCOD9192113
_publ_section_title
;
Structure prediction by ZEFSAII (Michael W. Deem and Ramdas Pophale) SiO2 
 PCOD9192113
Probable space group: C 2/M
;
_chemical_formula_sum "Si O2"
_cell_formula_units_Z 60
_cell_length_a 24.793185
_cell_length_b 12.620550
_cell_length_c 24.704403
_cell_angle_alpha 90.000000
_cell_angle_beta 29.377821
_cell_angle_gamma 90.000000
_cell_volume 3792.126617
_symmetry_space_group_name_H-M "C 2/M"
_symmetry_group_IT_number 12
_symmetry_cell_setting 'monoclinic'
loop_
_space_group_symop_operation_xyz
x,y,z
-x,y,-z
-x,-y,-z
x,-y,z
1/2+x,1/2+y,z
1/2-x,1/2+y,-z
1/2-x,1/2-y,-z
1/2+x,1/2-y,z
loop_
_atom_site_type_symbol
_atom_site_label
_atom_site_fract_x
_atom_site_fract_y
_atom_site_fract_z
Si Si1 0.638768 0.125431 0.569112
Si Si2 0.492171 0.374589 0.130367
Si Si3 0.222025 0.125401 0.348580
Si Si4 0.500000 0.735840 0.500000
Si Si5 0.337606 0.745882 0.344713
Si Si6 0.392191 0.233056 0.122477
Si Si7 0.206464 0.122499 0.883905
Si Si8 0.953383 0.624933 0.645895
O O1 0.623762 0.180287 0.640057
O O2 0.755691 0.160412 0.442676
O O3 0.547988 0.158910 0.604549
O O4 0.632448 0.000000 0.580680
O O5 0.468579 0.500000 0.153564
O O6 0.437801 0.312683 0.227463
O O7 0.436395 0.320699 0.126504
O O8 0.623020 0.360666 0.006720
O O9 0.103635 0.168787 0.431982
O O10 0.267417 0.187185 0.361900
O O11 0.311956 0.153898 0.223800
O O12 0.216800 0.000000 0.362779
O O13 0.540949 0.808700 0.414289
O O14 0.327736 0.297234 0.133068
O O15 0.500000 0.183387 0.000000
O O16 0.335990 0.135479 0.778151
O O17 0.187661 0.000000 0.882721
O O18 0.968812 0.500000 0.619537
#
# Coordination Sequence:
#
# PCOD9192113 Si02
#       8
#     8   8   8   4   8   8   8   8
#     4  10  20  35  54  74  98 130 169 208 250 297
#     4   9  17  29  49  76 103 131 163 203 251 300
#     4  11  22  34  50  72 100 137 173 205 246 296
#     4  12  20  36  50  76 106 136 162 204 246 312
#     4  10  20  35  52  74 101 130 168 210 251 291
#     4   9  17  30  48  72 102 133 166 203 247 293
#     4   9  16  29  49  74 103 131 162 201 252 303
#     4  10  20  33  53  79 104 131 162 204 253 302
#
# _framework density 15.822255999999999
#
# number of rings (size 3 to 8) (size 9 to 14) (size 15 to 20)
#    0.000    2.133    2.667    1.600    0.000    1.867 
#    0.000    0.667    0.000    0.000    0.000    0.000 
#    0.000    0.000    0.000    0.000    0.000    0.000 
#
# Total GULP energy -167162.443350 kJ/mol
# GULP energy per Si atom -5572.081445 kJ/mol
# Density = 1.578624 g / cm^3
# Si number density = 15.822256 Si / 1000 Ang^3
#
#
#
# Elastic Constant Matrix: (Units=GPa)
#
#
# Indices 1 2 3 4 5 6 
#
# 1 61.5616 27.0520 30.9843 0.0000 8.3060 0.0000
# 2 27.0520 55.0070 39.4230 -0.0001 3.6521 0.0000
# 3 30.9843 39.4230 98.3927 -0.0001 8.8865 0.0001
# 4 0.0000 -0.0001 -0.0001 16.8134 0.0001 -3.4748
# 5 8.3060 3.6521 8.8865 0.0001 23.2554 0.0000
# 6 0.0000 0.0000 0.0001 -3.4748 0.0000 19.6746
#
#
#
# Elastic Compliance Matrix: (Units=1/GPa)
#
#
# Indices 1 2 3 4 5 6 
#
# 1 0.022219 -0.008282 -0.003190 0.000000 -0.005417 0.000000
# 2 -0.008282 0.028590 -0.009020 0.000000 0.001915 0.000000
# 3 -0.003190 -0.009020 0.015071 0.000000 -0.003203 0.000000
# 4 0.000000 0.000000 0.000000 0.061729 0.000000 0.010902
# 5 -0.005417 0.001915 -0.003203 0.000000 0.045859 0.000000
# 6 0.000000 0.000000 0.000000 0.010902 0.000000 0.052752
#
#
# Mechanical properties :
#
#
# Convention : Reuss Voigt Hill
#
# Bulk Modulus (GPa) = 40.16450 45.54220 42.85335
# Shear Modulus (GPa) = 18.14866 19.78215 18.96540
#
# Velocity S-wave (km/s) = 3.39046 3.53976 3.46591
# Velocity P-wave (km/s) = 6.38490 6.74927 6.56961
#
# Compressibility (1/GPa) = 0.02489761
#
# Stress axis : x y z
#
# Youngs Moduli (GPa) = 45.00604 34.97745 66.35198
#
# Poissons Ratio (x) = 0.28967 0.21163
# Poissons Ratio (y) = 0.37273 0.59850
# Poissons Ratio (z) = 0.14355 0.31550
#
# Static dielectric constant tensor:
#      x y z
#    x 1.503340 0.000000 -0.004640 
#    y 0.000000 1.506010 0.000000 
#    z -0.004640 0.000000 1.542520 
# 
# From -- ./inp_files/349357.got.cif
#   From: 2010.05.17/outbox.cif.g08.bks.cpg/sg12_175_cif.got.tgz:349357.got - 2010.06.03 13:09:07.
