data_PCOD9192426
_publ_section_title
;
Structure prediction by ZEFSAII (Michael W. Deem and Ramdas Pophale) SiO2 
 PCOD9192426
Probable space group: C 2/M
;
_chemical_formula_sum "Si O2"
_cell_formula_units_Z 56
_cell_length_a 14.431775
_cell_length_b 18.368243
_cell_length_c 18.051687
_cell_angle_alpha 90.000000
_cell_angle_beta 31.846151
_cell_angle_gamma 90.000000
_cell_volume 2524.893347
_symmetry_space_group_name_H-M "C 2/M"
_symmetry_group_IT_number 12
_symmetry_cell_setting 'monoclinic'
loop_
_space_group_symop_operation_xyz
x,y,z
-x,y,-z
-x,-y,-z
x,-y,z
1/2+x,1/2+y,z
1/2-x,1/2+y,-z
1/2-x,1/2-y,-z
1/2+x,1/2-y,z
loop_
_atom_site_type_symbol
_atom_site_label
_atom_site_fract_x
_atom_site_fract_y
_atom_site_fract_z
Si Si1 0.689571 0.890179 0.906360
Si Si2 0.465085 0.785768 0.605601
Si Si3 0.523151 0.000000 0.571901
Si Si4 0.888965 0.000000 0.149663
Si Si5 0.026307 0.117794 0.401860
Si Si6 0.271381 0.636024 0.447194
Si Si7 0.420709 0.618506 0.878559
Si Si8 0.817680 0.214200 0.083943
O O1 0.827917 0.914980 0.750394
O O2 0.764624 0.916537 0.934700
O O3 0.699829 0.801767 0.909895
O O4 0.500000 0.907066 0.000000
O O5 0.500000 0.818596 0.500000
O O6 0.413463 0.701991 0.627715
O O7 0.649927 0.794290 0.519715
O O8 0.326441 0.815018 0.759627
O O9 0.500000 0.000000 0.500000
O O10 0.316508 0.000000 0.734148
O O11 0.640833 0.069403 0.515170
O O12 0.957285 0.067158 0.153356
O O13 0.000000 0.000000 0.000000
O O14 0.000000 0.085027 0.500000
O O15 0.848866 0.120696 0.475133
O O16 0.437675 0.645218 0.279114
O O17 0.331279 0.676229 0.994939
O O18 0.000000 0.199622 0.000000
#
# Coordination Sequence:
#
# PCOD9192426 Si02
#       8
#     8   8   4   4   8   8   8   8
#     4   9  20  38  59  85 119 155 192 237 295 355
#     4  10  20  33  56  86 120 157 192 236 296 353
#     4  12  24  44  63  86 116 158 195 242 296 348
#     4  12  28  44  61  86 122 150 199 248 288 346
#     4   9  20  38  57  87 121 152 191 245 290 345
#     4  11  22  37  61  84 116 157 199 237 295 349
#     4  11  22  39  60  84 116 157 195 244 293 343
#     4  10  20  33  55  88 120 153 194 239 293 349
#
# _framework density 22.179154
#
# number of rings (size 3 to 8) (size 9 to 14) (size 15 to 20)
#    0.000    1.714    1.429    2.571    4.000    2.286 
#    0.000    0.714    0.000    0.000    0.000    0.000 
#    0.000    0.000    0.000    0.000    0.000    0.000 
#
# Total GULP energy -156182.240688 kJ/mol
# GULP energy per Si atom -5577.937167 kJ/mol
# Density = 2.212867 g / cm^3
# Si number density = 22.179154 Si / 1000 Ang^3
#
#
#
# Elastic Constant Matrix: (Units=GPa)
#
#
# Indices 1 2 3 4 5 6 
#
# 1 170.6715 10.1817 81.2987 0.0021 7.1164 -0.0029
# 2 10.1817 62.6869 22.1821 -0.0054 8.0929 0.0027
# 3 81.2987 22.1821 145.1352 -0.0050 5.1868 0.0020
# 4 0.0021 -0.0054 -0.0050 -8.4114 0.0021 -1.0218
# 5 7.1164 8.0929 5.1868 0.0021 43.8779 0.0002
# 6 -0.0029 0.0027 0.0020 -1.0218 0.0002 -4.3762
#
#
#
# Elastic Compliance Matrix: (Units=1/GPa)
#
#
# Indices 1 2 3 4 5 6 
#
# 1 0.008027 0.000407 -0.004529 0.000005 -0.000842 -0.000008
# 2 0.000407 0.017239 -0.002759 -0.000011 -0.002920 0.000012
# 3 -0.004529 -0.002759 0.009846 -0.000006 0.000079 0.000007
# 4 0.000005 -0.000011 -0.000006 -0.122356 0.000008 0.028569
# 5 -0.000842 -0.002920 0.000079 0.000008 0.023456 -0.000002
# 6 -0.000008 0.000012 0.000007 0.028569 -0.000002 -0.235177
#
#
# Mechanical properties :
#
#
# Convention : Reuss Voigt Hill
#
# Bulk Modulus (GPa) = 46.83363 67.31319 57.07341
# Shear Modulus (GPa) = -17.97997 23.87345 2.94674
#
# Velocity S-wave (km/s) = -2.85032 3.28440 1.15390
# Velocity P-wave (km/s) = 3.21395 6.69318 5.25015
#
# Compressibility (1/GPa) = 0.02135218
#
# Stress axis : x y z
#
# Youngs Moduli (GPa) = 124.57602 58.00730 101.56721
#
# Poissons Ratio (x) = -0.02363 0.45997
# Poissons Ratio (y) = -0.05075 0.28019
# Poissons Ratio (z) = 0.56417 0.16002
#
# Static dielectric constant tensor:
#      x y z
#    x 1.836100 -0.000010 -0.031820 
#    y -0.000010 1.948840 0.000010 
#    z -0.031820 0.000010 1.898850 
# 
# From -- ./inp_files/64137.got.cif
#   From: 2010.05.17/outbox.cif.g08.bks.cpg/sg12_33_cif.got.tgz:64137.got - 2010.06.03 13:09:07.
