data_PCOD9192114
_publ_section_title
;
Structure prediction by ZEFSAII (Michael W. Deem and Ramdas Pophale) SiO2 
 PCOD9192114
Probable space group: C 2/M
;
_chemical_formula_sum "Si O2"
_cell_formula_units_Z 64
_cell_length_a 14.443819
_cell_length_b 8.912401
_cell_length_c 29.923463
_cell_angle_alpha 90.000000
_cell_angle_beta 106.261719
_cell_angle_gamma 90.000000
_cell_volume 3697.911334
_symmetry_space_group_name_H-M "C 2/M"
_symmetry_group_IT_number 12
_symmetry_cell_setting 'monoclinic'
loop_
_space_group_symop_operation_xyz
x,y,z
-x,y,-z
-x,-y,-z
x,-y,z
1/2+x,1/2+y,z
1/2-x,1/2+y,-z
1/2-x,1/2-y,-z
1/2+x,1/2-y,z
loop_
_atom_site_type_symbol
_atom_site_label
_atom_site_fract_x
_atom_site_fract_y
_atom_site_fract_z
Si Si1 0.216607 0.680379 0.123346
Si Si2 0.581586 0.180071 0.878593
Si Si3 0.850620 0.178833 0.698806
Si Si4 0.761725 0.679404 0.550152
Si Si5 0.612550 0.821074 0.200705
Si Si6 0.546191 0.819765 0.369003
Si Si7 0.529075 0.679412 0.054967
Si Si8 0.841079 0.680796 0.381513
O O1 0.217845 0.500000 0.119267
O O2 0.318686 0.749896 0.124194
O O3 0.185320 0.717199 0.170066
O O4 0.131816 0.747731 0.081149
O O5 0.494373 0.214205 0.832356
O O6 0.547513 0.249434 0.921032
O O7 0.588808 0.000000 0.883399
O O8 0.864262 0.239824 0.750253
O O9 0.928225 0.246735 0.674906
O O10 0.745856 0.219740 0.664146
O O11 0.858143 0.000000 0.699659
O O12 0.754256 0.500000 0.546688
O O13 0.750000 0.750000 0.500000
O O14 0.866278 0.717878 0.585515
O O15 0.684355 0.743830 0.574827
O O16 0.617438 0.000000 0.208349
O O17 0.443770 0.773222 0.375353
O O18 0.545160 0.000000 0.363448
O O19 0.533607 0.500000 0.062321
O O20 0.500000 0.708815 0.000000
O O21 0.841296 0.500000 0.387198
#
# Coordination Sequence:
#
# PCOD9192114 Si02
#       8
#     8   8   8   8   8   8   8   8
#     4  10  21  37  57  81 109 142 179 222 270 319
#     4  10  21  37  57  80 107 142 181 222 267 315
#     4  10  20  33  53  79 104 132 169 215 260 301
#     4  10  20  34  53  76 102 134 169 209 256 304
#     4   9  20  37  54  75 106 141 175 212 259 315
#     4   9  19  36  55  73 100 138 173 207 254 310
#     4  10  21  37  57  81 109 142 180 222 267 317
#     4   9  19  36  54  74 101 133 171 211 251 302
#
# _framework density 17.307068000000001
#
# number of rings (size 3 to 8) (size 9 to 14) (size 15 to 20)
#    0.000    2.375    0.000    2.625    0.000    7.500 
#    0.000    6.250    0.000    0.000    0.000    0.000 
#    0.000    0.000    0.000    0.000    0.000    0.000 
#
# Total GULP energy -178603.943772 kJ/mol
# GULP energy per Si atom -5581.373243 kJ/mol
# Density = 1.726768 g / cm^3
# Si number density = 17.307068 Si / 1000 Ang^3
#
#
#
# Elastic Constant Matrix: (Units=GPa)
#
#
# Indices 1 2 3 4 5 6 
#
# 1 165.1476 56.2581 75.8427 0.0000 -22.3791 0.0000
# 2 56.2581 54.9386 67.3213 0.0000 -7.5382 0.0000
# 3 75.8427 67.3213 153.3930 0.0000 -14.2982 0.0000
# 4 0.0000 0.0000 0.0000 36.1638 0.0000 -2.9310
# 5 -22.3791 -7.5382 -14.2982 0.0000 8.8411 0.0000
# 6 0.0000 0.0000 0.0000 -2.9310 0.0000 29.3976
#
#
#
# Elastic Compliance Matrix: (Units=1/GPa)
#
#
# Indices 1 2 3 4 5 6 
#
# 1 0.012514 -0.010137 0.000481 0.000000 0.023812 0.000000
# 2 -0.010137 0.047925 -0.017197 0.000000 -0.012608 0.000000
# 3 0.000481 -0.017197 0.014808 0.000000 0.010503 0.000000
# 4 0.000000 0.000000 0.000000 0.027877 0.000000 0.002779
# 5 0.023812 -0.012608 0.010503 0.000000 0.179618 0.000000
# 6 0.000000 0.000000 0.000000 0.002779 0.000000 0.034294
#
#
# Mechanical properties :
#
#
# Convention : Reuss Voigt Hill
#
# Bulk Modulus (GPa) = 46.42126 85.81370 66.11748
# Shear Modulus (GPa) = 13.23025 26.48430 19.85728
#
# Velocity S-wave (km/s) = 2.76785 3.91610 3.39093
# Velocity P-wave (km/s) = 6.09057 8.37487 7.32235
#
# Compressibility (1/GPa) = 0.02154186
#
# Stress axis : x y z
#
# Youngs Moduli (GPa) = 79.90945 20.86583 67.53263
#
# Poissons Ratio (x) = 0.21152 -0.03249
# Poissons Ratio (y) = 0.81004 1.16134
# Poissons Ratio (z) = -0.03844 0.35882
#
# Static dielectric constant tensor:
#      x y z
#    x 1.571630 0.000000 0.006720 
#    y 0.000000 1.576990 0.000000 
#    z 0.006720 0.000000 1.557950 
# 
# From -- ./inp_files/359804.got.cif
#   From: 2010.05.17/outbox.cif.g08.bks.cpg/sg12_180_cif.got.tgz:359804.got - 2010.06.03 13:09:07.
