data_PCOD9192544
_publ_section_title
;
Structure prediction by ZEFSAII (Michael W. Deem and Ramdas Pophale) SiO2 
 PCOD9192544
Probable space group: C 2/M
;
_chemical_formula_sum "Si O2"
_cell_formula_units_Z 48
_cell_length_a 24.477507
_cell_length_b 23.782642
_cell_length_c 11.077847
_cell_angle_alpha 90.000000
_cell_angle_beta 24.284409
_cell_angle_gamma 90.000000
_cell_volume 2652.197175
_symmetry_space_group_name_H-M "C 2/M"
_symmetry_group_IT_number 12
_symmetry_cell_setting 'monoclinic'
loop_
_space_group_symop_operation_xyz
x,y,z
-x,y,-z
-x,-y,-z
x,-y,z
1/2+x,1/2+y,z
1/2-x,1/2+y,-z
1/2-x,1/2-y,-z
1/2+x,1/2-y,z
loop_
_atom_site_type_symbol
_atom_site_label
_atom_site_fract_x
_atom_site_fract_y
_atom_site_fract_z
Si Si1 0.977497 0.437589 0.904643
Si Si2 0.976002 0.138793 0.908000
Si Si3 0.378595 0.237137 0.158036
Si Si4 0.752945 0.567055 0.754713
Si Si5 0.658225 0.065212 0.154928
Si Si6 0.730747 0.861635 0.780824
O O1 0.967901 0.500000 0.871033
O O2 0.106799 0.411133 0.582028
O O3 0.841247 0.406598 0.159174
O O4 0.000000 0.440774 0.000000
O O5 0.113959 0.138298 0.558439
O O6 0.926249 0.203004 0.012369
O O7 0.867497 0.099551 0.063821
O O8 0.000000 0.122315 0.000000
O O9 0.250000 0.250000 0.500000
O O10 0.334897 0.196053 0.137148
O O11 0.500000 0.215111 0.000000
O O12 0.743552 0.500000 0.747381
O O13 0.764313 0.573938 0.875544
O O14 0.500000 0.068342 0.500000
O O15 0.685632 0.000000 0.061128
O O16 0.696771 0.113056 0.980792
#
# Coordination Sequence:
#
# PCOD9192544 Si02
#       6
#     8   8   8   8   8   8
#     4  10  20  33  57  93 122 157 210 261 315 382
#     4  11  24  41  61  95 130 161 210 269 327 386
#     4  11  23  42  64  92 127 165 210 269 330 388
#     4  10  22  40  62  89 131 171 205 261 320 379
#     4  10  21  41  66  95 127 169 222 262 305 376
#     4  12  22  37  66  90 120 171 215 259 318 378
#
# _framework density 18.098203000000002
#
# number of rings (size 3 to 8) (size 9 to 14) (size 15 to 20)
#    0.000    1.333    5.000    2.000    2.333    2.333 
#    0.000    2.500    0.000    0.000    0.000    0.000 
#    0.000    0.000    0.000    0.000    0.000    0.000 
#
# Total GULP energy -133871.237788 kJ/mol
# GULP energy per Si atom -5577.968241 kJ/mol
# Density = 1.805701 g / cm^3
# Si number density = 18.098203 Si / 1000 Ang^3
#
#
#
# Elastic Constant Matrix: (Units=GPa)
#
#
# Indices 1 2 3 4 5 6 
#
# 1 107.8346 53.1291 27.3274 -0.0003 6.7466 0.0000
# 2 53.1291 87.5574 54.3534 0.0007 -3.3823 0.0001
# 3 27.3274 54.3534 114.7767 0.0001 -0.3373 0.0013
# 4 -0.0003 0.0007 0.0001 16.8765 0.0004 9.7554
# 5 6.7466 -3.3823 -0.3373 0.0004 30.1183 -0.0003
# 6 0.0000 0.0001 0.0013 9.7554 -0.0003 26.7619
#
#
#
# Elastic Compliance Matrix: (Units=1/GPa)
#
#
# Indices 1 2 3 4 5 6 
#
# 1 0.013785 -0.009176 0.001051 0.000001 -0.004107 0.000000
# 2 -0.009176 0.022375 -0.008398 -0.000002 0.004474 0.000001
# 3 0.001051 -0.008398 0.012436 0.000001 -0.001039 -0.000001
# 4 0.000001 -0.000002 0.000001 0.075072 -0.000002 -0.027366
# 5 -0.004107 0.004474 -0.001039 -0.000002 0.034613 0.000001
# 6 0.000000 0.000001 -0.000001 -0.027366 0.000001 0.047342
#
#
# Mechanical properties :
#
#
# Convention : Reuss Voigt Hill
#
# Bulk Modulus (GPa) = 64.30555 64.42095 64.36325
# Shear Modulus (GPa) = 20.50425 26.44195 23.47310
#
# Velocity S-wave (km/s) = 3.36957 3.82648 3.60528
# Velocity P-wave (km/s) = 7.12371 7.42934 7.27813
#
# Compressibility (1/GPa) = 0.01555076
#
# Stress axis : x y z
#
# Youngs Moduli (GPa) = 72.54396 44.69304 80.41039
#
# Poissons Ratio (x) = 0.41008 -0.08452
# Poissons Ratio (y) = 0.66563 0.67529
# Poissons Ratio (z) = -0.07625 0.37533
#
# Static dielectric constant tensor:
#      x y z
#    x 1.635680 0.000000 0.013380 
#    y 0.000000 1.632960 0.000000 
#    z 0.013380 0.000000 1.618040 
# 
# From -- ./inp_files/185006.got.cif
#   From: 2010.05.17/outbox.cif.g08.bks.cpg/sg12_93_cif.got.tgz:185006.got - 2010.06.03 13:09:07.
