data_PCOD9192311
_publ_section_title
;
Structure prediction by ZEFSAII (Michael W. Deem and Ramdas Pophale) SiO2 
 PCOD9192311
Probable space group: C 2/M
;
_chemical_formula_sum "Si O2"
_cell_formula_units_Z 60
_cell_length_a 10.130820
_cell_length_b 18.507586
_cell_length_c 25.660200
_cell_angle_alpha 90.000000
_cell_angle_beta 135.270405
_cell_angle_gamma 90.000000
_cell_volume 3385.946379
_symmetry_space_group_name_H-M "C 2/M"
_symmetry_group_IT_number 12
_symmetry_cell_setting 'monoclinic'
loop_
_space_group_symop_operation_xyz
x,y,z
-x,y,-z
-x,-y,-z
x,-y,z
1/2+x,1/2+y,z
1/2-x,1/2+y,-z
1/2-x,1/2-y,-z
1/2+x,1/2-y,z
loop_
_atom_site_type_symbol
_atom_site_label
_atom_site_fract_x
_atom_site_fract_y
_atom_site_fract_z
Si Si1 0.449714 0.306070 0.189386
Si Si2 0.143992 0.799127 0.427719
Si Si3 0.212729 0.581591 0.062124
Si Si4 0.500000 0.308858 0.000000
Si Si5 0.600458 0.081124 0.471825
Si Si6 0.684319 0.798385 0.640147
Si Si7 0.940852 0.716858 0.880441
Si Si8 0.187913 0.584068 0.936866
O O1 0.356314 0.376668 0.138018
O O2 0.639304 0.315418 0.274199
O O3 0.282652 0.275742 0.178276
O O4 0.483713 0.255695 0.149363
O O5 0.250000 0.750000 0.500000
O O6 0.200448 0.879830 0.461592
O O7 0.236702 0.787995 0.396672
O O8 0.930719 0.771766 0.371965
O O9 0.193060 0.500000 0.075720
O O10 0.275618 0.581680 0.019708
O O11 0.000000 0.611597 0.000000
O O12 0.479542 0.257735 0.045356
O O13 0.673296 0.364040 0.056197
O O14 0.500000 0.077074 0.500000
O O15 0.464539 0.135305 0.402025
O O16 0.615915 0.000000 0.455129
O O17 0.001669 0.632888 0.891225
O O18 0.164479 0.500000 0.913849
#
# Coordination Sequence:
#
# PCOD9192311 Si02
#       8
#     8   8   8   4   8   8   8   8
#     4  12  23  36  54  81 117 152 187 242 305 354
#     4   9  17  34  58  83 109 144 182 223 267 329
#     4  10  20  35  54  76 102 140 193 246 292 342
#     4  12  21  38  59  82 106 144 204 262 297 352
#     4   8  15  30  55  84 109 137 178 223 267 326
#     4  10  20  33  54  84 117 146 182 227 284 341
#     4  12  23  36  57  82 109 149 200 247 299 351
#     4  11  22  37  57  81 108 143 199 259 304 355
#
# _framework density 17.720303999999999
#
# number of rings (size 3 to 8) (size 9 to 14) (size 15 to 20)
#    0.000    1.600    4.000    3.400    0.000    0.533 
#    0.000    0.000    0.000    8.800    0.000    0.000 
#    0.000    0.000    0.000    0.000    0.000    0.000 
#
# Total GULP energy -167064.408353 kJ/mol
# GULP energy per Si atom -5568.813612 kJ/mol
# Density = 1.767997 g / cm^3
# Si number density = 17.720304 Si / 1000 Ang^3
#
#
#
# Elastic Constant Matrix: (Units=GPa)
#
#
# Indices 1 2 3 4 5 6 
#
# 1 79.1454 46.1213 30.7015 0.0000 14.1540 0.0000
# 2 46.1213 137.8329 51.5361 0.0000 11.6501 0.0000
# 3 30.7015 51.5361 97.1715 0.0000 18.1553 0.0000
# 4 0.0000 0.0000 0.0000 9.5756 0.0000 3.6549
# 5 14.1540 11.6501 18.1553 0.0000 27.8431 0.0000
# 6 0.0000 0.0000 0.0000 3.6549 0.0000 20.9919
#
#
#
# Elastic Compliance Matrix: (Units=1/GPa)
#
#
# Indices 1 2 3 4 5 6 
#
# 1 0.016992 -0.004488 -0.001965 0.000000 -0.005479 0.000000
# 2 -0.004488 0.010249 -0.004148 0.000000 0.000698 0.000000
# 3 -0.001965 -0.004148 0.014349 0.000000 -0.006622 0.000000
# 4 0.000000 0.000000 0.000000 0.111866 0.000000 -0.019477
# 5 -0.005479 0.000698 -0.006622 0.000000 0.042727 0.000000
# 6 0.000000 0.000000 0.000000 -0.019477 0.000000 0.051029
#
#
# Mechanical properties :
#
#
# Convention : Reuss Voigt Hill
#
# Bulk Modulus (GPa) = 49.04720 63.42974 56.23847
# Shear Modulus (GPa) = 18.16796 24.06818 21.11807
#
# Velocity S-wave (km/s) = 3.20545 3.68941 3.45591
# Velocity P-wave (km/s) = 6.43727 7.34994 6.90869
#
# Compressibility (1/GPa) = 0.02038852
#
# Stress axis : x y z
#
# Youngs Moduli (GPa) = 58.84969 97.57081 69.69119
#
# Poissons Ratio (x) = 0.43792 0.13692
# Poissons Ratio (y) = 0.26413 0.28908
# Poissons Ratio (z) = 0.11562 0.40472
#
# Static dielectric constant tensor:
#      x y z
#    x 1.672660 0.000000 0.022440 
#    y 0.000000 1.645390 0.000000 
#    z 0.022440 0.000000 1.606010 
# 
# From -- ./inp_files/358616.got.cif
#   From: 2010.05.17/outbox.cif.g08.bks.cpg/sg12_180_cif.got.tgz:358616.got - 2010.06.03 13:09:07.
