data_PCOD9192183
_publ_section_title
;
Structure prediction by ZEFSAII (Michael W. Deem and Ramdas Pophale) SiO2 
 PCOD9192183
Probable space group: C 2/M
;
_chemical_formula_sum "Si O2"
_cell_formula_units_Z 40
_cell_length_a 15.526999
_cell_length_b 27.284201
_cell_length_c 12.349447
_cell_angle_alpha 90.000000
_cell_angle_beta 154.753834
_cell_angle_gamma 90.000000
_cell_volume 2231.380729
_symmetry_space_group_name_H-M "C 2/M"
_symmetry_group_IT_number 12
_symmetry_cell_setting 'monoclinic'
loop_
_space_group_symop_operation_xyz
x,y,z
-x,y,-z
-x,-y,-z
x,-y,z
1/2+x,1/2+y,z
1/2-x,1/2+y,-z
1/2-x,1/2-y,-z
1/2+x,1/2-y,z
loop_
_atom_site_type_symbol
_atom_site_label
_atom_site_fract_x
_atom_site_fract_y
_atom_site_fract_z
Si Si1 0.576574 0.942193 0.420554
Si Si2 0.548875 0.807386 0.730221
Si Si3 0.748842 0.391715 0.163624
Si Si4 0.316072 0.632989 0.593308
Si Si5 0.554443 0.307278 0.685686
O O1 0.345417 0.926200 0.179474
O O2 0.685501 0.917639 0.650182
O O3 0.674835 0.915299 0.429361
O O4 0.601223 0.000000 0.448837
O O5 0.651351 0.838862 0.750184
O O6 0.332018 0.829006 0.514920
O O7 0.525363 0.750434 0.677625
O O8 0.711949 0.815313 0.012780
O O9 0.513283 0.383442 0.883907
O O10 0.409071 0.659275 0.594439
O O11 0.500000 0.316450 0.500000
#
# Coordination Sequence:
#
# PCOD9192183 Si02
#       5
#     8   8   8   8   8
#     4  10  20  33  53  82 114 146 181 224 280 339
#     4   9  20  36  51  81 111 141 186 224 270 328
#     4   9  18  32  51  76 112 144 173 221 274 331
#     4  10  20  34  51  77 108 142 184 224 266 324
#     4  10  21  36  55  76 109 150 185 226 268 320
#
# _framework density 17.926120000000001
#
# number of rings (size 3 to 8) (size 9 to 14) (size 15 to 20)
#    0.000    2.400    0.000    2.400    5.600    3.200 
#    3.600    0.000    0.000    0.600    0.000   12.600 
#    0.000    0.000    0.000    0.000    0.000    0.000 
#
# Total GULP energy -111363.699491 kJ/mol
# GULP energy per Si atom -5568.184975 kJ/mol
# Density = 1.788532 g / cm^3
# Si number density = 17.926120 Si / 1000 Ang^3
#
#
#
# Elastic Constant Matrix: (Units=GPa)
#
#
# Indices 1 2 3 4 5 6 
#
# 1 91.2361 51.6815 36.3004 0.0000 21.2704 0.0000
# 2 51.6815 131.0335 33.1430 0.0000 4.7614 0.0000
# 3 36.3004 33.1430 71.2339 0.0000 24.9266 0.0000
# 4 0.0000 0.0000 0.0000 14.7375 0.0000 -8.1476
# 5 21.2704 4.7614 24.9266 0.0000 32.1215 0.0000
# 6 0.0000 0.0000 0.0000 -8.1476 0.0000 12.0536
#
#
#
# Elastic Compliance Matrix: (Units=1/GPa)
#
#
# Indices 1 2 3 4 5 6 
#
# 1 0.017434 -0.005723 -0.003403 0.000000 -0.008056 0.000000
# 2 -0.005723 0.010680 -0.003878 0.000000 0.005216 0.000000
# 3 -0.003403 -0.003878 0.022770 0.000000 -0.014842 0.000000
# 4 0.000000 0.000000 0.000000 0.108340 0.000000 0.073232
# 5 -0.008056 0.005216 -0.014842 0.000000 0.047210 0.000000
# 6 0.000000 0.000000 0.000000 0.073232 0.000000 0.132464
#
#
# Mechanical properties :
#
#
# Convention : Reuss Voigt Hill
#
# Bulk Modulus (GPa) = 40.19730 59.52814 49.86272
# Shear Modulus (GPa) = 13.39769 23.27443 18.33606
#
# Velocity S-wave (km/s) = 2.73680 3.60718 3.20170
# Velocity P-wave (km/s) = 5.69731 7.11537 6.44546
#
# Compressibility (1/GPa) = 0.02487729
#
# Stress axis : x y z
#
# Youngs Moduli (GPa) = 57.35785 93.63119 43.91731
#
# Poissons Ratio (x) = 0.53585 0.14944
# Poissons Ratio (y) = 0.32826 0.17031
# Poissons Ratio (z) = 0.19518 0.36310
#
# Static dielectric constant tensor:
#      x y z
#    x 1.639930 0.000000 0.000160 
#    y 0.000000 1.625100 0.000000 
#    z 0.000160 0.000000 1.661350 
# 
# From -- ./inp_files/149345.got.cif
#   From: 2010.05.17/outbox.cif.g08.bks.cpg/sg12_75_cif.got.tgz:149345.got - 2010.06.03 13:09:07.
