data_PCOD9192471
_publ_section_title
;
Structure prediction by ZEFSAII (Michael W. Deem and Ramdas Pophale) SiO2 
 PCOD9192471
Probable space group: C 2/M
;
_chemical_formula_sum "Si O2"
_cell_formula_units_Z 64
_cell_length_a 19.038306
_cell_length_b 14.305483
_cell_length_c 14.583047
_cell_angle_alpha 90.000000
_cell_angle_beta 139.209768
_cell_angle_gamma 90.000000
_cell_volume 2594.693940
_symmetry_space_group_name_H-M "C 2/M"
_symmetry_group_IT_number 12
_symmetry_cell_setting 'monoclinic'
loop_
_space_group_symop_operation_xyz
x,y,z
-x,y,-z
-x,-y,-z
x,-y,z
1/2+x,1/2+y,z
1/2-x,1/2+y,-z
1/2-x,1/2-y,-z
1/2+x,1/2-y,z
loop_
_atom_site_type_symbol
_atom_site_label
_atom_site_fract_x
_atom_site_fract_y
_atom_site_fract_z
Si Si1 0.676822 0.786444 0.562631
Si Si2 0.015476 0.606425 0.293929
Si Si3 0.857101 0.108913 0.159598
Si Si4 0.920470 0.102361 0.556870
Si Si5 0.624293 0.895652 0.023614
Si Si6 0.345784 0.891355 0.283924
Si Si7 0.108632 0.104766 0.251543
Si Si8 0.616470 0.688341 0.008071
O O1 0.610061 0.821350 0.408002
O O2 0.661839 0.677420 0.560759
O O3 0.621241 0.835590 0.593913
O O4 0.796161 0.823961 0.673145
O O5 0.053158 0.500000 0.351469
O O6 0.968131 0.606326 0.145553
O O7 0.916610 0.628690 0.264437
O O8 0.865975 0.183275 0.086010
O O9 0.953250 0.127265 0.326704
O O10 0.873746 0.000000 0.142014
O O11 0.740916 0.108750 0.090191
O O12 0.906365 0.100702 0.653326
O O13 0.901198 0.000000 0.499389
O O14 0.614974 0.790604 0.053554
O O15 0.617905 0.000000 0.062653
O O16 0.358038 0.000000 0.314879
O O17 0.221105 0.866962 0.144413
O O18 0.997527 0.137509 0.097415
O O19 0.137513 0.000000 0.249146
#
# Coordination Sequence:
#
# PCOD9192471 Si02
#       8
#     8   8   8   8   8   8   8   8
#     4  12  23  37  55  80 115 155 187 216 273 336
#     4  10  20  35  55  83 115 144 179 228 285 337
#     4   9  16  31  55  83 110 137 178 233 281 323
#     4   9  20  36  58  83 109 144 188 233 277 323
#     4  10  20  33  56  87 114 142 184 235 281 326
#     4  11  23  37  56  82 112 147 184 228 280 339
#     4  10  21  38  60  85 110 140 185 239 279 322
#     4  11  20  34  57  83 111 146 185 227 281 327
#
# _framework density 24.665721999999999
#
# number of rings (size 3 to 8) (size 9 to 14) (size 15 to 20)
#    0.000    1.750    1.250    5.625    1.750    1.500 
#    0.000    3.750    0.000    1.500    0.000    1.750 
#    0.000    0.000    0.000    0.000    0.000    0.000 
#
# Total GULP energy -179082.196418 kJ/mol
# GULP energy per Si atom -5596.318638 kJ/mol
# Density = 2.460958 g / cm^3
# Si number density = 24.665722 Si / 1000 Ang^3
#
#
#
# Elastic Constant Matrix: (Units=GPa)
#
#
# Indices 1 2 3 4 5 6 
#
# 1 35.5957 6.9361 8.3220 0.0000 12.1892 0.0000
# 2 6.9361 138.5855 27.8062 0.0000 6.8942 0.0000
# 3 8.3220 27.8062 55.6704 0.0000 30.5593 0.0000
# 4 0.0000 0.0000 0.0000 43.1050 0.0000 5.5338
# 5 12.1892 6.8942 30.5593 0.0000 26.0178 0.0000
# 6 0.0000 0.0000 0.0000 5.5338 0.0000 18.7757
#
#
#
# Elastic Compliance Matrix: (Units=1/GPa)
#
#
# Indices 1 2 3 4 5 6 
#
# 1 0.036673 -0.003031 0.014138 0.000000 -0.032983 0.000000
# 2 -0.003031 0.008789 -0.009677 0.000000 0.010458 0.000000
# 3 0.014138 -0.009677 0.064494 0.000000 -0.079810 0.000000
# 4 0.000000 0.000000 0.000000 0.024111 0.000000 -0.007106
# 5 -0.032983 0.010458 -0.079810 0.000000 0.144858 0.000000
# 6 0.000000 0.000000 0.000000 -0.007106 0.000000 0.055355
#
#
# Mechanical properties :
#
#
# Convention : Reuss Voigt Hill
#
# Bulk Modulus (GPa) = 8.86417 35.10891 21.98654
# Shear Modulus (GPa) = 13.54913 30.03220 21.79066
#
# Velocity S-wave (km/s) = 2.34628 3.49315 2.97549
# Velocity P-wave (km/s) = 3.30780 5.52578 4.55389
#
# Compressibility (1/GPa) = 0.11281370
#
# Stress axis : x y z
#
# Youngs Moduli (GPa) = 27.26774 113.77943 15.50538
#
# Poissons Ratio (x) = 0.34489 -0.21921
# Poissons Ratio (y) = 0.08266 0.15005
# Poissons Ratio (z) = -0.38550 1.10109
#
# Static dielectric constant tensor:
#      x y z
#    x 1.993180 0.000000 -0.044470 
#    y 0.000000 1.987760 0.000000 
#    z -0.044470 0.000000 1.942320 
# 
# From -- ./inp_files/290142.got.cif
#   From: 2010.05.17/outbox.cif.g08.bks.cpg/sg12_146_cif.got.tgz:290142.got - 2010.06.03 13:09:07.
