data_PCOD9192781
_publ_section_title
;
Structure prediction by ZEFSAII (Michael W. Deem and Ramdas Pophale) SiO2 
 PCOD9192781
Probable space group: C 2/M
;
_chemical_formula_sum "Si O2"
_cell_formula_units_Z 48
_cell_length_a 33.227856
_cell_length_b 10.597653
_cell_length_c 8.524285
_cell_angle_alpha 90.000000
_cell_angle_beta 113.876701
_cell_angle_gamma 90.000000
_cell_volume 2744.827405
_symmetry_space_group_name_H-M "C 2/M"
_symmetry_group_IT_number 12
_symmetry_cell_setting 'monoclinic'
loop_
_space_group_symop_operation_xyz
x,y,z
-x,y,-z
-x,-y,-z
x,-y,z
1/2+x,1/2+y,z
1/2-x,1/2+y,-z
1/2-x,1/2-y,-z
1/2+x,1/2-y,z
loop_
_atom_site_type_symbol
_atom_site_label
_atom_site_fract_x
_atom_site_fract_y
_atom_site_fract_z
Si Si1 0.313654 0.280952 0.174682
Si Si2 0.892665 0.859515 0.509104
Si Si3 0.261422 0.358180 0.788653
Si Si4 0.850970 0.852196 0.785066
Si Si5 0.122122 0.358910 0.932885
Si Si6 0.551446 0.144354 0.552356
O O1 0.353832 0.352348 0.318719
O O2 0.279087 0.234852 0.249767
O O3 0.336790 0.163946 0.120748
O O4 0.287509 0.353328 0.996945
O O5 0.869816 0.840158 0.641108
O O6 0.926959 0.749299 0.524524
O O7 0.912483 0.000000 0.536689
O O8 0.245787 0.500000 0.734211
O O9 0.298776 0.324678 0.720910
O O10 0.856352 0.000000 0.842198
O O11 0.874633 0.753178 0.936845
O O12 0.124588 0.500000 0.004322
O O13 0.078605 0.348401 0.758047
O O14 0.500000 0.165844 0.500000
O O15 0.557254 0.000000 0.502540
#
# Coordination Sequence:
#
# PCOD9192781 Si02
#       6
#     8   8   8   8   8   8
#     4   9  17  28  47  70  95 128 169 209 244 280
#     4  10  20  34  51  73 101 131 164 200 243 293
#     4   9  16  28  45  66  95 131 169 205 243 284
#     4   9  19  33  48  70 102 136 166 200 241 287
#     4   9  17  31  51  73  97 126 162 201 244 294
#     4   9  19  36  57  79  99 121 156 202 247 294
#
# _framework density 17.487438999999998
#
# number of rings (size 3 to 8) (size 9 to 14) (size 15 to 20)
#    0.000    2.833    0.000    1.000    0.000    6.333 
#    0.000    1.667    0.000    5.000    0.000    0.000 
#    0.000    0.000    0.000    0.000    0.000    0.000 
#
# Total GULP energy -133674.663137 kJ/mol
# GULP energy per Si atom -5569.777631 kJ/mol
# Density = 1.744764 g / cm^3
# Si number density = 17.487439 Si / 1000 Ang^3
#
#
#
# Elastic Constant Matrix: (Units=GPa)
#
#
# Indices 1 2 3 4 5 6 
#
# 1 84.4113 57.9307 17.8459 0.0000 -0.2667 0.0000
# 2 57.9307 101.8512 24.2929 0.0000 -8.9825 0.0000
# 3 17.8459 24.2929 22.9996 0.0000 -6.6670 0.0000
# 4 0.0000 0.0000 0.0000 16.6858 0.0000 -7.2393
# 5 -0.2667 -8.9825 -6.6670 0.0000 22.0486 0.0000
# 6 0.0000 0.0000 0.0000 -7.2393 0.0000 20.5868
#
#
#
# Elastic Compliance Matrix: (Units=1/GPa)
#
#
# Indices 1 2 3 4 5 6 
#
# 1 0.020499 -0.010668 -0.006385 0.000000 -0.006029 0.000000
# 2 -0.010668 0.018709 -0.010206 0.000000 0.004407 0.000000
# 3 -0.006385 -0.010206 0.063557 0.000000 0.014983 0.000000
# 4 0.000000 0.000000 0.000000 0.070721 0.000000 0.024869
# 5 -0.006029 0.004407 0.014983 0.000000 0.051607 0.000000
# 6 0.000000 0.000000 0.000000 0.024869 0.000000 0.057320
#
#
# Mechanical properties :
#
#
# Convention : Reuss Voigt Hill
#
# Bulk Modulus (GPa) = 20.72717 45.48901 33.10809
# Shear Modulus (GPa) = 14.16379 19.14374 16.65376
#
# Velocity S-wave (km/s) = 2.84903 3.31224 3.08933
# Velocity P-wave (km/s) = 4.76456 6.37940 5.63017
#
# Compressibility (1/GPa) = 0.04824586
#
# Stress axis : x y z
#
# Youngs Moduli (GPa) = 48.78258 53.45036 15.73403
#
# Poissons Ratio (x) = 0.57022 0.10047
# Poissons Ratio (y) = 0.52042 0.16058
# Poissons Ratio (z) = 0.31149 0.54551
#
# Static dielectric constant tensor:
#      x y z
#    x 1.584400 0.000000 -0.004610 
#    y 0.000000 1.605180 0.000000 
#    z -0.004610 0.000000 1.584200 
# 
# From -- ./inp_files/109502.got.cif
#   From: 2010.05.17/outbox.cif.g08.bks.cpg/sg12_55_cif.got.tgz:109502.got - 2010.06.03 13:09:07.
