data_PCOD9192891
_publ_section_title
;
Structure prediction by ZEFSAII (Michael W. Deem and Ramdas Pophale) SiO2 
 PCOD9192891
Probable space group: C 2/M
;
_chemical_formula_sum "Si O2"
_cell_formula_units_Z 64
_cell_length_a 19.693553
_cell_length_b 8.999187
_cell_length_c 26.024394
_cell_angle_alpha 90.000000
_cell_angle_beta 55.045477
_cell_angle_gamma 90.000000
_cell_volume 3780.190287
_symmetry_space_group_name_H-M "C 2/M"
_symmetry_group_IT_number 12
_symmetry_cell_setting 'monoclinic'
loop_
_space_group_symop_operation_xyz
x,y,z
-x,y,-z
-x,-y,-z
x,-y,z
1/2+x,1/2+y,z
1/2-x,1/2+y,-z
1/2-x,1/2-y,-z
1/2+x,1/2-y,z
loop_
_atom_site_type_symbol
_atom_site_label
_atom_site_fract_x
_atom_site_fract_y
_atom_site_fract_z
Si Si1 0.211618 0.671231 0.938600
Si Si2 0.251541 0.821194 0.555301
Si Si3 0.295302 0.819788 0.695911
Si Si4 0.380423 0.671182 0.933995
Si Si5 0.808898 0.321349 0.808968
Si Si6 0.346427 0.821130 0.311686
Si Si7 0.530252 0.178260 0.195220
Si Si8 0.910389 0.679610 0.555267
O O1 0.191190 0.500000 0.938452
O O2 0.295434 0.676760 0.937109
O O3 0.236865 0.751736 0.875134
O O4 0.141492 0.749179 0.003185
O O5 0.250000 0.750000 0.500000
O O6 0.181523 0.752015 0.622555
O O7 0.338772 0.784078 0.545397
O O8 0.243944 0.000000 0.556564
O O9 0.304487 0.778571 0.751334
O O10 0.216593 0.743568 0.703414
O O11 0.374605 0.776784 0.626516
O O12 0.286470 0.000000 0.696267
O O13 0.401316 0.500000 0.933565
O O14 0.448069 0.749689 0.868915
O O15 0.802931 0.500000 0.814600
O O16 0.896718 0.278171 0.796725
O O17 0.440182 0.782507 0.255586
O O18 0.339175 0.000000 0.317915
O O19 0.534006 0.000000 0.187995
O O20 0.916159 0.500000 0.553788
O O21 0.000000 0.738621 0.500000
#
# Coordination Sequence:
#
# PCOD9192891 Si02
#       8
#     8   8   8   8   8   8   8   8
#     4   9  16  26  42  66  96 126 157 196 243 291
#     4  10  20  34  53  75  99 127 160 199 241 286
#     4   9  18  32  50  71  96 128 161 196 239 285
#     4   9  16  26  43  67  95 127 159 195 242 289
#     4   9  17  30  48  70  96 125 163 205 240 281
#     4  10  20  34  52  72  98 132 164 195 236 287
#     4   9  18  31  48  72  98 126 163 203 239 279
#     4   8  15  29  50  73  94 121 160 199 233 276
#
# _framework density 16.930364000000001
#
# number of rings (size 3 to 8) (size 9 to 14) (size 15 to 20)
#    0.000    2.875    0.000    2.250    0.000    5.500 
#    0.000    3.750    0.000   13.125    0.000    5.250 
#    0.000    0.000    0.000    0.000    0.000    0.000 
#
# Total GULP energy -178307.223830 kJ/mol
# GULP energy per Si atom -5572.100745 kJ/mol
# Density = 1.689183 g / cm^3
# Si number density = 16.930364 Si / 1000 Ang^3
#
#
#
# Elastic Constant Matrix: (Units=GPa)
#
#
# Indices 1 2 3 4 5 6 
#
# 1 49.1405 33.4600 87.1675 0.0000 2.5440 0.0001
# 2 33.4600 47.4945 69.9481 0.0000 -1.5363 0.0004
# 3 87.1675 69.9481 214.0538 0.0000 5.2502 0.0000
# 4 0.0000 0.0000 0.0000 31.8666 0.0000 1.2875
# 5 2.5440 -1.5363 5.2502 0.0000 26.7040 0.0000
# 6 0.0001 0.0004 0.0000 1.2875 0.0000 19.3848
#
#
#
# Elastic Compliance Matrix: (Units=1/GPa)
#
#
# Indices 1 2 3 4 5 6 
#
# 1 0.079391 -0.016459 -0.026872 0.000000 -0.003227 0.000000
# 2 -0.016459 0.044668 -0.008034 0.000000 0.005717 -0.000001
# 3 -0.026872 -0.008034 0.018277 0.000000 -0.001496 0.000000
# 4 0.000000 0.000000 0.000000 0.031465 0.000000 -0.002090
# 5 -0.003227 0.005717 -0.001496 0.000000 0.038378 0.000000
# 6 0.000000 -0.000001 0.000000 -0.002090 0.000000 0.051726
#
#
# Mechanical properties :
#
#
# Convention : Reuss Voigt Hill
#
# Bulk Modulus (GPa) = 25.24968 76.87110 51.06039
# Shear Modulus (GPa) = 13.16356 23.59862 18.38109
#
# Velocity S-wave (km/s) = 2.79142 3.73750 3.29855
# Velocity P-wave (km/s) = 5.03344 8.00800 6.68818
#
# Compressibility (1/GPa) = 0.03960446
#
# Stress axis : x y z
#
# Youngs Moduli (GPa) = 12.59596 22.38736 54.71470
#
# Poissons Ratio (x) = 0.36848 1.47029
# Poissons Ratio (y) = 0.20732 0.43959
# Poissons Ratio (z) = 0.33848 0.17986
#
# Static dielectric constant tensor:
#      x y z
#    x 1.557960 0.000000 -0.004300 
#    y 0.000000 1.568840 0.000000 
#    z -0.004300 0.000000 1.567570 
# 
# From -- ./inp_files/346046.got.cif
#   From: 2010.05.17/outbox.cif.g08.bks.cpg/sg12_174_cif.got.tgz:346046.got - 2010.06.03 13:09:07.
