data_PCOD9192818
_publ_section_title
;
Structure prediction by ZEFSAII (Michael W. Deem and Ramdas Pophale) SiO2 
 PCOD9192818
Probable space group: C 2/M
;
_chemical_formula_sum "Si O2"
_cell_formula_units_Z 56
_cell_length_a 28.806550
_cell_length_b 26.914174
_cell_length_c 5.247221
_cell_angle_alpha 90.000000
_cell_angle_beta 126.273693
_cell_angle_gamma 90.000000
_cell_volume 3279.778109
_symmetry_space_group_name_H-M "C 2/M"
_symmetry_group_IT_number 12
_symmetry_cell_setting 'monoclinic'
loop_
_space_group_symop_operation_xyz
x,y,z
-x,y,-z
-x,-y,-z
x,-y,z
1/2+x,1/2+y,z
1/2-x,1/2+y,-z
1/2-x,1/2-y,-z
1/2+x,1/2-y,z
loop_
_atom_site_type_symbol
_atom_site_label
_atom_site_fract_x
_atom_site_fract_y
_atom_site_fract_z
Si Si1 0.935195 0.352540 0.380173
Si Si2 0.284622 0.381294 0.629117
Si Si3 0.184455 0.769777 0.244644
Si Si4 0.137752 0.281784 0.583952
Si Si5 0.340255 0.133807 0.679082
Si Si6 0.269036 0.557833 0.100639
Si Si7 0.133389 0.443408 0.601463
O O1 0.923082 0.306554 0.532142
O O2 0.910567 0.404226 0.416250
O O3 0.000000 0.356555 0.500000
O O4 0.892746 0.343647 0.004390
O O5 0.317102 0.329475 0.768687
O O6 0.218524 0.365054 0.362361
O O7 0.299759 0.415102 0.436724
O O8 0.282116 0.413107 0.880938
O O9 0.250000 0.750000 0.500000
O O10 0.146621 0.751673 0.363157
O O11 0.163342 0.746384 0.909956
O O12 0.170864 0.332701 0.608276
O O13 0.357767 0.078482 0.654299
O O14 0.285138 0.500000 0.131940
O O15 0.199268 0.558235 0.917131
O O16 0.113391 0.500000 0.545035
#
# Coordination Sequence:
#
# PCOD9192818 Si02
#       7
#     8   8   8   8   8   8   8
#     4  11  22  38  55  70  97 137 181 229 275 324
#     4  11  20  32  54  77 102 132 175 208 265 310
#     4  12  22  32  55  78 105 131 163 219 272 310
#     4  11  22  36  50  76 103 130 166 214 267 321
#     4  10  20  35  51  70 101 127 175 221 268 328
#     4  10  20  34  51  74 105 139 171 213 257 311
#     4   9  20  33  50  71  95 129 176 233 280 308
#
# _framework density 17.074327
#
# number of rings (size 3 to 8) (size 9 to 14) (size 15 to 20)
#    0.000    1.429    4.286    1.714    4.000    3.714 
#    0.000    0.714    0.000    0.000    0.000    0.000 
#    0.000    0.000    0.000    0.000    0.000   50.000 
#
# Total GULP energy -156000.402863 kJ/mol
# GULP energy per Si atom -5571.442959 kJ/mol
# Density = 1.703547 g / cm^3
# Si number density = 17.074327 Si / 1000 Ang^3
#
#
#
# Elastic Constant Matrix: (Units=GPa)
#
#
# Indices 1 2 3 4 5 6 
#
# 1 75.7087 60.5413 30.1461 0.0000 -16.6234 0.0000
# 2 60.5413 153.3574 37.7636 0.0000 -9.7241 0.0000
# 3 30.1461 37.7636 42.1321 0.0000 -20.2410 0.0000
# 4 0.0000 0.0000 0.0000 17.3976 0.0000 -5.5767
# 5 -16.6234 -9.7241 -20.2410 0.0000 21.5198 0.0000
# 6 0.0000 0.0000 0.0000 -5.5767 0.0000 25.9738
#
#
#
# Elastic Compliance Matrix: (Units=1/GPa)
#
#
# Indices 1 2 3 4 5 6 
#
# 1 0.023295 -0.007193 -0.005723 0.000000 0.009361 0.000000
# 2 -0.007193 0.011032 -0.009150 0.000000 -0.009178 0.000000
# 3 -0.005723 -0.009150 0.058237 0.000000 0.046220 0.000000
# 4 0.000000 0.000000 0.000000 0.061727 0.000000 0.013253
# 5 0.009361 -0.009178 0.046220 0.000000 0.093026 0.000000
# 6 0.000000 0.000000 0.000000 0.013253 0.000000 0.041346
#
#
# Mechanical properties :
#
#
# Convention : Reuss Voigt Hill
#
# Bulk Modulus (GPa) = 20.64863 58.67781 39.66322
# Shear Modulus (GPa) = 14.32913 22.49472 18.41192
#
# Velocity S-wave (km/s) = 2.90007 3.63362 3.28737
# Velocity P-wave (km/s) = 4.83048 7.21422 6.13916
#
# Compressibility (1/GPa) = 0.04842936
#
# Stress axis : x y z
#
# Youngs Moduli (GPa) = 42.92746 90.64767 17.17135
#
# Poissons Ratio (x) = 0.65206 0.09828
# Poissons Ratio (y) = 0.30879 0.15712
# Poissons Ratio (z) = 0.24568 0.82946
#
# Static dielectric constant tensor:
#      x y z
#    x 1.615290 0.000000 -0.059130 
#    y 0.000000 1.628290 0.000000 
#    z -0.059130 0.000000 1.608170 
# 
# From -- ./inp_files/22214.got.cif
#   From: 2010.05.17/outbox.cif.g08.bks.cpg/sg12_12_cif.got.tgz:22214.got - 2010.06.03 13:09:07.
