data_PCOD9192041
_publ_section_title
;
Structure prediction by ZEFSAII (Michael W. Deem and Ramdas Pophale) SiO2 
 PCOD9192041
Probable space group: C 2/M
;
_chemical_formula_sum "Si O2"
_cell_formula_units_Z 64
_cell_length_a 28.750100
_cell_length_b 16.081800
_cell_length_c 24.670360
_cell_angle_alpha 90.000000
_cell_angle_beta 164.739910
_cell_angle_gamma 90.000000
_cell_volume 3002.183438
_symmetry_space_group_name_H-M "C 2/M"
_symmetry_group_IT_number 12
_symmetry_cell_setting 'monoclinic'
loop_
_space_group_symop_operation_xyz
x,y,z
-x,y,-z
-x,-y,-z
x,-y,z
1/2+x,1/2+y,z
1/2-x,1/2+y,-z
1/2-x,1/2-y,-z
1/2+x,1/2-y,z
loop_
_atom_site_type_symbol
_atom_site_label
_atom_site_fract_x
_atom_site_fract_y
_atom_site_fract_z
Si Si1 0.313438 0.898848 0.148568
Si Si2 0.006838 0.598685 0.142651
Si Si3 0.831431 0.288828 0.760591
Si Si4 0.791146 0.096053 0.277949
Si Si5 0.449026 0.594535 0.771737
Si Si6 0.917803 0.128600 0.960732
Si Si7 0.939845 0.679942 0.486934
Si Si8 0.554149 0.898531 0.319164
O O1 0.409918 0.867255 0.311337
O O2 0.423632 0.871741 0.220055
O O3 0.309965 0.000000 0.146428
O O4 0.111477 0.867214 0.921288
O O5 0.049077 0.500000 0.187042
O O6 0.148941 0.653429 0.269687
O O7 0.995363 0.622549 0.192450
O O8 0.822208 0.612127 0.903776
O O9 0.799754 0.349949 0.776637
O O10 0.662429 0.230687 0.581495
O O11 0.995616 0.222603 0.940880
O O12 0.000000 0.103201 0.500000
O O13 0.761805 0.000000 0.260522
O O14 0.426732 0.500000 0.726487
O O15 0.254915 0.632952 0.552898
O O16 0.521423 0.592072 0.914497
O O17 0.712567 0.126668 0.714203
O O18 0.000000 0.088800 0.000000
O O19 0.000000 0.728692 0.500000
O O20 0.557420 0.000000 0.326891
#
# Coordination Sequence:
#
# PCOD9192041 Si02
#       8
#     8   8   8   8   8   8   8   8
#     4  10  21  38  60  84 116 155 198 249 294 335
#     4  10  20  38  62  86 113 148 192 233 283 351
#     4  11  22  36  57  84 116 158 184 230 293 350
#     4  10  20  36  59  90 119 143 182 237 291 348
#     4  10  20  37  59  82 114 154 198 247 290 337
#     4  10  20  33  52  81 113 150 192 232 288 350
#     4  11  20  33  54  82 116 150 190 236 290 347
#     4   9  19  37  60  85 114 152 194 241 292 338
#
# _framework density 21.317817999999999
#
# number of rings (size 3 to 8) (size 9 to 14) (size 15 to 20)
#    0.000    1.875    1.250    4.875    0.000    2.000 
#    2.250    2.500    0.000    1.500    0.000    0.000 
#    0.000    0.000    0.000    0.000    0.000    0.000 
#
# Total GULP energy -178224.959843 kJ/mol
# GULP energy per Si atom -5569.529995 kJ/mol
# Density = 2.126930 g / cm^3
# Si number density = 21.317818 Si / 1000 Ang^3
#
#
#
# Elastic Constant Matrix: (Units=GPa)
#
#
# Indices 1 2 3 4 5 6 
#
# 1 155.6602 12.6024 38.9034 -0.0051 8.3366 -0.0050
# 2 12.6024 40.2570 -5.9658 0.0010 -2.4546 -0.0037
# 3 38.9034 -5.9658 51.4190 -0.0161 11.0591 -0.0175
# 4 -0.0051 0.0010 -0.0161 3.2178 -0.0051 -2.0016
# 5 8.3366 -2.4546 11.0591 -0.0051 26.8454 -0.0207
# 6 -0.0050 -0.0037 -0.0175 -2.0016 -0.0207 -17.6041
#
#
#
# Elastic Compliance Matrix: (Units=1/GPa)
#
#
# Indices 1 2 3 4 5 6 
#
# 1 0.008417 -0.003646 -0.006756 -0.000015 -0.000164 0.000007
# 2 -0.003646 0.026890 0.005602 0.000008 0.001283 -0.000013
# 3 -0.006756 0.005602 0.027044 0.000093 -0.008531 -0.000027
# 4 -0.000015 0.000008 0.000093 0.290239 -0.000003 -0.033001
# 5 -0.000164 0.001283 -0.008531 -0.000003 0.040933 -0.000040
# 6 0.000007 -0.000013 -0.000027 -0.033001 -0.000040 -0.053053
#
#
# Mechanical properties :
#
#
# Convention : Reuss Voigt Hill
#
# Bulk Modulus (GPa) = 18.95636 37.60179 28.27908
# Shear Modulus (GPa) = 13.59978 15.94491 14.77234
#
# Velocity S-wave (km/s) = 2.52851 2.73786 2.63526
# Velocity P-wave (km/s) = 4.17565 5.26036 4.74908
#
# Compressibility (1/GPa) = 0.05275273
#
# Stress axis : x y z
#
# Youngs Moduli (GPa) = 118.81229 37.18818 36.97643
#
# Poissons Ratio (x) = 0.13559 0.24980
# Poissons Ratio (y) = 0.43319 -0.20716
# Poissons Ratio (z) = 0.80266 -0.20835
#
# Static dielectric constant tensor:
#      x y z
#    x 1.798140 -0.000010 0.065880 
#    y -0.000010 1.832950 0.000000 
#    z 0.065880 0.000000 1.846960 
# 
# From -- ./inp_files/326160.got.cif
#   From: 2010.05.17/outbox.cif.g08.bks.cpg/sg12_164_cif.got.tgz:326160.got - 2010.06.03 13:09:07.
