data_PCOD9192978
_publ_section_title
;
Structure prediction by ZEFSAII (Michael W. Deem and Ramdas Pophale) SiO2 
 PCOD9192978
Probable space group: C 2/M
;
_chemical_formula_sum "Si O2"
_cell_formula_units_Z 64
_cell_length_a 14.354967
_cell_length_b 9.346183
_cell_length_c 27.177902
_cell_angle_alpha 90.000000
_cell_angle_beta 77.795785
_cell_angle_gamma 90.000000
_cell_volume 3563.894959
_symmetry_space_group_name_H-M "C 2/M"
_symmetry_group_IT_number 12
_symmetry_cell_setting 'monoclinic'
loop_
_space_group_symop_operation_xyz
x,y,z
-x,y,-z
-x,-y,-z
x,-y,z
1/2+x,1/2+y,z
1/2-x,1/2+y,-z
1/2-x,1/2-y,-z
1/2+x,1/2-y,z
loop_
_atom_site_type_symbol
_atom_site_label
_atom_site_fract_x
_atom_site_fract_y
_atom_site_fract_z
Si Si1 0.622873 0.169104 0.890001
Si Si2 0.549327 0.328913 0.443632
Si Si3 0.396636 0.170482 0.712775
Si Si4 0.115919 0.163331 0.989750
Si Si5 0.783282 0.329115 0.625033
Si Si6 0.936483 0.171055 0.355928
Si Si7 0.103330 0.332320 0.088143
Si Si8 0.784553 0.329361 0.823629
O O1 0.646631 0.245918 0.939077
O O2 0.510280 0.191033 0.893693
O O3 0.687402 0.242506 0.841467
O O4 0.640799 0.000000 0.891103
O O5 0.500000 0.284747 0.500000
O O6 0.565025 0.500000 0.443626
O O7 0.648122 0.250242 0.420957
O O8 0.479798 0.299023 0.405175
O O9 0.326996 0.198868 0.674240
O O10 0.494583 0.251526 0.690423
O O11 0.344617 0.212071 0.768950
O O12 0.414266 0.000000 0.712507
O O13 0.150210 0.000000 0.982993
O O14 0.139597 0.237804 0.038663
O O15 0.000000 0.160729 0.000000
O O16 0.787503 0.500000 0.616066
O O17 0.673391 0.283964 0.634755
O O18 0.940704 0.000000 0.347652
O O19 0.116323 0.500000 0.074410
O O20 0.154272 0.302674 0.133903
O O21 0.765218 0.500000 0.823044
#
# Coordination Sequence:
#
# PCOD9192978 Si02
#       8
#     8   8   8   8   8   8   8   8
#     4  10  20  34  52  74  99 127 160 198 241 291
#     4   9  18  32  49  73 106 138 168 205 246 289
#     4   9  19  35  52  71  97 128 164 206 248 292
#     4   9  17  31  52  75  98 126 160 197 238 288
#     4   9  18  33  52  74 100 132 169 206 247 293
#     4   9  18  33  52  73  99 132 168 206 248 292
#     4   9  19  35  52  71  98 129 159 195 241 292
#     4  10  21  36  52  72  99 129 161 200 247 295
#
# _framework density 17.957879999999999
#
# number of rings (size 3 to 8) (size 9 to 14) (size 15 to 20)
#    0.000    2.750    0.000    0.750    0.000    5.750 
#    0.000    0.000    0.000    0.000    0.000    0.000 
#    0.000    0.000    0.000    0.000    0.000    0.000 
#
# Total GULP energy -178577.605155 kJ/mol
# GULP energy per Si atom -5580.550161 kJ/mol
# Density = 1.791701 g / cm^3
# Si number density = 17.957880 Si / 1000 Ang^3
#
#
#
# Elastic Constant Matrix: (Units=GPa)
#
#
# Indices 1 2 3 4 5 6 
#
# 1 104.4658 39.3795 46.1761 0.0000 -30.5159 0.0000
# 2 39.3795 40.6249 45.0106 0.0000 -14.1401 0.0000
# 3 46.1761 45.0106 120.3985 0.0000 -34.2968 0.0000
# 4 0.0000 0.0000 0.0000 31.4104 0.0000 -9.0876
# 5 -30.5159 -14.1401 -34.2968 0.0000 23.2770 0.0000
# 6 0.0000 0.0000 0.0000 -9.0876 0.0000 22.2525
#
#
#
# Elastic Compliance Matrix: (Units=1/GPa)
#
#
# Indices 1 2 3 4 5 6 
#
# 1 0.021359 -0.018429 0.006006 0.000000 0.025657 0.000000
# 2 -0.018429 0.058150 -0.019802 0.000000 -0.018013 0.000000
# 3 0.006006 -0.019802 0.021062 0.000000 0.026877 0.000000
# 4 0.000000 0.000000 0.000000 0.036102 0.000000 0.014743
# 5 0.025657 -0.018013 0.026877 0.000000 0.105255 0.000000
# 6 0.000000 0.000000 0.000000 0.014743 0.000000 0.050960
#
#
# Mechanical properties :
#
#
# Convention : Reuss Voigt Hill
#
# Bulk Modulus (GPa) = 27.68515 58.51348 43.09932
# Shear Modulus (GPa) = 13.53626 24.38286 18.95956
#
# Velocity S-wave (km/s) = 2.74848 3.68880 3.25280
# Velocity P-wave (km/s) = 5.05197 7.12724 6.17737
#
# Compressibility (1/GPa) = 0.03612045
#
# Stress axis : x y z
#
# Youngs Moduli (GPa) = 46.81809 17.19693 47.47997
#
# Poissons Ratio (x) = 0.31692 -0.28518
# Poissons Ratio (y) = 0.86281 0.94022
# Poissons Ratio (z) = -0.28120 0.34054
#
# Static dielectric constant tensor:
#      x y z
#    x 1.626150 0.000000 -0.002370 
#    y 0.000000 1.600650 0.000000 
#    z -0.002370 0.000000 1.588710 
# 
# From -- ./inp_files/359754.got.cif
#   From: 2010.05.17/outbox.cif.g08.bks.cpg/sg12_180_cif.got.tgz:359754.got - 2010.06.03 13:09:07.
