data_PCOD9192296
_publ_section_title
;
Structure prediction by ZEFSAII (Michael W. Deem and Ramdas Pophale) SiO2 
 PCOD9192296
Probable space group: C 2/M
;
_chemical_formula_sum "Si O2"
_cell_formula_units_Z 56
_cell_length_a 29.527828
_cell_length_b 15.446272
_cell_length_c 8.740669
_cell_angle_alpha 90.000000
_cell_angle_beta 128.562826
_cell_angle_gamma 90.000000
_cell_volume 3117.202398
_symmetry_space_group_name_H-M "C 2/M"
_symmetry_group_IT_number 12
_symmetry_cell_setting 'monoclinic'
loop_
_space_group_symop_operation_xyz
x,y,z
-x,y,-z
-x,-y,-z
x,-y,z
1/2+x,1/2+y,z
1/2-x,1/2+y,-z
1/2-x,1/2-y,-z
1/2+x,1/2-y,z
loop_
_atom_site_type_symbol
_atom_site_label
_atom_site_fract_x
_atom_site_fract_y
_atom_site_fract_z
Si Si1 0.542111 0.000000 0.824255
Si Si2 0.773756 0.595943 0.803276
Si Si3 0.270200 0.402790 0.635682
Si Si4 0.692516 0.301902 0.823531
Si Si5 0.149534 0.650885 0.528506
Si Si6 0.852659 0.765349 0.959325
Si Si7 0.912192 0.500000 0.422346
Si Si8 0.562175 0.173288 0.060260
O O1 0.473883 0.000000 0.639734
O O2 0.574378 0.000000 0.729069
O O3 0.556167 0.915899 0.953926
O O4 0.798211 0.500000 0.877214
O O5 0.747135 0.601645 0.578002
O O6 0.721525 0.613974 0.811091
O O7 0.821020 0.671919 0.911801
O O8 0.291864 0.500000 0.714607
O O9 0.211205 0.386321 0.604838
O O10 0.314227 0.327151 0.771418
O O11 0.661805 0.243171 0.631651
O O12 0.750000 0.250000 0.000000
O O13 0.650770 0.309005 0.881138
O O14 0.121948 0.584844 0.592508
O O15 0.108001 0.659707 0.294286
O O16 0.912743 0.744367 0.004052
O O17 0.500000 0.195351 0.000000
#
# Coordination Sequence:
#
# PCOD9192296 Si02
#       8
#     4   8   8   8   8   8   4   8
#     4  11  24  41  54  87 124 163 214 250 282 366
#     4  10  20  33  54  83 116 155 192 235 297 365
#     4  11  21  35  59  88 116 158 198 244 307 366
#     4  10  21  37  52  82 119 158 195 244 302 361
#     4  12  20  36  58  83 119 162 196 246 297 356
#     4  11  22  39  55  83 123 154 200 252 301 362
#     4  11  23  38  59  84 127 164 204 250 299 353
#     4  12  24  38  60  82 116 162 211 246 297 351
#
# _framework density 17.964827
#
# number of rings (size 3 to 8) (size 9 to 14) (size 15 to 20)
#    0.000    1.000    6.429    2.786    1.000    0.571 
#    5.143    0.000    0.000    0.429    0.000    0.000 
#    0.000    4.571    0.000    0.000    0.000    0.000 
#
# Total GULP energy -156439.981455 kJ/mol
# GULP energy per Si atom -5587.142195 kJ/mol
# Density = 1.792394 g / cm^3
# Si number density = 17.964827 Si / 1000 Ang^3
#
#
#
# Elastic Constant Matrix: (Units=GPa)
#
#
# Indices 1 2 3 4 5 6 
#
# 1 130.0091 20.6096 18.5205 0.0000 -3.9664 0.0000
# 2 20.6096 46.9237 7.7955 0.0000 9.5577 0.0000
# 3 18.5205 7.7955 58.9248 0.0000 2.6298 0.0000
# 4 0.0000 0.0000 0.0000 -20.0235 0.0000 -18.6200
# 5 -3.9664 9.5577 2.6298 0.0000 23.9691 0.0000
# 6 0.0000 0.0000 0.0000 -18.6200 0.0000 27.7871
#
#
#
# Elastic Compliance Matrix: (Units=1/GPa)
#
#
# Indices 1 2 3 4 5 6 
#
# 1 0.008790 -0.004155 -0.002364 0.000000 0.003370 0.000000
# 2 -0.004155 0.025584 -0.001601 0.000000 -0.010713 0.000000
# 3 -0.002364 -0.001601 0.018003 0.000000 -0.001728 0.000000
# 4 0.000000 0.000000 0.000000 -0.030769 0.000000 -0.020618
# 5 0.003370 -0.010713 -0.001728 0.000000 0.046740 0.000000
# 6 0.000000 0.000000 0.000000 -0.020618 0.000000 0.022172
#
#
# Mechanical properties :
#
#
# Convention : Reuss Voigt Hill
#
# Bulk Modulus (GPa) = 27.67100 36.63433 32.15266
# Shear Modulus (GPa) = 42.08635 18.94201 30.51418
#
# Velocity S-wave (km/s) = 4.84540 3.25067 4.12582
# Velocity P-wave (km/s) = 6.83668 5.87585 6.37440
#
# Compressibility (1/GPa) = 0.03613892
#
# Stress axis : x y z
#
# Youngs Moduli (GPa) = 113.76713 39.08686 55.54771
#
# Poissons Ratio (x) = 0.16239 0.13129
# Poissons Ratio (y) = 0.47265 0.08892
# Poissons Ratio (z) = 0.26889 0.06257
#
# Static dielectric constant tensor:
#      x y z
#    x 1.645550 0.000000 -0.027490 
#    y 0.000000 1.613050 0.000000 
#    z -0.027490 0.000000 1.616740 
# 
# From -- ./inp_files/111590.got.cif
#   From: 2010.05.17/outbox.cif.g08.bks.cpg/sg12_56_cif.got.tgz:111590.got - 2010.06.03 13:09:07.
