data_PCOD9192633
_publ_section_title
;
Structure prediction by ZEFSAII (Michael W. Deem and Ramdas Pophale) SiO2 
 PCOD9192633
Probable space group: C 2/M
;
_chemical_formula_sum "Si O2"
_cell_formula_units_Z 64
_cell_length_a 24.308184
_cell_length_b 9.115547
_cell_length_c 19.470636
_cell_angle_alpha 90.000000
_cell_angle_beta 109.132045
_cell_angle_gamma 90.000000
_cell_volume 4076.050258
_symmetry_space_group_name_H-M "C 2/M"
_symmetry_group_IT_number 12
_symmetry_cell_setting 'monoclinic'
loop_
_space_group_symop_operation_xyz
x,y,z
-x,y,-z
-x,-y,-z
x,-y,z
1/2+x,1/2+y,z
1/2-x,1/2+y,-z
1/2-x,1/2-y,-z
1/2+x,1/2-y,z
loop_
_atom_site_type_symbol
_atom_site_label
_atom_site_fract_x
_atom_site_fract_y
_atom_site_fract_z
Si Si1 0.311798 0.675645 0.363675
Si Si2 0.104388 0.674754 0.706602
Si Si3 0.134560 0.175188 0.466581
Si Si4 0.817979 0.324932 0.645291
Si Si5 0.447544 0.673435 0.189649
Si Si6 0.920774 0.826650 0.768425
Si Si7 0.504290 0.321857 0.079043
Si Si8 0.487134 0.172304 0.575702
O O1 0.316948 0.500000 0.357102
O O2 0.342430 0.755097 0.312984
O O3 0.344634 0.714818 0.448210
O O4 0.244099 0.712318 0.346590
O O5 0.109700 0.500000 0.709864
O O6 0.094485 0.737788 0.778518
O O7 0.045381 0.713009 0.640407
O O8 0.174690 0.249637 0.425682
O O9 0.069117 0.232860 0.429208
O O10 0.137024 0.000000 0.460420
O O11 0.821057 0.500000 0.638665
O O12 0.870891 0.266749 0.713453
O O13 0.434787 0.500000 0.188013
O O14 0.515487 0.692783 0.240571
O O15 0.452903 0.719635 0.111588
O O16 0.937057 0.785834 0.854057
O O17 0.906606 0.000000 0.759013
O O18 0.502912 0.500000 0.076267
O O19 0.500000 0.265974 0.000000
O O20 0.500000 0.188373 0.500000
O O21 0.474470 0.000000 0.584093
#
# Coordination Sequence:
#
# PCOD9192633 Si02
#       8
#     8   8   8   8   8   8   8   8
#     4  10  23  38  49  64  88 124 168 209 247 284
#     4  11  21  32  48  68  93 125 158 196 240 287
#     4  11  22  35  52  70  88 119 163 209 250 288
#     4  11  22  35  50  67  93 127 161 202 247 287
#     4   8  16  29  48  72 100 127 151 184 225 275
#     4   8  16  30  50  76 100 126 158 189 227 276
#     4   7  12  26  49  77 105 129 154 183 220 273
#     4  10  20  34  49  68  93 120 154 196 246 293
#
# _framework density 15.701473999999999
#
# number of rings (size 3 to 8) (size 9 to 14) (size 15 to 20)
#    0.750    1.750    1.250    2.250    0.000    5.250 
#    0.000    0.000    0.000    1.500    0.000    0.875 
#    0.000    0.000    0.000    0.000    0.000    0.000 
#
# Total GULP energy -178197.463939 kJ/mol
# GULP energy per Si atom -5568.670748 kJ/mol
# Density = 1.566574 g / cm^3
# Si number density = 15.701474 Si / 1000 Ang^3
#
#
#
# Elastic Constant Matrix: (Units=GPa)
#
#
# Indices 1 2 3 4 5 6 
#
# 1 86.7362 41.8773 34.7566 0.0000 -25.1791 0.0000
# 2 41.8773 33.9930 22.5302 0.0000 -12.9382 0.0000
# 3 34.7566 22.5302 78.0782 0.0000 -28.4637 0.0000
# 4 0.0000 0.0000 0.0000 9.3609 0.0000 -1.8842
# 5 -25.1791 -12.9382 -28.4637 0.0000 20.4813 0.0000
# 6 0.0000 0.0000 0.0000 -1.8842 0.0000 25.3767
#
#
#
# Elastic Compliance Matrix: (Units=1/GPa)
#
#
# Indices 1 2 3 4 5 6 
#
# 1 0.034431 -0.035407 0.004392 0.000000 0.026066 0.000000
# 2 -0.035407 0.075964 -0.009188 0.000000 -0.008311 0.000000
# 3 0.004392 -0.009188 0.027072 0.000000 0.037218 0.000000
# 4 0.000000 0.000000 0.000000 0.108448 0.000000 0.008052
# 5 0.026066 -0.008311 0.037218 0.000000 0.127343 0.000000
# 6 0.000000 0.000000 0.000000 0.008052 0.000000 0.040004
#
#
# Mechanical properties :
#
#
# Convention : Reuss Voigt Hill
#
# Bulk Modulus (GPa) = 17.52520 44.12616 30.82568
# Shear Modulus (GPa) = 9.75253 17.68667 13.71960
#
# Velocity S-wave (km/s) = 2.49494 3.35988 2.95918
# Velocity P-wave (km/s) = 4.41422 6.57388 5.59916
#
# Compressibility (1/GPa) = 0.05706070
#
# Stress axis : x y z
#
# Youngs Moduli (GPa) = 29.04386 13.16419 36.93878
#
# Poissons Ratio (x) = 0.46610 -0.16225
# Poissons Ratio (y) = 1.02835 0.33941
# Poissons Ratio (z) = -0.12757 0.12096
#
# Static dielectric constant tensor:
#      x y z
#    x 1.513330 0.000000 -0.009470 
#    y 0.000000 1.516670 0.000000 
#    z -0.009470 0.000000 1.542470 
# 
# From -- ./inp_files/323399.got.cif
#   From: 2010.05.17/outbox.cif.g08.bks.cpg/sg12_162_cif.got.tgz:323399.got - 2010.06.03 13:09:07.
