data_PCOD9192051
_publ_section_title
;
Structure prediction by ZEFSAII (Michael W. Deem and Ramdas Pophale) SiO2 
 PCOD9192051
Probable space group: C 2/M
;
_chemical_formula_sum "Si O2"
_cell_formula_units_Z 48
_cell_length_a 28.129894
_cell_length_b 8.674900
_cell_length_c 11.279411
_cell_angle_alpha 90.000000
_cell_angle_beta 59.510966
_cell_angle_gamma 90.000000
_cell_volume 2371.856086
_symmetry_space_group_name_H-M "C 2/M"
_symmetry_group_IT_number 12
_symmetry_cell_setting 'monoclinic'
loop_
_space_group_symop_operation_xyz
x,y,z
-x,y,-z
-x,-y,-z
x,-y,z
1/2+x,1/2+y,z
1/2-x,1/2+y,-z
1/2-x,1/2-y,-z
1/2+x,1/2-y,z
loop_
_atom_site_type_symbol
_atom_site_label
_atom_site_fract_x
_atom_site_fract_y
_atom_site_fract_z
Si Si1 0.178147 0.185609 0.842528
Si Si2 0.216573 0.315721 0.430301
Si Si3 0.477184 0.185743 0.342285
Si Si4 0.615323 0.316402 0.680622
Si Si5 0.583926 0.187605 0.338366
Si Si6 0.311160 0.817021 0.923792
O O1 0.242472 0.221570 0.729548
O O2 0.140920 0.229918 0.775849
O O3 0.174292 0.000000 0.862286
O O4 0.163611 0.272259 0.980589
O O5 0.212809 0.500000 0.440355
O O6 0.250000 0.250000 0.500000
O O7 0.156183 0.248557 0.526860
O O8 0.445537 0.256383 0.271064
O O9 0.540053 0.230706 0.291248
O O10 0.442928 0.234731 0.503372
O O11 0.474872 0.000000 0.337478
O O12 0.617188 0.500000 0.674015
O O13 0.645337 0.240912 0.229724
O O14 0.585212 0.000000 0.339855
O O15 0.306756 0.000000 0.916564
O O16 0.250000 0.750000 0.000000
#
# Coordination Sequence:
#
# PCOD9192051 Si02
#       6
#     8   8   8   8   8   8
#     4   9  20  37  52  73 110 149 183 221 266 323
#     4   9  17  30  49  73 105 142 179 222 267 315
#     4   9  17  35  62  83 104 141 184 227 277 326
#     4  10  20  33  52  82 114 141 179 228 278 328
#     4   8  18  37  58  81 108 141 184 228 271 326
#     4  11  23  38  57  81 111 146 184 224 270 329
#
# _framework density 20.237317000000001
#
# number of rings (size 3 to 8) (size 9 to 14) (size 15 to 20)
#    0.000    2.667    0.000    3.500    2.333    4.000 
#    0.000    5.000    0.000    5.000    0.000    0.000 
#    0.000    0.000    0.000    0.000    0.000    0.000 
#
# Total GULP energy -133831.821067 kJ/mol
# GULP energy per Si atom -5576.325878 kJ/mol
# Density = 2.019126 g / cm^3
# Si number density = 20.237317 Si / 1000 Ang^3
#
#
#
# Elastic Constant Matrix: (Units=GPa)
#
#
# Indices 1 2 3 4 5 6 
#
# 1 116.5529 12.4743 15.6668 0.0000 -9.7903 0.0000
# 2 12.4743 19.1821 10.8402 0.0000 -2.1366 0.0000
# 3 15.6668 10.8402 60.8441 0.0000 -11.0169 0.0000
# 4 0.0000 0.0000 0.0000 16.4359 0.0000 0.1984
# 5 -9.7903 -2.1366 -11.0169 0.0000 24.8829 0.0000
# 6 0.0000 0.0000 0.0000 0.1984 0.0000 28.9539
#
#
#
# Elastic Compliance Matrix: (Units=1/GPa)
#
#
# Indices 1 2 3 4 5 6 
#
# 1 0.009521 -0.005316 -0.000988 0.000000 0.002852 0.000000
# 2 -0.005316 0.060941 -0.009697 0.000000 -0.001152 0.000000
# 3 -0.000988 -0.009697 0.019782 0.000000 0.007537 0.000000
# 4 0.000000 0.000000 0.000000 0.060848 0.000000 -0.000417
# 5 0.002852 -0.001152 0.007537 0.000000 0.044549 0.000000
# 6 0.000000 0.000000 0.000000 -0.000417 0.000000 0.034540
#
#
# Mechanical properties :
#
#
# Convention : Reuss Voigt Hill
#
# Bulk Modulus (GPa) = 17.16970 30.50461 23.83715
# Shear Modulus (GPa) = 17.75589 24.56106 21.15847
#
# Velocity S-wave (km/s) = 2.96528 3.48753 3.23695
# Velocity P-wave (km/s) = 4.49738 5.59672 5.07690
#
# Compressibility (1/GPa) = 0.05824213
#
# Stress axis : x y z
#
# Youngs Moduli (GPa) = 105.02984 16.40941 50.55015
#
# Poissons Ratio (x) = 0.08723 0.04995
# Poissons Ratio (y) = 0.55829 0.49020
# Poissons Ratio (z) = 0.10378 0.15913
#
# Static dielectric constant tensor:
#      x y z
#    x 1.757150 0.000000 -0.002500 
#    y 0.000000 1.678530 0.000000 
#    z -0.002500 0.000000 1.742360 
# 
# From -- ./inp_files/179741.got.cif
#   From: 2010.05.17/outbox.cif.g08.bks.cpg/sg12_90_cif.got.tgz:179741.got - 2010.06.03 13:09:07.
