data_PCOD9192093
_publ_section_title
;
Structure prediction by ZEFSAII (Michael W. Deem and Ramdas Pophale) SiO2 
 PCOD9192093
Probable space group: C 2/M
;
_chemical_formula_sum "Si O2"
_cell_formula_units_Z 56
_cell_length_a 19.194976
_cell_length_b 9.105260
_cell_length_c 22.020660
_cell_angle_alpha 90.000000
_cell_angle_beta 123.956960
_cell_angle_gamma 90.000000
_cell_volume 3192.304733
_symmetry_space_group_name_H-M "C 2/M"
_symmetry_group_IT_number 12
_symmetry_cell_setting 'monoclinic'
loop_
_space_group_symop_operation_xyz
x,y,z
-x,y,-z
-x,-y,-z
x,-y,z
1/2+x,1/2+y,z
1/2-x,1/2+y,-z
1/2-x,1/2-y,-z
1/2+x,1/2-y,z
loop_
_atom_site_type_symbol
_atom_site_label
_atom_site_fract_x
_atom_site_fract_y
_atom_site_fract_z
Si Si1 0.477376 0.832010 0.418200
Si Si2 0.174291 0.323495 0.001571
Si Si3 0.733747 0.173141 0.393577
Si Si4 0.874789 0.828832 0.561968
Si Si5 0.498410 0.670001 0.925457
Si Si6 0.780658 0.671432 0.295433
Si Si7 0.175063 0.674489 0.146714
O O1 0.500000 0.813178 0.500000
O O2 0.531335 0.715988 0.407507
O O3 0.379500 0.815074 0.357235
O O4 0.502197 0.000000 0.414308
O O5 0.172730 0.500000 0.990980
O O6 0.185748 0.297156 0.079759
O O7 0.250000 0.250000 0.000000
O O8 0.082490 0.252216 0.943444
O O9 0.818030 0.201590 0.474463
O O10 0.660485 0.230305 0.401261
O O11 0.735911 0.260470 0.332322
O O12 0.728239 0.000000 0.379708
O O13 0.864527 0.000000 0.571499
O O14 0.497532 0.500000 0.904991
O O15 0.410930 0.752326 0.870065
O O16 0.500000 0.670335 0.000000
O O17 0.760375 0.500000 0.278866
O O18 0.750888 0.757617 0.221741
O O19 0.169747 0.500000 0.152122
#
# Coordination Sequence:
#
# PCOD9192093 Si02
#       7
#     8   8   8   8   8   8   8
#     4  10  20  35  54  77 107 143 184 233 284 336
#     4  10  20  35  58  87 117 149 185 227 273 325
#     4  10  20  34  53  76 104 137 175 223 277 330
#     4  10  20  33  53  78 103 133 177 229 276 328
#     4   9  17  32  56  83 110 142 182 223 263 317
#     4  11  22  36  56  80 109 145 185 229 280 334
#     4  10  21  37  56  81 114 148 183 226 276 328
#
# _framework density 17.542185
#
# number of rings (size 3 to 8) (size 9 to 14) (size 15 to 20)
#    0.000    2.000    1.429    2.571    0.000    6.000 
#    0.000    1.429    0.000    3.429    0.000    0.000 
#    0.000    0.000    0.000    0.000    0.000    0.000 
#
# Total GULP energy -156214.498809 kJ/mol
# GULP energy per Si atom -5579.089243 kJ/mol
# Density = 1.750226 g / cm^3
# Si number density = 17.542185 Si / 1000 Ang^3
#
#
#
# Elastic Constant Matrix: (Units=GPa)
#
#
# Indices 1 2 3 4 5 6 
#
# 1 89.9280 58.3056 24.1752 0.0000 3.0045 0.0000
# 2 58.3056 88.5161 44.4432 0.0000 1.3223 0.0000
# 3 24.1752 44.4432 65.4256 0.0000 6.6208 0.0000
# 4 0.0000 0.0000 0.0000 27.8877 0.0000 1.9558
# 5 3.0045 1.3223 6.6208 0.0000 16.1290 0.0000
# 6 0.0000 0.0000 0.0000 1.9558 0.0000 34.8902
#
#
#
# Elastic Compliance Matrix: (Units=1/GPa)
#
#
# Indices 1 2 3 4 5 6 
#
# 1 0.019844 -0.014451 0.002856 0.000000 -0.003685 0.000000
# 2 -0.014451 0.027862 -0.014219 0.000000 0.006244 0.000000
# 3 0.002856 -0.014219 0.024856 0.000000 -0.009570 0.000000
# 4 0.000000 0.000000 0.000000 0.036000 0.000000 -0.002018
# 5 -0.003685 0.006244 -0.009570 0.000000 0.066103 0.000000
# 6 0.000000 0.000000 0.000000 -0.002018 0.000000 0.028774
#
#
# Mechanical properties :
#
#
# Convention : Reuss Voigt Hill
#
# Bulk Modulus (GPa) = 47.76320 55.30195 51.53257
# Shear Modulus (GPa) = 19.08076 23.57775 21.32925
#
# Velocity S-wave (km/s) = 3.30162 3.67012 3.49074
# Velocity P-wave (km/s) = 6.46691 7.03941 6.75922
#
# Compressibility (1/GPa) = 0.02093662
#
# Stress axis : x y z
#
# Youngs Moduli (GPa) = 50.39194 35.89140 40.23159
#
# Poissons Ratio (x) = 0.51866 -0.11492
# Poissons Ratio (y) = 0.72820 0.57204
# Poissons Ratio (z) = -0.14394 0.51033
#
# Static dielectric constant tensor:
#      x y z
#    x 1.578400 0.000000 0.009920 
#    y 0.000000 1.589590 0.000000 
#    z 0.009920 0.000000 1.595560 
# 
# From -- ./inp_files/313727.got.cif
#   From: 2010.05.17/outbox.cif.g08.bks.cpg/sg12_157_cif.got.tgz:313727.got - 2010.06.03 13:09:07.
