data_PCOD9192531
_publ_section_title
;
Structure prediction by ZEFSAII (Michael W. Deem and Ramdas Pophale) SiO2 
 PCOD9192531
Probable space group: C 2/M
;
_chemical_formula_sum "Si O2"
_cell_formula_units_Z 56
_cell_length_a 25.317055
_cell_length_b 12.643716
_cell_length_c 8.510168
_cell_angle_alpha 90.000000
_cell_angle_beta 75.440759
_cell_angle_gamma 90.000000
_cell_volume 2636.642603
_symmetry_space_group_name_H-M "C 2/M"
_symmetry_group_IT_number 12
_symmetry_cell_setting 'monoclinic'
loop_
_space_group_symop_operation_xyz
x,y,z
-x,y,-z
-x,-y,-z
x,-y,z
1/2+x,1/2+y,z
1/2-x,1/2+y,-z
1/2-x,1/2-y,-z
1/2+x,1/2-y,z
loop_
_atom_site_type_symbol
_atom_site_label
_atom_site_fract_x
_atom_site_fract_y
_atom_site_fract_z
Si Si1 0.464459 0.755100 0.663138
Si Si2 0.785453 0.123036 0.063881
Si Si3 0.741755 0.682386 0.257946
Si Si4 0.396579 0.242945 0.996085
Si Si5 0.549445 0.618802 0.798613
Si Si6 0.646838 0.878775 0.674839
Si Si7 0.874906 0.182977 0.511635
O O1 0.500000 0.812215 0.500000
O O2 0.509282 0.690418 0.726625
O O3 0.422206 0.677094 0.605897
O O4 0.425543 0.807872 0.822892
O O5 0.751568 0.192426 0.215595
O O6 0.841699 0.190061 0.001004
O O7 0.794098 0.000000 0.097871
O O8 0.755463 0.130592 0.917532
O O9 0.789758 0.642750 0.333770
O O10 0.683460 0.656091 0.374761
O O11 0.437009 0.327611 0.046563
O O12 0.383110 0.160061 0.143393
O O13 0.529949 0.500000 0.824123
O O14 0.606196 0.620715 0.656726
O O15 0.628522 0.803708 0.547201
O O16 0.636418 0.000000 0.650583
#
# Coordination Sequence:
#
# PCOD9192531 Si02
#       7
#     8   8   8   8   8   8   8
#     4  10  21  38  59  83 116 152 186 237 294 347
#     4  10  20  33  57  89 122 158 196 233 287 353
#     4  10  20  37  55  86 124 157 195 243 288 336
#     4  10  20  39  61  85 123 153 190 242 293 346
#     4  10  22  37  59  90 120 155 194 230 289 362
#     4  10  22  39  61  86 113 156 203 243 293 349
#     4  10  21  39  58  83 122 157 190 245 291 338
#
# _framework density 21.239132000000001
#
# number of rings (size 3 to 8) (size 9 to 14) (size 15 to 20)
#    0.000    2.000    1.429    1.714    0.000    6.000 
#    0.000    0.714    0.000   26.571    0.000    0.000 
#    0.000    0.000    0.000    0.000    0.000    0.000 
#
# Total GULP energy -156251.705525 kJ/mol
# GULP energy per Si atom -5580.418054 kJ/mol
# Density = 2.119079 g / cm^3
# Si number density = 21.239132 Si / 1000 Ang^3
#
#
#
# Elastic Constant Matrix: (Units=GPa)
#
#
# Indices 1 2 3 4 5 6 
#
# 1 73.9629 -14.5614 0.7636 0.0000 -1.1743 0.0000
# 2 -14.5614 63.3027 -27.5180 0.0000 9.1000 0.0000
# 3 0.7636 -27.5180 77.8853 0.0000 -21.6229 0.0000
# 4 0.0000 0.0000 0.0000 0.4904 0.0000 1.6779
# 5 -1.1743 9.1000 -21.6229 0.0000 40.9086 0.0000
# 6 0.0000 0.0000 0.0000 1.6779 0.0000 7.1541
#
#
#
# Elastic Compliance Matrix: (Units=1/GPa)
#
#
# Indices 1 2 3 4 5 6 
#
# 1 0.014258 0.003797 0.001267 0.000000 0.000234 0.000000
# 2 0.003797 0.019696 0.006722 0.000000 -0.000719 0.000000
# 3 0.001267 0.006722 0.017342 0.000000 0.007707 0.000000
# 4 0.000000 0.000000 0.000000 10.323717 0.000000 -2.421236
# 5 0.000234 -0.000719 0.007707 0.000000 0.028685 0.000000
# 6 0.000000 0.000000 0.000000 -2.421236 0.000000 0.707636
#
#
# Mechanical properties :
#
#
# Convention : Reuss Voigt Hill
#
# Bulk Modulus (GPa) = 13.35701 14.72436 14.04069
# Shear Modulus (GPa) = 0.44993 26.80840 13.62917
#
# Velocity S-wave (km/s) = 0.46076 3.55662 2.53593
# Velocity P-wave (km/s) = 2.56624 4.87994 3.89868
#
# Compressibility (1/GPa) = 0.07486703
#
# Stress axis : x y z
#
# Youngs Moduli (GPa) = 70.13398 50.77182 57.66455
#
# Poissons Ratio (x) = -0.19277 -0.07304
# Poissons Ratio (y) = -0.26629 -0.38762
# Poissons Ratio (z) = -0.08884 -0.34129
#
# Static dielectric constant tensor:
#      x y z
#    x 1.795400 0.000000 -0.045810 
#    y 0.000000 1.727980 0.000000 
#    z -0.045810 0.000000 1.815890 
# 
# From -- ./inp_files/103142.got.cif
#   From: 2010.05.17/outbox.cif.g08.bks.cpg/sg12_52_cif.got.tgz:103142.got - 2010.06.03 13:09:07.
