data_PCOD9192117
_publ_section_title
;
Structure prediction by ZEFSAII (Michael W. Deem and Ramdas Pophale) SiO2 
 PCOD9192117
Probable space group: C 2/M
;
_chemical_formula_sum "Si O2"
_cell_formula_units_Z 36
_cell_length_a 24.530029
_cell_length_b 13.085862
_cell_length_c 6.683631
_cell_angle_alpha 90.000000
_cell_angle_beta 115.878381
_cell_angle_gamma 90.000000
_cell_volume 1930.285100
_symmetry_space_group_name_H-M "C 2/M"
_symmetry_group_IT_number 12
_symmetry_cell_setting 'monoclinic'
loop_
_space_group_symop_operation_xyz
x,y,z
-x,y,-z
-x,-y,-z
x,-y,z
1/2+x,1/2+y,z
1/2-x,1/2+y,-z
1/2-x,1/2-y,-z
1/2+x,1/2-y,z
loop_
_atom_site_type_symbol
_atom_site_label
_atom_site_fract_x
_atom_site_fract_y
_atom_site_fract_z
Si Si1 0.963134 0.887852 0.737446
Si Si2 0.629991 0.884296 0.676306
Si Si3 0.500000 0.212659 0.500000
Si Si4 0.668464 0.299615 0.441148
Si Si5 0.280858 0.807709 0.862973
O O1 0.892265 0.865058 0.656378
O O2 0.990509 0.791771 0.665231
O O3 0.968482 0.000000 0.648834
O O4 0.000000 0.892428 0.000000
O O5 0.560725 0.853646 0.612294
O O6 0.654082 0.802870 0.549783
O O7 0.634051 0.000000 0.607343
O O8 0.669176 0.874597 0.943083
O O9 0.687426 0.266682 0.248190
O O10 0.725130 0.353128 0.644391
O O11 0.250000 0.750000 0.000000
#
# Coordination Sequence:
#
# PCOD9192117 Si02
#       5
#     8   8   4   8   8
#     4  10  20  34  54  78 102 133 173 215 262 314
#     4  10  20  33  53  79 106 140 177 211 254 311
#     4  10  20  36  54  74 106 138 170 216 262 306
#     4   9  19  35  53  77 109 138 170 217 264 306
#     4   9  18  35  55  74 103 139 173 212 260 307
#
# _framework density 18.650095
#
# number of rings (size 3 to 8) (size 9 to 14) (size 15 to 20)
#    0.000    2.444    0.000    2.000    0.000    1.778 
#    0.000    8.889    0.000    8.667    0.000    0.000 
#    0.000    0.000    0.000    0.000    0.000    0.000 
#
# Total GULP energy -100240.423975 kJ/mol
# GULP energy per Si atom -5568.912443 kJ/mol
# Density = 1.860765 g / cm^3
# Si number density = 18.650095 Si / 1000 Ang^3
#
#
#
# Elastic Constant Matrix: (Units=GPa)
#
#
# Indices 1 2 3 4 5 6 
#
# 1 90.1609 25.5175 50.8780 0.0000 6.1423 0.0000
# 2 25.5175 78.2703 37.8348 0.0000 19.2760 0.0000
# 3 50.8780 37.8348 95.2442 0.0000 4.7940 0.0000
# 4 0.0000 0.0000 0.0000 -78.7702 0.0000 -122.4863
# 5 6.1423 19.2760 4.7940 0.0000 33.1997 0.0000
# 6 0.0000 0.0000 0.0000 -122.4863 0.0000 -143.0773
#
#
#
# Elastic Compliance Matrix: (Units=1/GPa)
#
#
# Indices 1 2 3 4 5 6 
#
# 1 0.016031 -0.001013 -0.008100 0.000000 -0.001208 0.000000
# 2 -0.001013 0.018554 -0.006342 0.000000 -0.009669 0.000000
# 3 -0.008100 -0.006342 0.017210 0.000000 0.002696 0.000000
# 4 0.000000 0.000000 0.000000 0.038331 0.000000 -0.032815
# 5 -0.001208 -0.009669 0.002696 0.000000 0.035569 0.000000
# 6 0.000000 0.000000 0.000000 -0.032815 0.000000 0.021103
#
#
# Mechanical properties :
#
#
# Convention : Reuss Voigt Hill
#
# Bulk Modulus (GPa) = 47.88549 54.68176 51.28363
# Shear Modulus (GPa) = 27.07518 -27.76654 -0.34568
#
# Velocity S-wave (km/s) = 3.81431 -3.86270 -0.43099
# Velocity P-wave (km/s) = 6.71789 3.08051 5.22588
#
# Compressibility (1/GPa) = 0.02088315
#
# Stress axis : x y z
#
# Youngs Moduli (GPa) = 62.37733 53.89787 58.10544
#
# Poissons Ratio (x) = 0.05462 0.47068
# Poissons Ratio (y) = 0.06322 0.36851
# Poissons Ratio (z) = 0.50528 0.34183
#
# Static dielectric constant tensor:
#      x y z
#    x 1.658590 0.000000 0.003020 
#    y 0.000000 1.626040 0.000000 
#    z 0.003020 0.000000 1.643420 
# 
# From -- ./inp_files/19716.got.cif
#   From: 2010.05.17/outbox.cif.g08.bks.cpg/sg12_10_cif.got.tgz:19716.got - 2010.06.03 13:09:07.
