data_PCOD9192934
_publ_section_title
;
Structure prediction by ZEFSAII (Michael W. Deem and Ramdas Pophale) SiO2 
 PCOD9192934
Probable space group: C 2/M
;
_chemical_formula_sum "Si O2"
_cell_formula_units_Z 48
_cell_length_a 14.339164
_cell_length_b 9.350185
_cell_length_c 19.409491
_cell_angle_alpha 90.000000
_cell_angle_beta 87.526001
_cell_angle_gamma 90.000000
_cell_volume 2599.879342
_symmetry_space_group_name_H-M "C 2/M"
_symmetry_group_IT_number 12
_symmetry_cell_setting 'monoclinic'
loop_
_space_group_symop_operation_xyz
x,y,z
-x,y,-z
-x,-y,-z
x,-y,z
1/2+x,1/2+y,z
1/2-x,1/2+y,-z
1/2-x,1/2-y,-z
1/2+x,1/2-y,z
loop_
_atom_site_type_symbol
_atom_site_label
_atom_site_fract_x
_atom_site_fract_y
_atom_site_fract_z
Si Si1 0.300295 0.670494 0.258371
Si Si2 0.888905 0.163261 0.485899
Si Si3 0.760306 0.670462 0.893109
Si Si4 0.645818 0.832487 0.379428
Si Si5 0.605109 0.329173 0.013769
Si Si6 0.570073 0.831002 0.650688
O O1 0.320170 0.500000 0.257461
O O2 0.265985 0.711916 0.183601
O O3 0.218774 0.696815 0.316690
O O4 0.388870 0.757645 0.282741
O O5 0.841667 0.237715 0.552892
O O6 0.882571 0.253999 0.416484
O O7 0.000000 0.160650 0.500000
O O8 0.857840 0.000000 0.476623
O O9 0.777569 0.500000 0.893429
O O10 0.848330 0.751252 0.922818
O O11 0.672867 0.699302 0.946577
O O12 0.540857 0.809243 0.354461
O O13 0.652163 0.000000 0.398423
O O14 0.604540 0.500000 0.025631
O O15 0.500000 0.283403 0.000000
O O16 0.588689 0.000000 0.649139
#
# Coordination Sequence:
#
# PCOD9192934 Si02
#       6
#     8   8   8   8   8   8
#     4  10  21  36  52  73 104 138 169 205 252 303
#     4   9  17  31  52  75  98 128 170 217 258 299
#     4   9  19  35  53  76 106 136 168 206 246 295
#     4   9  19  35  52  71  99 134 170 211 258 304
#     4   9  18  34  56  80 105 134 167 204 248 295
#     4  10  20  34  52  74 100 132 171 213 257 303
#
# _framework density 18.462395000000001
#
# number of rings (size 3 to 8) (size 9 to 14) (size 15 to 20)
#    0.000    2.667    0.000    1.000    0.000    6.333 
#    0.000    0.000    0.000    0.000    0.000    0.000 
#    0.000    0.000    0.000    0.000    0.000    0.000 
#
# Total GULP energy -133989.193455 kJ/mol
# GULP energy per Si atom -5582.883061 kJ/mol
# Density = 1.842037 g / cm^3
# Si number density = 18.462395 Si / 1000 Ang^3
#
#
#
# Elastic Constant Matrix: (Units=GPa)
#
#
# Indices 1 2 3 4 5 6 
#
# 1 92.7896 37.3244 38.3591 0.0000 26.3165 0.0000
# 2 37.3244 48.8120 42.9717 0.0000 15.0094 0.0000
# 3 38.3591 42.9717 104.6011 0.0000 34.6480 0.0000
# 4 0.0000 0.0000 0.0000 32.0153 0.0000 8.4970
# 5 26.3165 15.0094 34.6480 0.0000 26.2665 0.0000
# 6 0.0000 0.0000 0.0000 8.4970 0.0000 21.5794
#
#
#
# Elastic Compliance Matrix: (Units=1/GPa)
#
#
# Indices 1 2 3 4 5 6 
#
# 1 0.019148 -0.012831 0.003863 0.000000 -0.016949 0.000000
# 2 -0.012831 0.040734 -0.015233 0.000000 0.009672 0.000000
# 3 0.003863 -0.015233 0.022733 0.000000 -0.025153 0.000000
# 4 0.000000 0.000000 0.000000 0.034880 0.000000 -0.013734
# 5 -0.016949 0.009672 -0.025153 0.000000 0.082705 0.000000
# 6 0.000000 0.000000 0.000000 -0.013734 0.000000 0.051749
#
#
# Mechanical properties :
#
#
# Convention : Reuss Voigt Hill
#
# Bulk Modulus (GPa) = 29.22761 53.72368 41.47564
# Shear Modulus (GPa) = 16.03825 24.47541 20.25683
#
# Velocity S-wave (km/s) = 2.95057 3.64495 3.31599
# Velocity P-wave (km/s) = 5.24147 6.84663 6.09711
#
# Compressibility (1/GPa) = 0.03421423
#
# Stress axis : x y z
#
# Youngs Moduli (GPa) = 52.22421 24.54943 43.98906
#
# Poissons Ratio (x) = 0.31500 -0.16995
# Poissons Ratio (y) = 0.67010 0.67007
# Poissons Ratio (z) = -0.20176 0.37395
#
# Static dielectric constant tensor:
#      x y z
#    x 1.658470 0.000000 0.006850 
#    y 0.000000 1.619350 0.000000 
#    z 0.006850 0.000000 1.606750 
# 
# From -- ./inp_files/267624.got.cif
#   From: 2010.05.17/outbox.cif.g08.bks.cpg/sg12_134_cif.got.tgz:267624.got - 2010.06.03 13:09:07.
