data_PCOD9192278
_publ_section_title
;
Structure prediction by ZEFSAII (Michael W. Deem and Ramdas Pophale) SiO2 
 PCOD9192278
Probable space group: C 2/M
;
_chemical_formula_sum "Si O2"
_cell_formula_units_Z 56
_cell_length_a 26.179390
_cell_length_b 9.503357
_cell_length_c 15.802853
_cell_angle_alpha 90.000000
_cell_angle_beta 53.520628
_cell_angle_gamma 90.000000
_cell_volume 3161.305340
_symmetry_space_group_name_H-M "C 2/M"
_symmetry_group_IT_number 12
_symmetry_cell_setting 'monoclinic'
loop_
_space_group_symop_operation_xyz
x,y,z
-x,y,-z
-x,-y,-z
x,-y,z
1/2+x,1/2+y,z
1/2-x,1/2+y,-z
1/2-x,1/2-y,-z
1/2+x,1/2-y,z
loop_
_atom_site_type_symbol
_atom_site_label
_atom_site_fract_x
_atom_site_fract_y
_atom_site_fract_z
Si Si1 0.604213 0.334252 0.380360
Si Si2 0.493358 0.334608 0.367349
Si Si3 0.266813 0.162366 0.733339
Si Si4 0.406937 0.835264 0.977320
Si Si5 0.540784 0.167787 0.766608
Si Si6 0.705579 0.337713 0.981234
Si Si7 0.847907 0.666916 0.220753
O O1 0.620396 0.500000 0.355711
O O2 0.560842 0.292848 0.342523
O O3 0.558717 0.320428 0.506876
O O4 0.666455 0.241965 0.329644
O O5 0.497281 0.500000 0.342045
O O6 0.473403 0.245989 0.306353
O O7 0.237969 0.164847 0.856653
O O8 0.216061 0.244123 0.725355
O O9 0.273864 0.000000 0.700696
O O10 0.362193 0.737575 0.964147
O O11 0.386908 0.814769 0.094483
O O12 0.394730 0.000000 0.969049
O O13 0.480581 0.806685 0.887302
O O14 0.605773 0.210498 0.748852
O O15 0.543975 0.000000 0.749406
O O16 0.699138 0.500000 0.014781
O O17 0.750000 0.250000 0.000000
O O18 0.833849 0.500000 0.241930
#
# Coordination Sequence:
#
# PCOD9192278 Si02
#       7
#     8   8   8   8   8   8   8
#     4   9  19  38  59  77 103 139 176 212 263 327
#     4   9  20  37  56  80 106 135 174 218 263 318
#     4  10  21  35  54  79 105 135 175 222 266 305
#     4   9  18  33  52  75 106 142 178 214 255 305
#     4  10  20  33  54  82 109 137 177 222 262 307
#     4  10  21  34  48  73 108 140 175 215 256 308
#     4   9  18  35  55  76 106 146 181 210 255 316
#
# _framework density 17.714200999999999
#
# number of rings (size 3 to 8) (size 9 to 14) (size 15 to 20)
#    0.000    2.571    0.000    2.143    2.000    5.714 
#    0.000    2.143    0.000    4.286    0.000    0.000 
#    0.000    0.000    0.000    0.000    0.000    0.000 
#
# Total GULP energy -156232.947012 kJ/mol
# GULP energy per Si atom -5579.748108 kJ/mol
# Density = 1.767388 g / cm^3
# Si number density = 17.714201 Si / 1000 Ang^3
#
#
#
# Elastic Constant Matrix: (Units=GPa)
#
#
# Indices 1 2 3 4 5 6 
#
# 1 194.4714 101.2873 46.2558 0.0000 -6.9708 0.0000
# 2 101.2873 89.4779 34.8808 0.0000 -5.4257 0.0000
# 3 46.2558 34.8808 21.9793 0.0000 -1.2830 0.0000
# 4 0.0000 0.0000 0.0000 27.5219 0.0000 2.6838
# 5 -6.9708 -5.4257 -1.2830 0.0000 23.6626 0.0000
# 6 0.0000 0.0000 0.0000 2.6838 0.0000 33.3212
#
#
#
# Elastic Compliance Matrix: (Units=1/GPa)
#
#
# Indices 1 2 3 4 5 6 
#
# 1 0.013468 -0.010918 -0.010967 0.000000 0.000870 0.000000
# 2 -0.010918 0.038581 -0.038042 0.000000 0.003567 0.000000
# 3 -0.010967 -0.038042 0.128659 0.000000 -0.004978 0.000000
# 4 0.000000 0.000000 0.000000 0.036622 0.000000 -0.002950
# 5 0.000870 0.003567 -0.004978 0.000000 0.043065 0.000000
# 6 0.000000 0.000000 0.000000 -0.002950 0.000000 0.030248
#
#
# Mechanical properties :
#
#
# Convention : Reuss Voigt Hill
#
# Bulk Modulus (GPa) = 16.43265 74.53071 45.48168
# Shear Modulus (GPa) = 11.60676 25.13479 18.37077
#
# Velocity S-wave (km/s) = 2.56251 3.77092 3.22384
# Velocity P-wave (km/s) = 4.24876 7.81826 6.29194
#
# Compressibility (1/GPa) = 0.06085447
#
# Stress axis : x y z
#
# Youngs Moduli (GPa) = 74.24877 25.91948 7.77246
#
# Poissons Ratio (x) = 0.28299 0.08524
# Poissons Ratio (y) = 0.81064 0.29568
# Poissons Ratio (z) = 0.81428 0.98604
#
# Static dielectric constant tensor:
#      x y z
#    x 1.583490 0.000000 -0.002670 
#    y 0.000000 1.590740 0.000000 
#    z -0.002670 0.000000 1.598370 
# 
# From -- ./inp_files/238376.got.cif
#   From: 2010.05.17/outbox.cif.g08.bks.cpg/sg12_120_cif.got.tgz:238376.got - 2010.06.03 13:09:07.
