data_PCOD9192894
_publ_section_title
;
Structure prediction by ZEFSAII (Michael W. Deem and Ramdas Pophale) SiO2 
 PCOD9192894
Probable space group: C 2/M
;
_chemical_formula_sum "Si O2"
_cell_formula_units_Z 56
_cell_length_a 14.775837
_cell_length_b 8.419445
_cell_length_c 32.969528
_cell_angle_alpha 90.000000
_cell_angle_beta 132.212155
_cell_angle_gamma 90.000000
_cell_volume 3037.864470
_symmetry_space_group_name_H-M "C 2/M"
_symmetry_group_IT_number 12
_symmetry_cell_setting 'monoclinic'
loop_
_space_group_symop_operation_xyz
x,y,z
-x,y,-z
-x,-y,-z
x,-y,z
1/2+x,1/2+y,z
1/2-x,1/2+y,-z
1/2-x,1/2-y,-z
1/2+x,1/2-y,z
loop_
_atom_site_type_symbol
_atom_site_label
_atom_site_fract_x
_atom_site_fract_y
_atom_site_fract_z
Si Si1 0.594488 0.189802 0.733761
Si Si2 0.064395 0.307790 0.931562
Si Si3 0.834233 0.190235 0.561614
Si Si4 0.385300 0.308217 0.349598
Si Si5 0.707425 0.192196 0.143807
Si Si6 0.289696 0.809726 0.947625
Si Si7 0.814689 0.692035 0.645337
O O1 0.639314 0.253126 0.703670
O O2 0.683251 0.245333 0.796009
O O3 0.453643 0.244265 0.697236
O O4 0.593418 0.000000 0.731974
O O5 0.073019 0.500000 0.932568
O O6 0.163656 0.235875 0.931405
O O7 0.926365 0.261925 0.880100
O O8 0.104047 0.257869 0.989166
O O9 0.750000 0.250000 0.500000
O O10 0.790058 0.251589 0.592137
O O11 0.975648 0.243675 0.598730
O O12 0.833488 0.000000 0.561931
O O13 0.383669 0.500000 0.349553
O O14 0.285358 0.252222 0.352143
O O15 0.710147 0.250475 0.098124
O O16 0.713383 0.000000 0.145442
O O17 0.300582 0.000000 0.948371
O O18 0.812959 0.500000 0.645018
#
# Coordination Sequence:
#
# PCOD9192894 Si02
#       7
#     8   8   8   8   8   8   8
#     4  10  21  35  52  76 103 129 166 217 259 293
#     4   9  18  33  52  73  98 130 166 204 250 304
#     4  10  20  34  54  81 111 139 170 209 249 295
#     4   9  19  37  58  76 100 139 177 206 248 304
#     4  10  20  34  52  72  99 135 169 202 248 309
#     4   9  18  33  52  74  99 128 165 208 252 300
#     4   9  19  37  57  75 100 136 174 211 252 297
#
# _framework density 18.434004000000002
#
# number of rings (size 3 to 8) (size 9 to 14) (size 15 to 20)
#    0.000    2.571    0.000    1.286    0.000    6.286 
#    0.000    7.143    0.000    4.286    0.000    0.000 
#    0.000    0.000    0.000    0.000    0.000    0.000 
#
# Total GULP energy -156181.609734 kJ/mol
# GULP energy per Si atom -5577.914633 kJ/mol
# Density = 1.839205 g / cm^3
# Si number density = 18.434004 Si / 1000 Ang^3
#
#
#
# Elastic Constant Matrix: (Units=GPa)
#
#
# Indices 1 2 3 4 5 6 
#
# 1 107.4572 9.9489 40.3525 0.0000 -6.6737 0.0000
# 2 9.9489 0.7554 6.4953 0.0000 0.2896 0.0000
# 3 40.3525 6.4953 97.0385 0.0000 4.7750 0.0000
# 4 0.0000 0.0000 0.0000 31.0272 0.0000 -2.0958
# 5 -6.6737 0.2896 4.7750 0.0000 11.9864 0.0000
# 6 0.0000 0.0000 0.0000 -2.0958 0.0000 21.8567
#
#
#
# Elastic Compliance Matrix: (Units=1/GPa)
#
#
# Indices 1 2 3 4 5 6 
#
# 1 -0.012726 0.286849 -0.013483 0.000000 -0.008644 0.000000
# 2 0.286849 -3.346376 0.094727 0.000000 0.202822 0.000000
# 3 -0.013483 0.094727 0.010255 0.000000 -0.013881 0.000000
# 4 0.000000 0.000000 0.000000 0.032440 0.000000 0.003111
# 5 -0.008644 0.202822 -0.013881 0.000000 0.079245 0.000000
# 6 0.000000 0.000000 0.000000 0.003111 0.000000 0.046051
#
#
# Mechanical properties :
#
#
# Convention : Reuss Voigt Hill
#
# Bulk Modulus (GPa) = -0.38275 35.42718 17.52222
# Shear Modulus (GPa) = -1.04206 22.87102 10.91448
#
# Velocity S-wave (km/s) = -0.75268 3.52617 2.43592
# Velocity P-wave (km/s) = 0.98155 5.98654 4.17584
#
# Compressibility (1/GPa) = -2.61266195
#
# Stress axis : x y z
#
# Youngs Moduli (GPa) = -78.58190 -0.29883 97.51810
#
# Poissons Ratio (x) = 0.08572 1.31485
# Poissons Ratio (y) = 22.54115 -9.23755
# Poissons Ratio (z) = -1.05953 0.02831
#
# Static dielectric constant tensor:
#      x y z
#    x 1.634880 0.000000 0.010480 
#    y 0.000000 1.636850 0.000000 
#    z 0.010480 0.000000 1.614290 
# 
# From -- ./inp_files/337892.got.cif
#   From: 2010.05.17/outbox.cif.g08.bks.cpg/sg12_169_cif.got.tgz:337892.got - 2010.06.03 13:09:07.
