data_PCOD9192165
_publ_section_title
;
Structure prediction by ZEFSAII (Michael W. Deem and Ramdas Pophale) SiO2 
 PCOD9192165
Probable space group: C 2/M
;
_chemical_formula_sum "Si O2"
_cell_formula_units_Z 36
_cell_length_a 5.439817
_cell_length_b 27.465651
_cell_length_c 13.050768
_cell_angle_alpha 90.000000
_cell_angle_beta 55.053749
_cell_angle_gamma 90.000000
_cell_volume 1598.305387
_symmetry_space_group_name_H-M "C 2/M"
_symmetry_group_IT_number 12
_symmetry_cell_setting 'monoclinic'
loop_
_space_group_symop_operation_xyz
x,y,z
-x,y,-z
-x,-y,-z
x,-y,z
1/2+x,1/2+y,z
1/2-x,1/2+y,-z
1/2-x,1/2-y,-z
1/2+x,1/2-y,z
loop_
_atom_site_type_symbol
_atom_site_label
_atom_site_fract_x
_atom_site_fract_y
_atom_site_fract_z
Si Si1 0.599817 0.630358 0.753440
Si Si2 0.647955 0.054473 0.151307
Si Si3 0.000000 0.384243 0.000000
Si Si4 0.465319 0.554325 0.386410
Si Si5 0.702973 0.719537 0.854019
O O1 0.704753 0.584729 0.794767
O O2 0.252524 0.642278 0.870340
O O3 0.650333 0.606433 0.629888
O O4 0.777347 0.676142 0.757394
O O5 0.293620 0.052777 0.258135
O O6 0.758523 0.000000 0.124762
O O7 0.675354 0.081982 0.037846
O O8 0.500000 0.556605 0.500000
O O9 0.327651 0.500000 0.394954
O O10 0.490390 0.755852 0.838981
O O11 0.500000 0.701651 0.000000
#
# Coordination Sequence:
#
# PCOD9192165 Si02
#       5
#     8   8   4   8   8
#     4  11  22  35  57  82 116 153 197 241 298 358
#     4  10  20  33  53  81 115 152 188 232 291 359
#     4  10  21  32  50  80 122 150 184 232 293 360
#     4   9  20  38  59  85 116 151 197 248 297 353
#     4  10  23  38  61  88 121 159 203 252 306 362
#
# _framework density 22.523855999999999
#
# number of rings (size 3 to 8) (size 9 to 14) (size 15 to 20)
#    0.000    2.000    0.000    3.000   10.889    4.444 
#    0.000    3.333    0.000    1.333    0.000    0.000 
#    0.000    0.000    0.000    0.000    0.000    0.000 
#
# Total GULP energy -100385.780369 kJ/mol
# GULP energy per Si atom -5576.987798 kJ/mol
# Density = 2.247259 g / cm^3
# Si number density = 22.523856 Si / 1000 Ang^3
#
#
#
# Elastic Constant Matrix: (Units=GPa)
#
#
# Indices 1 2 3 4 5 6 
#
# 1 65.9356 28.7729 6.4324 0.0000 9.6828 0.0000
# 2 28.7729 83.4620 42.8522 0.0000 18.1937 0.0000
# 3 6.4324 42.8522 68.6427 0.0000 20.3538 0.0000
# 4 0.0000 0.0000 0.0000 28.7335 0.0000 20.0246
# 5 9.6828 18.1937 20.3538 0.0000 38.9491 0.0000
# 6 0.0000 0.0000 0.0000 20.0246 0.0000 38.8526
#
#
#
# Elastic Compliance Matrix: (Units=1/GPa)
#
#
# Indices 1 2 3 4 5 6 
#
# 1 0.018646 -0.007840 0.004066 0.000000 -0.003098 0.000000
# 2 -0.007840 0.021219 -0.012012 0.000000 -0.001685 0.000000
# 3 0.004066 -0.012012 0.024049 0.000000 -0.007967 0.000000
# 4 0.000000 0.000000 0.000000 0.054310 0.000000 -0.027991
# 5 -0.003098 -0.001685 -0.007967 0.000000 0.031395 0.000000
# 6 0.000000 0.000000 0.000000 -0.027991 0.000000 0.040165
#
#
# Mechanical properties :
#
#
# Convention : Reuss Voigt Hill
#
# Bulk Modulus (GPa) = 30.92135 41.57283 36.24709
# Shear Modulus (GPa) = 21.53892 30.63921 26.08907
#
# Velocity S-wave (km/s) = 3.09572 3.69223 3.40705
# Velocity P-wave (km/s) = 5.15131 6.05591 5.62184
#
# Compressibility (1/GPa) = 0.03234012
#
# Stress axis : x y z
#
# Youngs Moduli (GPa) = 53.63105 47.12685 41.58257
#
# Poissons Ratio (x) = 0.36949 -0.16907
# Poissons Ratio (y) = 0.42048 0.49950
# Poissons Ratio (z) = -0.21805 0.56610
#
# Static dielectric constant tensor:
#      x y z
#    x 1.961720 0.000000 0.021630 
#    y 0.000000 1.879600 0.000000 
#    z 0.021630 0.000000 1.863730 
# 
# From -- ./inp_files/114990.got.cif
#   From: 2010.05.17/outbox.cif.g08.bks.cpg/sg12_58_cif.got.tgz:114990.got - 2010.06.03 13:09:07.
