data_PCOD9192504
_publ_section_title
;
Structure prediction by ZEFSAII (Michael W. Deem and Ramdas Pophale) SiO2 
 PCOD9192504
Probable space group: C 2/M
;
_chemical_formula_sum "Si O2"
_cell_formula_units_Z 56
_cell_length_a 8.553437
_cell_length_b 15.848707
_cell_length_c 16.509235
_cell_angle_alpha 90.000000
_cell_angle_beta 109.893856
_cell_angle_gamma 90.000000
_cell_volume 2104.453116
_symmetry_space_group_name_H-M "C 2/M"
_symmetry_group_IT_number 12
_symmetry_cell_setting 'monoclinic'
loop_
_space_group_symop_operation_xyz
x,y,z
-x,y,-z
-x,-y,-z
x,-y,z
1/2+x,1/2+y,z
1/2-x,1/2+y,-z
1/2-x,1/2-y,-z
1/2+x,1/2-y,z
loop_
_atom_site_type_symbol
_atom_site_label
_atom_site_fract_x
_atom_site_fract_y
_atom_site_fract_z
Si Si1 0.547000 0.151026 0.155841
Si Si2 0.891986 0.671847 0.407875
Si Si3 0.214715 0.903159 0.233732
Si Si4 0.900254 0.834110 0.139932
Si Si5 0.177079 0.403165 0.345317
Si Si6 0.038571 0.902876 0.411606
Si Si7 0.273541 0.595894 0.956458
O O1 0.721281 0.160327 0.145251
O O2 0.478019 0.242978 0.162724
O O3 0.570787 0.103167 0.244660
O O4 0.422805 0.107058 0.071837
O O5 0.799835 0.669451 0.302484
O O6 0.716996 0.640434 0.421777
O O7 0.000000 0.717675 0.500000
O O8 0.059109 0.625463 0.398661
O O9 0.213523 0.885774 0.137244
O O10 0.016778 0.897529 0.210856
O O11 0.272378 0.000000 0.260569
O O12 0.872028 0.851188 0.039481
O O13 0.217941 0.500000 0.368810
O O14 0.357861 0.359888 0.357358
O O15 0.000000 0.907858 0.500000
O O16 0.056565 0.000000 0.384780
O O17 0.321607 0.500000 0.979371
#
# Coordination Sequence:
#
# PCOD9192504 Si02
#       7
#     8   8   8   8   8   8   8
#     4  12  26  45  69 101 141 186 238 289 349 426
#     4  12  23  39  69 106 145 188 230 290 363 423
#     4  11  24  43  70 106 142 179 233 294 354 421
#     4  12  27  46  70  98 140 189 239 289 351 427
#     4  11  23  41  67 103 146 189 238 297 357 421
#     4  10  20  33  56  99 145 183 233 290 350 419
#     4  11  24  45  73 107 143 180 228 292 358 422
#
# _framework density 26.610236
#
# number of rings (size 3 to 8) (size 9 to 14) (size 15 to 20)
#    0.000    0.714    2.857    5.143    0.000    8.286 
#    0.000    0.000    0.000    1.714    0.000    0.000 
#    0.000    0.000    0.000    0.000    0.000    0.000 
#
# Total GULP energy -156016.412970 kJ/mol
# GULP energy per Si atom -5572.014749 kJ/mol
# Density = 2.654967 g / cm^3
# Si number density = 26.610236 Si / 1000 Ang^3
#
#
#
# Elastic Constant Matrix: (Units=GPa)
#
#
# Indices 1 2 3 4 5 6 
#
# 1 196.6504 26.7866 45.1017 0.0000 8.1931 0.0000
# 2 26.7866 70.3462 29.3735 0.0000 2.7370 0.0000
# 3 45.1017 29.3735 122.6941 0.0000 18.0515 0.0000
# 4 0.0000 0.0000 0.0000 30.4944 0.0000 13.2432
# 5 8.1931 2.7370 18.0515 0.0000 71.5456 0.0000
# 6 0.0000 0.0000 0.0000 13.2432 0.0000 28.9813
#
#
#
# Elastic Compliance Matrix: (Units=1/GPa)
#
#
# Indices 1 2 3 4 5 6 
#
# 1 0.005683 -0.001439 -0.001721 0.000000 -0.000162 0.000000
# 2 -0.001439 0.016168 -0.003401 0.000000 0.000404 0.000000
# 3 -0.001721 -0.003401 0.009917 0.000000 -0.002175 0.000000
# 4 0.000000 0.000000 0.000000 0.040912 0.000000 -0.018695
# 5 -0.000162 0.000404 -0.002175 0.000000 0.014529 0.000000
# 6 0.000000 0.000000 0.000000 -0.018695 0.000000 0.043048
#
#
# Mechanical properties :
#
#
# Convention : Reuss Voigt Hill
#
# Bulk Modulus (GPa) = 53.63137 65.80161 59.71649
# Shear Modulus (GPa) = 33.42409 45.43285 39.42847
#
# Velocity S-wave (km/s) = 3.54794 4.13649 3.85347
# Velocity P-wave (km/s) = 6.08128 6.89896 6.50299
#
# Compressibility (1/GPa) = 0.01864580
#
# Stress axis : x y z
#
# Youngs Moduli (GPa) = 175.97778 61.85125 100.83620
#
# Poissons Ratio (x) = 0.08901 0.17350
# Poissons Ratio (y) = 0.25325 0.34296
# Poissons Ratio (z) = 0.30278 0.21037
#
# Static dielectric constant tensor:
#      x y z
#    x 2.315660 0.000000 -0.038940 
#    y 0.000000 2.129480 0.000000 
#    z -0.038940 0.000000 2.099540 
# 
# From -- ./inp_files/257142.got.cif
#   From: 2010.05.17/outbox.cif.g08.bks.cpg/sg12_129_cif.got.tgz:257142.got - 2010.06.03 13:09:07.
