data_PCOD9192074
_publ_section_title
;
Structure prediction by ZEFSAII (Michael W. Deem and Ramdas Pophale) SiO2 
 PCOD9192074
Probable space group: C 2/M
;
_chemical_formula_sum "Si O2"
_cell_formula_units_Z 56
_cell_length_a 13.792282
_cell_length_b 16.213627
_cell_length_c 15.890984
_cell_angle_alpha 90.000000
_cell_angle_beta 127.345861
_cell_angle_gamma 90.000000
_cell_volume 2825.060589
_symmetry_space_group_name_H-M "C 2/M"
_symmetry_group_IT_number 12
_symmetry_cell_setting 'monoclinic'
loop_
_space_group_symop_operation_xyz
x,y,z
-x,y,-z
-x,-y,-z
x,-y,z
1/2+x,1/2+y,z
1/2-x,1/2+y,-z
1/2-x,1/2-y,-z
1/2+x,1/2-y,z
loop_
_atom_site_type_symbol
_atom_site_label
_atom_site_fract_x
_atom_site_fract_y
_atom_site_fract_z
Si Si1 0.991959 0.763115 0.895336
Si Si2 0.526796 0.088915 0.614826
Si Si3 0.379498 0.753015 0.523199
Si Si4 0.638374 0.592652 0.885344
Si Si5 0.061903 0.906780 0.358392
Si Si6 0.073427 0.590085 0.950883
Si Si7 0.743078 0.664015 0.311306
O O1 0.857495 0.787506 0.793851
O O2 0.082739 0.833878 0.910698
O O3 0.028294 0.672438 0.880966
O O4 0.000000 0.761120 0.000000
O O5 0.500000 0.083362 0.500000
O O6 0.453462 0.170400 0.602345
O O7 0.671432 0.104292 0.698140
O O8 0.490665 0.000000 0.632287
O O9 0.250000 0.750000 0.500000
O O10 0.436889 0.664572 0.571616
O O11 0.341824 0.775957 0.408374
O O12 0.612092 0.500000 0.905833
O O13 0.565305 0.597057 0.759137
O O14 0.783220 0.600401 0.954200
O O15 0.167379 0.884548 0.344278
O O16 0.082009 0.000000 0.399217
O O17 0.056786 0.500000 0.900457
O O18 0.000000 0.587035 0.000000
#
# Coordination Sequence:
#
# PCOD9192074 Si02
#       7
#     8   8   8   8   8   8   8
#     4  10  20  33  53  76 103 141 178 218 270 317
#     4   9  17  31  53  76  99 131 168 207 255 306
#     4   9  18  30  48  75 103 129 163 207 248 302
#     4   9  18  33  53  76 104 136 174 221 266 315
#     4   9  17  31  53  77 102 135 167 202 259 321
#     4   9  18  33  52  74  99 135 184 224 256 306
#     4   9  18  33  51  75 105 132 168 216 258 305
#
# _framework density 19.822583000000002
#
# number of rings (size 3 to 8) (size 9 to 14) (size 15 to 20)
#    0.000    2.857    0.000    0.857    0.000    6.571 
#    0.000    2.143    0.000   14.143    0.000    0.000 
#    0.000    0.000    0.000    0.000    0.000    0.000 
#
# Total GULP energy -155959.571215 kJ/mol
# GULP energy per Si atom -5569.984686 kJ/mol
# Density = 1.977747 g / cm^3
# Si number density = 19.822583 Si / 1000 Ang^3
#
#
#
# Elastic Constant Matrix: (Units=GPa)
#
#
# Indices 1 2 3 4 5 6 
#
# 1 36.6630 36.6172 19.6283 0.0000 17.8802 0.0000
# 2 36.6172 207.4412 69.0560 0.0000 14.8968 0.0000
# 3 19.6283 69.0560 75.2477 0.0000 22.1710 0.0000
# 4 0.0000 0.0000 0.0000 23.5285 0.0000 -3.2244
# 5 17.8802 14.8968 22.1710 0.0000 27.3228 0.0000
# 6 0.0000 0.0000 0.0000 -3.2244 0.0000 27.8927
#
#
#
# Elastic Compliance Matrix: (Units=1/GPa)
#
#
# Indices 1 2 3 4 5 6 
#
# 1 0.047214 -0.007208 0.002950 0.000000 -0.029361 0.000000
# 2 -0.007208 0.008111 -0.007426 0.000000 0.006320 0.000000
# 3 0.002950 -0.007426 0.024589 0.000000 -0.017835 0.000000
# 4 0.000000 0.000000 0.000000 0.043186 0.000000 0.004992
# 5 -0.029361 0.006320 -0.017835 0.000000 0.066839 0.000000
# 6 0.000000 0.000000 0.000000 0.004992 0.000000 0.036429
#
#
# Mechanical properties :
#
#
# Convention : Reuss Voigt Hill
#
# Bulk Modulus (GPa) = 17.68436 63.32832 40.50634
# Shear Modulus (GPa) = 18.61613 28.68549 23.65081
#
# Velocity S-wave (km/s) = 3.06786 3.80822 3.45791
# Velocity P-wave (km/s) = 4.63570 7.16614 6.03504
#
# Compressibility (1/GPa) = 0.05654713
#
# Stress axis : x y z
#
# Youngs Moduli (GPa) = 21.18029 123.28914 40.66784
#
# Poissons Ratio (x) = 0.88862 -0.11996
# Poissons Ratio (y) = 0.15266 0.30198
# Poissons Ratio (z) = -0.06247 0.91550
#
# Static dielectric constant tensor:
#      x y z
#    x 1.729170 0.000000 -0.004820 
#    y 0.000000 1.772190 0.000000 
#    z -0.004820 0.000000 1.694300 
# 
# From -- ./inp_files/310828.got.cif
#   From: 2010.05.17/outbox.cif.g08.bks.cpg/sg12_156_cif.got.tgz:310828.got - 2010.06.03 13:09:07.
