data_PCOD9192050
_publ_section_title
;
Structure prediction by ZEFSAII (Michael W. Deem and Ramdas Pophale) SiO2 
 PCOD9192050
Probable space group: C 2/M
;
_chemical_formula_sum "Si O2"
_cell_formula_units_Z 56
_cell_length_a 19.888608
_cell_length_b 9.008402
_cell_length_c 20.759221
_cell_angle_alpha 90.000000
_cell_angle_beta 124.469056
_cell_angle_gamma 90.000000
_cell_volume 3066.323867
_symmetry_space_group_name_H-M "C 2/M"
_symmetry_group_IT_number 12
_symmetry_cell_setting 'monoclinic'
loop_
_space_group_symop_operation_xyz
x,y,z
-x,y,-z
-x,-y,-z
x,-y,z
1/2+x,1/2+y,z
1/2-x,1/2+y,-z
1/2-x,1/2-y,-z
1/2+x,1/2-y,z
loop_
_atom_site_type_symbol
_atom_site_label
_atom_site_fract_x
_atom_site_fract_y
_atom_site_fract_z
Si Si1 0.590928 0.178031 0.072277
Si Si2 0.369711 0.678295 0.769834
Si Si3 0.332723 0.822393 0.020307
Si Si4 0.687844 0.822337 0.639583
Si Si5 0.071514 0.179550 0.682894
Si Si6 0.930151 0.830244 0.517662
Si Si7 0.456005 0.321449 0.186212
O O1 0.616032 0.254462 0.151873
O O2 0.590782 0.000000 0.081504
O O3 0.500000 0.221198 0.000000
O O4 0.650227 0.214191 0.045059
O O5 0.368056 0.500000 0.774475
O O6 0.282148 0.724817 0.694684
O O7 0.448558 0.716481 0.769724
O O8 0.405776 0.759864 0.103535
O O9 0.329551 0.000000 0.024182
O O10 0.250000 0.750000 0.000000
O O11 0.638760 0.754057 0.673781
O O12 0.642466 0.765703 0.550761
O O13 0.682757 0.000000 0.639915
O O14 0.077234 0.217264 0.761020
O O15 0.981436 0.221308 0.607318
O O16 0.077761 0.000000 0.679205
O O17 0.000000 0.831688 0.500000
O O18 0.902933 0.000000 0.512630
O O19 0.447562 0.500000 0.173939
#
# Coordination Sequence:
#
# PCOD9192050 Si02
#       7
#     8   8   8   8   8   8   8
#     4  10  21  39  59  79 105 141 182 222 264 313
#     4  10  22  37  55  80 110 144 180 220 268 320
#     4  11  24  40  58  82 111 141 178 225 271 320
#     4  10  20  33  52  82 112 138 174 222 270 317
#     4   9  19  35  56  79 105 140 182 222 263 317
#     4   8  15  31  53  77 104 139 180 218 260 315
#     4  10  21  39  58  78 108 146 182 220 269 320
#
# _framework density 18.262910999999999
#
# number of rings (size 3 to 8) (size 9 to 14) (size 15 to 20)
#    0.000    2.286    1.429    1.714    2.000    5.714 
#    0.000    0.714    0.000    0.000    0.000    0.000 
#    0.000    0.000    0.000    0.000    0.000    0.000 
#
# Total GULP energy -156215.336150 kJ/mol
# GULP energy per Si atom -5579.119148 kJ/mol
# Density = 1.822134 g / cm^3
# Si number density = 18.262911 Si / 1000 Ang^3
#
#
#
# Elastic Constant Matrix: (Units=GPa)
#
#
# Indices 1 2 3 4 5 6 
#
# 1 63.7901 18.4054 -4.7171 0.0000 17.7328 0.0000
# 2 18.4054 18.3011 5.9597 0.0000 7.4026 0.0000
# 3 -4.7171 5.9597 29.9704 0.0000 16.8955 0.0000
# 4 0.0000 0.0000 0.0000 30.5392 0.0000 4.8719
# 5 17.7328 7.4026 16.8955 0.0000 34.0686 0.0000
# 6 0.0000 0.0000 0.0000 4.8719 0.0000 20.6749
#
#
#
# Elastic Compliance Matrix: (Units=1/GPa)
#
#
# Indices 1 2 3 4 5 6 
#
# 1 0.032708 -0.031782 0.023837 0.000000 -0.021940 0.000000
# 2 -0.031782 0.091673 -0.029605 0.000000 0.011306 0.000000
# 3 0.023837 -0.029605 0.064369 0.000000 -0.037896 0.000000
# 4 0.000000 0.000000 0.000000 0.034024 0.000000 -0.008018
# 5 -0.021940 0.011306 -0.037896 0.000000 0.057110 0.000000
# 6 0.000000 0.000000 0.000000 -0.008018 0.000000 0.050257
#
#
# Mechanical properties :
#
#
# Convention : Reuss Voigt Hill
#
# Bulk Modulus (GPa) = 8.79913 16.81752 12.80832
# Shear Modulus (GPa) = 11.28348 23.21745 17.25046
#
# Velocity S-wave (km/s) = 2.48833 3.56938 3.07671
# Velocity P-wave (km/s) = 3.61721 5.12014 4.43284
#
# Compressibility (1/GPa) = 0.11364762
#
# Stress axis : x y z
#
# Youngs Moduli (GPa) = 30.57325 10.90833 15.53549
#
# Poissons Ratio (x) = 0.34669 -0.37031
# Poissons Ratio (y) = 0.97169 0.45993
# Poissons Ratio (z) = -0.72876 0.32294
#
# Static dielectric constant tensor:
#      x y z
#    x 1.619920 0.000000 0.013400 
#    y 0.000000 1.612050 0.000000 
#    z 0.013400 0.000000 1.628290 
# 
# From -- ./inp_files/275544.got.cif
#   From: 2010.05.17/outbox.cif.g08.bks.cpg/sg12_138_cif.got.tgz:275544.got - 2010.06.03 13:09:07.
