data_PCOD9192218
_publ_section_title
;
Structure prediction by ZEFSAII (Michael W. Deem and Ramdas Pophale) SiO2 
 PCOD9192218
Probable space group: C 2/M
;
_chemical_formula_sum "Si O2"
_cell_formula_units_Z 48
_cell_length_a 23.522674
_cell_length_b 22.712300
_cell_length_c 5.666812
_cell_angle_alpha 90.000000
_cell_angle_beta 59.166013
_cell_angle_gamma 90.000000
_cell_volume 2599.595787
_symmetry_space_group_name_H-M "C 2/M"
_symmetry_group_IT_number 12
_symmetry_cell_setting 'monoclinic'
loop_
_space_group_symop_operation_xyz
x,y,z
-x,y,-z
-x,-y,-z
x,-y,z
1/2+x,1/2+y,z
1/2-x,1/2+y,-z
1/2-x,1/2-y,-z
1/2+x,1/2-y,z
loop_
_atom_site_type_symbol
_atom_site_label
_atom_site_fract_x
_atom_site_fract_y
_atom_site_fract_z
Si Si1 0.202026 0.627896 0.441548
Si Si2 0.155159 0.856605 0.716166
Si Si3 0.575387 0.317713 0.271186
Si Si4 0.814237 0.754721 0.696123
Si Si5 0.298282 0.067857 0.048489
Si Si6 0.137824 0.065726 0.365856
O O1 0.282518 0.627085 0.255634
O O2 0.181481 0.696005 0.466831
O O3 0.185800 0.599082 0.732188
O O4 0.177692 0.597261 0.249214
O O5 0.189540 0.812965 0.454703
O O6 0.125298 0.914655 0.662611
O O7 0.095981 0.819820 0.955478
O O8 0.500000 0.311318 0.500000
O O9 0.620631 0.267382 0.289896
O O10 0.602330 0.382038 0.298979
O O11 0.750000 0.750000 0.000000
O O12 0.218032 0.066996 0.194373
O O13 0.320299 0.000000 0.013821
O O14 0.116125 0.000000 0.351310
#
# Coordination Sequence:
#
# PCOD9192218 Si02
#       6
#     8   8   8   8   8   8
#     4  11  19  33  56  83 109 148 187 229 288 339
#     4  10  20  34  54  77 108 144 191 242 282 321
#     4  11  23  37  52  76 111 147 189 241 286 328
#     4  11  21  35  56  81 106 142 194 239 283 341
#     4  10  20  33  53  84 117 144 181 234 282 331
#     4   9  19  34  50  72 103 150 198 234 274 324
#
# _framework density 18.464410999999998
#
# number of rings (size 3 to 8) (size 9 to 14) (size 15 to 20)
#    0.000    1.667    3.333    3.000    2.333    4.333 
#    0.000    0.833    0.000    0.000    0.000    0.000 
#    0.000    4.000    0.000    0.000    0.000    0.000 
#
# Total GULP energy -133614.783466 kJ/mol
# GULP energy per Si atom -5567.282644 kJ/mol
# Density = 1.842239 g / cm^3
# Si number density = 18.464411 Si / 1000 Ang^3
#
#
#
# Elastic Constant Matrix: (Units=GPa)
#
#
# Indices 1 2 3 4 5 6 
#
# 1 38.8695 24.4288 29.2665 0.0000 -2.7363 0.0000
# 2 24.4288 94.6989 31.9835 0.0000 8.6933 0.0000
# 3 29.2665 31.9835 78.8446 0.0000 14.6875 0.0000
# 4 0.0000 0.0000 0.0000 17.7944 0.0000 9.0472
# 5 -2.7363 8.6933 14.6875 0.0000 21.6525 0.0000
# 6 0.0000 0.0000 0.0000 9.0472 0.0000 25.6794
#
#
#
# Elastic Compliance Matrix: (Units=1/GPa)
#
#
# Indices 1 2 3 4 5 6 
#
# 1 0.045167 -0.007631 -0.017518 0.000000 0.020655 0.000000
# 2 -0.007631 0.013585 -0.001697 0.000000 -0.005268 0.000000
# 3 -0.017518 -0.001697 0.023075 0.000000 -0.017185 0.000000
# 4 0.000000 0.000000 0.000000 0.068460 0.000000 -0.024120
# 5 0.020655 -0.005268 -0.017185 0.000000 0.062566 0.000000
# 6 0.000000 0.000000 0.000000 -0.024120 0.000000 0.047439
#
#
# Mechanical properties :
#
#
# Convention : Reuss Voigt Hill
#
# Bulk Modulus (GPa) = 35.54179 42.64117 39.09148
# Shear Modulus (GPa) = 15.46247 21.47421 18.46834
#
# Velocity S-wave (km/s) = 2.89696 3.41399 3.16605
# Velocity P-wave (km/s) = 5.52091 6.21967 5.88068
#
# Compressibility (1/GPa) = 0.02813589
#
# Stress axis : x y z
#
# Youngs Moduli (GPa) = 22.14006 73.61063 43.33640
#
# Poissons Ratio (x) = 0.56173 0.75915
# Poissons Ratio (y) = 0.16895 0.07354
# Poissons Ratio (z) = 0.38784 0.12491
#
# Static dielectric constant tensor:
#      x y z
#    x 1.664760 0.000000 0.108170 
#    y 0.000000 1.649780 0.000000 
#    z 0.108170 0.000000 1.777770 
# 
# From -- ./inp_files/16574.got.cif
#   From: 2010.05.17/outbox.cif.g08.bks.cpg/sg12_9_cif.got.tgz:16574.got - 2010.06.03 13:09:07.
