data_PCOD9192730
_publ_section_title
;
Structure prediction by ZEFSAII (Michael W. Deem and Ramdas Pophale) SiO2 
 PCOD9192730
Probable space group: C 2/M
;
_chemical_formula_sum "Si O2"
_cell_formula_units_Z 48
_cell_length_a 19.433333
_cell_length_b 7.447771
_cell_length_c 24.733475
_cell_angle_alpha 90.000000
_cell_angle_beta 140.156504
_cell_angle_gamma 90.000000
_cell_volume 2293.551832
_symmetry_space_group_name_H-M "C 2/M"
_symmetry_group_IT_number 12
_symmetry_cell_setting 'monoclinic'
loop_
_space_group_symop_operation_xyz
x,y,z
-x,y,-z
-x,-y,-z
x,-y,z
1/2+x,1/2+y,z
1/2-x,1/2+y,-z
1/2-x,1/2-y,-z
1/2+x,1/2-y,z
loop_
_atom_site_type_symbol
_atom_site_label
_atom_site_fract_x
_atom_site_fract_y
_atom_site_fract_z
Si Si1 0.622048 0.719323 0.077459
Si Si2 0.711398 0.215027 0.416027
Si Si3 0.119983 0.791059 0.569810
Si Si4 0.220303 0.713990 0.920837
Si Si5 0.690395 0.783059 0.732332
Si Si6 0.967832 0.719263 0.266514
O O1 0.619843 0.500000 0.076738
O O2 0.687831 0.779091 0.064459
O O3 0.695670 0.772944 0.172866
O O4 0.500000 0.781150 0.000000
O O5 0.750000 0.250000 0.500000
O O6 0.797681 0.286183 0.424689
O O7 0.589649 0.283579 0.336595
O O8 0.705576 0.000000 0.404632
O O9 0.169522 0.781706 0.659483
O O10 0.000000 0.711077 0.500000
O O11 0.105846 0.000000 0.545788
O O12 0.217576 0.500000 0.912896
O O13 0.106192 0.777847 0.828569
O O14 0.250000 0.750000 0.000000
O O15 0.596341 0.727440 0.717637
O O16 0.689136 0.000000 0.730331
O O17 0.970437 0.500000 0.268947
#
# Coordination Sequence:
#
# PCOD9192730 Si02
#       6
#     8   8   8   8   8   8
#     4   8  15  29  48  69  94 123 153 188 230 270
#     4  10  20  34  51  69  92 123 155 188 228 274
#     4  10  21  34  47  68  98 125 147 183 239 284
#     4   9  17  30  48  69  94 123 154 189 228 271
#     4   9  17  31  52  72  89 118 160 195 221 263
#     4   8  16  32  50  67  91 124 157 188 227 271
#
# _framework density 20.928238
#
# number of rings (size 3 to 8) (size 9 to 14) (size 15 to 20)
#    0.000    3.000    0.000    3.000    0.000    2.333 
#    0.000    4.167    0.000    1.000    0.000    0.000 
#    0.000    0.000    0.000    0.000    0.000    0.000 
#
# Total GULP energy -133913.824730 kJ/mol
# GULP energy per Si atom -5579.742697 kJ/mol
# Density = 2.088060 g / cm^3
# Si number density = 20.928238 Si / 1000 Ang^3
#
#
#
# Elastic Constant Matrix: (Units=GPa)
#
#
# Indices 1 2 3 4 5 6 
#
# 1 167.8480 3.0196 139.5656 0.0000 19.6177 0.0000
# 2 3.0196 60.5927 -7.8678 0.0000 10.1482 0.0000
# 3 139.5656 -7.8678 197.4617 0.0000 18.6682 0.0000
# 4 0.0000 0.0000 0.0000 17.4017 0.0000 -15.6837
# 5 19.6177 10.1482 18.6682 0.0000 46.5030 0.0000
# 6 0.0000 0.0000 0.0000 -15.6837 0.0000 -0.8720
#
#
#
# Elastic Compliance Matrix: (Units=1/GPa)
#
#
# Indices 1 2 3 4 5 6 
#
# 1 0.014831 -0.001806 -0.010395 0.000000 -0.001690 0.000000
# 2 -0.001806 0.017573 0.002356 0.000000 -0.004019 0.000000
# 3 -0.010395 0.002356 0.012618 0.000000 -0.001195 0.000000
# 4 0.000000 0.000000 0.000000 0.003339 0.000000 -0.060056
# 5 -0.001690 -0.004019 -0.001195 0.000000 0.023573 0.000000
# 6 0.000000 0.000000 0.000000 -0.060056 0.000000 -0.066634
#
#
# Mechanical properties :
#
#
# Convention : Reuss Voigt Hill
#
# Bulk Modulus (GPa) = 39.47315 77.25969 58.36642
# Shear Modulus (GPa) = 149.55515 32.01887 90.78701
#
# Velocity S-wave (km/s) = 8.46263 3.91568 6.59351
# Velocity P-wave (km/s) = 10.69534 7.57892 9.26904
#
# Compressibility (1/GPa) = 0.02533368
#
# Stress axis : x y z
#
# Youngs Moduli (GPa) = 67.42680 56.90634 79.25164
#
# Poissons Ratio (x) = 0.10276 0.82379
# Poissons Ratio (y) = 0.12176 -0.18676
# Poissons Ratio (z) = 0.70088 -0.13410
#
# Static dielectric constant tensor:
#      x y z
#    x 1.735680 0.000000 0.020460 
#    y 0.000000 1.791760 0.000000 
#    z 0.020460 0.000000 1.732890 
# 
# From -- ./inp_files/315429.got.cif
#   From: 2010.05.17/outbox.cif.g08.bks.cpg/sg12_158_cif.got.tgz:315429.got - 2010.06.03 13:09:07.
