data_PCOD9192791
_publ_section_title
;
Structure prediction by ZEFSAII (Michael W. Deem and Ramdas Pophale) SiO2 
 PCOD9192791
Probable space group: C 2/M
;
_chemical_formula_sum "Si O2"
_cell_formula_units_Z 64
_cell_length_a 28.825928
_cell_length_b 8.730337
_cell_length_c 14.642775
_cell_angle_alpha 90.000000
_cell_angle_beta 105.775650
_cell_angle_gamma 90.000000
_cell_volume 3546.201053
_symmetry_space_group_name_H-M "C 2/M"
_symmetry_group_IT_number 12
_symmetry_cell_setting 'monoclinic'
loop_
_space_group_symop_operation_xyz
x,y,z
-x,y,-z
-x,-y,-z
x,-y,z
1/2+x,1/2+y,z
1/2-x,1/2+y,-z
1/2-x,1/2-y,-z
1/2+x,1/2-y,z
loop_
_atom_site_type_symbol
_atom_site_label
_atom_site_fract_x
_atom_site_fract_y
_atom_site_fract_z
Si Si1 0.039043 0.183303 0.859782
Si Si2 0.863580 0.816926 0.611697
Si Si3 0.623240 0.313272 0.774839
Si Si4 0.164263 0.813876 0.607521
Si Si5 0.066098 0.680632 0.215261
Si Si6 0.613688 0.683190 0.064409
Si Si7 0.303451 0.315160 0.026697
Si Si8 0.766448 0.316284 0.606632
O O1 0.072565 0.232507 0.792531
O O2 0.988035 0.264840 0.833760
O O3 0.031134 0.000000 0.850340
O O4 0.071608 0.210535 0.966921
O O5 0.855206 0.763988 0.502266
O O6 0.912459 0.759276 0.682863
O O7 0.818974 0.753758 0.648241
O O8 0.861576 0.000000 0.611332
O O9 0.623006 0.500000 0.774083
O O10 0.634635 0.259183 0.679039
O O11 0.665680 0.268104 0.867569
O O12 0.221166 0.774646 0.646425
O O13 0.162166 0.000000 0.605493
O O14 0.067923 0.500000 0.226779
O O15 0.099313 0.732453 0.148476
O O16 0.615230 0.500000 0.081831
O O17 0.663880 0.729791 0.043275
O O18 0.301415 0.500000 0.025698
O O19 0.250000 0.250000 0.000000
O O20 0.769898 0.500000 0.604723
O O21 0.750000 0.250000 0.500000
#
# Coordination Sequence:
#
# PCOD9192791 Si02
#       8
#     8   8   8   8   8   8   8   8
#     4   9  18  35  58  77  97 129 166 208 256 306
#     4  10  20  34  51  73 103 136 171 214 259 304
#     4   8  15  31  54  77  99 129 171 209 244 294
#     4   8  15  29  52  78 101 130 170 210 245 292
#     4  12  24  35  51  75 102 132 167 214 266 310
#     4   9  19  36  55  76 103 136 173 207 247 305
#     4   9  18  32  52  79 111 141 167 203 247 294
#     4   9  16  28  47  72 102 135 170 207 248 292
#
# _framework density 18.047481000000001
#
# number of rings (size 3 to 8) (size 9 to 14) (size 15 to 20)
#    0.000    2.750    0.000    4.500    0.000    3.500 
#    0.000    3.750    0.000   12.000    0.000    0.000 
#    0.000    0.000    0.000    0.000    0.000    0.000 
#
# Total GULP energy -178375.395610 kJ/mol
# GULP energy per Si atom -5574.231113 kJ/mol
# Density = 1.800640 g / cm^3
# Si number density = 18.047481 Si / 1000 Ang^3
#
#
#
# Elastic Constant Matrix: (Units=GPa)
#
#
# Indices 1 2 3 4 5 6 
#
# 1 107.3098 30.1384 51.3782 0.0000 -1.8677 0.0000
# 2 30.1384 37.1624 25.5773 0.0000 1.2553 0.0000
# 3 51.3782 25.5773 60.0708 0.0000 -15.5648 0.0000
# 4 0.0000 0.0000 0.0000 16.0846 0.0000 8.6143
# 5 -1.8677 1.2553 -15.5648 0.0000 27.8696 0.0000
# 6 0.0000 0.0000 0.0000 8.6143 0.0000 26.5771
#
#
#
# Elastic Compliance Matrix: (Units=1/GPa)
#
#
# Indices 1 2 3 4 5 6 
#
# 1 0.017536 -0.003318 -0.015483 0.000000 -0.007323 0.000000
# 2 -0.003318 0.042884 -0.018683 0.000000 -0.012588 0.000000
# 3 -0.015483 -0.018683 0.044189 0.000000 0.024483 0.000000
# 4 0.000000 0.000000 0.000000 0.075230 0.000000 -0.024384
# 5 -0.007323 -0.012588 0.024483 0.000000 0.049631 0.000000
# 6 0.000000 0.000000 0.000000 -0.024384 0.000000 0.045530
#
#
# Mechanical properties :
#
#
# Convention : Reuss Voigt Hill
#
# Bulk Modulus (GPa) = 33.73858 46.52565 40.13212
# Shear Modulus (GPa) = 13.89474 20.60288 17.24881
#
# Velocity S-wave (km/s) = 2.77772 3.38241 3.09487
# Velocity P-wave (km/s) = 5.38726 6.41014 5.92083
#
# Compressibility (1/GPa) = 0.02963966
#
# Stress axis : x y z
#
# Youngs Moduli (GPa) = 57.02418 23.31881 22.63030
#
# Poissons Ratio (x) = 0.07737 0.35039
# Poissons Ratio (y) = 0.18921 0.42281
# Poissons Ratio (z) = 0.88293 0.43567
#
# Static dielectric constant tensor:
#      x y z
#    x 1.617600 0.000000 -0.027310 
#    y 0.000000 1.605040 0.000000 
#    z -0.027310 0.000000 1.591780 
# 
# From -- ./inp_files/244144.got.cif
#   From: 2010.05.17/outbox.cif.g08.bks.cpg/sg12_123_cif.got.tgz:244144.got - 2010.06.03 13:09:07.
