data_PCOD9192042
_publ_section_title
;
Structure prediction by ZEFSAII (Michael W. Deem and Ramdas Pophale) SiO2 
 PCOD9192042
Probable space group: C 2/M
;
_chemical_formula_sum "Si O2"
_cell_formula_units_Z 52
_cell_length_a 8.638462
_cell_length_b 18.597882
_cell_length_c 26.019867
_cell_angle_alpha 90.000000
_cell_angle_beta 139.411830
_cell_angle_gamma 90.000000
_cell_volume 2719.760640
_symmetry_space_group_name_H-M "C 2/M"
_symmetry_group_IT_number 12
_symmetry_cell_setting 'monoclinic'
loop_
_space_group_symop_operation_xyz
x,y,z
-x,y,-z
-x,-y,-z
x,-y,z
1/2+x,1/2+y,z
1/2-x,1/2+y,-z
1/2-x,1/2-y,-z
1/2+x,1/2-y,z
loop_
_atom_site_type_symbol
_atom_site_label
_atom_site_fract_x
_atom_site_fract_y
_atom_site_fract_z
Si Si1 0.439418 0.418768 0.691757
Si Si2 0.500000 0.717501 0.500000
Si Si3 0.544947 0.678944 0.397800
Si Si4 0.505777 0.918339 0.146647
Si Si5 0.662972 0.710283 0.261145
Si Si6 0.172197 0.170810 0.994316
Si Si7 0.783154 0.322792 0.177541
O O1 0.345219 0.500000 0.673466
O O2 0.435574 0.392167 0.631766
O O3 0.322883 0.355213 0.695528
O O4 0.710437 0.418834 0.780801
O O5 0.518459 0.671831 0.452360
O O6 0.729049 0.769945 0.557188
O O7 0.316282 0.723363 0.320952
O O8 0.428925 0.879061 0.179938
O O9 0.416342 0.000000 0.123877
O O10 0.389895 0.877577 0.068649
O O11 0.781737 0.684687 0.238208
O O12 0.396853 0.745334 0.187886
O O13 0.988755 0.153058 0.902940
O O14 0.250000 0.250000 0.000000
O O15 0.000000 0.172794 0.000000
#
# Coordination Sequence:
#
# PCOD9192042 Si02
#       7
#     8   4   8   8   8   8   8
#     4  11  23  40  61  89 127 162 196 249 307 352
#     4  10  22  36  68  96 114 150 198 240 292 360
#     4  11  20  39  64  92 119 152 198 240 292 365
#     4  10  22  39  56  81 121 165 202 250 313 354
#     4  12  20  37  63  91 117 159 204 251 290 360
#     4  10  20  33  52  81 113 150 198 258 293 346
#     4  11  20  32  59  85 113 154 212 251 290 348
#
# _framework density 19.119330000000001
#
# number of rings (size 3 to 8) (size 9 to 14) (size 15 to 20)
#    0.000    1.231    4.615    2.769    0.000    3.385 
#    0.000    0.769    0.000    2.308    0.000    0.000 
#    0.000    0.000    0.000    0.000    0.000    0.000 
#
# Total GULP energy -144854.027047 kJ/mol
# GULP energy per Si atom -5571.308733 kJ/mol
# Density = 1.907581 g / cm^3
# Si number density = 19.119330 Si / 1000 Ang^3
#
#
#
# Elastic Constant Matrix: (Units=GPa)
#
#
# Indices 1 2 3 4 5 6 
#
# 1 48.9913 16.6829 8.3512 -0.0005 -16.8307 -0.0001
# 2 16.6829 108.3733 15.6555 -0.0006 -19.2246 -0.0003
# 3 8.3512 15.6555 64.5051 -0.0010 -7.6612 -0.0005
# 4 -0.0005 -0.0006 -0.0010 17.8768 -0.0004 -4.9257
# 5 -16.8307 -19.2246 -7.6612 -0.0004 29.1251 -0.0001
# 6 -0.0001 -0.0003 -0.0005 -4.9257 -0.0001 24.4733
#
#
#
# Elastic Compliance Matrix: (Units=1/GPa)
#
#
# Indices 1 2 3 4 5 6 
#
# 1 0.025798 -0.001349 -0.001391 0.000001 0.013652 0.000000
# 2 -0.001349 0.010722 -0.001734 0.000000 0.005842 0.000000
# 3 -0.001391 -0.001734 0.016384 0.000001 0.002361 0.000001
# 4 0.000001 0.000000 0.000001 0.059223 0.000002 0.011920
# 5 0.013652 0.005842 0.002361 0.000002 0.046701 0.000001
# 6 0.000000 0.000000 0.000001 0.011920 0.000001 0.043260
#
#
# Mechanical properties :
#
#
# Convention : Reuss Voigt Hill
#
# Bulk Modulus (GPa) = 22.74964 33.69433 28.22199
# Shear Modulus (GPa) = 22.15457 26.37371 24.26414
#
# Velocity S-wave (km/s) = 3.40774 3.71809 3.56629
# Velocity P-wave (km/s) = 5.23528 6.00780 5.63480
#
# Compressibility (1/GPa) = 0.04395674
#
# Stress axis : x y z
#
# Youngs Moduli (GPa) = 38.76224 93.26885 61.03513
#
# Poissons Ratio (x) = 0.12579 0.08491
# Poissons Ratio (y) = 0.05228 0.10582
# Poissons Ratio (z) = 0.05393 0.16171
#
# Static dielectric constant tensor:
#      x y z
#    x 1.662780 0.000000 0.017030 
#    y 0.000000 1.647500 0.000000 
#    z 0.017030 0.000000 1.760580 
# 
# From -- ./inp_files/256631.got.cif
#   From: 2010.05.17/outbox.cif.g08.bks.cpg/sg12_129_cif.got.tgz:256631.got - 2010.06.03 13:09:07.
