data_PCOD9192564
_publ_section_title
;
Structure prediction by ZEFSAII (Michael W. Deem and Ramdas Pophale) SiO2 
 PCOD9192564
Probable space group: C 2/M
;
_chemical_formula_sum "Si O2"
_cell_formula_units_Z 50
_cell_length_a 27.390591
_cell_length_b 11.930984
_cell_length_c 10.861378
_cell_angle_alpha 90.000000
_cell_angle_beta 137.968658
_cell_angle_gamma 90.000000
_cell_volume 2376.496566
_symmetry_space_group_name_H-M "C 2/M"
_symmetry_group_IT_number 12
_symmetry_cell_setting 'monoclinic'
loop_
_space_group_symop_operation_xyz
x,y,z
-x,y,-z
-x,-y,-z
x,-y,z
1/2+x,1/2+y,z
1/2-x,1/2+y,-z
1/2-x,1/2-y,-z
1/2+x,1/2-y,z
loop_
_atom_site_type_symbol
_atom_site_label
_atom_site_fract_x
_atom_site_fract_y
_atom_site_fract_z
Si Si1 0.038791 0.125889 0.861381
Si Si2 0.205081 0.710837 0.591636
Si Si3 0.131496 0.810583 0.802095
Si Si4 0.000000 0.500000 0.500000
Si Si5 0.840030 0.875804 0.706930
Si Si6 0.560263 0.199970 0.446149
Si Si7 0.728565 0.873514 0.079135
O O1 0.091429 0.132385 0.840133
O O2 0.983772 0.228332 0.737283
O O3 0.006203 0.000000 0.805594
O O4 0.089322 0.140967 0.075681
O O5 0.171584 0.781295 0.416216
O O6 0.268536 0.632176 0.659917
O O7 0.137487 0.657919 0.537252
O O8 0.243525 0.798615 0.755985
O O9 0.080896 0.792447 0.589336
O O10 0.206438 0.868800 0.899716
O O11 0.157640 0.686348 0.891614
O O12 0.982168 0.599376 0.569675
O O13 0.843508 0.000000 0.657587
O O14 0.713801 0.000000 0.087456
#
# Coordination Sequence:
#
# PCOD9192564 Si02
#       7
#     8   8   8   2   8   8   8
#     4  11  22  40  63  93 130 168 213 270 323 384
#     4  10  22  42  63  95 128 162 222 264 315 394
#     4  10  20  37  52  91 121 162 210 258 322 385
#     4  12  24  44  62  94 132 176 208 258 330 404
#     4  10  22  41  68  94 127 168 214 272 323 368
#     4  11  25  40  64  92 130 175 214 262 328 391
#     4  10  20  33  58  87 124 162 207 263 323 382
#
# _framework density 21.039375
#
# number of rings (size 3 to 8) (size 9 to 14) (size 15 to 20)
#    0.000    1.600    3.200    0.960    2.240    5.120 
#    0.000    1.600    1.760    0.960    0.000    0.000 
#    0.000    0.000    0.000    0.000    0.000    0.000 
#
# Total GULP energy -139450.131274 kJ/mol
# GULP energy per Si atom -5578.005251 kJ/mol
# Density = 2.099149 g / cm^3
# Si number density = 21.039375 Si / 1000 Ang^3
#
#
#
# Elastic Constant Matrix: (Units=GPa)
#
#
# Indices 1 2 3 4 5 6 
#
# 1 61.6590 2.6334 -0.3400 0.0000 9.5947 0.0000
# 2 2.6334 89.0417 21.8504 0.0000 12.9000 0.0000
# 3 -0.3400 21.8504 78.3384 0.0000 2.9978 0.0000
# 4 0.0000 0.0000 0.0000 11.1058 0.0000 -5.1034
# 5 9.5947 12.9000 2.9978 0.0000 24.1314 0.0000
# 6 0.0000 0.0000 0.0000 -5.1034 0.0000 2.5397
#
#
#
# Elastic Compliance Matrix: (Units=1/GPa)
#
#
# Indices 1 2 3 4 5 6 
#
# 1 0.017314 0.000472 0.000218 0.000000 -0.007164 0.000000
# 2 0.000472 0.013019 -0.003372 0.000000 -0.006729 0.000000
# 3 0.000218 -0.003372 0.013706 0.000000 0.000013 0.000000
# 4 0.000000 0.000000 0.000000 1.175447 0.000000 2.362012
# 5 -0.007164 -0.006729 0.000013 0.000000 0.047883 0.000000
# 6 0.000000 0.000000 0.000000 2.362012 0.000000 5.140115
#
#
# Mechanical properties :
#
#
# Convention : Reuss Voigt Hill
#
# Bulk Modulus (GPa) = 25.85630 30.81407 28.33518
# Shear Modulus (GPa) = 0.77812 21.21506 10.99659
#
# Velocity S-wave (km/s) = 0.60880 3.17890 2.28867
# Velocity P-wave (km/s) = 3.57915 5.30580 4.52559
#
# Compressibility (1/GPa) = 0.03867530
#
# Stress axis : x y z
#
# Youngs Moduli (GPa) = 57.75673 76.81122 72.96059
#
# Poissons Ratio (x) = -0.03629 -0.01587
# Poissons Ratio (y) = -0.02728 0.24600
# Poissons Ratio (z) = -0.01256 0.25899
#
# Static dielectric constant tensor:
#      x y z
#    x 1.793620 0.000000 0.023760 
#    y 0.000000 1.731360 0.000000 
#    z 0.023760 0.000000 1.758620 
# 
# From -- ./inp_files/188649.got.cif
#   From: 2010.05.17/outbox.cif.g08.bks.cpg/sg12_95_cif.got.tgz:188649.got - 2010.06.03 13:09:07.
