data_PCOD9192315
_publ_section_title
;
Structure prediction by ZEFSAII (Michael W. Deem and Ramdas Pophale) SiO2 
 PCOD9192315
Probable space group: C 2/M
;
_chemical_formula_sum "Si O2"
_cell_formula_units_Z 56
_cell_length_a 9.673975
_cell_length_b 20.224398
_cell_length_c 12.212387
_cell_angle_alpha 90.000000
_cell_angle_beta 120.644642
_cell_angle_gamma 90.000000
_cell_volume 2055.672070
_symmetry_space_group_name_H-M "C 2/M"
_symmetry_group_IT_number 12
_symmetry_cell_setting 'monoclinic'
loop_
_space_group_symop_operation_xyz
x,y,z
-x,y,-z
-x,-y,-z
x,-y,z
1/2+x,1/2+y,z
1/2-x,1/2+y,-z
1/2-x,1/2-y,-z
1/2+x,1/2-y,z
loop_
_atom_site_type_symbol
_atom_site_label
_atom_site_fract_x
_atom_site_fract_y
_atom_site_fract_z
Si Si1 0.294094 0.847107 0.519552
Si Si2 0.595548 0.211389 0.228143
Si Si3 0.946670 0.800489 0.302447
Si Si4 0.782720 0.574744 0.308728
Si Si5 0.156224 0.069106 0.637957
Si Si6 0.089833 0.579093 0.888379
Si Si7 0.933774 0.920724 0.087904
O O1 0.406735 0.801656 0.639360
O O2 0.338411 0.871806 0.418821
O O3 0.282876 0.909989 0.596785
O O4 0.114819 0.815030 0.438424
O O5 0.777931 0.233484 0.274728
O O6 0.481719 0.275473 0.192625
O O7 0.528063 0.143643 0.148346
O O8 0.871910 0.874115 0.287744
O O9 0.816299 0.500000 0.361035
O O10 0.851820 0.580541 0.215030
O O11 0.590324 0.583573 0.227520
O O12 0.000000 0.063489 0.500000
O O13 0.191705 0.000000 0.706422
O O14 0.045040 0.500000 0.890826
O O15 0.247229 0.597714 0.022413
O O16 0.917262 0.000000 0.065261
O O17 0.000000 0.891573 0.000000
#
# Coordination Sequence:
#
# PCOD9192315 Si02
#       7
#     8   8   8   8   8   8   8
#     4  10  20  33  54  85 114 150 194 237 287 344
#     4  11  23  39  58  82 116 161 196 241 287 346
#     4  10  23  39  57  80 113 160 204 233 287 349
#     4   9  17  31  55  91 122 147 184 240 296 343
#     4   8  15  31  51  74 103 141 185 230 273 332
#     4   9  19  35  57  88 118 153 194 237 292 345
#     4   7  12  28  54  82 115 149 188 231 284 351
#
# _framework density 27.241700000000002
#
# number of rings (size 3 to 8) (size 9 to 14) (size 15 to 20)
#    0.000    2.857    0.000    3.857    2.000    4.000 
#    0.000    1.429    0.000    1.714    0.000    3.000 
#    0.000    0.000    0.000    0.000    0.000    0.000 
#
# Total GULP energy -155960.091587 kJ/mol
# GULP energy per Si atom -5570.003271 kJ/mol
# Density = 2.717970 g / cm^3
# Si number density = 27.241700 Si / 1000 Ang^3
#
#
#
# Elastic Constant Matrix: (Units=GPa)
#
#
# Indices 1 2 3 4 5 6 
#
# 1 105.8834 2.2870 38.4193 0.0000 19.6984 0.0000
# 2 2.2870 69.2408 -12.8414 0.0000 7.1674 0.0000
# 3 38.4193 -12.8414 109.7258 0.0000 34.7236 0.0000
# 4 0.0000 0.0000 0.0000 15.7399 0.0000 16.7503
# 5 19.6984 7.1674 34.7236 0.0000 60.6756 0.0000
# 6 0.0000 0.0000 0.0000 16.7503 0.0000 -41.0741
#
#
#
# Elastic Compliance Matrix: (Units=1/GPa)
#
#
# Indices 1 2 3 4 5 6 
#
# 1 0.011002 -0.000857 -0.003486 0.000000 -0.001476 0.000000
# 2 -0.000857 0.015404 0.003164 0.000000 -0.003352 0.000000
# 3 -0.003486 0.003164 0.012779 0.000000 -0.006555 0.000000
# 4 0.000000 0.000000 0.000000 0.044305 0.000000 0.018068
# 5 -0.001476 -0.003352 -0.006555 0.000000 0.021108 0.000000
# 6 0.000000 0.000000 0.000000 0.018068 0.000000 -0.016978
#
#
# Mechanical properties :
#
#
# Convention : Reuss Voigt Hill
#
# Bulk Modulus (GPa) = 27.15373 37.84218 32.49795
# Shear Modulus (GPa) = 48.89811 24.20064 36.54937
#
# Velocity S-wave (km/s) = 4.24131 2.98378 3.66686
# Velocity P-wave (km/s) = 5.82875 5.07859 5.46655
#
# Compressibility (1/GPa) = 0.03682736
#
# Stress axis : x y z
#
# Youngs Moduli (GPa) = 90.89142 64.91673 78.25508
#
# Poissons Ratio (x) = 0.05564 0.27276
# Poissons Ratio (y) = 0.07790 -0.24757
# Poissons Ratio (z) = 0.31680 -0.20537
#
# Static dielectric constant tensor:
#      x y z
#    x 2.297150 0.000000 -0.042300 
#    y 0.000000 2.408360 0.000000 
#    z -0.042300 0.000000 2.236520 
# 
# From -- ./inp_files/264863.got.cif
#   From: 2010.05.17/outbox.cif.g08.bks.cpg/sg12_133_cif.got.tgz:264863.got - 2010.06.03 13:09:07.
