data_PCOD9192557
_publ_section_title
;
Structure prediction by ZEFSAII (Michael W. Deem and Ramdas Pophale) SiO2 
 PCOD9192557
Probable space group: C 2/M
;
_chemical_formula_sum "Si O2"
_cell_formula_units_Z 58
_cell_length_a 27.250009
_cell_length_b 12.071026
_cell_length_c 7.174438
_cell_angle_alpha 90.000000
_cell_angle_beta 89.052529
_cell_angle_gamma 90.000000
_cell_volume 2359.605172
_symmetry_space_group_name_H-M "C 2/M"
_symmetry_group_IT_number 12
_symmetry_cell_setting 'monoclinic'
loop_
_space_group_symop_operation_xyz
x,y,z
-x,y,-z
-x,-y,-z
x,-y,z
1/2+x,1/2+y,z
1/2-x,1/2+y,-z
1/2-x,1/2-y,-z
1/2+x,1/2-y,z
loop_
_atom_site_type_symbol
_atom_site_label
_atom_site_fract_x
_atom_site_fract_y
_atom_site_fract_z
Si Si1 0.850249 0.879152 0.401611
Si Si2 0.612284 0.122311 0.141043
Si Si3 0.503872 0.876650 0.223924
Si Si4 0.748256 0.624783 0.229071
Si Si5 0.000000 0.000000 0.000000
Si Si6 0.463246 0.347035 0.338163
Si Si7 0.178735 0.625998 0.482807
Si Si8 0.674187 0.712201 0.969043
O O1 0.908826 0.879006 0.397152
O O2 0.838618 0.750841 0.461992
O O3 0.834465 0.000000 0.488767
O O4 0.831743 0.878314 0.189113
O O5 0.562074 0.142481 0.256002
O O6 0.659716 0.118635 0.273108
O O7 0.623610 0.222413 0.002992
O O8 0.607229 0.000000 0.053617
O O9 0.469888 0.784334 0.311953
O O10 0.490619 0.000000 0.285755
O O11 0.500000 0.872531 0.000000
O O12 0.754200 0.500000 0.165158
O O13 0.764907 0.629641 0.445061
O O14 0.695716 0.664435 0.159882
O O15 0.787535 0.698794 0.116038
O O16 0.979702 0.095224 0.146917
O O17 0.500000 0.379166 0.500000
O O18 0.162608 0.500000 0.558028
#
# Coordination Sequence:
#
# PCOD9192557 Si02
#       8
#     8   8   8   8   2   8   8   8
#     4  11  23  40  58  90 120 153 202 248 298 362
#     4  10  20  36  58  88 116 152 198 249 304 358
#     4  10  21  38  61  90 124 158 204 264 314 368
#     4   9  18  35  54  79 110 152 196 241 293 355
#     4  12  26  44  62  86 124 168 210 262 296 386
#     4  12  25  43  65  89 122 170 212 253 316 374
#     4   9  20  39  62  85 119 155 197 248 297 365
#     4  10  20  33  58  82 114 152 193 242 300 358
#
# _framework density 24.580382
#
# number of rings (size 3 to 8) (size 9 to 14) (size 15 to 20)
#    0.000    1.793    1.379    2.690    0.000    1.931 
#    0.000    2.069    0.000    0.000    0.000    0.000 
#    0.000    0.000    0.000    0.000    0.000    0.000 
#
# Total GULP energy -161510.633796 kJ/mol
# GULP energy per Si atom -5569.332200 kJ/mol
# Density = 2.452444 g / cm^3
# Si number density = 24.580382 Si / 1000 Ang^3
#
#
#
# Elastic Constant Matrix: (Units=GPa)
#
#
# Indices 1 2 3 4 5 6 
#
# 1 52.8464 37.2078 12.3769 0.0000 17.0095 0.0000
# 2 37.2078 227.2480 15.9978 0.0000 -14.0275 0.0000
# 3 12.3769 15.9978 53.0361 0.0000 11.8816 0.0000
# 4 0.0000 0.0000 0.0000 35.4952 0.0000 -10.3093
# 5 17.0095 -14.0275 11.8816 0.0000 25.8843 0.0000
# 6 0.0000 0.0000 0.0000 -10.3093 0.0000 41.5554
#
#
#
# Elastic Compliance Matrix: (Units=1/GPa)
#
#
# Indices 1 2 3 4 5 6 
#
# 1 0.031392 -0.006647 0.000120 0.000000 -0.024286 0.000000
# 2 -0.006647 0.006191 -0.002281 0.000000 0.008770 0.000000
# 3 0.000120 -0.002281 0.022080 0.000000 -0.011450 0.000000
# 4 0.000000 0.000000 0.000000 0.030360 0.000000 0.007532
# 5 -0.024286 0.008770 -0.011450 0.000000 0.064602 0.000000
# 6 0.000000 0.000000 0.000000 0.007532 0.000000 0.025933
#
#
# Mechanical properties :
#
#
# Convention : Reuss Voigt Hill
#
# Bulk Modulus (GPa) = 23.78321 51.58839 37.68580
# Shear Modulus (GPa) = 23.56382 38.42353 30.99368
#
# Velocity S-wave (km/s) = 3.09956 3.95799 3.55478
# Velocity P-wave (km/s) = 4.74409 6.47463 5.67570
#
# Compressibility (1/GPa) = 0.04204646
#
# Stress axis : x y z
#
# Youngs Moduli (GPa) = 31.85537 161.52956 45.28931
#
# Poissons Ratio (x) = 1.07376 -0.00544
# Poissons Ratio (y) = 0.21176 0.10330
# Poissons Ratio (z) = -0.00383 0.36843
#
# Static dielectric constant tensor:
#      x y z
#    x 1.918300 0.000000 0.005300 
#    y 0.000000 1.974640 0.000000 
#    z 0.005300 0.000000 1.975480 
# 
# From -- ./inp_files/110044.got.cif
#   From: 2010.05.17/outbox.cif.g08.bks.cpg/sg12_56_cif.got.tgz:110044.got - 2010.06.03 13:09:07.
