data_PCOD9192840
_publ_section_title
;
Structure prediction by ZEFSAII (Michael W. Deem and Ramdas Pophale) SiO2 
 PCOD9192840
Probable space group: C 2/M
;
_chemical_formula_sum "Si O2"
_cell_formula_units_Z 64
_cell_length_a 31.107558
_cell_length_b 7.429933
_cell_length_c 24.600435
_cell_angle_alpha 90.000000
_cell_angle_beta 152.039775
_cell_angle_gamma 90.000000
_cell_volume 2665.848105
_symmetry_space_group_name_H-M "C 2/M"
_symmetry_group_IT_number 12
_symmetry_cell_setting 'monoclinic'
loop_
_space_group_symop_operation_xyz
x,y,z
-x,y,-z
-x,-y,-z
x,-y,z
1/2+x,1/2+y,z
1/2-x,1/2+y,-z
1/2-x,1/2-y,-z
1/2+x,1/2-y,z
loop_
_atom_site_type_symbol
_atom_site_label
_atom_site_fract_x
_atom_site_fract_y
_atom_site_fract_z
Si Si1 0.650293 0.285525 0.415701
Si Si2 0.820310 0.780094 0.752198
Si Si3 0.552388 0.718260 0.201950
Si Si4 0.098308 0.205081 0.049225
Si Si5 0.849607 0.285816 0.085038
Si Si6 0.571070 0.217059 0.717719
Si Si7 0.232392 0.713612 0.114872
Si Si8 0.625018 0.793059 0.513102
O O1 0.641174 0.500000 0.410947
O O2 0.750000 0.250000 0.500000
O O3 0.573460 0.218739 0.286462
O O4 0.639531 0.207332 0.463842
O O5 0.860168 0.736636 0.737807
O O6 0.886812 0.716125 0.874570
O O7 0.716770 0.712433 0.640940
O O8 0.819249 0.000000 0.754174
O O9 0.545197 0.500000 0.197633
O O10 0.468921 0.786138 0.071249
O O11 0.198184 0.204875 0.132690
O O12 0.065681 0.000000 0.020253
O O13 0.863152 0.500000 0.095567
O O14 0.916684 0.214675 0.206416
O O15 0.750000 0.250000 0.000000
O O16 0.835658 0.213511 0.008877
O O17 0.663249 0.255244 0.787111
O O18 0.475116 0.285928 0.587552
O O19 0.565355 0.000000 0.714856
O O20 0.220685 0.500000 0.105443
O O21 0.622074 0.000000 0.528304
#
# Coordination Sequence:
#
# PCOD9192840 Si02
#       8
#     8   8   8   8   8   8   8   8
#     4  11  21  35  55  82 115 146 178 219 269 325
#     4   9  17  34  57  80 106 138 181 228 269 314
#     4   9  18  33  55  83 109 137 178 225 268 316
#     4  10  20  34  57  81 103 140 186 228 268 314
#     4   8  15  28  45  67  95 130 165 203 254 307
#     4   9  18  33  54  77 104 141 182 218 264 324
#     4  10  20  34  51  75 110 142 176 225 274 318
#     4  10  20  35  57  83 112 143 179 224 271 322
#
# _framework density 24.007368
#
# number of rings (size 3 to 8) (size 9 to 14) (size 15 to 20)
#    0.000    2.500    1.250    1.125    1.750    2.500 
#    0.000    1.875    0.000    4.500    0.000    0.000 
#    0.000    0.000    0.000    0.000    0.000    0.000 
#
# Total GULP energy -178670.064781 kJ/mol
# GULP energy per Si atom -5583.439524 kJ/mol
# Density = 2.395273 g / cm^3
# Si number density = 24.007368 Si / 1000 Ang^3
#
#
#
# Elastic Constant Matrix: (Units=GPa)
#
#
# Indices 1 2 3 4 5 6 
#
# 1 56.2188 -9.0825 5.2471 0.0000 2.6148 0.0000
# 2 -9.0825 91.9082 0.2940 0.0000 2.6187 0.0000
# 3 5.2471 0.2940 138.1289 0.0000 4.3406 0.0000
# 4 0.0000 0.0000 0.0000 4.0773 0.0000 -0.1447
# 5 2.6148 2.6187 4.3406 0.0000 37.3821 0.0000
# 6 0.0000 0.0000 0.0000 -0.1447 0.0000 10.5501
#
#
#
# Elastic Compliance Matrix: (Units=1/GPa)
#
#
# Indices 1 2 3 4 5 6 
#
# 1 0.018207 0.001839 -0.000654 0.000000 -0.001326 0.000000
# 2 0.001839 0.011088 -0.000065 0.000000 -0.000898 0.000000
# 3 -0.000654 -0.000065 0.007290 0.000000 -0.000796 0.000000
# 4 0.000000 0.000000 0.000000 0.245379 0.000000 0.003365
# 5 -0.001326 -0.000898 -0.000796 0.000000 0.026999 0.000000
# 6 0.000000 0.000000 0.000000 0.003365 0.000000 0.094832
#
#
# Mechanical properties :
#
#
# Convention : Reuss Voigt Hill
#
# Bulk Modulus (GPa) = 25.75652 31.01926 28.38789
# Shear Modulus (GPa) = 12.06283 29.72173 20.89228
#
# Velocity S-wave (km/s) = 2.24400 3.52238 2.95319
# Velocity P-wave (km/s) = 4.17923 5.43062 4.84549
#
# Compressibility (1/GPa) = 0.03882512
#
# Stress axis : x y z
#
# Youngs Moduli (GPa) = 54.92247 90.18795 137.18159
#
# Poissons Ratio (x) = -0.16587 0.08970
# Poissons Ratio (y) = -0.10101 0.00895
# Poissons Ratio (z) = 0.03591 0.00589
#
# Static dielectric constant tensor:
#      x y z
#    x 1.897230 0.000000 0.009080 
#    y 0.000000 1.974360 0.000000 
#    z 0.009080 0.000000 1.964070 
# 
# From -- ./inp_files/353474.got.cif
#   From: 2010.05.17/outbox.cif.g08.bks.cpg/sg12_177_cif.got.tgz:353474.got - 2010.06.03 13:09:07.
