data_PCOD9192410
_publ_section_title
;
Structure prediction by ZEFSAII (Michael W. Deem and Ramdas Pophale) SiO2 
 PCOD9192410
Probable space group: C 2/M
;
_chemical_formula_sum "Si O2"
_cell_formula_units_Z 48
_cell_length_a 24.733083
_cell_length_b 9.019440
_cell_length_c 18.787381
_cell_angle_alpha 90.000000
_cell_angle_beta 33.754211
_cell_angle_gamma 90.000000
_cell_volume 2328.685324
_symmetry_space_group_name_H-M "C 2/M"
_symmetry_group_IT_number 12
_symmetry_cell_setting 'monoclinic'
loop_
_space_group_symop_operation_xyz
x,y,z
-x,y,-z
-x,-y,-z
x,-y,z
1/2+x,1/2+y,z
1/2-x,1/2+y,-z
1/2-x,1/2-y,-z
1/2+x,1/2-y,z
loop_
_atom_site_type_symbol
_atom_site_label
_atom_site_fract_x
_atom_site_fract_y
_atom_site_fract_z
Si Si1 0.592052 0.175207 0.994204
Si Si2 0.874609 0.324804 0.211076
Si Si3 0.029849 0.324587 0.298252
Si Si4 0.334102 0.324630 0.954647
Si Si5 0.391275 0.667888 0.651856
Si Si6 0.317531 0.175164 0.594317
O O1 0.478775 0.218785 0.129358
O O2 0.661758 0.265254 0.969602
O O3 0.600597 0.000000 0.000464
O O4 0.613015 0.194916 0.887799
O O5 0.860300 0.500000 0.239761
O O6 0.779439 0.234821 0.336971
O O7 0.044113 0.500000 0.271434
O O8 0.066812 0.231818 0.191080
O O9 0.094302 0.268820 0.294730
O O10 0.917135 0.298332 0.441660
O O11 0.324828 0.500000 0.962475
O O12 0.250000 0.250000 0.000000
O O13 0.500000 0.657791 0.500000
O O14 0.358485 0.500000 0.705134
O O15 0.329534 0.739742 0.656255
O O16 0.310885 0.000000 0.614730
#
# Coordination Sequence:
#
# PCOD9192410 Si02
#       6
#     8   8   8   8   8   8
#     4   9  20  41  63  87 118 154 196 243 290 344
#     4   9  19  37  64  90 117 153 194 241 293 346
#     4  10  21  38  56  80 116 155 195 242 292 345
#     4  12  26  42  62  86 116 157 197 241 292 351
#     4   9  17  30  50  77 111 150 190 233 283 340
#     4  10  20  33  55  86 119 152 191 242 295 343
#
# _framework density 20.612487999999999
#
# number of rings (size 3 to 8) (size 9 to 14) (size 15 to 20)
#    0.000    2.167    0.000    4.000    2.333    5.333 
#    0.000    2.500    0.000    0.000    0.000    0.000 
#    0.000    0.000    0.000    0.000    0.000    0.000 
#
# Total GULP energy -134120.630072 kJ/mol
# GULP energy per Si atom -5588.359586 kJ/mol
# Density = 2.056557 g / cm^3
# Si number density = 20.612488 Si / 1000 Ang^3
#
#
#
# Elastic Constant Matrix: (Units=GPa)
#
#
# Indices 1 2 3 4 5 6 
#
# 1 76.2134 44.4475 22.1653 -0.0004 -16.9873 0.0002
# 2 44.4475 101.4641 33.9749 -0.0017 -12.1337 0.0011
# 3 22.1653 33.9749 65.2852 -0.0012 -24.8385 0.0007
# 4 -0.0004 -0.0017 -0.0012 26.2752 0.0004 1.9419
# 5 -16.9873 -12.1337 -24.8385 0.0004 35.1165 -0.0002
# 6 0.0002 0.0011 0.0007 1.9419 -0.0002 27.1085
#
#
#
# Elastic Compliance Matrix: (Units=1/GPa)
#
#
# Indices 1 2 3 4 5 6 
#
# 1 0.018977 -0.007517 -0.000037 0.000000 0.006557 0.000000
# 2 -0.007517 0.014916 -0.006339 0.000001 -0.002966 0.000000
# 3 -0.000037 -0.006339 0.024338 0.000000 0.015007 0.000000
# 4 0.000000 0.000001 0.000000 0.038261 0.000000 -0.002741
# 5 0.006557 -0.002966 0.015007 0.000000 0.041238 0.000000
# 6 0.000000 0.000000 0.000000 -0.002741 0.000000 0.037085
#
#
# Mechanical properties :
#
#
# Convention : Reuss Voigt Hill
#
# Bulk Modulus (GPa) = 32.84390 49.34868 41.09629
# Shear Modulus (GPa) = 23.50182 27.19170 25.34676
#
# Velocity S-wave (km/s) = 3.38031 3.63600 3.51048
# Velocity P-wave (km/s) = 5.58604 6.45139 6.03425
#
# Compressibility (1/GPa) = 0.03044705
#
# Stress axis : x y z
#
# Youngs Moduli (GPa) = 52.69579 67.04041 41.08768
#
# Poissons Ratio (x) = 0.50392 0.00150
# Poissons Ratio (y) = 0.39610 0.26045
# Poissons Ratio (z) = 0.00193 0.42496
#
# Static dielectric constant tensor:
#      x y z
#    x 1.723530 0.000000 -0.001540 
#    y 0.000000 1.688060 0.000000 
#    z -0.001540 0.000000 1.810990 
# 
# From -- ./inp_files/327178.got.cif
#   From: 2010.05.17/outbox.cif.g08.bks.cpg/sg12_164_cif.got.tgz:327178.got - 2010.06.03 13:09:07.
