data_PCOD9192439
_publ_section_title
;
Structure prediction by ZEFSAII (Michael W. Deem and Ramdas Pophale) SiO2 
 PCOD9192439
Probable space group: C 2/M
;
_chemical_formula_sum "Si O2"
_cell_formula_units_Z 36
_cell_length_a 11.934866
_cell_length_b 21.819881
_cell_length_c 8.378298
_cell_angle_alpha 90.000000
_cell_angle_beta 52.641635
_cell_angle_gamma 90.000000
_cell_volume 1734.259412
_symmetry_space_group_name_H-M "C 2/M"
_symmetry_group_IT_number 12
_symmetry_cell_setting 'monoclinic'
loop_
_space_group_symop_operation_xyz
x,y,z
-x,y,-z
-x,-y,-z
x,-y,z
1/2+x,1/2+y,z
1/2-x,1/2+y,-z
1/2-x,1/2-y,-z
1/2+x,1/2-y,z
loop_
_atom_site_type_symbol
_atom_site_label
_atom_site_fract_x
_atom_site_fract_y
_atom_site_fract_z
Si Si1 0.852320 0.168307 0.535875
Si Si2 0.528216 0.270004 0.144184
Si Si3 0.100814 0.430054 0.760083
Si Si4 0.000000 0.399127 0.500000
Si Si5 0.690974 0.203869 0.249626
O O1 0.907570 0.185065 0.310255
O O2 0.731038 0.118015 0.649173
O O3 0.799555 0.233221 0.656470
O O4 0.000000 0.152677 0.500000
O O5 0.558004 0.220198 0.250499
O O6 0.324795 0.304299 0.018666
O O7 0.500000 0.240155 0.000000
O O8 0.153955 0.500000 0.733530
O O9 0.017725 0.428966 0.660682
O O10 0.000000 0.417220 0.000000
O O11 0.859368 0.357513 0.626860
#
# Coordination Sequence:
#
# PCOD9192439 Si02
#       5
#     8   8   8   4   8
#     4  10  22  42  63  96 135 168 216 269 328 395
#     4  10  20  33  55  90 140 164 207 251 327 406
#     4  11  28  47  69  94 126 182 229 270 319 377
#     4  12  23  42  70  98 137 166 214 278 326 400
#     4  10  22  34  57 103 129 166 204 259 345 391
#
# _framework density 20.758140000000001
#
# number of rings (size 3 to 8) (size 9 to 14) (size 15 to 20)
#    0.000    1.556    3.333    1.667   12.444    2.222 
#    0.000    0.000    0.000    2.000    0.000    0.000 
#    0.000    0.000    0.000    0.000    0.000    0.000 
#
# Total GULP energy -100344.947923 kJ/mol
# GULP energy per Si atom -5574.719329 kJ/mol
# Density = 2.071089 g / cm^3
# Si number density = 20.758140 Si / 1000 Ang^3
#
#
#
# Elastic Constant Matrix: (Units=GPa)
#
#
# Indices 1 2 3 4 5 6 
#
# 1 96.9090 44.2279 44.3554 0.0000 -2.3570 0.0000
# 2 44.2279 111.1111 62.1390 0.0000 -10.4033 0.0000
# 3 44.3554 62.1390 151.0016 0.0000 -6.7221 0.0000
# 4 0.0000 0.0000 0.0000 19.4066 0.0000 -9.9446
# 5 -2.3570 -10.4033 -6.7221 0.0000 46.2230 0.0000
# 6 0.0000 0.0000 0.0000 -9.9446 0.0000 27.1941
#
#
#
# Elastic Compliance Matrix: (Units=1/GPa)
#
#
# Indices 1 2 3 4 5 6 
#
# 1 0.013174 -0.004051 -0.002228 0.000000 -0.000564 0.000000
# 2 -0.004051 0.013112 -0.004110 0.000000 0.002147 0.000000
# 3 -0.002228 -0.004110 0.008980 0.000000 0.000267 0.000000
# 4 0.000000 0.000000 0.000000 0.063412 0.000000 0.023189
# 5 -0.000564 0.002147 0.000267 0.000000 0.022128 0.000000
# 6 0.000000 0.000000 0.000000 0.023189 0.000000 0.045253
#
#
# Mechanical properties :
#
#
# Convention : Reuss Voigt Hill
#
# Bulk Modulus (GPa) = 69.02172 73.38514 71.20343
# Shear Modulus (GPa) = 26.08719 32.45135 29.26927
#
# Velocity S-wave (km/s) = 3.54887 3.95816 3.75909
# Velocity P-wave (km/s) = 7.07921 7.50457 7.29499
#
# Compressibility (1/GPa) = 0.01448819
#
# Stress axis : x y z
#
# Youngs Moduli (GPa) = 75.90954 76.26546 111.35573
#
# Poissons Ratio (x) = 0.30892 0.24808
# Poissons Ratio (y) = 0.30748 0.45771
# Poissons Ratio (z) = 0.16911 0.31348
#
# Static dielectric constant tensor:
#      x y z
#    x 1.926070 0.000000 0.049680 
#    y 0.000000 1.710140 0.000000 
#    z 0.049680 0.000000 1.791110 
# 
# From -- ./inp_files/48386.got.cif
#   From: 2010.05.17/outbox.cif.g08.bks.cpg/sg12_25_cif.got.tgz:48386.got - 2010.06.03 13:09:07.
