data_PCOD9192462
_publ_section_title
;
Structure prediction by ZEFSAII (Michael W. Deem and Ramdas Pophale) SiO2 
 PCOD9192462
Probable space group: C 2/M
;
_chemical_formula_sum "Si O2"
_cell_formula_units_Z 58
_cell_length_a 34.027340
_cell_length_b 7.942808
_cell_length_c 11.588312
_cell_angle_alpha 90.000000
_cell_angle_beta 101.892322
_cell_angle_gamma 90.000000
_cell_volume 3064.780126
_symmetry_space_group_name_H-M "C 2/M"
_symmetry_group_IT_number 12
_symmetry_cell_setting 'monoclinic'
loop_
_space_group_symop_operation_xyz
x,y,z
-x,y,-z
-x,-y,-z
x,-y,z
1/2+x,1/2+y,z
1/2-x,1/2+y,-z
1/2-x,1/2-y,-z
1/2+x,1/2-y,z
loop_
_atom_site_type_symbol
_atom_site_label
_atom_site_fract_x
_atom_site_fract_y
_atom_site_fract_z
Si Si1 0.626283 0.304392 0.622605
Si Si2 0.462998 0.201423 0.399166
Si Si3 0.500000 0.500000 0.000000
Si Si4 0.731375 0.305123 0.302832
Si Si5 0.870365 0.196226 0.116954
Si Si6 0.290024 0.808317 0.958885
Si Si7 0.457758 0.196681 0.123985
Si Si8 0.306758 0.804453 0.496576
O O1 0.637541 0.500000 0.621758
O O2 0.578596 0.283819 0.586966
O O3 0.637643 0.239761 0.757505
O O4 0.650509 0.212975 0.537271
O O5 0.500000 0.258795 0.500000
O O6 0.468625 0.229184 0.265722
O O7 0.458573 0.000000 0.411626
O O8 0.476838 0.347128 0.060805
O O9 0.736671 0.500000 0.272941
O O10 0.718281 0.208220 0.181760
O O11 0.699411 0.289686 0.387017
O O12 0.773034 0.242846 0.385017
O O13 0.909109 0.288986 0.089202
O O14 0.881880 0.000000 0.135513
O O15 0.829846 0.209631 0.019853
O O16 0.297910 0.000000 0.995946
O O17 0.250000 0.750000 0.000000
O O18 0.468885 0.000000 0.103687
O O19 0.297568 0.000000 0.513603
#
# Coordination Sequence:
#
# PCOD9192462 Si02
#       8
#     8   8   2   8   8   8   8   8
#     4  10  20  33  56  86 113 146 186 229 283 351
#     4   9  19  37  61  88 118 149 187 243 304 359
#     4  12  22  40  62  90 120 160 214 250 296 374
#     4  10  21  37  56  79 110 148 191 238 291 341
#     4  10  20  38  60  86 119 153 194 247 302 351
#     4  12  24  37  56  84 116 155 200 246 294 347
#     4  10  21  39  64  92 122 160 204 253 307 367
#     4  10  20  35  56  80 110 148 189 234 284 347
#
# _framework density 18.924685
#
# number of rings (size 3 to 8) (size 9 to 14) (size 15 to 20)
#    0.000    1.793    0.690    3.931    0.966    5.793 
#    0.000    1.379    0.000    1.655    0.000    0.000 
#    0.000    0.000    0.000    0.000    0.000    0.000 
#
# Total GULP energy -161595.013125 kJ/mol
# GULP energy per Si atom -5572.241832 kJ/mol
# Density = 1.888161 g / cm^3
# Si number density = 18.924685 Si / 1000 Ang^3
#
#
#
# Elastic Constant Matrix: (Units=GPa)
#
#
# Indices 1 2 3 4 5 6 
#
# 1 85.9554 24.2145 57.4440 0.0000 -11.1783 0.0000
# 2 24.2145 77.6179 10.1823 0.0000 -9.4296 0.0000
# 3 57.4440 10.1823 78.1369 0.0000 4.9594 0.0000
# 4 0.0000 0.0000 0.0000 20.1230 0.0000 -3.4102
# 5 -11.1783 -9.4296 4.9594 0.0000 28.0473 0.0000
# 6 0.0000 0.0000 0.0000 -3.4102 0.0000 28.7866
#
#
#
# Elastic Compliance Matrix: (Units=1/GPa)
#
#
# Indices 1 2 3 4 5 6 
#
# 1 0.029387 -0.004589 -0.021898 0.000000 0.014041 0.000000
# 2 -0.004589 0.014485 0.001308 0.000000 0.002810 0.000000
# 3 -0.021898 0.001308 0.029584 0.000000 -0.013519 0.000000
# 4 0.000000 0.000000 0.000000 0.050712 0.000000 0.006008
# 5 0.014041 0.002810 -0.013519 0.000000 0.044585 0.000000
# 6 0.000000 0.000000 0.000000 0.006008 0.000000 0.035450
#
#
# Mechanical properties :
#
#
# Convention : Reuss Voigt Hill
#
# Bulk Modulus (GPa) = 43.29317 47.26575 45.27946
# Shear Modulus (GPa) = 19.06489 25.38267 22.22378
#
# Velocity S-wave (km/s) = 3.17741 3.66628 3.43056
# Velocity P-wave (km/s) = 6.03221 6.55378 6.29839
#
# Compressibility (1/GPa) = 0.02309833
#
# Stress axis : x y z
#
# Youngs Moduli (GPa) = 34.02842 69.03635 33.80173
#
# Poissons Ratio (x) = 0.31684 0.74018
# Poissons Ratio (y) = 0.15617 -0.04422
# Poissons Ratio (z) = 0.74515 -0.09031
#
# Static dielectric constant tensor:
#      x y z
#    x 1.673260 0.000000 0.028870 
#    y 0.000000 1.663010 0.000000 
#    z 0.028870 0.000000 1.663050 
# 
# From -- ./inp_files/186753.got.cif
#   From: 2010.05.17/outbox.cif.g08.bks.cpg/sg12_94_cif.got.tgz:186753.got - 2010.06.03 13:09:07.
