data_PCOD9192026
_publ_section_title
;
Structure prediction by ZEFSAII (Michael W. Deem and Ramdas Pophale) SiO2 
 PCOD9192026
Probable space group: C 2/M
;
_chemical_formula_sum "Si O2"
_cell_formula_units_Z 58
_cell_length_a 15.760307
_cell_length_b 11.357943
_cell_length_c 27.542361
_cell_angle_alpha 90.000000
_cell_angle_beta 147.650658
_cell_angle_gamma 90.000000
_cell_volume 2638.057775
_symmetry_space_group_name_H-M "C 2/M"
_symmetry_group_IT_number 12
_symmetry_cell_setting 'monoclinic'
loop_
_space_group_symop_operation_xyz
x,y,z
-x,y,-z
-x,-y,-z
x,-y,z
1/2+x,1/2+y,z
1/2-x,1/2+y,-z
1/2-x,1/2-y,-z
1/2+x,1/2-y,z
loop_
_atom_site_type_symbol
_atom_site_label
_atom_site_fract_x
_atom_site_fract_y
_atom_site_fract_z
Si Si1 0.963148 0.634266 0.884421
Si Si2 0.367511 0.294462 0.758735
Si Si3 0.743288 0.868175 0.366129
Si Si4 0.247383 0.199739 0.150224
Si Si5 0.445586 0.134315 0.337756
Si Si6 0.000000 0.000000 0.000000
Si Si7 0.951173 0.867111 0.559218
Si Si8 0.799635 0.130295 0.088123
O O1 0.928969 0.500000 0.878455
O O2 0.897254 0.670881 0.800613
O O3 0.867767 0.715134 0.874895
O O4 0.151985 0.652025 0.981111
O O5 0.346208 0.250360 0.693575
O O6 0.214370 0.358090 0.706273
O O7 0.524578 0.366114 0.848546
O O8 0.895250 0.866175 0.402640
O O9 0.805460 0.858132 0.451163
O O10 0.670804 0.000000 0.326355
O O11 0.383004 0.155126 0.252637
O O12 0.304021 0.272906 0.131615
O O13 0.134280 0.099436 0.076343
O O14 0.538236 0.251771 0.401311
O O15 0.510899 0.000000 0.374206
O O16 0.948731 0.000000 0.580608
O O17 0.771681 0.000000 0.095473
#
# Coordination Sequence:
#
# PCOD9192026 Si02
#       8
#     8   8   8   8   8   2   8   8
#     4  10  20  36  55  79 103 139 184 225 260 307
#     4  10  20  33  52  80 113 142 172 214 270 319
#     4   8  14  29  49  76 105 139 173 213 258 315
#     4  11  22  37  58  75 103 142 184 223 264 312
#     4  10  20  34  53  82 109 138 174 222 269 320
#     4  12  20  40  54  80 100 142 184 226 272 312
#     4   8  15  29  53  76 105 136 175 217 263 315
#     4  11  22  37  52  77 109 145 181 218 264 317
#
# _framework density 21.985870999999999
#
# number of rings (size 3 to 8) (size 9 to 14) (size 15 to 20)
#    0.000    2.207    2.069    2.483    0.000    4.966 
#    2.483    6.207    0.000    0.828    0.000    0.000 
#    0.000    0.000    0.000    0.000    0.000    0.000 
#
# Total GULP energy -161512.383377 kJ/mol
# GULP energy per Si atom -5569.392530 kJ/mol
# Density = 2.193583 g / cm^3
# Si number density = 21.985871 Si / 1000 Ang^3
#
#
#
# Elastic Constant Matrix: (Units=GPa)
#
#
# Indices 1 2 3 4 5 6 
#
# 1 24.4862 11.4290 -0.4186 0.0000 0.4824 0.0000
# 2 11.4290 148.3625 29.3740 0.0000 -10.7352 0.0000
# 3 -0.4186 29.3740 63.4455 0.0001 -6.6674 0.0000
# 4 0.0000 0.0000 0.0001 43.4208 0.0000 2.4335
# 5 0.4824 -10.7352 -6.6674 0.0000 17.5568 0.0000
# 6 0.0000 0.0000 0.0000 2.4335 0.0000 12.7710
#
#
#
# Elastic Compliance Matrix: (Units=1/GPa)
#
#
# Indices 1 2 3 4 5 6 
#
# 1 0.042721 -0.003847 0.001763 0.000000 -0.002856 0.000000
# 2 -0.003847 0.007963 -0.003322 0.000000 0.003713 0.000000
# 3 0.001763 -0.003322 0.017803 0.000000 0.004681 0.000000
# 4 0.000000 0.000000 0.000000 0.023279 0.000000 -0.004436
# 5 -0.002856 0.003713 0.004681 0.000000 0.061085 0.000000
# 6 0.000000 0.000000 0.000000 -0.004436 0.000000 0.079148
#
#
# Mechanical properties :
#
#
# Convention : Reuss Voigt Hill
#
# Bulk Modulus (GPa) = 17.33841 35.22921 26.28381
# Shear Modulus (GPa) = 19.08138 27.81038 23.44588
#
# Velocity S-wave (km/s) = 2.94920 3.56043 3.26913
# Velocity P-wave (km/s) = 4.41592 5.74113 5.12157
#
# Compressibility (1/GPa) = 0.05767541
#
# Stress axis : x y z
#
# Youngs Moduli (GPa) = 23.40759 125.58188 56.17001
#
# Poissons Ratio (x) = 0.48307 -0.09901
# Poissons Ratio (y) = 0.09004 0.18659
# Poissons Ratio (z) = -0.04126 0.41716
#
# Static dielectric constant tensor:
#      x y z
#    x 1.852700 0.000000 0.031400 
#    y 0.000000 1.793790 0.000000 
#    z 0.031400 0.000000 1.840250 
# 
# From -- ./inp_files/378925.got.cif
#   From: 2010.05.17/outbox.cif.g08.bks.cpg/sg12_190_cif.got.tgz:378925.got - 2010.06.03 13:09:07.
