data_PCOD9192325
_publ_section_title
;
Structure prediction by ZEFSAII (Michael W. Deem and Ramdas Pophale) SiO2 
 PCOD9192325
Probable space group: C 2/M
;
_chemical_formula_sum "Si O2"
_cell_formula_units_Z 56
_cell_length_a 18.369588
_cell_length_b 10.288353
_cell_length_c 14.401913
_cell_angle_alpha 90.000000
_cell_angle_beta 102.858602
_cell_angle_gamma 90.000000
_cell_volume 2653.599860
_symmetry_space_group_name_H-M "C 2/M"
_symmetry_group_IT_number 12
_symmetry_cell_setting 'monoclinic'
loop_
_space_group_symop_operation_xyz
x,y,z
-x,y,-z
-x,-y,-z
x,-y,z
1/2+x,1/2+y,z
1/2-x,1/2+y,-z
1/2-x,1/2-y,-z
1/2+x,1/2-y,z
loop_
_atom_site_type_symbol
_atom_site_label
_atom_site_fract_x
_atom_site_fract_y
_atom_site_fract_z
Si Si1 0.803072 0.140444 0.052671
Si Si2 0.199644 0.143073 0.535228
Si Si3 0.280354 0.279898 0.252960
Si Si4 0.622212 0.351539 0.208031
Si Si5 0.548287 0.350652 0.393080
Si Si6 0.537181 0.653797 0.867352
Si Si7 0.066816 0.652520 0.706121
O O1 0.801478 0.145957 0.164545
O O2 0.889267 0.158694 0.049268
O O3 0.776879 0.000000 0.012711
O O4 0.750000 0.250000 0.000000
O O5 0.250000 0.250000 0.500000
O O6 0.213996 0.144778 0.648839
O O7 0.113129 0.166814 0.486746
O O8 0.217768 0.000000 0.502003
O O9 0.195742 0.232369 0.216528
O O10 0.344449 0.169948 0.283884
O O11 0.644310 0.500000 0.198367
O O12 0.591416 0.340569 0.305628
O O13 0.547887 0.324028 0.126685
O O14 0.519021 0.500000 0.392008
O O15 0.485178 0.239999 0.376317
O O16 0.537034 0.500000 0.833267
O O17 0.551421 0.768380 0.797113
O O18 0.047160 0.500000 0.701885
#
# Coordination Sequence:
#
# PCOD9192325 Si02
#       7
#     8   8   8   8   8   8   8
#     4  10  22  41  64  89 117 151 195 244 297 355
#     4  11  23  39  60  87 121 160 201 247 296 349
#     4  11  22  37  59  90 122 153 195 246 303 352
#     4   9  16  32  58  85 116 155 196 236 284 349
#     4   9  19  37  57  79 115 164 204 239 287 349
#     4   8  17  36  60  84 115 154 195 240 291 356
#     4  10  20  33  54  85 119 156 199 250 296 340
#
# _framework density 21.103407000000001
#
# number of rings (size 3 to 8) (size 9 to 14) (size 15 to 20)
#    0.000    2.286    1.429    2.143    0.000    6.286 
#    0.000    3.571    0.000    3.429    0.000    0.000 
#    0.000    0.000    0.000    0.000    0.000    0.000 
#
# Total GULP energy -156089.352259 kJ/mol
# GULP energy per Si atom -5574.619724 kJ/mol
# Density = 2.105537 g / cm^3
# Si number density = 21.103407 Si / 1000 Ang^3
#
#
#
# Elastic Constant Matrix: (Units=GPa)
#
#
# Indices 1 2 3 4 5 6 
#
# 1 123.2234 72.3248 48.7161 0.0000 24.6312 0.0000
# 2 72.3248 167.6329 48.0078 0.0000 28.4488 0.0000
# 3 48.7161 48.0078 74.9406 0.0000 12.2657 0.0000
# 4 0.0000 0.0000 0.0000 18.8515 0.0000 13.1248
# 5 24.6312 28.4488 12.2657 0.0000 50.9745 0.0000
# 6 0.0000 0.0000 0.0000 13.1248 0.0000 22.3991
#
#
#
# Elastic Compliance Matrix: (Units=1/GPa)
#
#
# Indices 1 2 3 4 5 6 
#
# 1 0.013019 -0.003464 -0.005758 0.000000 -0.002972 0.000000
# 2 -0.003464 0.008721 -0.002928 0.000000 -0.002489 0.000000
# 3 -0.005758 -0.002928 0.018987 0.000000 -0.000153 0.000000
# 4 0.000000 0.000000 0.000000 0.089598 0.000000 -0.052500
# 5 -0.002972 -0.002489 -0.000153 0.000000 0.022480 0.000000
# 6 0.000000 0.000000 0.000000 -0.052500 0.000000 0.075408
#
#
# Mechanical properties :
#
#
# Convention : Reuss Voigt Hill
#
# Bulk Modulus (GPa) = 60.86884 78.21047 69.53966
# Shear Modulus (GPa) = 19.38092 31.56155 25.47123
#
# Velocity S-wave (km/s) = 3.03376 3.87145 3.47792
# Velocity P-wave (km/s) = 6.41696 7.55812 7.01080
#
# Compressibility (1/GPa) = 0.01642877
#
# Stress axis : x y z
#
# Youngs Moduli (GPa) = 76.81302 114.67154 52.66702
#
# Poissons Ratio (x) = 0.39717 0.30324
# Poissons Ratio (y) = 0.26604 0.15419
# Poissons Ratio (z) = 0.44226 0.33572
#
# Static dielectric constant tensor:
#      x y z
#    x 1.769180 0.000000 -0.014500 
#    y 0.000000 1.738380 0.000000 
#    z -0.014500 0.000000 1.833140 
# 
# From -- ./inp_files/281696.got.cif
#   From: 2010.05.17/outbox.cif.g08.bks.cpg/sg12_141_cif.got.tgz:281696.got - 2010.06.03 13:09:07.
