data_PCOD9192381
_publ_section_title
;
Structure prediction by ZEFSAII (Michael W. Deem and Ramdas Pophale) SiO2 
 PCOD9192381
Probable space group: C 2/M
;
_chemical_formula_sum "Si O2"
_cell_formula_units_Z 48
_cell_length_a 22.271635
_cell_length_b 14.157399
_cell_length_c 11.155037
_cell_angle_alpha 90.000000
_cell_angle_beta 39.654682
_cell_angle_gamma 90.000000
_cell_volume 2244.582273
_symmetry_space_group_name_H-M "C 2/M"
_symmetry_group_IT_number 12
_symmetry_cell_setting 'monoclinic'
loop_
_space_group_symop_operation_xyz
x,y,z
-x,y,-z
-x,-y,-z
x,-y,z
1/2+x,1/2+y,z
1/2-x,1/2+y,-z
1/2-x,1/2-y,-z
1/2+x,1/2-y,z
loop_
_atom_site_type_symbol
_atom_site_label
_atom_site_fract_x
_atom_site_fract_y
_atom_site_fract_z
Si Si1 0.254507 0.390721 0.017978
Si Si2 0.470964 0.746743 0.183164
Si Si3 0.108166 0.601100 0.032328
Si Si4 0.387004 0.262271 0.675545
Si Si5 0.175605 0.604116 0.653319
Si Si6 0.626766 0.607529 0.534168
O O1 0.270094 0.500000 0.031555
O O2 0.198231 0.394469 0.977824
O O3 0.181112 0.329870 0.211614
O O4 0.348006 0.330596 0.843004
O O5 0.543076 0.809437 0.148079
O O6 0.375621 0.810060 0.332814
O O7 0.460130 0.644442 0.255251
O O8 0.500000 0.741013 0.000000
O O9 0.060823 0.500000 0.130814
O O10 0.134127 0.601344 0.852479
O O11 0.500000 0.243730 0.500000
O O12 0.366304 0.320901 0.586550
O O13 0.157780 0.500000 0.626990
O O14 0.285364 0.614818 0.510211
O O15 0.620756 0.500000 0.500743
#
# Coordination Sequence:
#
# PCOD9192381 Si02
#       6
#     8   8   8   8   8   8
#     4  10  21  39  62  89 121 154 194 247 297 342
#     4  10  20  33  55  84 111 141 183 233 283 341
#     4   9  16  32  57  83 109 138 178 227 283 339
#     4  11  23  39  62  87 117 158 204 240 290 353
#     4   9  17  32  55  80 106 139 179 223 276 338
#     4  11  22  37  55  76 109 152 191 230 282 346
#
# _framework density 21.384824999999999
#
# number of rings (size 3 to 8) (size 9 to 14) (size 15 to 20)
#    0.000    2.000    1.667    2.500    0.000    4.000 
#    0.000    1.667    0.000    1.000    0.000    0.000 
#    0.000    0.000    0.000    0.000    0.000    0.000 
#
# Total GULP energy -133830.634979 kJ/mol
# GULP energy per Si atom -5576.276457 kJ/mol
# Density = 2.133615 g / cm^3
# Si number density = 21.384825 Si / 1000 Ang^3
#
#
#
# Elastic Constant Matrix: (Units=GPa)
#
#
# Indices 1 2 3 4 5 6 
#
# 1 36.6490 11.1404 11.0003 0.0000 -6.4641 0.0000
# 2 11.1404 119.4690 53.3297 0.0000 -0.6247 0.0000
# 3 11.0003 53.3297 84.2392 0.0000 -13.9601 0.0000
# 4 0.0000 0.0000 0.0000 31.8104 0.0000 -1.0209
# 5 -6.4641 -0.6247 -13.9601 0.0000 19.7007 0.0000
# 6 0.0000 0.0000 0.0000 -1.0209 0.0000 1.9545
#
#
#
# Elastic Compliance Matrix: (Units=1/GPa)
#
#
# Indices 1 2 3 4 5 6 
#
# 1 0.029870 -0.002325 -0.000925 0.000000 0.009071 0.000000
# 2 -0.002325 0.012402 -0.008621 0.000000 -0.006479 0.000000
# 3 -0.000925 -0.008621 0.019663 0.000000 0.013356 0.000000
# 4 0.000000 0.000000 0.000000 0.031972 0.000000 0.016700
# 5 0.009071 -0.006479 0.013356 0.000000 0.062995 0.000000
# 6 0.000000 0.000000 0.000000 0.016700 0.000000 0.520370
#
#
# Mechanical properties :
#
#
# Convention : Reuss Voigt Hill
#
# Bulk Modulus (GPa) = 26.18345 43.47757 34.83051
# Shear Modulus (GPa) = 7.00529 21.68557 14.34543
#
# Velocity S-wave (km/s) = 1.81189 3.18789 2.59283
# Velocity P-wave (km/s) = 4.08017 5.82455 5.02858
#
# Compressibility (1/GPa) = 0.03819206
#
# Stress axis : x y z
#
# Youngs Moduli (GPa) = 33.47799 80.63394 50.85662
#
# Poissons Ratio (x) = 0.18746 0.04707
# Poissons Ratio (y) = 0.07783 0.43845
# Poissons Ratio (z) = 0.03098 0.69517
#
# Static dielectric constant tensor:
#      x y z
#    x 1.776410 0.000000 -0.028610 
#    y 0.000000 1.800350 0.000000 
#    z -0.028610 0.000000 1.821190 
# 
# From -- ./inp_files/143003.got.cif
#   From: 2010.05.17/outbox.cif.g08.bks.cpg/sg12_72_cif.got.tgz:143003.got - 2010.06.03 13:09:07.
