data_PCOD9192317
_publ_section_title
;
Structure prediction by ZEFSAII (Michael W. Deem and Ramdas Pophale) SiO2 
 PCOD9192317
Probable space group: C 2/M
;
_chemical_formula_sum "Si O2"
_cell_formula_units_Z 64
_cell_length_a 30.034761
_cell_length_b 15.608138
_cell_length_c 11.769312
_cell_angle_alpha 90.000000
_cell_angle_beta 37.282456
_cell_angle_gamma 90.000000
_cell_volume 3342.073874
_symmetry_space_group_name_H-M "C 2/M"
_symmetry_group_IT_number 12
_symmetry_cell_setting 'monoclinic'
loop_
_space_group_symop_operation_xyz
x,y,z
-x,y,-z
-x,-y,-z
x,-y,z
1/2+x,1/2+y,z
1/2-x,1/2+y,-z
1/2-x,1/2-y,-z
1/2+x,1/2-y,z
loop_
_atom_site_type_symbol
_atom_site_label
_atom_site_fract_x
_atom_site_fract_y
_atom_site_fract_z
Si Si1 0.706411 0.903977 0.030909
Si Si2 0.411443 0.718649 0.541838
Si Si3 0.866196 0.095564 0.820072
Si Si4 0.354925 0.639681 0.103470
Si Si5 0.439144 0.904193 0.526378
Si Si6 0.665485 0.594525 0.606210
Si Si7 0.755652 0.789119 0.733396
Si Si8 0.014824 0.897706 0.790632
O O1 0.639353 0.892346 0.252599
O O2 0.701395 0.000000 0.995330
O O3 0.782789 0.896984 0.943512
O O4 0.708329 0.841967 0.920659
O O5 0.405246 0.677359 0.681105
O O6 0.450443 0.810818 0.446766
O O7 0.330278 0.731893 0.651863
O O8 0.449872 0.642256 0.394194
O O9 0.893803 0.000000 0.729000
O O10 0.863381 0.097782 0.961773
O O11 0.325295 0.594586 0.277390
O O12 0.296753 0.714085 0.200374
O O13 0.440345 0.654798 0.961475
O O14 0.500000 0.909381 0.500000
O O15 0.438709 0.000000 0.470203
O O16 0.680877 0.500000 0.528078
O O17 0.715978 0.659223 0.433930
O O18 0.579879 0.611796 0.750076
O O19 0.998008 0.000000 0.817788
#
# Coordination Sequence:
#
# PCOD9192317 Si02
#       8
#     8   8   8   8   8   8   8   8
#     4   9  18  35  55  77 110 147 183 224 272 326
#     4  10  21  37  57  80 114 154 182 223 277 330
#     4  10  20  33  54  85 117 146 178 220 275 338
#     4  12  22  33  54  83 116 145 180 229 278 333
#     4  10  21  34  50  75 109 147 187 224 265 322
#     4  10  21  40  59  78 109 146 189 234 280 332
#     4  10  21  36  57  83 108 143 190 229 273 330
#     4  10  22  38  58  84 114 150 185 225 282 342
#
# _framework density 19.149785999999999
#
# number of rings (size 3 to 8) (size 9 to 14) (size 15 to 20)
#    0.000    1.875    0.000    4.125    3.500    6.000 
#    0.000    2.500    0.000    0.000    0.000    0.000 
#    0.000    6.000    0.000    0.000    0.000    0.000 
#
# Total GULP energy -178247.636546 kJ/mol
# GULP energy per Si atom -5570.238642 kJ/mol
# Density = 1.910620 g / cm^3
# Si number density = 19.149786 Si / 1000 Ang^3
#
#
#
# Elastic Constant Matrix: (Units=GPa)
#
#
# Indices 1 2 3 4 5 6 
#
# 1 52.8129 40.3598 20.8259 0.0000 19.0937 0.0000
# 2 40.3598 75.5372 18.8068 0.0000 5.4169 0.0000
# 3 20.8259 18.8068 32.8069 0.0000 2.8982 0.0000
# 4 0.0000 0.0000 0.0000 23.1713 0.0000 11.2221
# 5 19.0937 5.4169 2.8982 0.0000 31.8812 0.0000
# 6 0.0000 0.0000 0.0000 11.2221 0.0000 9.4357
#
#
#
# Elastic Compliance Matrix: (Units=1/GPa)
#
#
# Indices 1 2 3 4 5 6 
#
# 1 0.051641 -0.021177 -0.018375 0.000000 -0.025659 0.000000
# 2 -0.021177 0.024234 -0.001216 0.000000 0.008676 0.000000
# 3 -0.018375 -0.001216 0.042191 0.000000 0.007376 0.000000
# 4 0.000000 0.000000 0.000000 0.101785 0.000000 -0.121054
# 5 -0.025659 0.008676 0.007376 0.000000 0.044589 0.000000
# 6 0.000000 0.000000 0.000000 -0.121054 0.000000 0.249952
#
#
# Mechanical properties :
#
#
# Convention : Reuss Voigt Hill
#
# Bulk Modulus (GPa) = 27.37419 35.68244 31.52831
# Shear Modulus (GPa) = 8.22228 18.30861 13.26545
#
# Velocity S-wave (km/s) = 2.07436 3.09540 2.63481
# Velocity P-wave (km/s) = 4.47919 5.60795 5.07505
#
# Compressibility (1/GPa) = 0.03653077
#
# Stress axis : x y z
#
# Youngs Moduli (GPa) = 19.36454 41.26455 23.70161
#
# Poissons Ratio (x) = 0.87385 0.43552
# Poissons Ratio (y) = 0.41008 0.02881
# Poissons Ratio (z) = 0.35583 0.05016
#
# Static dielectric constant tensor:
#      x y z
#    x 1.676410 0.000000 0.006060 
#    y 0.000000 1.776090 0.000000 
#    z 0.006060 0.000000 1.688390 
# 
# From -- ./inp_files/183781.got.cif
#   From: 2010.05.17/outbox.cif.g08.bks.cpg/sg12_92_cif.got.tgz:183781.got - 2010.06.03 13:09:07.
