data_PCOD9192128
_publ_section_title
;
Structure prediction by ZEFSAII (Michael W. Deem and Ramdas Pophale) SiO2 
 PCOD9192128
Probable space group: C 2/M
;
_chemical_formula_sum "Si O2"
_cell_formula_units_Z 56
_cell_length_a 21.967646
_cell_length_b 9.543628
_cell_length_c 20.019560
_cell_angle_alpha 90.000000
_cell_angle_beta 130.879994
_cell_angle_gamma 90.000000
_cell_volume 3173.368261
_symmetry_space_group_name_H-M "C 2/M"
_symmetry_group_IT_number 12
_symmetry_cell_setting 'monoclinic'
loop_
_space_group_symop_operation_xyz
x,y,z
-x,y,-z
-x,-y,-z
x,-y,z
1/2+x,1/2+y,z
1/2-x,1/2+y,-z
1/2-x,1/2-y,-z
1/2+x,1/2-y,z
loop_
_atom_site_type_symbol
_atom_site_label
_atom_site_fract_x
_atom_site_fract_y
_atom_site_fract_z
Si Si1 0.618771 0.342667 0.036484
Si Si2 0.071102 0.165008 0.752407
Si Si3 0.438261 0.344128 0.853873
Si Si4 0.538186 0.668280 0.454531
Si Si5 0.671402 0.835863 0.468772
Si Si6 0.753270 0.834534 0.071252
Si Si7 0.052446 0.658106 0.257001
O O1 0.649487 0.500000 0.041940
O O2 0.603634 0.336887 0.104608
O O3 0.677995 0.221691 0.058091
O O4 0.532948 0.327819 0.938382
O O5 0.165039 0.195462 0.828899
O O6 0.030417 0.194675 0.651343
O O7 0.023094 0.251559 0.773128
O O8 0.059258 0.000000 0.756504
O O9 0.425668 0.500000 0.816642
O O10 0.411076 0.229694 0.781958
O O11 0.500000 0.702519 0.500000
O O12 0.556158 0.500000 0.466941
O O13 0.617363 0.755360 0.486719
O O14 0.750000 0.750000 0.500000
O O15 0.614045 0.839925 0.362607
O O16 0.688996 0.000000 0.499445
O O17 0.749987 0.000000 0.056418
O O18 0.750000 0.750000 0.000000
O O19 0.028033 0.500000 0.225216
#
# Coordination Sequence:
#
# PCOD9192128 Si02
#       7
#     8   8   8   8   8   8   8
#     4   9  19  35  52  72 101 136 175 214 254 306
#     4   9  19  35  53  75 104 139 175 210 257 320
#     4   9  18  34  54  73  99 137 174 210 257 313
#     4   9  18  36  61  83 107 144 182 221 277 335
#     4  10  21  37  56  81 112 142 179 226 272 324
#     4  11  22  34  50  74 105 139 175 216 260 306
#     4  10  20  33  53  80 104 131 171 218 260 304
#
# _framework density 17.646864999999998
#
# number of rings (size 3 to 8) (size 9 to 14) (size 15 to 20)
#    0.000    2.429    0.000    3.000    0.000    7.714 
#    2.571    1.429    0.000    0.000    0.000    0.000 
#    0.000    0.000    0.000    0.000    0.000    0.000 
#
# Total GULP energy -156074.076505 kJ/mol
# GULP energy per Si atom -5574.074161 kJ/mol
# Density = 1.760670 g / cm^3
# Si number density = 17.646865 Si / 1000 Ang^3
#
#
#
# Elastic Constant Matrix: (Units=GPa)
#
#
# Indices 1 2 3 4 5 6 
#
# 1 99.9869 61.9598 36.5076 0.0000 2.3957 0.0000
# 2 61.9598 75.8777 36.9626 0.0000 -1.3110 0.0000
# 3 36.5076 36.9626 29.0966 0.0000 -10.3401 0.0000
# 4 0.0000 0.0000 0.0000 26.6562 0.0000 -0.7386
# 5 2.3957 -1.3110 -10.3401 0.0000 27.1735 0.0000
# 6 0.0000 0.0000 0.0000 -0.7386 0.0000 31.3290
#
#
#
# Elastic Compliance Matrix: (Units=1/GPa)
#
#
# Indices 1 2 3 4 5 6 
#
# 1 0.024127 -0.008243 -0.023935 0.000000 -0.011633 0.000000
# 2 -0.008243 0.046347 -0.054905 0.000000 -0.017930 0.000000
# 3 -0.023935 -0.054905 0.154903 0.000000 0.058405 0.000000
# 4 0.000000 0.000000 0.000000 0.037539 0.000000 0.000885
# 5 -0.011633 -0.017930 0.058405 0.000000 0.059186 0.000000
# 6 0.000000 0.000000 0.000000 0.000885 0.000000 0.031940
#
#
# Mechanical properties :
#
#
# Convention : Reuss Voigt Hill
#
# Bulk Modulus (GPa) = 19.52704 52.86902 36.19803
# Shear Modulus (GPa) = 9.16961 21.66716 15.41839
#
# Velocity S-wave (km/s) = 2.28198 3.50783 2.95908
# Velocity P-wave (km/s) = 4.24650 6.81403 5.67731
#
# Compressibility (1/GPa) = 0.05121104
#
# Stress axis : x y z
#
# Youngs Moduli (GPa) = 41.44662 21.57642 6.45565
#
# Poissons Ratio (x) = 0.17786 0.15451
# Poissons Ratio (y) = 0.34166 0.35445
# Poissons Ratio (z) = 0.99201 1.18466
#
# Static dielectric constant tensor:
#      x y z
#    x 1.606770 0.000000 -0.003700 
#    y 0.000000 1.612500 0.000000 
#    z -0.003700 0.000000 1.596140 
# 
# From -- ./inp_files/280945.got.cif
#   From: 2010.05.17/outbox.cif.g08.bks.cpg/sg12_141_cif.got.tgz:280945.got - 2010.06.03 13:09:07.
