data_PCOD9192623
_publ_section_title
;
Structure prediction by ZEFSAII (Michael W. Deem and Ramdas Pophale) SiO2 
 PCOD9192623
Probable space group: C 2/M
;
_chemical_formula_sum "Si O2"
_cell_formula_units_Z 56
_cell_length_a 23.247657
_cell_length_b 13.921555
_cell_length_c 9.552007
_cell_angle_alpha 90.000000
_cell_angle_beta 63.326363
_cell_angle_gamma 90.000000
_cell_volume 2762.447631
_symmetry_space_group_name_H-M "C 2/M"
_symmetry_group_IT_number 12
_symmetry_cell_setting 'monoclinic'
loop_
_space_group_symop_operation_xyz
x,y,z
-x,y,-z
-x,-y,-z
x,-y,z
1/2+x,1/2+y,z
1/2-x,1/2+y,-z
1/2-x,1/2-y,-z
1/2+x,1/2-y,z
loop_
_atom_site_type_symbol
_atom_site_label
_atom_site_fract_x
_atom_site_fract_y
_atom_site_fract_z
Si Si1 0.573886 0.211671 0.969588
Si Si2 0.564108 0.195381 0.519227
Si Si3 0.145739 0.789223 0.641978
Si Si4 0.733268 0.107763 0.579650
Si Si5 0.931141 0.500000 0.001230
Si Si6 0.513668 0.000000 0.650364
Si Si7 0.645088 0.218010 0.166661
Si Si8 0.759340 0.111661 0.882197
O O1 0.598226 0.101006 0.923577
O O2 0.587520 0.230144 0.117374
O O3 0.500000 0.216073 0.000000
O O4 0.615665 0.281522 0.828209
O O5 0.500000 0.216879 0.500000
O O6 0.589080 0.280471 0.590466
O O7 0.617591 0.177488 0.341517
O O8 0.550387 0.100758 0.629249
O O9 0.196475 0.873169 0.563987
O O10 0.186416 0.690582 0.576127
O O11 0.743309 0.121083 0.735097
O O12 0.710662 0.000000 0.575682
O O13 0.950134 0.500000 0.816125
O O14 0.000000 0.500000 0.000000
O O15 0.500000 0.000000 0.500000
O O16 0.680549 0.319150 0.153120
O O17 0.699183 0.149985 0.038637
O O18 0.771291 0.000000 0.898813
#
# Coordination Sequence:
#
# PCOD9192623 Si02
#       8
#     8   8   8   8   4   4   8   8
#     4  11  22  36  60  88 124 157 195 238 295 362
#     4  11  22  36  55  85 127 159 189 239 295 357
#     4  11  22  38  61  90 115 155 200 243 294 356
#     4  10  22  41  62  86 115 157 203 251 293 344
#     4  10  20  34  52  84 122 164 196 216 277 368
#     4  10  20  34  48  80 126 158 188 224 283 348
#     4  11  22  38  61  90 116 157 200 243 299 357
#     4  10  22  41  63  85 115 157 205 250 292 346
#
# _framework density 20.271878000000001
#
# number of rings (size 3 to 8) (size 9 to 14) (size 15 to 20)
#    0.000    1.429    2.857    4.286    4.000    0.000 
#    0.000    2.143    0.000    5.143    0.000    0.000 
#    0.000    0.000    0.000    0.000    0.000    0.000 
#
# Total GULP energy -156418.420103 kJ/mol
# GULP energy per Si atom -5586.372147 kJ/mol
# Density = 2.022574 g / cm^3
# Si number density = 20.271878 Si / 1000 Ang^3
#
#
#
# Elastic Constant Matrix: (Units=GPa)
#
#
# Indices 1 2 3 4 5 6 
#
# 1 75.5710 24.6888 -13.0072 0.0000 2.0547 0.0000
# 2 24.6888 68.3933 5.3928 0.0000 -5.6900 0.0000
# 3 -13.0072 5.3928 91.3907 0.0000 -6.7710 0.0000
# 4 0.0000 0.0000 0.0000 25.8399 0.0000 -4.0480
# 5 2.0547 -5.6900 -6.7710 0.0000 29.3735 0.0000
# 6 0.0000 0.0000 0.0000 -4.0480 0.0000 21.7861
#
#
#
# Elastic Compliance Matrix: (Units=1/GPa)
#
#
# Indices 1 2 3 4 5 6 
#
# 1 0.015657 -0.005986 0.002456 0.000000 -0.001689 0.000000
# 2 -0.005986 0.017190 -0.001616 0.000000 0.003376 0.000000
# 3 0.002456 -0.001616 0.011548 0.000000 0.002177 0.000000
# 4 0.000000 0.000000 0.000000 0.039860 0.000000 0.007406
# 5 -0.001689 0.003376 0.002177 0.000000 0.035318 0.000000
# 6 0.000000 0.000000 0.000000 0.007406 0.000000 0.047277
#
#
# Mechanical properties :
#
#
# Convention : Reuss Voigt Hill
#
# Bulk Modulus (GPa) = 29.32188 29.94487 29.63337
# Shear Modulus (GPa) = 26.52371 29.95194 28.23783
#
# Velocity S-wave (km/s) = 3.62110 3.84801 3.73628
# Velocity P-wave (km/s) = 5.65499 5.87764 5.76739
#
# Compressibility (1/GPa) = 0.03410423
#
# Stress axis : x y z
#
# Youngs Moduli (GPa) = 63.86949 58.17169 86.59265
#
# Poissons Ratio (x) = 0.34822 -0.21271
# Poissons Ratio (y) = 0.38233 0.13995
# Poissons Ratio (z) = -0.15690 0.09402
#
# Static dielectric constant tensor:
#      x y z
#    x 1.747010 0.000000 0.007290 
#    y 0.000000 1.710500 0.000000 
#    z 0.007290 0.000000 1.698680 
# 
# From -- ./inp_files/96818.got.cif
#   From: 2010.05.17/outbox.cif.g08.bks.cpg/sg12_49_cif.got.tgz:96818.got - 2010.06.03 13:09:07.
