data_PCOD9192921
_publ_section_title
;
Structure prediction by ZEFSAII (Michael W. Deem and Ramdas Pophale) SiO2 
 PCOD9192921
Probable space group: C 2/M
;
_chemical_formula_sum "Si O2"
_cell_formula_units_Z 48
_cell_length_a 15.966959
_cell_length_b 8.762847
_cell_length_c 16.546082
_cell_angle_alpha 90.000000
_cell_angle_beta 60.647769
_cell_angle_gamma 90.000000
_cell_volume 2017.860724
_symmetry_space_group_name_H-M "C 2/M"
_symmetry_group_IT_number 12
_symmetry_cell_setting 'monoclinic'
loop_
_space_group_symop_operation_xyz
x,y,z
-x,y,-z
-x,-y,-z
x,-y,z
1/2+x,1/2+y,z
1/2-x,1/2+y,-z
1/2-x,1/2-y,-z
1/2+x,1/2-y,z
loop_
_atom_site_type_symbol
_atom_site_label
_atom_site_fract_x
_atom_site_fract_y
_atom_site_fract_z
Si Si1 0.231309 0.180113 0.887187
Si Si2 0.129913 0.181231 0.610209
Si Si3 0.370007 0.183140 0.222860
Si Si4 0.899349 0.818944 0.729472
Si Si5 0.061026 0.675931 0.055734
Si Si6 0.116713 0.179159 0.440332
O O1 0.185622 0.246138 0.826041
O O2 0.340353 0.238431 0.828208
O O3 0.229689 0.000000 0.887837
O O4 0.159639 0.238522 0.990424
O O5 0.167486 0.265340 0.672038
O O6 0.152336 0.243981 0.509479
O O7 0.013902 0.196995 0.673468
O O8 0.151628 0.000000 0.603086
O O9 0.481046 0.233676 0.156303
O O10 0.367217 0.000000 0.218184
O O11 0.864194 0.757619 0.657945
O O12 0.878344 0.000000 0.743198
O O13 0.084201 0.500000 0.062624
O O14 0.000000 0.677966 0.000000
O O15 0.000000 0.180903 0.500000
O O16 0.144305 0.000000 0.426362
#
# Coordination Sequence:
#
# PCOD9192921 Si02
#       6
#     8   8   8   8   8   8
#     4  11  21  32  50  75 100 126 163 206 242 284
#     4   9  17  31  53  78 100 125 162 204 242 285
#     4  10  20  34  52  73  99 130 162 198 244 295
#     4   9  17  32  53  74 100 132 162 196 243 293
#     4   8  16  32  51  69  92 126 164 198 239 293
#     4   7  12  26  49  73  95 125 163 197 234 286
#
# _framework density 23.787569999999999
#
# number of rings (size 3 to 8) (size 9 to 14) (size 15 to 20)
#    0.000    3.000    0.000    5.000    0.000    4.333 
#    0.000    2.500    0.000    3.000    0.000    0.000 
#    0.000    0.000    0.000    0.000    0.000    0.000 
#
# Total GULP energy -134079.598472 kJ/mol
# GULP energy per Si atom -5586.649936 kJ/mol
# Density = 2.373343 g / cm^3
# Si number density = 23.787570 Si / 1000 Ang^3
#
#
#
# Elastic Constant Matrix: (Units=GPa)
#
#
# Indices 1 2 3 4 5 6 
#
# 1 75.0661 6.5375 8.9691 0.0000 3.0789 0.0000
# 2 6.5375 27.4471 26.4411 0.0000 -6.5393 0.0001
# 3 8.9691 26.4411 167.9787 0.0000 -2.4733 0.0000
# 4 0.0000 0.0000 0.0000 27.0195 0.0000 -0.2915
# 5 3.0789 -6.5393 -2.4733 0.0000 50.8128 0.0000
# 6 0.0000 0.0001 0.0000 -0.2915 0.0000 13.7238
#
#
#
# Elastic Compliance Matrix: (Units=1/GPa)
#
#
# Indices 1 2 3 4 5 6 
#
# 1 0.013692 -0.003350 -0.000223 0.000000 -0.001272 0.000000
# 2 -0.003350 0.045185 -0.006850 0.000000 0.005685 0.000000
# 3 -0.000223 -0.006850 0.007035 0.000000 -0.000526 0.000000
# 4 0.000000 0.000000 0.000000 0.037019 0.000000 0.000786
# 5 -0.001272 0.005685 -0.000526 0.000000 0.020463 0.000000
# 6 0.000000 0.000000 0.000000 0.000786 0.000000 0.072883
#
#
# Mechanical properties :
#
#
# Convention : Reuss Voigt Hill
#
# Bulk Modulus (GPa) = 22.18872 39.37635 30.78254
# Shear Modulus (GPa) = 21.53832 33.54748 27.54290
#
# Velocity S-wave (km/s) = 3.01232 3.75946 3.40644
# Velocity P-wave (km/s) = 4.63108 5.95265 5.33296
#
# Compressibility (1/GPa) = 0.04506794
#
# Stress axis : x y z
#
# Youngs Moduli (GPa) = 73.03498 22.13134 142.13633
#
# Poissons Ratio (x) = 0.07414 0.03163
# Poissons Ratio (y) = 0.24465 0.97362
# Poissons Ratio (z) = 0.01625 0.15160
#
# Static dielectric constant tensor:
#      x y z
#    x 2.057620 0.000000 -0.016060 
#    y 0.000000 1.782270 0.000000 
#    z -0.016060 0.000000 1.927350 
# 
# From -- ./inp_files/274001.got.cif
#   From: 2010.05.17/outbox.cif.g08.bks.cpg/sg12_138_cif.got.tgz:274001.got - 2010.06.03 13:09:07.
