data_PCOD9192679
_publ_section_title
;
Structure prediction by ZEFSAII (Michael W. Deem and Ramdas Pophale) SiO2 
 PCOD9192679
Probable space group: C 2/M
;
_chemical_formula_sum "Si O2"
_cell_formula_units_Z 24
_cell_length_a 18.039162
_cell_length_b 5.684034
_cell_length_c 10.342581
_cell_angle_alpha 90.000000
_cell_angle_beta 82.250032
_cell_angle_gamma 90.000000
_cell_volume 1050.792275
_symmetry_space_group_name_H-M "C 2/M"
_symmetry_group_IT_number 12
_symmetry_cell_setting 'monoclinic'
loop_
_space_group_symop_operation_xyz
x,y,z
-x,y,-z
-x,-y,-z
x,-y,z
1/2+x,1/2+y,z
1/2-x,1/2+y,-z
1/2-x,1/2-y,-z
1/2+x,1/2-y,z
loop_
_atom_site_type_symbol
_atom_site_label
_atom_site_fract_x
_atom_site_fract_y
_atom_site_fract_z
Si Si1 0.267286 0.500000 0.569122
Si Si2 0.937138 0.000000 0.628466
Si Si3 0.865878 0.500000 0.202358
Si Si4 0.010225 0.500000 0.342858
Si Si5 0.160302 0.250534 0.038097
O O1 0.250000 0.250000 0.500000
O O2 0.354232 0.500000 0.587155
O O3 0.213457 0.500000 0.707020
O O4 0.000000 0.000000 0.500000
O O5 0.951650 0.750964 0.694823
O O6 0.930578 0.500000 0.290867
O O7 0.870984 0.283617 0.100306
O O8 0.000000 0.500000 0.500000
O O9 0.142330 0.500000 0.107508
O O10 0.138740 0.000000 0.098800
O O11 0.250000 0.250000 0.000000
#
# Coordination Sequence:
#
# PCOD9192679 Si02
#       5
#     4   4   4   4   8
#     4  12  24  36  53  79 107 143 187 223 256 306
#     4  10  20  36  49  67 103 141 173 216 254 299
#     4  10  22  32  60  79 107 140 181 220 269 304
#     4  10  20  34  50  71 104 142 175 207 251 317
#     4   8  16  30  50  79 107 124 168 228 275 305
#
# _framework density 22.83991
#
# number of rings (size 3 to 8) (size 9 to 14) (size 15 to 20)
#    1.000    1.333    0.000    5.000    4.667    0.000 
#    0.000    0.000    0.000    0.000    0.000    7.000 
#    0.000    0.000    0.000    0.000    0.000    0.000 
#
# Total GULP energy -66874.008064 kJ/mol
# GULP energy per Si atom -5572.834005 kJ/mol
# Density = 2.278792 g / cm^3
# Si number density = 22.839910 Si / 1000 Ang^3
#
#
#
# Elastic Constant Matrix: (Units=GPa)
#
#
# Indices 1 2 3 4 5 6 
#
# 1 156.1284 62.2490 46.2408 0.0000 28.0288 0.0000
# 2 62.2490 259.3391 25.0187 0.0000 -22.3536 0.0000
# 3 46.2408 25.0187 27.3776 0.0000 13.4630 0.0000
# 4 0.0000 0.0000 0.0000 48.3682 0.0000 -5.3461
# 5 28.0288 -22.3536 13.4630 0.0000 50.6666 0.0000
# 6 0.0000 0.0000 0.0000 -5.3461 0.0000 41.9427
#
#
#
# Elastic Compliance Matrix: (Units=1/GPa)
#
#
# Indices 1 2 3 4 5 6 
#
# 1 0.013404 -0.001548 -0.019835 0.000000 -0.002827 0.000000
# 2 -0.001548 0.004959 -0.003927 0.000000 0.004087 0.000000
# 3 -0.019835 -0.003927 0.079455 0.000000 -0.011873 0.000000
# 4 0.000000 0.000000 0.000000 0.020970 0.000000 0.002673
# 5 -0.002827 0.004087 -0.011873 0.000000 0.026259 0.000000
# 6 0.000000 0.000000 0.000000 0.002673 0.000000 0.024183
#
#
# Mechanical properties :
#
#
# Convention : Reuss Voigt Hill
#
# Bulk Modulus (GPa) = 21.18744 78.87357 50.03050
# Shear Modulus (GPa) = 21.22394 48.81795 35.02094
#
# Velocity S-wave (km/s) = 3.05166 4.62821 3.92001
# Velocity P-wave (km/s) = 4.65978 7.94787 6.51468
#
# Compressibility (1/GPa) = 0.04719778
#
# Stress axis : x y z
#
# Youngs Moduli (GPa) = 74.60346 201.66852 12.58570
#
# Poissons Ratio (x) = 0.31210 0.24964
# Poissons Ratio (y) = 0.11546 0.04943
# Poissons Ratio (z) = 1.47976 0.79205
#
# Static dielectric constant tensor:
#      x y z
#    x 1.791160 0.000000 -0.022020 
#    y 0.000000 1.895350 0.000000 
#    z -0.022020 0.000000 1.820360 
# 
# From -- ./inp_files/150575.got.cif
#   From: 2010.05.17/outbox.cif.g08.bks.cpg/sg12_76_cif.got.tgz:150575.got - 2010.06.03 13:09:07.
