data_PCOD9192077
_publ_section_title
;
Structure prediction by ZEFSAII (Michael W. Deem and Ramdas Pophale) SiO2 
 PCOD9192077
Probable space group: C 2/M
;
_chemical_formula_sum "Si O2"
_cell_formula_units_Z 56
_cell_length_a 9.052198
_cell_length_b 29.401010
_cell_length_c 14.528526
_cell_angle_alpha 90.000000
_cell_angle_beta 46.708352
_cell_angle_gamma 90.000000
_cell_volume 2814.448416
_symmetry_space_group_name_H-M "C 2/M"
_symmetry_group_IT_number 12
_symmetry_cell_setting 'monoclinic'
loop_
_space_group_symop_operation_xyz
x,y,z
-x,y,-z
-x,-y,-z
x,-y,z
1/2+x,1/2+y,z
1/2-x,1/2+y,-z
1/2-x,1/2-y,-z
1/2+x,1/2-y,z
loop_
_atom_site_type_symbol
_atom_site_label
_atom_site_fract_x
_atom_site_fract_y
_atom_site_fract_z
Si Si1 0.947085 0.811424 0.333090
Si Si2 0.028145 0.591913 0.334352
Si Si3 0.424701 0.184476 0.791085
Si Si4 0.708518 0.246033 0.317138
Si Si5 0.209350 0.297884 0.967534
Si Si6 0.501977 0.500000 0.353302
Si Si7 0.859630 0.500000 0.337249
Si Si8 0.670366 0.590571 0.636072
O O1 0.736670 0.791123 0.384765
O O2 0.939104 0.864366 0.353453
O O3 0.016979 0.778815 0.385204
O O4 0.110234 0.806710 0.180508
O O5 0.993547 0.545612 0.291680
O O6 0.858266 0.587139 0.485761
O O7 0.001380 0.638904 0.290717
O O8 0.239063 0.595378 0.300274
O O9 0.293469 0.215164 0.775419
O O10 0.609473 0.217738 0.743680
O O11 0.310427 0.170617 0.933875
O O12 0.250000 0.250000 0.000000
O O13 0.000000 0.298224 0.000000
O O14 0.722009 0.500000 0.305289
O O15 0.319263 0.500000 0.507806
O O16 0.463998 0.545849 0.313545
#
# Coordination Sequence:
#
# PCOD9192077 Si02
#       8
#     8   8   8   8   8   4   4   8
#     4  11  20  35  53  81 108 146 184 224 266 312
#     4  10  21  38  57  80 110 143 179 219 269 325
#     4  11  20  35  53  81 108 146 184 224 266 312
#     4  10  20  33  53  76 112 142 187 225 260 314
#     4  12  20  32  54  75 108 143 184 230 263 309
#     4   9  19  35  59  84 103 132 177 229 273 315
#     4   9  19  35  59  84 103 132 177 229 273 315
#     4  10  21  38  57  80 110 143 179 219 269 325
#
# _framework density 19.897327000000001
#
# number of rings (size 3 to 8) (size 9 to 14) (size 15 to 20)
#    0.000    1.571    5.714    0.429    2.000    1.714 
#    0.000    4.286    0.000    0.857    0.000    4.000 
#    0.000    0.000    0.000    0.000    0.000    0.000 
#
# Total GULP energy -156124.406231 kJ/mol
# GULP energy per Si atom -5575.871651 kJ/mol
# Density = 1.985204 g / cm^3
# Si number density = 19.897327 Si / 1000 Ang^3
#
#
#
# Elastic Constant Matrix: (Units=GPa)
#
#
# Indices 1 2 3 4 5 6 
#
# 1 108.2103 47.7811 16.1949 0.0000 9.9594 0.0000
# 2 47.7811 147.5828 12.2115 0.0000 6.0769 0.0000
# 3 16.1949 12.2115 26.5336 0.0000 2.3330 0.0000
# 4 0.0000 0.0000 0.0000 6.6869 0.0000 4.2433
# 5 9.9594 6.0769 2.3330 0.0000 18.1313 0.0000
# 6 0.0000 0.0000 0.0000 4.2433 0.0000 25.7879
#
#
#
# Elastic Compliance Matrix: (Units=1/GPa)
#
#
# Indices 1 2 3 4 5 6 
#
# 1 0.011902 -0.003213 -0.005366 0.000000 -0.004770 0.000000
# 2 -0.003213 0.007981 -0.001651 0.000000 -0.000698 0.000000
# 3 -0.005366 -0.001651 0.041889 0.000000 -0.001889 0.000000
# 4 0.000000 0.000000 0.000000 0.166983 0.000000 -0.027477
# 5 -0.004770 -0.000698 -0.001889 0.000000 0.058251 0.000000
# 6 0.000000 0.000000 0.000000 -0.027477 0.000000 0.043299
#
#
# Mechanical properties :
#
#
# Convention : Reuss Voigt Hill
#
# Bulk Modulus (GPa) = 24.20577 48.30018 36.25297
# Shear Modulus (GPa) = 13.71602 23.86382 18.78992
#
# Velocity S-wave (km/s) = 2.62838 3.46692 3.07635
# Velocity P-wave (km/s) = 4.62633 6.35243 5.55681
#
# Compressibility (1/GPa) = 0.04131247
#
# Stress axis : x y z
#
# Youngs Moduli (GPa) = 84.01818 125.29116 23.87240
#
# Poissons Ratio (x) = 0.40256 0.12811
# Poissons Ratio (y) = 0.26995 0.03941
# Poissons Ratio (z) = 0.45088 0.20684
#
# Static dielectric constant tensor:
#      x y z
#    x 1.742720 0.000000 0.002930 
#    y 0.000000 1.698030 0.000000 
#    z 0.002930 0.000000 1.777160 
# 
# From -- ./inp_files/200669.got.cif
#   From: 2010.05.17/outbox.cif.g08.bks.cpg/sg12_101_cif.got.tgz:200669.got - 2010.06.03 13:09:07.
