data_PCOD9192252
_publ_section_title
;
Structure prediction by ZEFSAII (Michael W. Deem and Ramdas Pophale) SiO2 
 PCOD9192252
Probable space group: C 2/M
;
_chemical_formula_sum "Si O2"
_cell_formula_units_Z 56
_cell_length_a 10.888118
_cell_length_b 19.044033
_cell_length_c 18.413790
_cell_angle_alpha 90.000000
_cell_angle_beta 125.795542
_cell_angle_gamma 90.000000
_cell_volume 3096.950952
_symmetry_space_group_name_H-M "C 2/M"
_symmetry_group_IT_number 12
_symmetry_cell_setting 'monoclinic'
loop_
_space_group_symop_operation_xyz
x,y,z
-x,y,-z
-x,-y,-z
x,-y,z
1/2+x,1/2+y,z
1/2-x,1/2+y,-z
1/2-x,1/2-y,-z
1/2+x,1/2-y,z
loop_
_atom_site_type_symbol
_atom_site_label
_atom_site_fract_x
_atom_site_fract_y
_atom_site_fract_z
Si Si1 0.326601 0.914209 0.439469
Si Si2 0.389695 0.802910 0.890797
Si Si3 0.627114 0.584937 0.235626
Si Si4 0.667883 0.784225 0.902882
Si Si5 0.672112 0.417140 0.085020
Si Si6 0.159892 0.084150 0.774973
Si Si7 0.044313 0.914640 0.434811
O O1 0.500000 0.890298 0.500000
O O2 0.245530 0.891191 0.337106
O O3 0.211338 0.892991 0.464097
O O4 0.329219 0.000000 0.441312
O O5 0.491654 0.775756 0.859349
O O6 0.249864 0.752617 0.863600
O O7 0.315101 0.876310 0.843094
O O8 0.500000 0.807975 0.000000
O O9 0.625925 0.500000 0.238904
O O10 0.672418 0.601659 0.170042
O O11 0.458998 0.605425 0.202709
O O12 0.712599 0.866177 0.915466
O O13 0.750000 0.750000 0.000000
O O14 0.702880 0.500000 0.085643
O O15 0.500000 0.403541 0.000000
O O16 0.077321 0.103423 0.670257
O O17 0.177546 0.000000 0.782009
O O18 0.000000 0.889825 0.500000
O O19 0.046047 0.000000 0.437418
#
# Coordination Sequence:
#
# PCOD9192252 Si02
#       7
#     8   8   8   8   8   8   8
#     4   8  13  24  42  66  97 133 172 207 249 307
#     4  10  22  36  55  75 102 142 179 221 267 312
#     4   8  16  29  47  74 105 140 173 209 261 317
#     4  10  22  39  54  75 104 139 182 223 258 315
#     4  10  20  33  54  79 107 140 175 217 265 312
#     4   9  18  32  52  79 111 142 179 218 265 321
#     4   8  14  27  46  70 102 140 173 209 261 313
#
# _framework density 18.082301999999999
#
# number of rings (size 3 to 8) (size 9 to 14) (size 15 to 20)
#    0.000    3.000    0.000    3.000    6.000    0.857 
#    2.571    0.000    0.000    0.000    0.000    2.000 
#    0.000    0.000    0.000    0.000    0.000    0.000 
#
# Total GULP energy -155908.071783 kJ/mol
# GULP energy per Si atom -5568.145421 kJ/mol
# Density = 1.804115 g / cm^3
# Si number density = 18.082302 Si / 1000 Ang^3
#
#
#
# Elastic Constant Matrix: (Units=GPa)
#
#
# Indices 1 2 3 4 5 6 
#
# 1 136.9446 36.0657 46.4946 0.0000 4.9461 0.0000
# 2 36.0657 39.3559 12.8538 0.0000 1.8994 0.0000
# 3 46.4946 12.8538 46.9404 0.0000 3.3819 0.0000
# 4 0.0000 0.0000 0.0000 2.2566 0.0000 2.0109
# 5 4.9461 1.8994 3.3819 0.0000 24.9496 0.0000
# 6 0.0000 0.0000 0.0000 2.0109 0.0000 27.8090
#
#
#
# Elastic Compliance Matrix: (Units=1/GPa)
#
#
# Indices 1 2 3 4 5 6 
#
# 1 0.013217 -0.008592 -0.010701 0.000000 -0.000515 0.000000
# 2 -0.008592 0.033520 -0.000613 0.000000 -0.000765 0.000000
# 3 -0.010701 -0.000613 0.032230 0.000000 -0.002201 0.000000
# 4 0.000000 0.000000 0.000000 0.473670 0.000000 -0.034252
# 5 -0.000515 -0.000765 -0.002201 0.000000 0.040540 0.000000
# 6 0.000000 0.000000 0.000000 -0.034252 0.000000 0.038436
#
#
# Mechanical properties :
#
#
# Convention : Reuss Voigt Hill
#
# Bulk Modulus (GPa) = 25.54063 46.00768 35.77415
# Shear Modulus (GPa) = 7.30484 19.52482 13.41483
#
# Velocity S-wave (km/s) = 2.01210 3.28956 2.72670
# Velocity P-wave (km/s) = 4.42192 6.31878 5.45346
#
# Compressibility (1/GPa) = 0.03915330
#
# Stress axis : x y z
#
# Youngs Moduli (GPa) = 75.66061 29.83282 31.02702
#
# Poissons Ratio (x) = 0.25632 0.33204
# Poissons Ratio (y) = 0.65007 0.01903
# Poissons Ratio (z) = 0.80968 0.01830
#
# Static dielectric constant tensor:
#      x y z
#    x 1.657840 0.000000 -0.012640 
#    y 0.000000 1.633790 0.000000 
#    z -0.012640 0.000000 1.610990 
# 
# From -- ./inp_files/305997.got.cif
#   From: 2010.05.17/outbox.cif.g08.bks.cpg/sg12_153_cif.got.tgz:305997.got - 2010.06.03 13:09:07.
