data_PCOD9192124
_publ_section_title
;
Structure prediction by ZEFSAII (Michael W. Deem and Ramdas Pophale) SiO2 
 PCOD9192124
Probable space group: C 2/M
;
_chemical_formula_sum "Si O2"
_cell_formula_units_Z 56
_cell_length_a 28.154461
_cell_length_b 7.719476
_cell_length_c 18.957965
_cell_angle_alpha 90.000000
_cell_angle_beta 37.528172
_cell_angle_gamma 90.000000
_cell_volume 2509.874655
_symmetry_space_group_name_H-M "C 2/M"
_symmetry_group_IT_number 12
_symmetry_cell_setting 'monoclinic'
loop_
_space_group_symop_operation_xyz
x,y,z
-x,y,-z
-x,-y,-z
x,-y,z
1/2+x,1/2+y,z
1/2-x,1/2+y,-z
1/2-x,1/2-y,-z
1/2+x,1/2-y,z
loop_
_atom_site_type_symbol
_atom_site_label
_atom_site_fract_x
_atom_site_fract_y
_atom_site_fract_z
Si Si1 0.496766 0.788868 0.703163
Si Si2 0.735378 0.797790 0.290690
Si Si3 0.329887 0.206472 0.944877
Si Si4 0.381380 0.699491 0.039674
Si Si5 0.719425 0.793083 0.614008
Si Si6 0.547833 0.795361 0.795948
Si Si7 0.567449 0.787245 0.473745
O O1 0.405401 0.742371 0.809854
O O2 0.530701 0.725133 0.737577
O O3 0.542756 0.729989 0.580827
O O4 0.500314 0.000000 0.699570
O O5 0.816495 0.719335 0.167486
O O6 0.731878 0.785932 0.379270
O O7 0.654899 0.726317 0.354357
O O8 0.738252 0.000000 0.266749
O O9 0.333618 0.000000 0.951054
O O10 0.250000 0.250000 0.000000
O O11 0.343691 0.287152 0.005759
O O12 0.393167 0.500000 0.045038
O O13 0.468472 0.774365 0.933304
O O14 0.750000 0.750000 0.500000
O O15 0.630043 0.727146 0.726827
O O16 0.722485 0.000000 0.619107
O O17 0.560049 0.000000 0.773498
O O18 0.500000 0.733174 0.500000
O O19 0.569098 0.000000 0.471214
#
# Coordination Sequence:
#
# PCOD9192124 Si02
#       7
#     8   8   8   8   8   8   8
#     4   8  15  29  50  75 102 134 180 234 279 330
#     4  10  22  38  57  86 120 152 194 245 295 352
#     4  10  20  33  53  79 110 148 192 242 292 352
#     4  10  21  36  56  84 118 152 191 243 298 350
#     4  11  23  39  63  90 117 153 196 241 292 350
#     4   9  19  37  58  81 112 152 195 237 286 352
#     4   9  17  30  53  80 107 145 190 237 285 339
#
# _framework density 22.311872000000001
#
# number of rings (size 3 to 8) (size 9 to 14) (size 15 to 20)
#    0.000    2.429    0.000    3.000    2.000    5.143 
#    0.000    2.857    0.000    1.286    0.000    0.000 
#    0.000    0.000    0.000    0.000    0.000    0.000 
#
# Total GULP energy -156327.167869 kJ/mol
# GULP energy per Si atom -5583.113138 kJ/mol
# Density = 2.226109 g / cm^3
# Si number density = 22.311872 Si / 1000 Ang^3
#
#
#
# Elastic Constant Matrix: (Units=GPa)
#
#
# Indices 1 2 3 4 5 6 
#
# 1 84.8914 -8.5398 37.5600 -0.0062 -33.3020 0.0050
# 2 -8.5398 37.9810 -5.5370 -0.0112 -3.5051 0.0028
# 3 37.5600 -5.5370 111.5736 -0.0123 -10.6824 0.0080
# 4 -0.0062 -0.0112 -0.0123 16.3535 0.0011 -0.2730
# 5 -33.3020 -3.5051 -10.6824 0.0011 33.6189 0.0029
# 6 0.0050 0.0028 0.0080 -0.2730 0.0029 16.3669
#
#
#
# Elastic Compliance Matrix: (Units=1/GPa)
#
#
# Indices 1 2 3 4 5 6 
#
# 1 0.023644 0.006579 -0.005492 0.000008 0.022362 -0.000010
# 2 0.006579 0.028708 0.000124 0.000022 0.009550 -0.000008
# 3 -0.005492 0.000124 0.010621 0.000006 -0.002052 -0.000003
# 4 0.000008 0.000022 0.000006 0.061166 0.000010 0.001020
# 5 0.022362 0.009550 -0.002052 0.000010 0.052240 -0.000017
# 6 -0.000010 -0.000008 -0.000003 0.001020 -0.000017 0.061116
#
#
# Mechanical properties :
#
#
# Convention : Reuss Voigt Hill
#
# Bulk Modulus (GPa) = 15.29152 31.26804 23.27978
# Shear Modulus (GPa) = 19.46511 27.33206 23.39858
#
# Velocity S-wave (km/s) = 2.95686 3.50380 3.24189
# Velocity P-wave (km/s) = 4.30416 5.51483 4.94667
#
# Compressibility (1/GPa) = 0.06539571
#
# Stress axis : x y z
#
# Youngs Moduli (GPa) = 42.29429 34.83384 94.15167
#
# Poissons Ratio (x) = -0.22918 0.51708
# Poissons Ratio (y) = -0.27827 -0.01169
# Poissons Ratio (z) = 0.23228 -0.00433
#
# Static dielectric constant tensor:
#      x y z
#    x 1.812790 -0.000010 -0.026810 
#    y -0.000010 1.850490 0.000010 
#    z -0.026810 0.000010 1.848460 
# 
# From -- ./inp_files/292444.got.cif
#   From: 2010.05.17/outbox.cif.g08.bks.cpg/sg12_147_cif.got.tgz:292444.got - 2010.06.03 13:09:07.
