data_PCOD9192634
_publ_section_title
;
Structure prediction by ZEFSAII (Michael W. Deem and Ramdas Pophale) SiO2 
 PCOD9192634
Probable space group: C 2/M
;
_chemical_formula_sum "Si O2"
_cell_formula_units_Z 56
_cell_length_a 19.863529
_cell_length_b 7.840029
_cell_length_c 31.351335
_cell_angle_alpha 90.000000
_cell_angle_beta 36.902730
_cell_angle_gamma 90.000000
_cell_volume 2931.655865
_symmetry_space_group_name_H-M "C 2/M"
_symmetry_group_IT_number 12
_symmetry_cell_setting 'monoclinic'
loop_
_space_group_symop_operation_xyz
x,y,z
-x,y,-z
-x,-y,-z
x,-y,z
1/2+x,1/2+y,z
1/2-x,1/2+y,-z
1/2-x,1/2-y,-z
1/2+x,1/2-y,z
loop_
_atom_site_type_symbol
_atom_site_label
_atom_site_fract_x
_atom_site_fract_y
_atom_site_fract_z
Si Si1 0.587908 0.698414 0.995178
Si Si2 0.875553 0.301234 0.565094
Si Si3 0.102736 0.790520 0.849933
Si Si4 0.026751 0.202589 0.712418
Si Si5 0.236051 0.695706 0.555723
Si Si6 0.166248 0.791235 0.723279
Si Si7 0.768232 0.706266 0.841647
O O1 0.610571 0.500000 0.994005
O O2 0.701372 0.772151 0.917447
O O3 0.500000 0.699887 0.000000
O O4 0.516916 0.770425 0.070590
O O5 0.889487 0.500000 0.569748
O O6 0.813173 0.292685 0.551055
O O7 0.786618 0.229950 0.644473
O O8 0.000000 0.224571 0.500000
O O9 0.133026 0.734251 0.787185
O O10 0.198281 0.739220 0.835388
O O11 0.099575 0.000000 0.851794
O O12 0.107740 0.282085 0.635856
O O13 0.075614 0.259088 0.733487
O O14 0.896723 0.243169 0.774331
O O15 0.042658 0.000000 0.701449
O O16 0.268739 0.500000 0.543231
O O17 0.250000 0.750000 0.500000
O O18 0.169049 0.000000 0.722570
O O19 0.761900 0.500000 0.846054
#
# Coordination Sequence:
#
# PCOD9192634 Si02
#       7
#     8   8   8   8   8   8   8
#     4   7  11  21  39  65  94 120 153 202 249 284
#     4   9  18  33  52  75 104 135 167 204 248 299
#     4   8  13  24  45  70  92 120 164 209 243 282
#     4  10  20  34  49  68  98 131 160 193 241 299
#     4  11  22  37  56  76 100 130 166 206 249 296
#     4   8  15  28  45  65  91 126 163 196 233 281
#     4   9  16  27  47  73  95 120 160 207 248 285
#
# _framework density 19.101832000000002
#
# number of rings (size 3 to 8) (size 9 to 14) (size 15 to 20)
#    0.000    3.143    0.000    4.286    0.000    1.429 
#    0.000    3.571    0.000    8.143    0.000    0.000 
#    0.000    0.000    0.000    0.000    0.000    0.000 
#
# Total GULP energy -155968.023393 kJ/mol
# GULP energy per Si atom -5570.286550 kJ/mol
# Density = 1.905836 g / cm^3
# Si number density = 19.101832 Si / 1000 Ang^3
#
#
#
# Elastic Constant Matrix: (Units=GPa)
#
#
# Indices 1 2 3 4 5 6 
#
# 1 64.0611 -3.1014 88.8785 0.0036 11.6579 0.0224
# 2 -3.1014 24.4426 -2.5769 -0.0014 3.1660 -0.0025
# 3 88.8785 -2.5769 179.4131 0.0079 19.3219 0.0009
# 4 0.0036 -0.0014 0.0079 6.6570 -0.0025 -7.1740
# 5 11.6579 3.1660 19.3219 -0.0025 37.1865 0.0006
# 6 0.0224 -0.0025 0.0009 -7.1740 0.0006 14.5999
#
#
#
# Elastic Compliance Matrix: (Units=1/GPa)
#
#
# Indices 1 2 3 4 5 6 
#
# 1 0.050666 0.004272 -0.024669 -0.000170 -0.003430 -0.000159
# 2 0.004272 0.041910 -0.001044 0.000016 -0.004365 0.000009
# 3 -0.024669 -0.001044 0.017941 0.000065 -0.001499 0.000069
# 4 -0.000170 0.000016 0.000065 0.319295 0.000036 0.156892
# 5 -0.003430 -0.004365 -0.001499 0.000036 0.029117 0.000021
# 6 -0.000159 0.000009 0.000069 0.156892 0.000021 0.145586
#
#
# Mechanical properties :
#
#
# Convention : Reuss Voigt Hill
#
# Bulk Modulus (GPa) = 14.78521 48.25747 31.52134
# Shear Modulus (GPa) = 7.46335 24.00312 15.73324
#
# Velocity S-wave (km/s) = 1.97879 3.54868 2.87304
# Velocity P-wave (km/s) = 3.60248 6.48914 5.24818
#
# Compressibility (1/GPa) = 0.06763518
#
# Stress axis : x y z
#
# Youngs Moduli (GPa) = 19.73696 23.86091 55.73942
#
# Poissons Ratio (x) = -0.10194 1.37501
# Poissons Ratio (y) = -0.08432 0.05822
# Poissons Ratio (z) = 0.48688 0.02492
#
# Static dielectric constant tensor:
#      x y z
#    x 1.667800 0.000000 0.012290 
#    y 0.000000 1.701190 0.000010 
#    z 0.012290 0.000010 1.697790 
# 
# From -- ./inp_files/377624.got.cif
#   From: 2010.05.17/outbox.cif.g08.bks.cpg/sg12_189_cif.got.tgz:377624.got - 2010.06.03 13:09:07.
