data_PCOD9192606
_publ_section_title
;
Structure prediction by ZEFSAII (Michael W. Deem and Ramdas Pophale) SiO2 
 PCOD9192606
Probable space group: C 2/M
;
_chemical_formula_sum "Si O2"
_cell_formula_units_Z 56
_cell_length_a 14.947720
_cell_length_b 16.458549
_cell_length_c 17.924144
_cell_angle_alpha 90.000000
_cell_angle_beta 130.952963
_cell_angle_gamma 90.000000
_cell_volume 3330.385138
_symmetry_space_group_name_H-M "C 2/M"
_symmetry_group_IT_number 12
_symmetry_cell_setting 'monoclinic'
loop_
_space_group_symop_operation_xyz
x,y,z
-x,y,-z
-x,-y,-z
x,-y,z
1/2+x,1/2+y,z
1/2-x,1/2+y,-z
1/2-x,1/2-y,-z
1/2+x,1/2-y,z
loop_
_atom_site_type_symbol
_atom_site_label
_atom_site_fract_x
_atom_site_fract_y
_atom_site_fract_z
Si Si1 0.677839 0.148529 0.065812
Si Si2 0.908445 0.593431 0.137105
Si Si3 0.946569 0.098356 0.234391
Si Si4 0.546806 0.595578 0.136834
Si Si5 0.847583 0.598236 0.780606
Si Si6 0.326875 0.664055 0.930525
Si Si7 0.077786 0.098817 0.611884
O O1 0.819110 0.135875 0.145762
O O2 0.633022 0.123983 0.123035
O O3 0.649779 0.242664 0.037170
O O4 0.628411 0.097506 0.970162
O O5 0.905814 0.500000 0.160943
O O6 0.808177 0.642395 0.125884
O O7 0.042915 0.625863 0.210560
O O8 0.973665 0.120731 0.334669
O O9 0.036897 0.119854 0.217880
O O10 0.932506 0.000000 0.224008
O O11 0.574935 0.500000 0.146441
O O12 0.636251 0.645978 0.134362
O O13 0.416673 0.610202 0.029330
O O14 0.849186 0.500000 0.780258
O O15 0.715646 0.624905 0.685284
O O16 0.000000 0.127963 0.500000
O O17 0.079016 0.000000 0.609763
#
# Coordination Sequence:
#
# PCOD9192606 Si02
#       7
#     8   8   8   8   8   8   8
#     4  11  20  29  43  66  96 124 155 195 222 273
#     4  11  20  31  44  61  93 131 159 184 228 278
#     4   9  17  30  49  69  92 123 153 188 235 280
#     4  10  20  34  46  60  89 127 168 198 221 257
#     4   9  19  30  45  68  94 124 150 182 237 294
#     4  11  22  29  44  64  90 128 169 198 217 250
#     4   8  14  28  49  74  96 112 144 194 241 284
#
# _framework density 16.814872000000001
#
# number of rings (size 3 to 8) (size 9 to 14) (size 15 to 20)
#    0.000    2.143    1.429    4.714    4.000    1.143 
#    0.000    0.000    0.000    0.000    0.000   17.000 
#    0.000    6.857    0.000    0.000    0.000    2.286 
#
# Total GULP energy -156122.921132 kJ/mol
# GULP energy per Si atom -5575.818612 kJ/mol
# Density = 1.677660 g / cm^3
# Si number density = 16.814872 Si / 1000 Ang^3
#
#
#
# Elastic Constant Matrix: (Units=GPa)
#
#
# Indices 1 2 3 4 5 6 
#
# 1 127.7805 11.4920 33.2470 0.0000 -3.0275 0.0000
# 2 11.4920 25.4033 -4.6961 0.0000 -0.8597 0.0000
# 3 33.2470 -4.6961 70.1371 0.0000 -8.3980 0.0000
# 4 0.0000 0.0000 0.0000 -1.0888 0.0000 2.7256
# 5 -3.0275 -0.8597 -8.3980 0.0000 14.8713 0.0000
# 6 0.0000 0.0000 0.0000 2.7256 0.0000 2.1982
#
#
#
# Elastic Compliance Matrix: (Units=1/GPa)
#
#
# Indices 1 2 3 4 5 6 
#
# 1 0.009588 -0.005310 -0.005044 0.000000 -0.001204 0.000000
# 2 -0.005310 0.043033 0.005971 0.000000 0.004778 0.000000
# 3 -0.005044 0.005971 0.018198 0.000000 0.009595 0.000000
# 4 0.000000 0.000000 0.000000 -0.223797 0.000000 0.277492
# 5 -0.001204 0.004778 0.009595 0.000000 0.072693 0.000000
# 6 0.000000 0.000000 0.000000 0.277492 0.000000 0.110857
#
#
# Mechanical properties :
#
#
# Convention : Reuss Voigt Hill
#
# Bulk Modulus (GPa) = 16.11617 33.71186 24.91401
# Shear Modulus (GPa) = 83.30205 15.41466 49.35836
#
# Velocity S-wave (km/s) = 7.04615 3.03104 5.42381
# Velocity P-wave (km/s) = 8.70649 5.68700 7.35340
#
# Compressibility (1/GPa) = 0.06204949
#
# Stress axis : x y z
#
# Youngs Moduli (GPa) = 104.30246 23.23811 54.95227
#
# Poissons Ratio (x) = 0.12340 0.27720
# Poissons Ratio (y) = 0.55389 -0.32810
# Poissons Ratio (z) = 0.52615 -0.13875
#
# Static dielectric constant tensor:
#      x y z
#    x 1.617500 0.000000 -0.003110 
#    y 0.000000 1.553650 0.000000 
#    z -0.003110 0.000000 1.549670 
# 
# From -- ./inp_files/214253.got.cif
#   From: 2010.05.17/outbox.cif.g08.bks.cpg/sg12_108_cif.got.tgz:214253.got - 2010.06.03 13:09:07.
