data_PCOD9192385
_publ_section_title
;
Structure prediction by ZEFSAII (Michael W. Deem and Ramdas Pophale) SiO2 
 PCOD9192385
Probable space group: C 2/M
;
_chemical_formula_sum "Si O2"
_cell_formula_units_Z 56
_cell_length_a 5.491418
_cell_length_b 23.882903
_cell_length_c 22.562793
_cell_angle_alpha 90.000000
_cell_angle_beta 111.715640
_cell_angle_gamma 90.000000
_cell_volume 2749.128033
_symmetry_space_group_name_H-M "C 2/M"
_symmetry_group_IT_number 12
_symmetry_cell_setting 'monoclinic'
loop_
_space_group_symop_operation_xyz
x,y,z
-x,y,-z
-x,-y,-z
x,-y,z
1/2+x,1/2+y,z
1/2-x,1/2+y,-z
1/2-x,1/2-y,-z
1/2+x,1/2-y,z
loop_
_atom_site_type_symbol
_atom_site_label
_atom_site_fract_x
_atom_site_fract_y
_atom_site_fract_z
Si Si1 0.886279 0.941122 0.054824
Si Si2 0.577099 0.716121 0.798466
Si Si3 0.348825 0.066123 0.709064
Si Si4 0.923442 0.434211 0.141685
Si Si5 0.173385 0.127539 0.313439
Si Si6 0.399260 0.785151 0.426970
Si Si7 0.395084 0.164040 0.932866
O O1 0.751825 0.882744 0.042793
O O2 0.112439 0.936235 0.123929
O O3 0.745844 0.000000 0.051874
O O4 0.000000 0.945854 0.000000
O O5 0.323562 0.755690 0.786501
O O6 0.464039 0.664368 0.750761
O O7 0.702988 0.698932 0.873180
O O8 0.422731 0.075605 0.784691
O O9 0.585766 0.092813 0.692841
O O10 0.060364 0.092389 0.677097
O O11 0.341178 0.000000 0.697471
O O12 0.977257 0.500000 0.128668
O O13 0.964836 0.381002 0.101039
O O14 0.297102 0.168408 0.373140
O O15 0.500000 0.806519 0.500000
O O16 0.647859 0.754026 0.419297
O O17 0.500000 0.199093 0.000000
#
# Coordination Sequence:
#
# PCOD9192385 Si02
#       7
#     8   8   8   8   8   8   8
#     4  10  20  33  55  84 113 142 188 248 320 396
#     4  12  28  45  65  88 118 160 220 265 310 376
#     4  11  24  40  65  99 132 169 214 262 313 387
#     4  10  21  37  56  85 117 152 200 260 324 384
#     4  12  22  43  71  94 133 173 211 258 326 375
#     4  10  21  39  67 106 141 172 220 274 321 365
#     4  12  24  38  60  79 116 154 203 259 333 383
#
# _framework density 20.370097000000001
#
# number of rings (size 3 to 8) (size 9 to 14) (size 15 to 20)
#    0.000    1.000    2.857    4.286    2.000    1.143 
#    0.000    0.000    0.000    2.571    0.000    0.000 
#    0.000    0.000    0.000    0.000    0.000    0.000 
#
# Total GULP energy -155932.330846 kJ/mol
# GULP energy per Si atom -5569.011816 kJ/mol
# Density = 2.032373 g / cm^3
# Si number density = 20.370097 Si / 1000 Ang^3
#
#
#
# Elastic Constant Matrix: (Units=GPa)
#
#
# Indices 1 2 3 4 5 6 
#
# 1 116.8436 42.4843 35.3083 0.0000 14.3221 0.0000
# 2 42.4843 62.1952 45.3293 0.0000 8.0137 0.0000
# 3 35.3083 45.3293 106.6898 0.0000 23.5056 0.0000
# 4 0.0000 0.0000 0.0000 29.4801 0.0000 2.2399
# 5 14.3221 8.0137 23.5056 0.0000 22.9669 0.0000
# 6 0.0000 0.0000 0.0000 2.2399 0.0000 38.7922
#
#
#
# Elastic Compliance Matrix: (Units=1/GPa)
#
#
# Indices 1 2 3 4 5 6 
#
# 1 0.011887 -0.007850 0.000556 0.000000 -0.005243 0.000000
# 2 -0.007850 0.028593 -0.010886 0.000000 0.006059 0.000000
# 3 0.000556 -0.010886 0.016854 0.000000 -0.013798 0.000000
# 4 0.000000 0.000000 0.000000 0.034071 0.000000 -0.001967
# 5 -0.005243 0.006059 -0.013798 0.000000 0.058818 0.000000
# 6 0.000000 0.000000 0.000000 -0.001967 0.000000 0.025892
#
#
# Mechanical properties :
#
#
# Convention : Reuss Voigt Hill
#
# Bulk Modulus (GPa) = 47.67309 59.10804 53.39057
# Shear Modulus (GPa) = 22.78270 29.08830 25.93550
#
# Velocity S-wave (km/s) = 3.34793 3.78298 3.57208
# Velocity P-wave (km/s) = 6.19671 6.93983 6.57877
#
# Compressibility (1/GPa) = 0.02097620
#
# Stress axis : x y z
#
# Youngs Moduli (GPa) = 84.12412 34.97308 59.33426
#
# Poissons Ratio (x) = 0.27453 -0.03301
# Poissons Ratio (y) = 0.66036 0.64589
# Poissons Ratio (z) = -0.04680 0.38070
#
# Static dielectric constant tensor:
#      x y z
#    x 2.376340 0.000000 -0.061150 
#    y 0.000000 1.739660 0.000000 
#    z -0.061150 0.000000 1.814760 
# 
# From -- ./inp_files/331272.got.cif
#   From: 2010.05.17/outbox.cif.g08.bks.cpg/sg12_166_cif.got.tgz:331272.got - 2010.06.03 13:09:07.
