data_PCOD9192478
_publ_section_title
;
Structure prediction by ZEFSAII (Michael W. Deem and Ramdas Pophale) SiO2 
 PCOD9192478
Probable space group: C 2/M
;
_chemical_formula_sum "Si O2"
_cell_formula_units_Z 56
_cell_length_a 11.840780
_cell_length_b 26.147153
_cell_length_c 12.024541
_cell_angle_alpha 90.000000
_cell_angle_beta 47.674471
_cell_angle_gamma 90.000000
_cell_volume 2752.404332
_symmetry_space_group_name_H-M "C 2/M"
_symmetry_group_IT_number 12
_symmetry_cell_setting 'monoclinic'
loop_
_space_group_symop_operation_xyz
x,y,z
-x,y,-z
-x,-y,-z
x,-y,z
1/2+x,1/2+y,z
1/2-x,1/2+y,-z
1/2-x,1/2-y,-z
1/2+x,1/2-y,z
loop_
_atom_site_type_symbol
_atom_site_label
_atom_site_fract_x
_atom_site_fract_y
_atom_site_fract_z
Si Si1 0.345427 0.101989 0.536363
Si Si2 0.858336 0.805792 0.013833
Si Si3 0.395331 0.785740 0.409294
Si Si4 0.002507 0.443275 0.227771
Si Si5 0.589638 0.840652 0.830032
Si Si6 0.315619 0.412705 0.136774
Si Si7 0.846190 0.212018 0.775703
O O1 0.500000 0.092071 0.500000
O O2 0.351866 0.162208 0.501588
O O3 0.373372 0.068970 0.407491
O O4 0.214231 0.088153 0.710730
O O5 0.900514 0.812592 0.856333
O O6 0.776666 0.856625 0.112292
O O7 0.771614 0.754230 0.100511
O O8 0.000000 0.804045 0.000000
O O9 0.250000 0.750000 0.500000
O O10 0.442697 0.804581 0.254026
O O11 0.528328 0.748412 0.362339
O O12 0.980437 0.500000 0.196086
O O13 0.969103 0.396937 0.164774
O O14 0.174413 0.442270 0.169231
O O15 0.765081 0.828719 0.748881
O O16 0.500000 0.826050 0.000000
O O17 0.500000 0.424016 0.000000
#
# Coordination Sequence:
#
# PCOD9192478 Si02
#       7
#     8   8   8   8   8   8   8
#     4   9  20  38  58  87 129 161 208 263 318 379
#     4  10  20  33  56  87 124 162 199 252 309 362
#     4  11  25  35  54  89 126 173 210 251 301 378
#     4  10  22  43  66  91 122 162 215 275 332 382
#     4  11  23  41  61  90 125 162 216 265 313 380
#     4  10  21  35  62  94 129 160 206 270 329 386
#     4  11  20  34  56  83 122 171 212 247 299 371
#
# _framework density 20.345846999999999
#
# number of rings (size 3 to 8) (size 9 to 14) (size 15 to 20)
#    0.000    1.714    0.000    6.429    8.000    3.143 
#    0.000    0.000    0.000    0.000    0.000    3.000 
#    0.000    0.000    0.000    0.000    0.000    0.000 
#
# Total GULP energy -155977.271303 kJ/mol
# GULP energy per Si atom -5570.616832 kJ/mol
# Density = 2.029954 g / cm^3
# Si number density = 20.345847 Si / 1000 Ang^3
#
#
#
# Elastic Constant Matrix: (Units=GPa)
#
#
# Indices 1 2 3 4 5 6 
#
# 1 93.2421 38.3359 29.6753 0.0000 -0.4638 0.0000
# 2 38.3359 93.1093 20.3308 0.0000 -13.4016 0.0000
# 3 29.6753 20.3308 114.1744 0.0000 -4.1623 0.0000
# 4 0.0000 0.0000 0.0000 9.4437 0.0000 -9.6699
# 5 -0.4638 -13.4016 -4.1623 0.0000 25.8169 0.0000
# 6 0.0000 0.0000 0.0000 -9.6699 0.0000 22.9135
#
#
#
# Elastic Compliance Matrix: (Units=1/GPa)
#
#
# Indices 1 2 3 4 5 6 
#
# 1 0.013860 -0.005554 -0.002726 0.000000 -0.003074 0.000000
# 2 -0.005554 0.014238 -0.000831 0.000000 0.007157 0.000000
# 3 -0.002726 -0.000831 0.009654 0.000000 0.001076 0.000000
# 4 0.000000 0.000000 0.000000 0.186469 0.000000 0.078694
# 5 -0.003074 0.007157 0.001076 0.000000 0.042568 0.000000
# 6 0.000000 0.000000 0.000000 0.078694 0.000000 0.076853
#
#
# Mechanical properties :
#
#
# Convention : Reuss Voigt Hill
#
# Bulk Modulus (GPa) = 51.19791 53.02331 52.11061
# Shear Modulus (GPa) = 13.57315 25.78042 19.67679
#
# Velocity S-wave (km/s) = 2.58567 3.56351 3.11322
# Velocity P-wave (km/s) = 5.84232 6.56118 6.21216
#
# Compressibility (1/GPa) = 0.01953205
#
# Stress axis : x y z
#
# Youngs Moduli (GPa) = 72.14800 70.23236 103.58260
#
# Poissons Ratio (x) = 0.39007 0.28232
# Poissons Ratio (y) = 0.40071 0.08607
# Poissons Ratio (z) = 0.19664 0.05836
#
# Static dielectric constant tensor:
#      x y z
#    x 1.498280 0.000000 0.255450 
#    y 0.000000 1.796580 0.000000 
#    z 0.255450 0.000000 1.614500 
# 
# From -- ./inp_files/136941.got.cif
#   From: 2010.05.17/outbox.cif.g08.bks.cpg/sg12_69_cif.got.tgz:136941.got - 2010.06.03 13:09:07.
