data_PCOD9192024
_publ_section_title
;
Structure prediction by ZEFSAII (Michael W. Deem and Ramdas Pophale) SiO2 
 PCOD9192024
Probable space group: C 2/M
;
_chemical_formula_sum "Si O2"
_cell_formula_units_Z 64
_cell_length_a 18.851344
_cell_length_b 9.306169
_cell_length_c 17.393699
_cell_angle_alpha 90.000000
_cell_angle_beta 88.067330
_cell_angle_gamma 90.000000
_cell_volume 3049.706774
_symmetry_space_group_name_H-M "C 2/M"
_symmetry_group_IT_number 12
_symmetry_cell_setting 'monoclinic'
loop_
_space_group_symop_operation_xyz
x,y,z
-x,y,-z
-x,-y,-z
x,-y,z
1/2+x,1/2+y,z
1/2-x,1/2+y,-z
1/2-x,1/2-y,-z
1/2+x,1/2-y,z
loop_
_atom_site_type_symbol
_atom_site_label
_atom_site_fract_x
_atom_site_fract_y
_atom_site_fract_z
Si Si1 0.955200 0.329674 0.422519
Si Si2 0.323463 0.666107 0.489736
Si Si3 0.136878 0.336571 0.984756
Si Si4 0.967329 0.828018 0.720363
Si Si5 0.928186 0.171233 0.153063
Si Si6 0.818074 0.836857 0.664897
Si Si7 0.717718 0.669626 0.758050
Si Si8 0.289671 0.663268 0.892808
O O1 0.945283 0.500000 0.411412
O O2 0.880936 0.249189 0.437835
O O3 0.994216 0.259472 0.348469
O O4 0.000000 0.310672 0.500000
O O5 0.314815 0.500000 0.466006
O O6 0.250000 0.750000 0.500000
O O7 0.348718 0.666309 0.577871
O O8 0.114661 0.500000 0.002471
O O9 0.087256 0.260849 0.923139
O O10 0.216169 0.344721 0.944568
O O11 0.149805 0.238505 0.058771
O O12 0.001328 0.794707 0.801762
O O13 0.884053 0.798070 0.716523
O O14 0.977512 0.000000 0.707099
O O15 0.863060 0.201716 0.214928
O O16 0.925728 0.000000 0.135720
O O17 0.750466 0.736288 0.680061
O O18 0.794919 0.000000 0.681362
O O19 0.725627 0.500000 0.756893
O O20 0.765735 0.740841 0.822412
O O21 0.309263 0.500000 0.871275
#
# Coordination Sequence:
#
# PCOD9192024 Si02
#       8
#     8   8   8   8   8   8   8   8
#     4  11  23  39  60  86 113 144 186 233 279 333
#     4  11  24  41  61  85 114 147 186 232 283 335
#     4   9  16  27  47  76 109 141 175 220 270 318
#     4  10  21  39  60  80 107 148 190 227 273 330
#     4   9  19  34  53  80 108 140 181 224 270 324
#     4  10  22  39  57  78 108 146 185 224 273 333
#     4  10  20  33  52  80 112 142 179 226 275 326
#     4   9  16  28  48  74 106 144 181 219 265 320
#
# _framework density 20.985624000000001
#
# number of rings (size 3 to 8) (size 9 to 14) (size 15 to 20)
#    0.000    2.125    1.250    1.875    1.750    6.000 
#    0.000    0.000    0.000    0.750    0.000    5.250 
#    0.000    0.000    0.000    0.000    0.000    0.000 
#
# Total GULP energy -178741.069065 kJ/mol
# GULP energy per Si atom -5585.658408 kJ/mol
# Density = 2.093786 g / cm^3
# Si number density = 20.985624 Si / 1000 Ang^3
#
#
#
# Elastic Constant Matrix: (Units=GPa)
#
#
# Indices 1 2 3 4 5 6 
#
# 1 68.4715 42.0381 4.2238 0.0000 17.5025 0.0000
# 2 42.0381 69.4018 5.8188 0.0000 8.3888 0.0000
# 3 4.2238 5.8188 30.8952 0.0000 16.4614 0.0000
# 4 0.0000 0.0000 0.0000 31.3723 0.0000 0.9334
# 5 17.5025 8.3888 16.4614 0.0000 35.9783 0.0000
# 6 0.0000 0.0000 0.0000 0.9334 0.0000 19.7867
#
#
#
# Elastic Compliance Matrix: (Units=1/GPa)
#
#
# Indices 1 2 3 4 5 6 
#
# 1 0.026620 -0.015146 0.005596 0.000000 -0.011979 0.000000
# 2 -0.015146 0.023481 -0.004444 0.000000 0.003926 0.000000
# 3 0.005596 -0.004444 0.044085 0.000000 -0.021857 0.000000
# 4 0.000000 0.000000 0.000000 0.031920 0.000000 -0.001506
# 5 -0.011979 0.003926 -0.021857 0.000000 0.042707 0.000000
# 6 0.000000 0.000000 0.000000 -0.001506 0.000000 0.050610
#
#
# Mechanical properties :
#
#
# Convention : Reuss Voigt Hill
#
# Bulk Modulus (GPa) = 15.10606 30.32554 22.71580
# Shear Modulus (GPa) = 18.55454 25.20665 21.88060
#
# Velocity S-wave (km/s) = 2.97670 3.46951 3.23251
# Velocity P-wave (km/s) = 4.36214 5.52557 4.97796
#
# Compressibility (1/GPa) = 0.06619860
#
# Stress axis : x y z
#
# Youngs Moduli (GPa) = 37.56573 42.58798 22.68348
#
# Poissons Ratio (x) = 0.64502 -0.12693
# Poissons Ratio (y) = 0.56895 0.10080
# Poissons Ratio (z) = -0.21020 0.18925
#
# Static dielectric constant tensor:
#      x y z
#    x 1.744350 0.000000 0.006780 
#    y 0.000000 1.711510 0.000000 
#    z 0.006780 0.000000 1.796220 
# 
# From -- ./inp_files/281222.got.cif
#   From: 2010.05.17/outbox.cif.g08.bks.cpg/sg12_141_cif.got.tgz:281222.got - 2010.06.03 13:09:07.
