data_PCOD9192640
_publ_section_title
;
Structure prediction by ZEFSAII (Michael W. Deem and Ramdas Pophale) SiO2 
 PCOD9192640
Probable space group: C 2/M
;
_chemical_formula_sum "Si O2"
_cell_formula_units_Z 40
_cell_length_a 9.564674
_cell_length_b 14.253312
_cell_length_c 17.515420
_cell_angle_alpha 90.000000
_cell_angle_beta 44.596112
_cell_angle_gamma 90.000000
_cell_volume 1676.518775
_symmetry_space_group_name_H-M "C 2/M"
_symmetry_group_IT_number 12
_symmetry_cell_setting 'monoclinic'
loop_
_space_group_symop_operation_xyz
x,y,z
-x,y,-z
-x,-y,-z
x,-y,z
1/2+x,1/2+y,z
1/2-x,1/2+y,-z
1/2-x,1/2-y,-z
1/2+x,1/2-y,z
loop_
_atom_site_type_symbol
_atom_site_label
_atom_site_fract_x
_atom_site_fract_y
_atom_site_fract_z
Si Si1 0.769009 0.691831 0.658460
Si Si2 0.511583 0.613304 0.121647
Si Si3 0.326664 0.104187 0.480060
Si Si4 0.239358 0.104563 0.338387
Si Si5 0.200063 0.389441 0.113951
O O1 0.555644 0.665570 0.776029
O O2 0.764300 0.677328 0.569147
O O3 0.845697 0.794976 0.651876
O O4 0.936806 0.619940 0.622495
O O5 0.504398 0.500000 0.136797
O O6 0.342316 0.645651 0.126357
O O7 0.718989 0.640455 0.000532
O O8 0.232435 0.105899 0.433216
O O9 0.292622 0.000000 0.525203
O O10 0.469031 0.116346 0.222554
O O11 0.172024 0.000000 0.339272
O O12 0.246733 0.500000 0.095780
#
# Coordination Sequence:
#
# PCOD9192640 Si02
#       5
#     8   8   8   8   8
#     4  11  19  29  52  77  95 125 168 199 238 286
#     4   9  15  27  49  75  98 122 158 203 243 282
#     4  10  20  35  52  73 101 126 156 204 248 282
#     4  10  20  34  49  70 102 133 159 196 242 288
#     4   8  15  28  47  71  99 126 154 197 247 284
#
# _framework density 23.858961000000001
#
# number of rings (size 3 to 8) (size 9 to 14) (size 15 to 20)
#    0.000    2.400    2.000    4.200    0.000    0.800 
#    0.000    2.000    0.000    3.600    0.000    2.800 
#    0.000    0.000    0.000    0.000    0.000    0.000 
#
# Total GULP energy -111624.511488 kJ/mol
# GULP energy per Si atom -5581.225574 kJ/mol
# Density = 2.380466 g / cm^3
# Si number density = 23.858961 Si / 1000 Ang^3
#
#
#
# Elastic Constant Matrix: (Units=GPa)
#
#
# Indices 1 2 3 4 5 6 
#
# 1 36.3435 3.0976 1.7956 0.0000 -12.2517 -0.0001
# 2 3.0976 140.0475 19.3518 0.0000 -2.9626 -0.0001
# 3 1.7956 19.3518 150.4976 0.0001 -0.3844 -0.0001
# 4 0.0000 0.0000 0.0001 -13.0759 -0.0001 -2.4885
# 5 -12.2517 -2.9626 -0.3844 -0.0001 15.4182 0.0001
# 6 -0.0001 -0.0001 -0.0001 -2.4885 0.0001 5.9500
#
#
#
# Elastic Compliance Matrix: (Units=1/GPa)
#
#
# Indices 1 2 3 4 5 6 
#
# 1 0.037607 -0.000152 -0.000353 0.000000 0.029846 0.000000
# 2 -0.000152 0.007299 -0.000934 0.000000 0.001259 0.000000
# 3 -0.000353 -0.000934 0.006768 0.000000 -0.000291 0.000000
# 4 0.000000 0.000000 0.000000 -0.070838 0.000000 -0.029626
# 5 0.029846 0.001259 -0.000291 0.000000 0.088809 -0.000001
# 6 0.000000 0.000000 0.000000 -0.029626 -0.000001 0.155676
#
#
# Mechanical properties :
#
#
# Convention : Reuss Voigt Hill
#
# Bulk Modulus (GPa) = 20.49264 41.70874 31.10069
# Shear Modulus (GPa) = 20.45296 21.83469 21.14383
#
# Velocity S-wave (km/s) = 2.93105 3.02844 2.98014
# Velocity P-wave (km/s) = 4.47911 5.45416 4.99051
#
# Compressibility (1/GPa) = 0.04879800
#
# Stress axis : x y z
#
# Youngs Moduli (GPa) = 26.59090 136.99716 147.75118
#
# Poissons Ratio (x) = 0.02078 0.05215
# Poissons Ratio (y) = 0.00403 0.13794
# Poissons Ratio (z) = 0.00939 0.12790
#
# Static dielectric constant tensor:
#      x y z
#    x 1.915160 0.000000 -0.021130 
#    y 0.000000 1.907130 0.000000 
#    z -0.021130 0.000000 1.987310 
# 
# From -- ./inp_files/129238.got.cif
#   From: 2010.05.17/outbox.cif.g08.bks.cpg/sg12_65_cif.got.tgz:129238.got - 2010.06.03 13:09:07.
