data_PCOD9192473
_publ_section_title
;
Structure prediction by ZEFSAII (Michael W. Deem and Ramdas Pophale) SiO2 
 PCOD9192473
Probable space group: C 2/M
;
_chemical_formula_sum "Si O2"
_cell_formula_units_Z 64
_cell_length_a 24.868750
_cell_length_b 8.810888
_cell_length_c 16.600039
_cell_angle_alpha 90.000000
_cell_angle_beta 91.371497
_cell_angle_gamma 90.000000
_cell_volume 3636.288322
_symmetry_space_group_name_H-M "C 2/M"
_symmetry_group_IT_number 12
_symmetry_cell_setting 'monoclinic'
loop_
_space_group_symop_operation_xyz
x,y,z
-x,y,-z
-x,-y,-z
x,-y,z
1/2+x,1/2+y,z
1/2-x,1/2+y,-z
1/2-x,1/2-y,-z
1/2+x,1/2-y,z
loop_
_atom_site_type_symbol
_atom_site_label
_atom_site_fract_x
_atom_site_fract_y
_atom_site_fract_z
Si Si1 0.961818 0.681309 0.737390
Si Si2 0.878512 0.681261 0.877736
Si Si3 0.939936 0.182756 0.025786
Si Si4 0.573199 0.318766 0.787382
Si Si5 0.205713 0.818955 0.239036
Si Si6 0.693424 0.681136 0.528271
Si Si7 0.634610 0.818225 0.379744
Si Si8 0.675965 0.818949 0.703604
O O1 0.971054 0.500000 0.738918
O O2 0.925698 0.719614 0.814738
O O3 0.923906 0.716691 0.659708
O O4 0.017885 0.766735 0.743713
O O5 0.872595 0.500000 0.877773
O O6 0.824820 0.756664 0.840359
O O7 0.897400 0.742097 0.964246
O O8 0.931130 0.224174 0.118406
O O9 0.936374 0.000000 0.018346
O O10 0.000000 0.228163 0.000000
O O11 0.578349 0.500000 0.782649
O O12 0.624108 0.241173 0.748084
O O13 0.177160 0.740116 0.314602
O O14 0.268979 0.786253 0.245845
O O15 0.197967 0.000000 0.245036
O O16 0.750000 0.750000 0.500000
O O17 0.648748 0.739026 0.463738
O O18 0.681324 0.740860 0.616900
O O19 0.803133 0.000000 0.472696
O O20 0.639574 0.000000 0.387195
O O21 0.672663 0.000000 0.692226
#
# Coordination Sequence:
#
# PCOD9192473 Si02
#       8
#     8   8   8   8   8   8   8   8
#     4   9  19  35  55  83 117 152 188 232 288 343
#     4  10  20  33  56  87 116 148 189 241 292 339
#     4  10  20  36  57  85 117 150 192 241 289 343
#     4  11  23  38  59  85 116 156 194 236 290 348
#     4  10  20  35  57  83 114 152 191 235 290 346
#     4  12  23  37  60  89 119 152 194 242 287 339
#     4  10  20  35  58  88 119 150 189 240 290 339
#     4  11  24  41  60  84 117 156 194 238 292 348
#
# _framework density 17.600363999999999
#
# number of rings (size 3 to 8) (size 9 to 14) (size 15 to 20)
#    0.000    1.625    2.500    3.750    0.000    5.250 
#    0.000    1.250    0.000    3.750    0.000    0.000 
#    0.000    0.000    0.000    0.000    0.000    0.000 
#
# Total GULP energy -178758.869434 kJ/mol
# GULP energy per Si atom -5586.214670 kJ/mol
# Density = 1.756030 g / cm^3
# Si number density = 17.600364 Si / 1000 Ang^3
#
#
#
# Elastic Constant Matrix: (Units=GPa)
#
#
# Indices 1 2 3 4 5 6 
#
# 1 141.4635 76.9379 82.9915 0.0000 14.6960 0.0000
# 2 76.9379 85.4939 60.0221 0.0000 8.7183 0.0000
# 3 82.9915 60.0221 115.1471 0.0000 13.5974 0.0000
# 4 0.0000 0.0000 0.0000 29.7622 0.0000 2.3133
# 5 14.6960 8.7183 13.5974 0.0000 29.8507 0.0000
# 6 0.0000 0.0000 0.0000 2.3133 0.0000 29.6541
#
#
#
# Elastic Compliance Matrix: (Units=1/GPa)
#
#
# Indices 1 2 3 4 5 6 
#
# 1 0.016614 -0.010253 -0.006360 0.000000 -0.002288 0.000000
# 2 -0.010253 0.024808 -0.005582 0.000000 0.000345 0.000000
# 3 -0.006360 -0.005582 0.016504 0.000000 -0.002756 0.000000
# 4 0.000000 0.000000 0.000000 0.033805 0.000000 -0.002637
# 5 -0.002288 0.000345 -0.002756 0.000000 0.035781 0.000000
# 6 0.000000 0.000000 0.000000 -0.002637 0.000000 0.033928
#
#
# Mechanical properties :
#
#
# Convention : Reuss Voigt Hill
#
# Bulk Modulus (GPa) = 73.88189 86.88974 80.38581
# Shear Modulus (GPa) = 23.77098 25.99694 24.88396
#
# Velocity S-wave (km/s) = 3.67903 3.84743 3.76417
# Velocity P-wave (km/s) = 7.75343 8.31939 8.04139
#
# Compressibility (1/GPa) = 0.01353512
#
# Stress axis : x y z
#
# Youngs Moduli (GPa) = 60.19011 40.31017 60.59311
#
# Poissons Ratio (x) = 0.41331 0.38535
# Poissons Ratio (y) = 0.61714 0.33824
# Poissons Ratio (z) = 0.38279 0.22502
#
# Static dielectric constant tensor:
#      x y z
#    x 1.584380 0.000000 0.017490 
#    y 0.000000 1.585020 0.000000 
#    z 0.017490 0.000000 1.583560 
# 
# From -- ./inp_files/281319.got.cif
#   From: 2010.05.17/outbox.cif.g08.bks.cpg/sg12_141_cif.got.tgz:281319.got - 2010.06.03 13:09:07.
