data_PCOD9192395
_publ_section_title
;
Structure prediction by ZEFSAII (Michael W. Deem and Ramdas Pophale) SiO2 
 PCOD9192395
Probable space group: C 2/M
;
_chemical_formula_sum "Si O2"
_cell_formula_units_Z 40
_cell_length_a 24.351557
_cell_length_b 9.890878
_cell_length_c 18.539592
_cell_angle_alpha 90.000000
_cell_angle_beta 150.145232
_cell_angle_gamma 90.000000
_cell_volume 2222.897561
_symmetry_space_group_name_H-M "C 2/M"
_symmetry_group_IT_number 12
_symmetry_cell_setting 'monoclinic'
loop_
_space_group_symop_operation_xyz
x,y,z
-x,y,-z
-x,-y,-z
x,-y,z
1/2+x,1/2+y,z
1/2-x,1/2+y,-z
1/2-x,1/2-y,-z
1/2+x,1/2-y,z
loop_
_atom_site_type_symbol
_atom_site_label
_atom_site_fract_x
_atom_site_fract_y
_atom_site_fract_z
Si Si1 0.133634 0.000000 0.154967
Si Si2 0.925950 0.500000 0.697538
Si Si3 0.995714 0.202653 0.231193
Si Si4 0.821479 0.772111 0.907176
Si Si5 0.316822 0.342868 0.133549
Si Si6 0.448266 0.000000 0.017826
Si Si7 0.670181 0.500000 0.368617
O O1 0.179005 0.127539 0.160830
O O2 0.161786 0.000000 0.271847
O O3 0.000000 0.000000 0.000000
O O4 0.982579 0.361998 0.735742
O O5 0.952326 0.500000 0.812152
O O6 0.797688 0.500000 0.534305
O O7 0.939943 0.155210 0.241943
O O8 0.105342 0.127228 0.329608
O O9 0.906333 0.173598 0.065585
O O10 0.708974 0.731776 0.820435
O O11 0.875537 0.631880 0.945639
O O12 0.277425 0.500000 0.091192
O O13 0.250000 0.250000 0.000000
O O14 0.500000 0.000000 0.000000
#
# Coordination Sequence:
#
# PCOD9192395 Si02
#       7
#     4   4   8   8   8   4   4
#     4  12  22  35  56  84 119 155 189 238 289 346
#     4  10  24  37  56  89 112 154 196 231 287 348
#     4  10  20  36  58  81 118 149 190 244 287 340
#     4  10  20  34  54  84 114 147 189 232 292 342
#     4  10  20  33  55  85 115 149 191 242 298 341
#     4  10  20  35  56  82 115 144 180 238 288 340
#     4  12  22  39  58  84 120 155 198 235 287 345
#
# _framework density 17.994530999999998
#
# number of rings (size 3 to 8) (size 9 to 14) (size 15 to 20)
#    0.000    1.600    4.000    1.200   11.200    0.000 
#    0.000    0.000    0.000    2.400    0.000    2.800 
#    0.000    0.000    0.000    0.000    0.000    0.000 
#
# Total GULP energy -111458.797664 kJ/mol
# GULP energy per Si atom -5572.939883 kJ/mol
# Density = 1.795357 g / cm^3
# Si number density = 17.994531 Si / 1000 Ang^3
#
#
#
# Elastic Constant Matrix: (Units=GPa)
#
#
# Indices 1 2 3 4 5 6 
#
# 1 163.9957 54.3463 42.2707 0.0000 14.1130 0.0000
# 2 54.3463 117.3755 31.6688 0.0000 -4.6420 0.0000
# 3 42.2707 31.6688 53.8254 0.0000 6.4198 0.0000
# 4 0.0000 0.0000 0.0000 -61.7713 0.0000 10.7718
# 5 14.1130 -4.6420 6.4198 0.0000 10.1158 0.0000
# 6 0.0000 0.0000 0.0000 10.7718 0.0000 -11.9506
#
#
#
# Elastic Compliance Matrix: (Units=1/GPa)
#
#
# Indices 1 2 3 4 5 6 
#
# 1 0.009394 -0.003879 -0.003591 0.000000 -0.012606 0.000000
# 2 -0.003879 0.012571 -0.006149 0.000000 0.015083 0.000000
# 3 -0.003591 -0.006149 0.026783 0.000000 -0.014809 0.000000
# 4 0.000000 0.000000 0.000000 -0.019208 0.000000 -0.017313
# 5 -0.012606 0.015083 -0.014809 0.000000 0.132762 0.000000
# 6 0.000000 0.000000 0.000000 -0.017313 0.000000 -0.099283
#
#
# Mechanical properties :
#
#
# Convention : Reuss Voigt Hill
#
# Bulk Modulus (GPa) = 46.49174 65.75202 56.12188
# Shear Modulus (GPa) = 51.32005 1.07284 26.19645
#
# Velocity S-wave (km/s) = 5.34619 0.77298 3.81963
# Velocity P-wave (km/s) = 8.00010 6.11686 7.12101
#
# Compressibility (1/GPa) = 0.02150920
#
# Stress axis : x y z
#
# Youngs Moduli (GPa) = 106.45398 79.54640 37.33698
#
# Poissons Ratio (x) = 0.30856 0.13409
# Poissons Ratio (y) = 0.41294 0.22959
# Poissons Ratio (z) = 0.38231 0.48914
#
# Static dielectric constant tensor:
#      x y z
#    x 1.635190 0.000000 0.018860 
#    y 0.000000 1.657140 0.000000 
#    z 0.018860 0.000000 1.594170 
# 
# From -- ./inp_files/324455.got.cif
#   From: 2010.05.17/outbox.cif.g08.bks.cpg/sg12_163_cif.got.tgz:324455.got - 2010.06.03 13:09:07.
