data_PCOD9192180
_publ_section_title
;
Structure prediction by ZEFSAII (Michael W. Deem and Ramdas Pophale) SiO2 
 PCOD9192180
Probable space group: C 2/M
;
_chemical_formula_sum "Si O2"
_cell_formula_units_Z 56
_cell_length_a 23.179056
_cell_length_b 8.905081
_cell_length_c 15.508550
_cell_angle_alpha 90.000000
_cell_angle_beta 85.880872
_cell_angle_gamma 90.000000
_cell_volume 3192.872069
_symmetry_space_group_name_H-M "C 2/M"
_symmetry_group_IT_number 12
_symmetry_cell_setting 'monoclinic'
loop_
_space_group_symop_operation_xyz
x,y,z
-x,y,-z
-x,-y,-z
x,-y,z
1/2+x,1/2+y,z
1/2-x,1/2+y,-z
1/2-x,1/2-y,-z
1/2+x,1/2-y,z
loop_
_atom_site_type_symbol
_atom_site_label
_atom_site_fract_x
_atom_site_fract_y
_atom_site_fract_z
Si Si1 0.136463 0.179241 0.315945
Si Si2 0.625600 0.679920 0.635517
Si Si3 0.567728 0.822178 0.474411
Si Si4 0.958647 0.821587 0.197719
Si Si5 0.245178 0.320307 0.595926
Si Si6 0.084764 0.680521 0.159109
Si Si7 0.068751 0.672533 0.971115
O O1 0.087335 0.247925 0.383193
O O2 0.197501 0.213799 0.355094
O O3 0.128609 0.250832 0.223070
O O4 0.129919 0.000000 0.311945
O O5 0.630614 0.500000 0.629125
O O6 0.602943 0.744929 0.547629
O O7 0.579644 0.717357 0.715072
O O8 0.687997 0.752106 0.645123
O O9 0.500000 0.800755 0.500000
O O10 0.579947 0.000000 0.470971
O O11 0.925392 0.772261 0.114231
O O12 0.020602 0.739656 0.190246
O O13 0.968551 0.000000 0.195994
O O14 0.240240 0.500000 0.588650
O O15 0.250000 0.250000 0.500000
O O16 0.084308 0.500000 0.162892
O O17 0.096782 0.723779 0.058120
O O18 0.085463 0.500000 0.950936
O O19 0.000000 0.671518 0.000000
#
# Coordination Sequence:
#
# PCOD9192180 Si02
#       7
#     8   8   8   8   8   8   8
#     4  11  23  37  55  79 106 138 177 224 271 317
#     4  11  23  37  54  78 108 142 180 223 268 316
#     4  11  23  36  53  78 107 142 178 214 265 323
#     4  10  20  33  53  82 113 144 178 220 269 318
#     4  11  23  39  59  79 102 138 184 228 271 318
#     4  10  20  34  54  81 112 145 179 217 266 324
#     4   8  16  31  51  77 109 143 178 216 262 320
#
# _framework density 17.539068
#
# number of rings (size 3 to 8) (size 9 to 14) (size 15 to 20)
#    0.000    1.714    1.429    4.286    0.000   10.571 
#    0.000    0.000    0.000    0.857    0.000    0.000 
#    0.000    0.000    0.000    0.000    0.000    0.000 
#
# Total GULP energy -156364.121112 kJ/mol
# GULP energy per Si atom -5584.432897 kJ/mol
# Density = 1.749915 g / cm^3
# Si number density = 17.539068 Si / 1000 Ang^3
#
#
#
# Elastic Constant Matrix: (Units=GPa)
#
#
# Indices 1 2 3 4 5 6 
#
# 1 46.6142 24.2356 9.7364 0.0000 16.2889 0.0000
# 2 24.2356 42.8549 17.6713 0.0000 13.5071 0.0000
# 3 9.7364 17.6713 77.3004 0.0000 30.4018 0.0000
# 4 0.0000 0.0000 0.0000 32.3234 0.0000 1.9122
# 5 16.2889 13.5071 30.4018 0.0000 25.3767 0.0000
# 6 0.0000 0.0000 0.0000 1.9122 0.0000 26.8757
#
#
#
# Elastic Compliance Matrix: (Units=1/GPa)
#
#
# Indices 1 2 3 4 5 6 
#
# 1 0.037452 -0.016745 0.009569 0.000000 -0.026590 0.000000
# 2 -0.016745 0.035568 -0.005301 0.000000 -0.001832 0.000000
# 3 0.009569 -0.005301 0.026945 0.000000 -0.035601 0.000000
# 4 0.000000 0.000000 0.000000 0.031068 0.000000 -0.002210
# 5 -0.026590 -0.001832 -0.035601 0.000000 0.100100 0.000000
# 6 0.000000 0.000000 0.000000 -0.002210 0.000000 0.037366
#
#
# Mechanical properties :
#
#
# Convention : Reuss Voigt Hill
#
# Bulk Modulus (GPa) = 13.33172 30.00625 21.66899
# Shear Modulus (GPa) = 15.70074 24.59022 20.14548
#
# Velocity S-wave (km/s) = 2.99521 3.74843 3.39279
# Velocity P-wave (km/s) = 4.42486 5.98996 5.26588
#
# Compressibility (1/GPa) = 0.07500906
#
# Stress axis : x y z
#
# Youngs Moduli (GPa) = 26.70092 28.11538 37.11289
#
# Poissons Ratio (x) = 0.47079 -0.35512
# Poissons Ratio (y) = 0.44710 0.19675
# Poissons Ratio (z) = -0.25549 0.14905
#
# Static dielectric constant tensor:
#      x y z
#    x 1.589010 0.000000 0.018140 
#    y 0.000000 1.584860 0.000000 
#    z 0.018140 0.000000 1.603140 
# 
# From -- ./inp_files/230935.got.cif
#   From: 2010.05.17/outbox.cif.g08.bks.cpg/sg12_116_cif.got.tgz:230935.got - 2010.06.03 13:09:07.
