data_PCOD9192053
_publ_section_title
;
Structure prediction by ZEFSAII (Michael W. Deem and Ramdas Pophale) SiO2 
 PCOD9192053
Probable space group: C 2/M
;
_chemical_formula_sum "Si O2"
_cell_formula_units_Z 50
_cell_length_a 32.377249
_cell_length_b 7.274372
_cell_length_c 12.449966
_cell_angle_alpha 90.000000
_cell_angle_beta 55.773439
_cell_angle_gamma 90.000000
_cell_volume 2424.457338
_symmetry_space_group_name_H-M "C 2/M"
_symmetry_group_IT_number 12
_symmetry_cell_setting 'monoclinic'
loop_
_space_group_symop_operation_xyz
x,y,z
-x,y,-z
-x,-y,-z
x,-y,z
1/2+x,1/2+y,z
1/2-x,1/2+y,-z
1/2-x,1/2-y,-z
1/2+x,1/2-y,z
loop_
_atom_site_type_symbol
_atom_site_label
_atom_site_fract_x
_atom_site_fract_y
_atom_site_fract_z
Si Si1 0.214195 0.778993 0.775284
Si Si2 0.120583 0.222647 0.048715
Si Si3 0.500000 0.000000 0.500000
Si Si4 0.407387 0.275536 0.668038
Si Si5 0.848917 0.224036 0.334255
Si Si6 0.829485 0.213613 0.601501
Si Si7 0.944016 0.223530 0.057484
O O1 0.193253 0.717585 0.689710
O O2 0.270916 0.726142 0.711939
O O3 0.212871 0.000000 0.776611
O O4 0.173771 0.716777 0.922537
O O5 0.109498 0.273846 0.186303
O O6 0.121087 0.000000 0.045075
O O7 0.078020 0.280572 0.025806
O O8 0.456510 0.161568 0.569494
O O9 0.414467 0.500000 0.654098
O O10 0.364505 0.220150 0.645868
O O11 0.839597 0.291793 0.467947
O O12 0.902616 0.277210 0.206356
O O13 0.847762 0.000000 0.336128
O O14 0.842404 0.000000 0.572836
O O15 0.945041 0.000000 0.056036
O O16 0.000000 0.286292 0.000000
#
# Coordination Sequence:
#
# PCOD9192053 Si02
#       7
#     8   8   2   8   8   8   8
#     4   9  17  31  55  81 113 152 190 236 289 345
#     4   8  16  33  53  79 112 146 187 236 289 340
#     4  12  26  44  64  86 114 160 198 236 298 346
#     4  10  23  42  62  86 117 151 194 242 291 348
#     4   8  15  28  46  77 114 147 187 234 286 344
#     4  10  20  33  52  82 116 149 190 237 289 352
#     4   8  13  23  46  76 102 137 188 236 278 336
#
# _framework density 20.623172
#
# number of rings (size 3 to 8) (size 9 to 14) (size 15 to 20)
#    0.000    3.040    0.000    2.640    1.120    1.920 
#    1.440    4.800    0.000    0.000    0.000    2.800 
#    0.000    0.000    0.000    0.000    0.000    0.000 
#
# Total GULP energy -139232.042476 kJ/mol
# GULP energy per Si atom -5569.281699 kJ/mol
# Density = 2.057623 g / cm^3
# Si number density = 20.623172 Si / 1000 Ang^3
#
#
#
# Elastic Constant Matrix: (Units=GPa)
#
#
# Indices 1 2 3 4 5 6 
#
# 1 209.3730 18.5442 158.4406 0.0000 -8.5779 0.0000
# 2 18.5442 98.1825 20.5517 0.0000 5.3177 0.0000
# 3 158.4406 20.5517 88.7358 0.0000 -12.1367 0.0000
# 4 0.0000 0.0000 0.0000 -130.2079 0.0000 -562.2894
# 5 -8.5779 5.3177 -12.1367 0.0000 18.6692 0.0000
# 6 0.0000 0.0000 0.0000 -562.2894 0.0000-2303.9351
#
#
#
# Elastic Compliance Matrix: (Units=1/GPa)
#
#
# Indices 1 2 3 4 5 6 
#
# 1 -0.011079 -0.003020 0.021846 0.000000 0.009971 0.000000
# 2 -0.003020 0.010345 0.002638 0.000000 -0.002619 0.000000
# 3 0.021846 0.002638 -0.029720 0.000000 -0.010035 0.000000
# 4 0.000000 0.000000 0.000000 0.142404 0.000000 -0.034754
# 5 0.009971 -0.002619 -0.010035 0.000000 0.052368 0.000000
# 6 0.000000 0.000000 0.000000 -0.034754 0.000000 0.008048
#
#
# Mechanical properties :
#
#
# Convention : Reuss Voigt Hill
#
# Bulk Modulus (GPa) = 80.17030 87.92938 84.04984
# Shear Modulus (GPa) = 37.42631 -469.84444 -216.20906
#
# Velocity S-wave (km/s) = 4.26463 -15.11020 -10.25015
# Velocity P-wave (km/s) = 7.95033 16.17700 9.96212
#
# Compressibility (1/GPa) = 0.01247345
#
# Stress axis : x y z
#
# Youngs Moduli (GPa) = -90.25961 96.66395 -33.64729
#
# Poissons Ratio (x) = 0.29195 0.73504
# Poissons Ratio (y) = -0.27260 0.08878
# Poissons Ratio (z) = 1.97177 -0.25505
#
# Static dielectric constant tensor:
#      x y z
#    x 1.696940 0.000000 0.017340 
#    y 0.000000 1.812570 0.000000 
#    z 0.017340 0.000000 1.709190 
# 
# From -- ./inp_files/179809.got.cif
#   From: 2010.05.17/outbox.cif.g08.bks.cpg/sg12_90_cif.got.tgz:179809.got - 2010.06.03 13:09:07.
