data_PCOD9192190
_publ_section_title
;
Structure prediction by ZEFSAII (Michael W. Deem and Ramdas Pophale) SiO2 
 PCOD9192190
Probable space group: C 2/M
;
_chemical_formula_sum "Si O2"
_cell_formula_units_Z 56
_cell_length_a 28.627869
_cell_length_b 8.691262
_cell_length_c 12.289110
_cell_angle_alpha 90.000000
_cell_angle_beta 70.191391
_cell_angle_gamma 90.000000
_cell_volume 2876.758387
_symmetry_space_group_name_H-M "C 2/M"
_symmetry_group_IT_number 12
_symmetry_cell_setting 'monoclinic'
loop_
_space_group_symop_operation_xyz
x,y,z
-x,y,-z
-x,-y,-z
x,-y,z
1/2+x,1/2+y,z
1/2-x,1/2+y,-z
1/2-x,1/2-y,-z
1/2+x,1/2-y,z
loop_
_atom_site_type_symbol
_atom_site_label
_atom_site_fract_x
_atom_site_fract_y
_atom_site_fract_z
Si Si1 0.240876 0.820977 0.125162
Si Si2 0.502713 0.685889 0.870338
Si Si3 0.606641 0.185964 0.765352
Si Si4 0.346824 0.818156 0.668963
Si Si5 0.407274 0.318093 0.807273
Si Si6 0.147849 0.679265 0.957656
Si Si7 0.693847 0.813413 0.532727
O O1 0.201809 0.724307 0.223057
O O2 0.296118 0.814327 0.130426
O O3 0.225594 0.000000 0.132192
O O4 0.250000 0.750000 0.000000
O O5 0.501972 0.500000 0.872813
O O6 0.553791 0.743802 0.776426
O O7 0.456354 0.739027 0.832468
O O8 0.500000 0.737741 0.000000
O O9 0.614478 0.232962 0.884542
O O10 0.654751 0.232323 0.657571
O O11 0.604087 0.000000 0.763429
O O12 0.392575 0.749188 0.701608
O O13 0.332930 0.763651 0.558758
O O14 0.353882 0.000000 0.658884
O O15 0.411076 0.500000 0.793363
O O16 0.363191 0.275713 0.926353
O O17 0.138031 0.500000 0.992207
O O18 0.750000 0.750000 0.500000
O O19 0.697532 0.000000 0.529800
#
# Coordination Sequence:
#
# PCOD9192190 Si02
#       7
#     8   8   8   8   8   8   8
#     4  11  21  33  52  81 116 152 192 238 291 354
#     4  10  21  38  58  87 122 155 195 247 302 357
#     4  10  21  38  61  88 116 153 201 246 295 354
#     4  11  23  39  58  83 119 158 198 246 300 354
#     4  11  22  36  57  83 116 154 193 240 296 356
#     4  10  20  33  53  82 116 149 187 238 293 352
#     4  10  23  43  65  90 120 158 203 250 295 351
#
# _framework density 19.466353999999999
#
# number of rings (size 3 to 8) (size 9 to 14) (size 15 to 20)
#    0.000    1.571    2.857    2.143    0.000    4.857 
#    0.000    0.714    0.000    4.286    0.000    0.000 
#    0.000    0.000    0.000    0.000    0.000    0.000 
#
# Total GULP energy -156212.345316 kJ/mol
# GULP energy per Si atom -5579.012333 kJ/mol
# Density = 1.942205 g / cm^3
# Si number density = 19.466354 Si / 1000 Ang^3
#
#
#
# Elastic Constant Matrix: (Units=GPa)
#
#
# Indices 1 2 3 4 5 6 
#
# 1 133.0851 24.6960 42.3369 0.0000 12.2237 0.0000
# 2 24.6960 14.5507 14.5008 0.0000 12.2008 0.0000
# 3 42.3369 14.5008 80.6427 0.0000 12.2041 0.0000
# 4 0.0000 0.0000 0.0000 19.0521 0.0000 -1.1170
# 5 12.2237 12.2008 12.2041 0.0000 36.2410 0.0000
# 6 0.0000 0.0000 0.0000 -1.1170 0.0000 32.4459
#
#
#
# Elastic Compliance Matrix: (Units=1/GPa)
#
#
# Indices 1 2 3 4 5 6 
#
# 1 0.011955 -0.020371 -0.003204 0.000000 0.003905 0.000000
# 2 -0.020371 0.145430 -0.009574 0.000000 -0.038865 0.000000
# 3 -0.003204 -0.009574 0.015966 0.000000 -0.001073 0.000000
# 4 0.000000 0.000000 0.000000 0.052594 0.000000 0.001811
# 5 0.003905 -0.038865 -0.001073 0.000000 0.039721 0.000000
# 6 0.000000 0.000000 0.000000 0.001811 0.000000 0.030883
#
#
# Mechanical properties :
#
#
# Convention : Reuss Voigt Hill
#
# Bulk Modulus (GPa) = 9.34124 43.48289 26.41207
# Shear Modulus (GPa) = 12.54601 27.33078 19.93840
#
# Velocity S-wave (km/s) = 2.54145 3.75106 3.20386
# Velocity P-wave (km/s) = 3.66347 6.41456 5.22339
#
# Compressibility (1/GPa) = 0.10705218
#
# Stress axis : x y z
#
# Youngs Moduli (GPa) = 83.64815 6.87615 62.63143
#
# Poissons Ratio (x) = 0.14008 0.20068
# Poissons Ratio (y) = 1.70403 0.59964
# Poissons Ratio (z) = 0.26801 0.06583
#
# Static dielectric constant tensor:
#      x y z
#    x 1.748500 0.000000 0.043790 
#    y 0.000000 1.662480 0.000000 
#    z 0.043790 0.000000 1.650830 
# 
# From -- ./inp_files/186442.got.cif
#   From: 2010.05.17/outbox.cif.g08.bks.cpg/sg12_94_cif.got.tgz:186442.got - 2010.06.03 13:09:07.
