data_PCOD9192172
_publ_section_title
;
Structure prediction by ZEFSAII (Michael W. Deem and Ramdas Pophale) SiO2 
 PCOD9192172
Probable space group: C 2/M
;
_chemical_formula_sum "Si O2"
_cell_formula_units_Z 56
_cell_length_a 25.448204
_cell_length_b 13.352561
_cell_length_c 13.416092
_cell_angle_alpha 90.000000
_cell_angle_beta 138.261637
_cell_angle_gamma 90.000000
_cell_volume 3034.910902
_symmetry_space_group_name_H-M "C 2/M"
_symmetry_group_IT_number 12
_symmetry_cell_setting 'monoclinic'
loop_
_space_group_symop_operation_xyz
x,y,z
-x,y,-z
-x,-y,-z
x,-y,z
1/2+x,1/2+y,z
1/2-x,1/2+y,-z
1/2-x,1/2-y,-z
1/2+x,1/2-y,z
loop_
_atom_site_type_symbol
_atom_site_label
_atom_site_fract_x
_atom_site_fract_y
_atom_site_fract_z
Si Si1 0.288286 0.187328 0.914437
Si Si2 0.392590 0.616432 0.634291
Si Si3 0.960838 0.385825 0.226295
Si Si4 0.323495 0.613338 0.073440
Si Si5 0.055742 0.694992 0.175042
Si Si6 0.494937 0.681652 0.376003
Si Si7 0.219198 0.381059 0.320126
O O1 0.371087 0.137912 0.065822
O O2 0.292975 0.303612 0.952787
O O3 0.219705 0.137426 0.883194
O O4 0.277365 0.172127 0.782240
O O5 0.404215 0.500000 0.675454
O O6 0.433483 0.692490 0.768402
O O7 0.431416 0.639493 0.581648
O O8 0.299480 0.638099 0.494153
O O9 0.967212 0.500000 0.270100
O O10 0.985647 0.300215 0.339764
O O11 0.015156 0.367671 0.206094
O O12 0.306991 0.500000 0.019785
O O13 0.416389 0.630614 0.220524
O O14 0.141112 0.653018 0.266828
O O15 0.000000 0.691983 0.000000
O O16 0.500000 0.662738 0.500000
O O17 0.214969 0.500000 0.295235
#
# Coordination Sequence:
#
# PCOD9192172 Si02
#       7
#     8   8   8   8   8   8   8
#     4  10  20  33  53  82 109 141 185 232 279 332
#     4  10  23  40  57  82 115 152 190 232 283 337
#     4  10  20  35  55  82 113 144 185 233 283 334
#     4  10  20  34  53  78 111 146 185 232 279 329
#     4  11  22  37  59  86 114 147 189 238 283 333
#     4  10  21  36  55  81 111 147 191 232 273 334
#     4  11  21  36  60  84 111 146 189 235 282 333
#
# _framework density 18.451941000000001
#
# number of rings (size 3 to 8) (size 9 to 14) (size 15 to 20)
#    0.000    1.714    1.429    3.429    0.000    3.429 
#    0.000    0.714    0.000    9.429    0.000    0.000 
#    0.000    0.000    0.000    0.000    0.000    0.000 
#
# Total GULP energy -156426.579838 kJ/mol
# GULP energy per Si atom -5586.663566 kJ/mol
# Density = 1.840994 g / cm^3
# Si number density = 18.451941 Si / 1000 Ang^3
#
#
#
# Elastic Constant Matrix: (Units=GPa)
#
#
# Indices 1 2 3 4 5 6 
#
# 1 77.1656 3.5353 4.0385 0.0000 22.3211 0.0000
# 2 3.5353 102.1360 1.8246 0.0000 10.5600 0.0000
# 3 4.0385 1.8246 21.3831 0.0000 14.7636 0.0000
# 4 0.0000 0.0000 0.0000 11.9083 0.0000 5.2394
# 5 22.3211 10.5600 14.7636 0.0000 31.9633 0.0000
# 6 0.0000 0.0000 0.0000 5.2394 0.0000 1.2676
#
#
#
# Elastic Compliance Matrix: (Units=1/GPa)
#
#
# Indices 1 2 3 4 5 6 
#
# 1 0.017063 0.000897 0.007536 0.000000 -0.015693 0.000000
# 2 0.000897 0.010251 0.002535 0.000000 -0.005184 0.000000
# 3 0.007536 0.002535 0.072439 0.000000 -0.039559 0.000000
# 4 0.000000 0.000000 0.000000 -0.102589 0.000000 0.424032
# 5 -0.015693 -0.005184 -0.039559 0.000000 0.062229 0.000000
# 6 0.000000 0.000000 0.000000 0.424032 0.000000 -0.963764
#
#
# Mechanical properties :
#
#
# Convention : Reuss Voigt Hill
#
# Bulk Modulus (GPa) = 8.21768 24.38682 16.30225
# Shear Modulus (GPa) = -5.64497 21.78028 8.06765
#
# Velocity S-wave (km/s) = -1.75098 3.43939 2.09326
# Velocity P-wave (km/s) = 0.61264 5.38680 3.83360
#
# Compressibility (1/GPa) = 0.12168889
#
# Stress axis : x y z
#
# Youngs Moduli (GPa) = 58.60643 97.55605 13.80467
#
# Poissons Ratio (x) = -0.08753 -0.10403
# Poissons Ratio (y) = -0.05259 -0.03500
# Poissons Ratio (z) = -0.44164 -0.24732
#
# Static dielectric constant tensor:
#      x y z
#    x 1.621150 0.000000 0.018140 
#    y 0.000000 1.632660 0.000000 
#    z 0.018140 0.000000 1.605490 
# 
# From -- ./inp_files/245706.got.cif
#   From: 2010.05.17/outbox.cif.g08.bks.cpg/sg12_123_cif.got.tgz:245706.got - 2010.06.03 13:09:07.
