data_PCOD9192539
_publ_section_title
;
Structure prediction by ZEFSAII (Michael W. Deem and Ramdas Pophale) SiO2 
 PCOD9192539
Probable space group: C 2/M
;
_chemical_formula_sum "Si O2"
_cell_formula_units_Z 64
_cell_length_a 13.047710
_cell_length_b 15.564737
_cell_length_c 33.348711
_cell_angle_alpha 90.000000
_cell_angle_beta 153.608989
_cell_angle_gamma 90.000000
_cell_volume 3010.382427
_symmetry_space_group_name_H-M "C 2/M"
_symmetry_group_IT_number 12
_symmetry_cell_setting 'monoclinic'
loop_
_space_group_symop_operation_xyz
x,y,z
-x,y,-z
-x,-y,-z
x,-y,z
1/2+x,1/2+y,z
1/2-x,1/2+y,-z
1/2-x,1/2-y,-z
1/2+x,1/2-y,z
loop_
_atom_site_type_symbol
_atom_site_label
_atom_site_fract_x
_atom_site_fract_y
_atom_site_fract_z
Si Si1 0.552959 0.161261 0.409490
Si Si2 0.650851 0.791113 0.290708
Si Si3 0.222918 0.293050 0.100194
Si Si4 0.452540 0.398023 0.109042
Si Si5 0.013527 0.603131 0.912232
Si Si6 0.218849 0.673568 0.548444
Si Si7 0.695653 0.602136 0.729349
Si Si8 0.486493 0.096914 0.300164
O O1 0.325360 0.211627 0.345630
O O2 0.719904 0.232917 0.448003
O O3 0.667911 0.121415 0.489309
O O4 0.495583 0.102963 0.351458
O O5 0.399111 0.765586 0.186314
O O6 0.742478 0.863679 0.292671
O O7 0.635617 0.831707 0.329412
O O8 0.369000 0.343223 0.117656
O O9 0.117072 0.360230 0.094885
O O10 0.000000 0.252062 0.000000
O O11 0.419299 0.500000 0.105725
O O12 0.720983 0.385713 0.195306
O O13 0.281978 0.374320 0.012633
O O14 0.996953 0.500000 0.906081
O O15 0.885284 0.635420 0.827560
O O16 0.442931 0.638952 0.649792
O O17 0.000000 0.673031 0.500000
O O18 0.691343 0.500000 0.729124
O O19 0.549437 0.000000 0.309801
#
# Coordination Sequence:
#
# PCOD9192539 Si02
#       8
#     8   8   8   8   8   8   8   8
#     4  10  22  41  63  90 122 164 195 249 312 365
#     4  11  23  38  61  86 125 158 199 251 305 361
#     4  10  20  33  57  91 122 160 204 252 296 354
#     4   9  18  35  56  87 127 162 201 248 297 357
#     4   9  19  35  58  86 122 163 198 243 306 364
#     4  10  22  39  65  91 120 153 200 253 310 362
#     4  10  23  41  59  83 117 159 198 245 304 363
#     4  11  23  39  63  92 125 167 210 248 294 361
#
# _framework density 21.259758000000001
#
# number of rings (size 3 to 8) (size 9 to 14) (size 15 to 20)
#    0.000    2.000    1.250    1.500    5.250    3.250 
#    0.000    2.500    0.000   11.625    0.000    0.000 
#    0.000    0.000    0.000    0.000    0.000    0.000 
#
# Total GULP energy -178729.051653 kJ/mol
# GULP energy per Si atom -5585.282864 kJ/mol
# Density = 2.121137 g / cm^3
# Si number density = 21.259758 Si / 1000 Ang^3
#
#
#
# Elastic Constant Matrix: (Units=GPa)
#
#
# Indices 1 2 3 4 5 6 
#
# 1 65.0401 16.4015 18.5554 -0.0001 -13.1982 0.0000
# 2 16.4015 28.1518 2.9391 0.0000 -2.1522 0.0000
# 3 18.5554 2.9391 90.5480 -0.0001 -16.3924 -0.0001
# 4 -0.0001 0.0000 -0.0001 15.0313 0.0000 -6.5508
# 5 -13.1982 -2.1522 -16.3924 0.0000 22.9692 0.0000
# 6 0.0000 0.0000 -0.0001 -6.5508 0.0000 22.9974
#
#
#
# Elastic Compliance Matrix: (Units=1/GPa)
#
#
# Indices 1 2 3 4 5 6 
#
# 1 0.020688 -0.011114 -0.002199 0.000000 0.009276 0.000000
# 2 -0.011114 0.041781 0.000544 0.000000 -0.002083 0.000000
# 3 -0.002199 0.000544 0.012928 0.000000 0.008013 0.000000
# 4 0.000000 0.000000 0.000000 0.075957 0.000000 0.021636
# 5 0.009276 -0.002083 0.008013 0.000000 0.054391 0.000000
# 6 0.000000 0.000000 0.000000 0.021636 0.000000 0.049646
#
#
# Mechanical properties :
#
#
# Convention : Reuss Voigt Hill
#
# Bulk Modulus (GPa) = 20.05701 28.83690 24.44695
# Shear Modulus (GPa) = 16.80406 21.92252 19.36329
#
# Velocity S-wave (km/s) = 2.81448 3.21467 3.02121
# Velocity P-wave (km/s) = 4.47398 5.23186 4.86769
#
# Compressibility (1/GPa) = 0.04985788
#
# Stress axis : x y z
#
# Youngs Moduli (GPa) = 48.33805 23.93446 77.35401
#
# Poissons Ratio (x) = 0.26601 0.17012
# Poissons Ratio (y) = 0.53723 -0.04210
# Poissons Ratio (z) = 0.10631 -0.01303
#
# Static dielectric constant tensor:
#      x y z
#    x 1.744910 0.000000 -0.018210 
#    y 0.000000 1.750990 0.000000 
#    z -0.018210 0.000000 1.833760 
# 
# From -- ./inp_files/306216.got.cif
#   From: 2010.05.17/outbox.cif.g08.bks.cpg/sg12_154_cif.got.tgz:306216.got - 2010.06.03 13:09:07.
