data_PCOD9192913
_publ_section_title
;
Structure prediction by ZEFSAII (Michael W. Deem and Ramdas Pophale) SiO2 
 PCOD9192913
Probable space group: C 2/M
;
_chemical_formula_sum "Si O2"
_cell_formula_units_Z 48
_cell_length_a 11.529914
_cell_length_b 15.005048
_cell_length_c 12.172945
_cell_angle_alpha 90.000000
_cell_angle_beta 72.164009
_cell_angle_gamma 90.000000
_cell_volume 2004.783161
_symmetry_space_group_name_H-M "C 2/M"
_symmetry_group_IT_number 12
_symmetry_cell_setting 'monoclinic'
loop_
_space_group_symop_operation_xyz
x,y,z
-x,y,-z
-x,-y,-z
x,-y,z
1/2+x,1/2+y,z
1/2-x,1/2+y,-z
1/2-x,1/2-y,-z
1/2+x,1/2-y,z
loop_
_atom_site_type_symbol
_atom_site_label
_atom_site_fract_x
_atom_site_fract_y
_atom_site_fract_z
Si Si1 0.699920 0.365078 0.053541
Si Si2 0.740479 0.283904 0.679490
Si Si3 0.913094 0.102820 0.429573
Si Si4 0.551998 0.594508 0.821145
Si Si5 0.385158 0.828492 0.832564
Si Si6 0.341110 0.898867 0.236688
O O1 0.569506 0.408571 0.075305
O O2 0.649094 0.265178 0.097640
O O3 0.777176 0.393933 0.136690
O O4 0.785532 0.386107 0.925959
O O5 0.699326 0.338124 0.583800
O O6 0.637361 0.318895 0.798563
O O7 0.860762 0.313381 0.709771
O O8 0.726015 0.178515 0.674417
O O9 0.000000 0.138592 0.500000
O O10 0.992780 0.099232 0.294125
O O11 0.120658 0.000000 0.534143
O O12 0.620247 0.500000 0.806867
O O13 0.518494 0.867497 0.811770
O O14 0.333467 0.000000 0.280427
#
# Coordination Sequence:
#
# PCOD9192913 Si02
#       6
#     8   8   8   8   8   8
#     4  10  20  34  52  76 107 147 185 225 265 316
#     4   9  19  35  54  81 111 135 179 228 278 311
#     4   8  15  31  57  85 108 133 174 227 280 334
#     4   9  17  32  53  79 106 133 174 223 273 322
#     4  10  20  34  52  73 109 149 184 224 264 314
#     4  11  22  35  52  75 109 155 194 217 256 321
#
# _framework density 23.942739
#
# number of rings (size 3 to 8) (size 9 to 14) (size 15 to 20)
#    1.000    1.500    1.667    1.000    0.000    4.000 
#    0.000    0.833    0.000    9.500    0.000    0.000 
#    0.000    0.000    0.000    0.000    0.000    0.000 
#
# Total GULP energy -133705.484412 kJ/mol
# GULP energy per Si atom -5571.061850 kJ/mol
# Density = 2.388824 g / cm^3
# Si number density = 23.942739 Si / 1000 Ang^3
#
#
#
# Elastic Constant Matrix: (Units=GPa)
#
#
# Indices 1 2 3 4 5 6 
#
# 1 128.0114 42.0134 56.3597 0.0000 29.8144 0.0000
# 2 42.0134 140.6562 11.6740 0.0000 15.7593 0.0000
# 3 56.3597 11.6740 65.9442 0.0000 18.2261 0.0000
# 4 0.0000 0.0000 0.0000 8.6082 0.0000 -7.8924
# 5 29.8144 15.7593 18.2261 0.0000 41.5149 0.0000
# 6 0.0000 0.0000 0.0000 -7.8924 0.0000 39.9575
#
#
#
# Elastic Compliance Matrix: (Units=1/GPa)
#
#
# Indices 1 2 3 4 5 6 
#
# 1 0.014535 -0.002938 -0.010613 0.000000 -0.004664 0.000000
# 2 -0.002938 0.008041 0.001534 0.000000 -0.001616 0.000000
# 3 -0.010613 0.001534 0.025058 0.000000 -0.003962 0.000000
# 4 0.000000 0.000000 0.000000 0.141859 0.000000 0.028020
# 5 -0.004664 -0.001616 -0.003962 0.000000 0.029790 0.000000
# 6 0.000000 0.000000 0.000000 0.028020 0.000000 0.030561
#
#
# Mechanical properties :
#
#
# Convention : Reuss Voigt Hill
#
# Bulk Modulus (GPa) = 42.37320 61.63400 52.00360
# Shear Modulus (GPa) = 17.74650 32.98709 25.36680
#
# Velocity S-wave (km/s) = 2.72546 3.71583 3.25849
# Velocity P-wave (km/s) = 5.25741 6.64891 5.99368
#
# Compressibility (1/GPa) = 0.02359982
#
# Stress axis : x y z
#
# Youngs Moduli (GPa) = 68.79919 124.36485 39.90665
#
# Poissons Ratio (x) = 0.36541 0.42354
# Poissons Ratio (y) = 0.20214 -0.06123
# Poissons Ratio (z) = 0.73019 -0.19081
#
# Static dielectric constant tensor:
#      x y z
#    x 1.941760 0.000000 -0.007750 
#    y 0.000000 2.067050 0.000000 
#    z -0.007750 0.000000 1.990290 
# 
# From -- ./inp_files/205600.got.cif
#   From: 2010.05.17/outbox.cif.g08.bks.cpg/sg12_103_cif.got.tgz:205600.got - 2010.06.03 13:09:07.
