data_PCOD9192591
_publ_section_title
;
Structure prediction by ZEFSAII (Michael W. Deem and Ramdas Pophale) SiO2 
 PCOD9192591
Probable space group: C 2/M
;
_chemical_formula_sum "Si O2"
_cell_formula_units_Z 42
_cell_length_a 15.345605
_cell_length_b 14.944175
_cell_length_c 7.735696
_cell_angle_alpha 90.000000
_cell_angle_beta 104.384370
_cell_angle_gamma 90.000000
_cell_volume 1718.393694
_symmetry_space_group_name_H-M "C 2/M"
_symmetry_group_IT_number 12
_symmetry_cell_setting 'monoclinic'
loop_
_space_group_symop_operation_xyz
x,y,z
-x,y,-z
-x,-y,-z
x,-y,z
1/2+x,1/2+y,z
1/2-x,1/2+y,-z
1/2-x,1/2-y,-z
1/2+x,1/2-y,z
loop_
_atom_site_type_symbol
_atom_site_label
_atom_site_fract_x
_atom_site_fract_y
_atom_site_fract_z
Si Si1 0.560908 0.161012 0.767615
Si Si2 0.611962 0.399869 0.184121
Si Si3 0.560065 0.637344 0.692413
Si Si4 0.130354 0.297966 0.143265
Si Si5 0.000000 0.500000 0.500000
Si Si6 0.271393 0.404061 0.405339
O O1 0.578305 0.256433 0.687770
O O2 0.463729 0.178077 0.810098
O O3 0.553222 0.078957 0.636324
O O4 0.630094 0.150085 0.961085
O O5 0.627244 0.500000 0.122417
O O6 0.506867 0.389388 0.187398
O O7 0.634904 0.307360 0.099523
O O8 0.673201 0.392975 0.389840
O O9 0.500000 0.609922 0.500000
O O10 0.655622 0.593519 0.712222
O O11 0.204041 0.327057 0.317326
O O12 0.221919 0.500000 0.390832
#
# Coordination Sequence:
#
# PCOD9192591 Si02
#       6
#     8   8   8   8   2   8
#     4  10  23  40  62  89 118 166 206 256 311 373
#     4   9  18  36  60  90 121 167 212 246 307 375
#     4   9  17  36  59  83 119 160 207 255 301 360
#     4  10  22  39  61  91 131 158 204 269 315 354
#     4  12  24  42  68  88 114 174 218 244 308 394
#     4  10  20  33  60  91 124 168 207 254 307 368
#
# _framework density 24.441428999999999
#
# number of rings (size 3 to 8) (size 9 to 14) (size 15 to 20)
#    0.000    2.286    0.952    1.143    2.667    3.810 
#    0.000    8.571    0.000    0.000    0.000    0.000 
#    0.000    0.000    0.000    0.000    0.000    0.000 
#
# Total GULP energy -117094.487550 kJ/mol
# GULP energy per Si atom -5575.927979 kJ/mol
# Density = 2.438580 g / cm^3
# Si number density = 24.441429 Si / 1000 Ang^3
#
#
#
# Elastic Constant Matrix: (Units=GPa)
#
#
# Indices 1 2 3 4 5 6 
#
# 1 19.6981 -0.1092 6.1898 0.0000 12.8430 0.0000
# 2 -0.1092 185.0099 41.8089 0.0000 5.4543 0.0000
# 3 6.1898 41.8089 97.2436 0.0000 4.8939 0.0000
# 4 0.0000 0.0000 0.0000 78.4332 0.0000 -59.6322
# 5 12.8430 5.4543 4.8939 0.0000 25.4773 0.0000
# 6 0.0000 0.0000 0.0000 -59.6322 0.0000 108.2412
#
#
#
# Elastic Compliance Matrix: (Units=1/GPa)
#
#
# Indices 1 2 3 4 5 6 
#
# 1 0.077148 0.002054 -0.003852 0.000000 -0.038590 0.000000
# 2 0.002054 0.006057 -0.002643 0.000000 -0.001824 0.000000
# 3 -0.003852 -0.002643 0.011651 0.000000 0.000269 0.000000
# 4 0.000000 0.000000 0.000000 0.021939 0.000000 0.012087
# 5 -0.038590 -0.001824 0.000269 0.000000 0.059043 0.000000
# 6 0.000000 0.000000 0.000000 0.012087 0.000000 0.015897
#
#
# Mechanical properties :
#
#
# Convention : Reuss Voigt Hill
#
# Bulk Modulus (GPa) = 11.63130 44.19228 27.91179
# Shear Modulus (GPa) = 21.80767 59.36782 40.58774
#
# Velocity S-wave (km/s) = 2.99028 4.93382 4.07948
# Velocity P-wave (km/s) = 4.08553 7.11174 5.79950
#
# Compressibility (1/GPa) = 0.08597493
#
# Stress axis : x y z
#
# Youngs Moduli (GPa) = 12.96204 165.08647 85.82595
#
# Poissons Ratio (x) = -0.33902 0.33056
# Poissons Ratio (y) = -0.02662 0.22686
# Poissons Ratio (z) = 0.04992 0.43636
#
# Static dielectric constant tensor:
#      x y z
#    x 1.960050 0.000000 -0.034110 
#    y 0.000000 1.916400 0.000000 
#    z -0.034110 0.000000 1.988980 
# 
# From -- ./inp_files/73274.got.cif
#   From: 2010.05.17/outbox.cif.g08.bks.cpg/sg12_37_cif.got.tgz:73274.got - 2010.06.03 13:09:07.
