data_PCOD9192994
_publ_section_title
;
Structure prediction by ZEFSAII (Michael W. Deem and Ramdas Pophale) SiO2 
 PCOD9192994
Probable space group: C 2/M
;
_chemical_formula_sum "Si O2"
_cell_formula_units_Z 64
_cell_length_a 32.905583
_cell_length_b 14.360351
_cell_length_c 8.079854
_cell_angle_alpha 90.000000
_cell_angle_beta 51.745378
_cell_angle_gamma 90.000000
_cell_volume 2998.164778
_symmetry_space_group_name_H-M "C 2/M"
_symmetry_group_IT_number 12
_symmetry_cell_setting 'monoclinic'
loop_
_space_group_symop_operation_xyz
x,y,z
-x,y,-z
-x,-y,-z
x,-y,z
1/2+x,1/2+y,z
1/2-x,1/2+y,-z
1/2-x,1/2-y,-z
1/2+x,1/2-y,z
loop_
_atom_site_type_symbol
_atom_site_label
_atom_site_fract_x
_atom_site_fract_y
_atom_site_fract_z
Si Si1 0.024813 0.698418 0.254763
Si Si2 0.344458 0.390630 0.096276
Si Si3 0.038357 0.099591 0.247495
Si Si4 0.837943 0.395228 0.733804
Si Si5 0.564039 0.106401 0.699149
Si Si6 0.245565 0.718937 0.202260
Si Si7 0.787496 0.394045 0.223759
Si Si8 0.624197 0.203325 0.831919
O O1 0.978669 0.805925 0.798080
O O2 0.000000 0.692897 0.500000
O O3 0.992798 0.631978 0.216148
O O4 0.085739 0.681344 0.084443
O O5 0.334997 0.500000 0.164701
O O6 0.294268 0.347167 0.129157
O O7 0.357468 0.310772 0.200132
O O8 0.400416 0.391394 0.859309
O O9 0.000000 0.095510 0.500000
O O10 0.034206 0.000000 0.168021
O O11 0.823601 0.500000 0.723792
O O12 0.898790 0.385241 0.555421
O O13 0.808654 0.332536 0.673799
O O14 0.817689 0.384126 0.971611
O O15 0.588919 0.176639 0.766796
O O16 0.567303 0.000000 0.750974
O O17 0.246287 0.810845 0.313573
O O18 0.250000 0.750000 0.000000
O O19 0.769154 0.500000 0.286607
O O20 0.827290 0.364529 0.264738
#
# Coordination Sequence:
#
# PCOD9192994 Si02
#       8
#     8   8   8   8   8   8   8   8
#     4  10  20  34  54  78 104 133 169 210 254 311
#     4   9  17  31  51  74 101 135 174 212 255 307
#     4   8  15  29  50  76 103 130 162 203 251 301
#     4   9  18  33  52  74 100 132 171 212 256 305
#     4  11  23  36  51  73 103 138 173 212 259 308
#     4   9  17  29  50  77 102 130 169 213 254 294
#     4   9  17  31  51  74 102 134 167 204 249 303
#     4  10  20  34  52  75 102 135 171 211 256 304
#
# _framework density 21.346392000000002
#
# number of rings (size 3 to 8) (size 9 to 14) (size 15 to 20)
#    0.000    2.625    0.000    1.875    0.000    5.250 
#    0.000    3.125    0.000    6.000    0.000    0.000 
#    0.000    0.000    0.000    0.000    0.000    0.000 
#
# Total GULP energy -178160.701876 kJ/mol
# GULP energy per Si atom -5567.521934 kJ/mol
# Density = 2.129781 g / cm^3
# Si number density = 21.346392 Si / 1000 Ang^3
#
#
#
# Elastic Constant Matrix: (Units=GPa)
#
#
# Indices 1 2 3 4 5 6 
#
# 1 74.8331 61.0253 3.3725 0.0000 -3.6799 0.0000
# 2 61.0253 120.0277 10.3037 0.0000 2.2131 0.0000
# 3 3.3725 10.3037 57.8726 0.0000 -6.7396 0.0000
# 4 0.0000 0.0000 0.0000 12.3917 0.0000 -4.2350
# 5 -3.6799 2.2131 -6.7396 0.0000 27.8746 0.0000
# 6 0.0000 0.0000 0.0000 -4.2350 0.0000 30.0143
#
#
#
# Elastic Compliance Matrix: (Units=1/GPa)
#
#
# Indices 1 2 3 4 5 6 
#
# 1 0.023361 -0.012069 0.001295 0.000000 0.004355 0.000000
# 2 -0.012069 0.014727 -0.002305 0.000000 -0.003320 0.000000
# 3 0.001295 -0.002305 0.018167 0.000000 0.004746 0.000000
# 4 0.000000 0.000000 0.000000 0.084788 0.000000 0.011963
# 5 0.004355 -0.003320 0.004746 0.000000 0.037861 0.000000
# 6 0.000000 0.000000 0.000000 0.011963 0.000000 0.035005
#
#
# Mechanical properties :
#
#
# Convention : Reuss Voigt Hill
#
# Bulk Modulus (GPa) = 33.22735 44.68180 38.95458
# Shear Modulus (GPa) = 19.99209 25.92493 22.95851
#
# Velocity S-wave (km/s) = 3.06364 3.48873 3.28307
# Velocity P-wave (km/s) = 5.30227 6.09964 5.71488
#
# Compressibility (1/GPa) = 0.03009569
#
# Stress axis : x y z
#
# Youngs Moduli (GPa) = 42.80694 67.90463 55.04461
#
# Poissons Ratio (x) = 0.81952 -0.07126
# Poissons Ratio (y) = 0.51662 0.12689
# Poissons Ratio (z) = -0.05542 0.15654
#
# Static dielectric constant tensor:
#      x y z
#    x 1.727250 0.000000 -0.015760 
#    y 0.000000 1.819260 0.000000 
#    z -0.015760 0.000000 1.927100 
# 
# From -- ./inp_files/111617.got.cif
#   From: 2010.05.17/outbox.cif.g08.bks.cpg/sg12_56_cif.got.tgz:111617.got - 2010.06.03 13:09:07.
