data_PCOD9192502
_publ_section_title
;
Structure prediction by ZEFSAII (Michael W. Deem and Ramdas Pophale) SiO2 
 PCOD9192502
Probable space group: C 2/M
;
_chemical_formula_sum "Si O2"
_cell_formula_units_Z 64
_cell_length_a 13.079472
_cell_length_b 26.761603
_cell_length_c 10.860064
_cell_angle_alpha 90.000000
_cell_angle_beta 51.556815
_cell_angle_gamma 90.000000
_cell_volume 2977.291086
_symmetry_space_group_name_H-M "C 2/M"
_symmetry_group_IT_number 12
_symmetry_cell_setting 'monoclinic'
loop_
_space_group_symop_operation_xyz
x,y,z
-x,y,-z
-x,-y,-z
x,-y,z
1/2+x,1/2+y,z
1/2-x,1/2+y,-z
1/2-x,1/2-y,-z
1/2+x,1/2-y,z
loop_
_atom_site_type_symbol
_atom_site_label
_atom_site_fract_x
_atom_site_fract_y
_atom_site_fract_z
Si Si1 0.725463 0.371672 0.908669
Si Si2 0.348386 0.945686 0.152925
Si Si3 0.599558 0.443298 0.175486
Si Si4 0.343831 0.943124 0.615136
Si Si5 0.021325 0.152300 0.625455
Si Si6 0.883207 0.779351 0.930861
Si Si7 0.532839 0.828313 0.117748
Si Si8 0.799253 0.621636 0.414707
O O1 0.796970 0.401790 0.748198
O O2 0.831505 0.353312 0.934192
O O3 0.619206 0.411234 0.037910
O O4 0.651611 0.319449 0.936513
O O5 0.247826 0.946907 0.115792
O O6 0.292372 0.904907 0.287133
O O7 0.340518 0.000000 0.221886
O O8 0.500000 0.941120 0.000000
O O9 0.549536 0.500000 0.202195
O O10 0.518057 0.405951 0.323069
O O11 0.500000 0.945165 0.500000
O O12 0.306404 0.921405 0.510681
O O13 0.295433 0.000000 0.674751
O O14 0.174826 0.155203 0.536353
O O15 0.000000 0.165804 0.500000
O O16 0.936819 0.186753 0.779049
O O17 0.974078 0.731719 0.881020
O O18 0.750000 0.750000 0.000000
O O19 0.430303 0.847008 0.296651
O O20 0.500000 0.842381 0.000000
#
# Coordination Sequence:
#
# PCOD9192502 Si02
#       8
#     8   8   8   8   8   8   8   8
#     4  10  20  43  66  92 126 172 217 263 325 383
#     4  10  20  33  56  93 129 165 210 257 312 381
#     4  10  20  36  62  92 129 170 208 255 313 382
#     4  11  24  41  63  94 138 178 215 264 317 387
#     4  11  24  42  65  96 134 168 210 269 331 390
#     4   9  23  44  65  91 124 170 212 268 328 398
#     4  11  23  40  68  96 126 162 216 276 331 384
#     4  12  23  39  63  95 133 169 211 268 327 389
#
# _framework density 21.49605
#
# number of rings (size 3 to 8) (size 9 to 14) (size 15 to 20)
#    0.000    1.500    2.500    2.625    3.500    2.750 
#    4.500    1.875    0.000    4.125    0.000    0.000 
#    0.000    0.000    0.000    0.000    0.000    0.000 
#
# Total GULP energy -178379.446677 kJ/mol
# GULP energy per Si atom -5574.357709 kJ/mol
# Density = 2.144712 g / cm^3
# Si number density = 21.496050 Si / 1000 Ang^3
#
#
#
# Elastic Constant Matrix: (Units=GPa)
#
#
# Indices 1 2 3 4 5 6 
#
# 1 27.9921 6.4014 1.9318 0.0000 -6.2217 0.0000
# 2 6.4014 178.5113 47.8077 0.0000 13.1683 0.0000
# 3 1.9318 47.8077 93.1297 0.0000 -3.8994 0.0000
# 4 0.0000 0.0000 0.0000 37.1872 0.0000 -5.4948
# 5 -6.2217 13.1683 -3.8994 0.0000 24.4380 0.0000
# 6 0.0000 0.0000 0.0000 -5.4948 0.0000 18.2185
#
#
#
# Elastic Compliance Matrix: (Units=1/GPa)
#
#
# Indices 1 2 3 4 5 6 
#
# 1 0.038750 -0.002480 0.000945 0.000000 0.011352 0.000000
# 2 -0.002480 0.007080 -0.003794 0.000000 -0.005052 0.000000
# 3 0.000945 -0.003794 0.012847 0.000000 0.004335 0.000000
# 4 0.000000 0.000000 0.000000 0.028145 0.000000 0.008489
# 5 0.011352 -0.005052 0.004335 0.000000 0.047224 0.000000
# 6 0.000000 0.000000 0.000000 0.008489 0.000000 0.057449
#
#
# Mechanical properties :
#
#
# Convention : Reuss Voigt Hill
#
# Bulk Modulus (GPa) = 20.82584 45.76831 33.29707
# Shear Modulus (GPa) = 22.91890 32.20155 27.56022
#
# Velocity S-wave (km/s) = 3.26880 3.87463 3.58454
# Velocity P-wave (km/s) = 4.89449 6.43076 5.71449
#
# Compressibility (1/GPa) = 0.04801727
#
# Stress axis : x y z
#
# Youngs Moduli (GPa) = 25.80671 141.24986 77.83640
#
# Poissons Ratio (x) = 0.35030 -0.07353
# Poissons Ratio (y) = 0.06400 0.29534
# Poissons Ratio (z) = -0.02438 0.53596
#
# Static dielectric constant tensor:
#      x y z
#    x 1.851880 0.000000 -0.030720 
#    y 0.000000 1.827110 0.000000 
#    z -0.030720 0.000000 1.764600 
# 
# From -- ./inp_files/149761.got.cif
#   From: 2010.05.17/outbox.cif.g08.bks.cpg/sg12_75_cif.got.tgz:149761.got - 2010.06.03 13:09:07.
