data_PCOD9192694
_publ_section_title
;
Structure prediction by ZEFSAII (Michael W. Deem and Ramdas Pophale) SiO2 
 PCOD9192694
Probable space group: C 2/M
;
_chemical_formula_sum "Si O2"
_cell_formula_units_Z 58
_cell_length_a 29.192916
_cell_length_b 9.160000
_cell_length_c 22.008995
_cell_angle_alpha 90.000000
_cell_angle_beta 143.530358
_cell_angle_gamma 90.000000
_cell_volume 3498.240091
_symmetry_space_group_name_H-M "C 2/M"
_symmetry_group_IT_number 12
_symmetry_cell_setting 'monoclinic'
loop_
_space_group_symop_operation_xyz
x,y,z
-x,y,-z
-x,-y,-z
x,-y,z
1/2+x,1/2+y,z
1/2-x,1/2+y,-z
1/2-x,1/2-y,-z
1/2+x,1/2-y,z
loop_
_atom_site_type_symbol
_atom_site_label
_atom_site_fract_x
_atom_site_fract_y
_atom_site_fract_z
Si Si1 0.484163 0.224499 0.070881
Si Si2 0.311727 0.163968 0.855690
Si Si3 0.675364 0.675540 0.391089
Si Si4 0.658362 0.835686 0.247206
Si Si5 0.483676 0.176612 0.754961
Si Si6 0.500000 0.500000 0.000000
Si Si7 0.249352 0.827693 0.094233
Si Si8 0.372872 0.326749 0.144552
O O1 0.565962 0.154802 0.140096
O O2 0.488497 0.226487 0.148326
O O3 0.485907 0.375237 0.037086
O O4 0.402801 0.155971 0.967048
O O5 0.305858 0.210404 0.779005
O O6 0.274446 0.270004 0.865127
O O7 0.279834 0.000000 0.827870
O O8 0.675205 0.500000 0.396202
O O9 0.750000 0.750000 0.500000
O O10 0.672627 0.725026 0.317352
O O11 0.599492 0.747832 0.340495
O O12 0.685201 0.000000 0.291746
O O13 0.547873 0.238725 0.778135
O O14 0.478192 0.000000 0.747908
O O15 0.320510 0.737651 0.142512
O O16 0.266133 0.000000 0.112715
O O17 0.178428 0.804755 0.971427
O O18 0.385830 0.500000 0.165120
#
# Coordination Sequence:
#
# PCOD9192694 Si02
#       8
#     8   8   8   8   8   2   8   8
#     4  11  21  30  45  67 104 139 176 215 251 302
#     4  11  20  31  48  71 102 142 177 214 256 304
#     4  11  23  39  59  80 106 134 170 217 268 317
#     4  10  21  35  51  73 102 136 175 215 261 313
#     4  11  22  35  55  77 104 137 178 217 264 315
#     4  12  24  28  42  68 108 136 182 218 250 304
#     4  10  21  32  48  69 104 142 182 223 260 302
#     4  10  20  34  50  73 101 139 182 223 263 307
#
# _framework density 16.579764999999998
#
# number of rings (size 3 to 8) (size 9 to 14) (size 15 to 20)
#    0.000    1.379    2.759    4.552    5.793    2.759 
#    0.000    0.000    0.000    0.000    0.000    0.966 
#    0.000    7.724    0.000    0.000    0.000    0.000 
#
# Total GULP energy -161474.146902 kJ/mol
# GULP energy per Si atom -5568.074031 kJ/mol
# Density = 1.654203 g / cm^3
# Si number density = 16.579765 Si / 1000 Ang^3
#
#
#
# Elastic Constant Matrix: (Units=GPa)
#
#
# Indices 1 2 3 4 5 6 
#
# 1 108.0593 59.5161 34.6936 0.0000 12.6117 0.0000
# 2 59.5161 139.5988 46.7456 0.0000 11.7976 0.0000
# 3 34.6936 46.7456 65.0364 0.0000 16.1772 0.0000
# 4 0.0000 0.0000 0.0000 30.7217 0.0000 6.9705
# 5 12.6117 11.7976 16.1772 0.0000 13.3992 0.0000
# 6 0.0000 0.0000 0.0000 6.9705 0.0000 46.7805
#
#
#
# Elastic Compliance Matrix: (Units=1/GPa)
#
#
# Indices 1 2 3 4 5 6 
#
# 1 0.013050 -0.004249 -0.002548 0.000000 -0.005466 0.000000
# 2 -0.004249 0.010817 -0.005909 0.000000 0.001608 0.000000
# 3 -0.002548 -0.005909 0.027286 0.000000 -0.025342 0.000000
# 4 0.000000 0.000000 0.000000 0.033689 0.000000 -0.005020
# 5 -0.005466 0.001608 -0.025342 0.000000 0.108956 0.000000
# 6 0.000000 0.000000 0.000000 -0.005020 0.000000 0.022124
#
#
# Mechanical properties :
#
#
# Convention : Reuss Voigt Hill
#
# Bulk Modulus (GPa) = 38.84665 66.06726 52.45696
# Shear Modulus (GPa) = 20.00678 29.62956 24.81817
#
# Velocity S-wave (km/s) = 3.47753 4.23199 3.87317
# Velocity P-wave (km/s) = 6.29327 7.98838 7.19095
#
# Compressibility (1/GPa) = 0.02574224
#
# Stress axis : x y z
#
# Youngs Moduli (GPa) = 76.62683 92.44395 36.64879
#
# Poissons Ratio (x) = 0.39275 0.09340
# Poissons Ratio (y) = 0.32555 0.21655
# Poissons Ratio (z) = 0.19528 0.54623
#
# Static dielectric constant tensor:
#      x y z
#    x 1.571090 0.000000 -0.002720 
#    y 0.000000 1.567660 0.000000 
#    z -0.002720 0.000000 1.559800 
# 
# From -- ./inp_files/329057.got.cif
#   From: 2010.05.17/outbox.cif.g08.bks.cpg/sg12_165_cif.got.tgz:329057.got - 2010.06.03 13:09:07.
