data_PCOD9192509
_publ_section_title
;
Structure prediction by ZEFSAII (Michael W. Deem and Ramdas Pophale) SiO2 
 PCOD9192509
Probable space group: C 2/M
;
_chemical_formula_sum "Si O2"
_cell_formula_units_Z 64
_cell_length_a 13.828788
_cell_length_b 29.005468
_cell_length_c 9.529758
_cell_angle_alpha 90.000000
_cell_angle_beta 62.834537
_cell_angle_gamma 90.000000
_cell_volume 3400.833956
_symmetry_space_group_name_H-M "C 2/M"
_symmetry_group_IT_number 12
_symmetry_cell_setting 'monoclinic'
loop_
_space_group_symop_operation_xyz
x,y,z
-x,y,-z
-x,-y,-z
x,-y,z
1/2+x,1/2+y,z
1/2-x,1/2+y,-z
1/2-x,1/2-y,-z
1/2+x,1/2-y,z
loop_
_atom_site_type_symbol
_atom_site_label
_atom_site_fract_x
_atom_site_fract_y
_atom_site_fract_z
Si Si1 0.833942 0.588155 0.372311
Si Si2 0.373475 0.879982 0.044289
Si Si3 0.882761 0.852454 0.153208
Si Si4 0.277176 0.448245 0.308075
Si Si5 0.207055 0.298241 0.085969
Si Si6 0.758196 0.184520 0.495166
Si Si7 0.420003 0.053712 0.768112
Si Si8 0.623087 0.747053 0.402801
O O1 0.818934 0.597490 0.217163
O O2 0.748378 0.555975 0.509379
O O3 0.809124 0.637803 0.453940
O O4 0.956558 0.571750 0.322745
O O5 0.500000 0.876211 0.000000
O O6 0.339372 0.830521 0.005433
O O7 0.363636 0.916097 0.924834
O O8 0.851294 0.905810 0.206574
O O9 0.798198 0.828905 0.102169
O O10 0.856234 0.824746 0.317367
O O11 0.000000 0.848792 0.000000
O O12 0.315983 0.500000 0.247577
O O13 0.158129 0.442257 0.314414
O O14 0.129966 0.279325 0.261216
O O15 0.250000 0.250000 0.000000
O O16 0.672101 0.221075 0.492903
O O17 0.803824 0.201582 0.615377
O O18 0.425795 0.000000 0.802431
O O19 0.500000 0.732958 0.500000
#
# Coordination Sequence:
#
# PCOD9192509 Si02
#       8
#     8   8   8   8   8   8   8   8
#     4  10  20  33  57  83 122 150 185 239 291 358
#     4  10  22  36  55  87 123 159 190 235 300 359
#     4  10  22  39  61  84 115 155 201 248 298 352
#     4  10  20  37  61  89 116 151 201 246 295 358
#     4  11  23  39  58  86 118 158 204 245 294 356
#     4   9  21  39  54  85 115 147 200 247 291 349
#     4  10  20  35  57  88 121 154 191 235 299 369
#     4  10  22  36  60  83 112 156 197 247 297 346
#
# _framework density 18.818912999999998
#
# number of rings (size 3 to 8) (size 9 to 14) (size 15 to 20)
#    0.000    2.000    1.250    1.500    5.250    4.500 
#    0.000    0.000    0.000    0.000    0.000    0.875 
#    0.000    0.000    0.000    0.000    0.000    0.000 
#
# Total GULP energy -178143.778413 kJ/mol
# GULP energy per Si atom -5566.993075 kJ/mol
# Density = 1.877608 g / cm^3
# Si number density = 18.818913 Si / 1000 Ang^3
#
#
#
# Elastic Constant Matrix: (Units=GPa)
#
#
# Indices 1 2 3 4 5 6 
#
# 1 34.5315 27.2636 18.8594 0.0000 5.9683 0.0000
# 2 27.2636 103.9231 17.5050 0.0000 6.1283 0.0000
# 3 18.8594 17.5050 66.8315 0.0000 17.0586 0.0000
# 4 0.0000 0.0000 0.0000 20.6075 0.0000 1.5943
# 5 5.9683 6.1283 17.0586 0.0000 18.9978 0.0000
# 6 0.0000 0.0000 0.0000 1.5943 0.0000 27.4858
#
#
#
# Elastic Compliance Matrix: (Units=1/GPa)
#
#
# Indices 1 2 3 4 5 6 
#
# 1 0.041406 -0.009268 -0.008692 0.000000 -0.002214 0.000000
# 2 -0.009268 0.012160 -0.000404 0.000000 -0.000648 0.000000
# 3 -0.008692 -0.000404 0.021784 0.000000 -0.016700 0.000000
# 4 0.000000 0.000000 0.000000 0.048745 0.000000 -0.002827
# 5 -0.002214 -0.000648 -0.016700 0.000000 0.068537 0.000000
# 6 0.000000 0.000000 0.000000 -0.002827 0.000000 0.036546
#
#
# Mechanical properties :
#
#
# Convention : Reuss Voigt Hill
#
# Bulk Modulus (GPa) = 25.89195 36.94911 31.42053
# Shear Modulus (GPa) = 17.93519 22.86208 20.39863
#
# Velocity S-wave (km/s) = 3.09048 3.48925 3.29590
# Velocity P-wave (km/s) = 5.15006 5.99248 5.58717
#
# Compressibility (1/GPa) = 0.03862204
#
# Stress axis : x y z
#
# Youngs Moduli (GPa) = 24.15099 82.23529 45.90469
#
# Poissons Ratio (x) = 0.76216 0.39900
# Poissons Ratio (y) = 0.22383 0.01856
# Poissons Ratio (z) = 0.20992 0.03325
#
# Static dielectric constant tensor:
#      x y z
#    x 1.608450 0.000000 0.005380 
#    y 0.000000 1.673660 0.000000 
#    z 0.005380 0.000000 1.742720 
# 
# From -- ./inp_files/68196.got.cif
#   From: 2010.05.17/outbox.cif.g08.bks.cpg/sg12_35_cif.got.tgz:68196.got - 2010.06.03 13:09:07.
