data_PCOD9192799
_publ_section_title
;
Structure prediction by ZEFSAII (Michael W. Deem and Ramdas Pophale) SiO2 
 PCOD9192799
Probable space group: C 2/M
;
_chemical_formula_sum "Si O2"
_cell_formula_units_Z 60
_cell_length_a 33.786350
_cell_length_b 13.698398
_cell_length_c 16.237462
_cell_angle_alpha 90.000000
_cell_angle_beta 157.029079
_cell_angle_gamma 90.000000
_cell_volume 2932.834690
_symmetry_space_group_name_H-M "C 2/M"
_symmetry_group_IT_number 12
_symmetry_cell_setting 'monoclinic'
loop_
_space_group_symop_operation_xyz
x,y,z
-x,y,-z
-x,-y,-z
x,-y,z
1/2+x,1/2+y,z
1/2-x,1/2+y,-z
1/2-x,1/2-y,-z
1/2+x,1/2-y,z
loop_
_atom_site_type_symbol
_atom_site_label
_atom_site_fract_x
_atom_site_fract_y
_atom_site_fract_z
Si Si1 0.721614 0.887032 0.895321
Si Si2 0.318322 0.794874 0.349760
Si Si3 0.037871 0.281335 0.747766
Si Si4 0.500000 0.190830 0.500000
Si Si5 0.997954 0.109191 0.197285
Si Si6 0.785448 0.110152 0.696190
Si Si7 0.102326 0.880967 0.240290
Si Si8 0.749262 0.616275 0.863760
O O1 0.741775 0.836548 0.845929
O O2 0.600507 0.872947 0.677228
O O3 0.768718 0.854895 0.073888
O O4 0.746710 0.000000 0.933983
O O5 0.432360 0.835871 0.565821
O O6 0.270295 0.823135 0.344133
O O7 0.319729 0.679930 0.329555
O O8 0.024466 0.248336 0.627724
O O9 0.036052 0.189411 0.803299
O O10 0.135980 0.349942 0.939016
O O11 0.089046 0.143156 0.311049
O O12 0.018564 0.000000 0.269433
O O13 0.899570 0.100560 0.949925
O O14 0.802688 0.146021 0.635509
O O15 0.741226 0.000000 0.611413
O O16 0.099907 0.000000 0.233410
O O17 0.000000 0.842866 0.000000
O O18 0.738649 0.500000 0.836705
#
# Coordination Sequence:
#
# PCOD9192799 Si02
#       8
#     8   8   8   4   8   8   8   8
#     4   9  17  30  50  72  96 129 169 211 255 295
#     4  11  20  31  51  77 102 126 169 217 251 290
#     4  10  20  34  51  73  98 135 174 209 243 297
#     4   8  17  30  47  68 102 136 169 208 241 290
#     4   9  16  30  51  72  98 128 160 198 251 308
#     4   9  16  28  49  77 102 119 151 209 264 296
#     4   7  12  24  45  72  97 123 152 193 251 308
#     4  10  21  37  52  69 101 143 176 204 248 306
#
# _framework density 20.458022
#
# number of rings (size 3 to 8) (size 9 to 14) (size 15 to 20)
#    0.000    2.800    1.333    2.600    0.000    4.267 
#    0.000    1.000    0.000    0.000    0.000    1.867 
#    0.000    0.000    0.000    0.000    0.000    0.000 
#
# Total GULP energy -167052.307533 kJ/mol
# GULP energy per Si atom -5568.410251 kJ/mol
# Density = 2.041146 g / cm^3
# Si number density = 20.458022 Si / 1000 Ang^3
#
#
#
# Elastic Constant Matrix: (Units=GPa)
#
#
# Indices 1 2 3 4 5 6 
#
# 1 109.0154 40.7290 -2.6006 0.0000 16.3069 0.0000
# 2 40.7290 72.0599 -5.2231 0.0000 -7.6806 0.0000
# 3 -2.6006 -5.2231 30.5936 0.0000 8.5345 0.0000
# 4 0.0000 0.0000 0.0000 11.4688 0.0000 -2.9991
# 5 16.3069 -7.6806 8.5345 0.0000 21.0426 0.0000
# 6 0.0000 0.0000 0.0000 -2.9991 0.0000 28.2263
#
#
#
# Elastic Compliance Matrix: (Units=1/GPa)
#
#
# Indices 1 2 3 4 5 6 
#
# 1 0.015957 -0.010615 0.004594 0.000000 -0.018103 0.000000
# 2 -0.010615 0.021535 -0.001932 0.000000 0.016870 0.000000
# 3 0.004594 -0.001932 0.038267 0.000000 -0.019786 0.000000
# 4 0.000000 0.000000 0.000000 0.089685 0.000000 0.009529
# 5 -0.018103 0.016870 -0.019786 0.000000 0.075734 0.000000
# 6 0.000000 0.000000 0.000000 0.009529 0.000000 0.036440
#
#
# Mechanical properties :
#
#
# Convention : Reuss Voigt Hill
#
# Bulk Modulus (GPa) = 16.70770 30.83107 23.76938
# Shear Modulus (GPa) = 15.95022 24.06513 20.00767
#
# Velocity S-wave (km/s) = 2.79526 3.43347 3.13067
# Velocity P-wave (km/s) = 4.31307 5.55170 4.97111
#
# Compressibility (1/GPa) = 0.05985264
#
# Stress axis : x y z
#
# Youngs Moduli (GPa) = 62.67001 46.43515 26.13231
#
# Poissons Ratio (x) = 0.49293 -0.12006
# Poissons Ratio (y) = 0.66527 0.05049
# Poissons Ratio (z) = -0.28792 0.08971
#
# Static dielectric constant tensor:
#      x y z
#    x 1.794470 0.000000 -0.002480 
#    y 0.000000 1.725250 0.000000 
#    z -0.002480 0.000000 1.777990 
# 
# From -- ./inp_files/224851.got.cif
#   From: 2010.05.17/outbox.cif.g08.bks.cpg/sg12_113_cif.got.tgz:224851.got - 2010.06.03 13:09:07.
