data_PCOD9192806
_publ_section_title
;
Structure prediction by ZEFSAII (Michael W. Deem and Ramdas Pophale) SiO2 
 PCOD9192806
Probable space group: C 2/M
;
_chemical_formula_sum "Si O2"
_cell_formula_units_Z 64
_cell_length_a 14.774782
_cell_length_b 8.292607
_cell_length_c 28.379146
_cell_angle_alpha 90.000000
_cell_angle_beta 104.236032
_cell_angle_gamma 90.000000
_cell_volume 3370.277173
_symmetry_space_group_name_H-M "C 2/M"
_symmetry_group_IT_number 12
_symmetry_cell_setting 'monoclinic'
loop_
_space_group_symop_operation_xyz
x,y,z
-x,y,-z
-x,-y,-z
x,-y,z
1/2+x,1/2+y,z
1/2-x,1/2+y,-z
1/2-x,1/2-y,-z
1/2+x,1/2-y,z
loop_
_atom_site_type_symbol
_atom_site_label
_atom_site_fract_x
_atom_site_fract_y
_atom_site_fract_z
Si Si1 0.671493 0.692539 0.821006
Si Si2 0.397395 0.697146 0.288793
Si Si3 0.561185 0.809230 0.896025
Si Si4 0.471669 0.696952 0.444533
Si Si5 0.212352 0.194233 0.632601
Si Si6 0.646886 0.194471 0.104446
Si Si7 0.390053 0.686564 0.999970
Si Si8 0.080995 0.194303 0.365953
O O1 0.680717 0.500000 0.816731
O O2 0.633365 0.755938 0.766471
O O3 0.603622 0.726567 0.855865
O O4 0.772197 0.755499 0.850864
O O5 0.398331 0.500000 0.288273
O O6 0.324941 0.745517 0.320598
O O7 0.500818 0.747920 0.318763
O O8 0.455439 0.750741 0.892103
O O9 0.559387 0.000000 0.887872
O O10 0.618219 0.774927 0.951307
O O11 0.500000 0.753168 0.500000
O O12 0.471925 0.500000 0.445151
O O13 0.368153 0.747016 0.414496
O O14 0.544000 0.746658 0.412797
O O15 0.315587 0.250514 0.633342
O O16 0.212403 0.000000 0.632443
O O17 0.662193 0.245906 0.052346
O O18 0.646354 0.000000 0.104918
O O19 0.367092 0.500000 0.003706
O O20 0.500000 0.700554 0.000000
O O21 0.080405 0.000000 0.365872
#
# Coordination Sequence:
#
# PCOD9192806 Si02
#       8
#     8   8   8   8   8   8   8   8
#     4  10  20  35  53  71  93 125 164 199 237 291
#     4   8  17  34  51  67  93 129 164 198 241 297
#     4  10  20  34  51  74 102 126 153 195 245 290
#     4   8  15  29  48  71 103 140 171 199 239 296
#     4   9  17  31  52  74  96 129 171 207 243 290
#     4   9  19  34  51  71  96 125 155 193 241 288
#     4   9  17  31  52  74  96 126 161 193 229 283
#     4   9  17  31  51  73  97 129 168 206 245 288
#
# _framework density 18.989536000000001
#
# number of rings (size 3 to 8) (size 9 to 14) (size 15 to 20)
#    0.000    3.000    0.000    2.250    0.000    4.500 
#    0.000    5.000    0.000    0.750    0.000    0.000 
#    0.000    0.000    0.000    0.000    0.000    0.000 
#
# Total GULP energy -178415.508549 kJ/mol
# GULP energy per Si atom -5575.484642 kJ/mol
# Density = 1.894631 g / cm^3
# Si number density = 18.989536 Si / 1000 Ang^3
#
#
#
# Elastic Constant Matrix: (Units=GPa)
#
#
# Indices 1 2 3 4 5 6 
#
# 1 150.7477 4.4404 91.7471 0.0000 11.6001 0.0000
# 2 4.4404 -0.9945 8.3286 0.0000 3.3215 0.0000
# 3 91.7471 8.3286 200.7946 0.0000 11.1567 0.0000
# 4 0.0000 0.0000 0.0000 13.4581 0.0000 -2.2352
# 5 11.6001 3.3215 11.1567 0.0000 13.2022 0.0000
# 6 0.0000 0.0000 0.0000 -2.2352 0.0000 22.7924
#
#
#
# Elastic Compliance Matrix: (Units=1/GPa)
#
#
# Indices 1 2 3 4 5 6 
#
# 1 0.009450 -0.004002 -0.003931 0.000000 -0.003974 0.000000
# 2 -0.004002 -0.500951 0.016168 0.000000 0.115886 0.000000
# 3 -0.003931 0.016168 0.006442 0.000000 -0.006058 0.000000
# 4 0.000000 0.000000 0.000000 0.075535 0.000000 0.007408
# 5 -0.003974 0.115886 -0.006058 0.000000 0.055201 0.000000
# 6 0.000000 0.000000 0.000000 0.007408 0.000000 0.044601
#
#
# Mechanical properties :
#
#
# Convention : Reuss Voigt Hill
#
# Bulk Modulus (GPa) = -2.13407 62.17555 30.02074
# Shear Modulus (GPa) = -10.36506 26.29266 7.96380
#
# Velocity S-wave (km/s) = -2.33884 3.72504 2.05009
# Velocity P-wave (km/s) = 2.90169 7.16340 4.63112
#
# Compressibility (1/GPa) = -0.46858853
#
# Stress axis : x y z
#
# Youngs Moduli (GPa) = 105.82309 -1.99620 155.22389
#
# Poissons Ratio (x) = -0.00799 0.61018
# Poissons Ratio (y) = 0.42350 -2.50970
# Poissons Ratio (z) = 0.41599 0.03228
#
# Static dielectric constant tensor:
#      x y z
#    x 1.668050 0.000000 0.018410 
#    y 0.000000 1.661140 0.000000 
#    z 0.018410 0.000000 1.656570 
# 
# From -- ./inp_files/360005.got.cif
#   From: 2010.05.17/outbox.cif.g08.bks.cpg/sg12_181_cif.got.tgz:360005.got - 2010.06.03 13:09:07.
