data_PCOD9192185
_publ_section_title
;
Structure prediction by ZEFSAII (Michael W. Deem and Ramdas Pophale) SiO2 
 PCOD9192185
Probable space group: C 2/M
;
_chemical_formula_sum "Si O2"
_cell_formula_units_Z 48
_cell_length_a 12.441160
_cell_length_b 26.515326
_cell_length_c 17.156830
_cell_angle_alpha 90.000000
_cell_angle_beta 27.403855
_cell_angle_gamma 90.000000
_cell_volume 2604.939690
_symmetry_space_group_name_H-M "C 2/M"
_symmetry_group_IT_number 12
_symmetry_cell_setting 'monoclinic'
loop_
_space_group_symop_operation_xyz
x,y,z
-x,y,-z
-x,-y,-z
x,-y,z
1/2+x,1/2+y,z
1/2-x,1/2+y,-z
1/2-x,1/2-y,-z
1/2+x,1/2-y,z
loop_
_atom_site_type_symbol
_atom_site_label
_atom_site_fract_x
_atom_site_fract_y
_atom_site_fract_z
Si Si1 0.093841 0.883976 0.711607
Si Si2 0.707947 0.352907 0.810027
Si Si3 0.103366 0.440652 0.020535
Si Si4 0.463763 0.941914 0.382975
Si Si5 0.760180 0.391522 0.365705
Si Si6 0.805782 0.691602 0.458799
O O1 0.122483 0.858891 0.777170
O O2 0.311103 0.920941 0.553014
O O3 0.121664 0.840497 0.628725
O O4 0.858645 0.915840 0.857126
O O5 0.806277 0.407776 0.772528
O O6 0.937467 0.318512 0.670551
O O7 0.500000 0.336621 0.000000
O O8 0.111011 0.500000 0.038615
O O9 0.000000 0.438250 0.000000
O O10 0.940347 0.408733 0.183582
O O11 0.306330 0.929395 0.408432
O O12 0.515492 0.000000 0.356497
O O13 0.500000 0.394748 0.500000
O O14 0.803723 0.336168 0.375804
O O15 0.750000 0.750000 0.500000
#
# Coordination Sequence:
#
# PCOD9192185 Si02
#       6
#     8   8   8   8   8   8
#     4  10  20  37  58  82 114 149 191 239 283 339
#     4  10  21  38  57  82 115 145 184 234 285 343
#     4  11  22  36  57  87 123 160 194 232 282 341
#     4  10  20  33  53  82 114 152 192 230 278 335
#     4  10  21  37  56  81 114 150 194 242 287 341
#     4  10  22  41  62  83 109 148 193 243 298 343
#
# _framework density 18.42653
#
# number of rings (size 3 to 8) (size 9 to 14) (size 15 to 20)
#    0.000    2.167    0.000    7.000    0.000    6.333 
#    0.000    5.833    0.000    0.000    0.000    0.000 
#    0.000    0.000    0.000    0.000    0.000    0.000 
#
# Total GULP energy -133931.399524 kJ/mol
# GULP energy per Si atom -5580.474980 kJ/mol
# Density = 1.838459 g / cm^3
# Si number density = 18.426530 Si / 1000 Ang^3
#
#
#
# Elastic Constant Matrix: (Units=GPa)
#
#
# Indices 1 2 3 4 5 6 
#
# 1 80.8228 26.1449 47.3164 -0.0162 4.1128 0.0082
# 2 26.1449 154.0102 42.1930 -0.0093 1.1505 0.0017
# 3 47.3164 42.1930 99.3809 0.0157 -0.7570 -0.0240
# 4 -0.0162 -0.0093 0.0157 14.7129 0.0110 3.3169
# 5 4.1128 1.1505 -0.7570 0.0110 33.5347 -0.0031
# 6 0.0082 0.0017 -0.0240 3.3169 -0.0031 11.0001
#
#
#
# Elastic Compliance Matrix: (Units=1/GPa)
#
#
# Indices 1 2 3 4 5 6 
#
# 1 0.017408 -0.000750 -0.007987 0.000038 -0.002290 -0.000042
# 2 -0.000750 0.007384 -0.002779 0.000009 -0.000224 -0.000009
# 3 -0.007987 -0.002779 0.015056 -0.000039 0.001415 0.000051
# 4 0.000038 0.000009 -0.000039 0.072925 -0.000032 -0.021989
# 5 -0.002290 -0.000224 0.001415 -0.000032 0.030140 0.000023
# 6 -0.000042 -0.000009 0.000051 -0.021989 0.000023 0.097539
#
#
# Mechanical properties :
#
#
# Convention : Reuss Voigt Hill
#
# Bulk Modulus (GPa) = 59.47313 62.83581 61.15447
# Shear Modulus (GPa) = 18.58124 26.42020 22.50072
#
# Velocity S-wave (km/s) = 3.17897 3.79068 3.49822
# Velocity P-wave (km/s) = 6.76907 7.30300 7.04110
#
# Compressibility (1/GPa) = 0.01681432
#
# Stress axis : x y z
#
# Youngs Moduli (GPa) = 57.44562 135.43705 66.41923
#
# Poissons Ratio (x) = 0.10156 0.53050
# Poissons Ratio (y) = 0.04308 0.18461
# Poissons Ratio (z) = 0.45883 0.37644
#
# Static dielectric constant tensor:
#      x y z
#    x 1.654370 -0.000010 0.019580 
#    y -0.000010 1.617520 0.000030 
#    z 0.019580 0.000030 1.634800 
# 
# From -- ./inp_files/209282.got.cif
#   From: 2010.05.17/outbox.cif.g08.bks.cpg/sg12_105_cif.got.tgz:209282.got - 2010.06.03 13:09:07.
