data_PCOD9192878
_publ_section_title
;
Structure prediction by ZEFSAII (Michael W. Deem and Ramdas Pophale) SiO2 
 PCOD9192878
Probable space group: C 2/M
;
_chemical_formula_sum "Si O2"
_cell_formula_units_Z 48
_cell_length_a 13.332800
_cell_length_b 24.475222
_cell_length_c 14.362095
_cell_angle_alpha 90.000000
_cell_angle_beta 33.474097
_cell_angle_gamma 90.000000
_cell_volume 2584.987880
_symmetry_space_group_name_H-M "C 2/M"
_symmetry_group_IT_number 12
_symmetry_cell_setting 'monoclinic'
loop_
_space_group_symop_operation_xyz
x,y,z
-x,y,-z
-x,-y,-z
x,-y,z
1/2+x,1/2+y,z
1/2-x,1/2+y,-z
1/2-x,1/2-y,-z
1/2+x,1/2-y,z
loop_
_atom_site_type_symbol
_atom_site_label
_atom_site_fract_x
_atom_site_fract_y
_atom_site_fract_z
Si Si1 0.008396 0.168445 0.655882
Si Si2 0.307453 0.226290 0.749545
Si Si3 0.506966 0.725139 0.144916
Si Si4 0.989817 0.561995 0.165064
Si Si5 0.694247 0.561718 0.234735
Si Si6 0.441126 0.168671 0.316659
O O1 0.904105 0.214616 0.676955
O O2 0.949932 0.109193 0.666896
O O3 0.953194 0.181328 0.805516
O O4 0.224444 0.174909 0.487514
O O5 0.190976 0.216320 0.747646
O O6 0.459912 0.183304 0.663272
O O7 0.156538 0.225022 0.948643
O O8 0.505315 0.784207 0.195324
O O9 0.985781 0.500000 0.205367
O O10 0.813475 0.569598 0.235473
O O11 0.992394 0.609451 0.238495
O O12 0.161409 0.565889 0.962108
O O13 0.619374 0.500000 0.293512
#
# Coordination Sequence:
#
# PCOD9192878 Si02
#       6
#     8   8   8   8   8   8
#     4  11  21  31  48  74 103 130 155 194 246 292
#     4  10  20  34  52  71  94 128 167 202 235 279
#     4  10  20  34  52  71  94 128 167 202 235 279
#     4   9  18  33  52  72  96 129 166 200 234 278
#     4   9  18  33  52  72  96 129 166 200 234 278
#     4  11  21  31  48  74 103 130 155 194 246 292
#
# _framework density 18.568753000000001
#
# number of rings (size 3 to 8) (size 9 to 14) (size 15 to 20)
#    0.000    2.000    0.000    8.000    0.000    8.000 
#    0.000    1.667    0.000    1.000    0.000    7.000 
#    0.000    0.000    0.000    0.000    0.000    0.000 
#
# Total GULP energy -134108.896074 kJ/mol
# GULP energy per Si atom -5587.870670 kJ/mol
# Density = 1.852649 g / cm^3
# Si number density = 18.568753 Si / 1000 Ang^3
#
#
#
# Elastic Constant Matrix: (Units=GPa)
#
#
# Indices 1 2 3 4 5 6 
#
# 1 82.9056 40.1622 5.3204 -0.0042 -21.6926 0.0025
# 2 40.1622 112.7743 10.9577 -0.0002 -10.1990 0.0015
# 3 5.3204 10.9577 50.6585 -0.0058 -11.3401 0.0026
# 4 -0.0042 -0.0002 -0.0058 4.9068 0.0037 -22.3523
# 5 -21.6926 -10.1990 -11.3401 0.0037 29.5638 -0.0019
# 6 0.0025 0.0015 0.0026 -22.3523 -0.0019 10.6511
#
#
#
# Elastic Compliance Matrix: (Units=1/GPa)
#
#
# Indices 1 2 3 4 5 6 
#
# 1 0.017654 -0.005407 0.001966 0.000000 0.011843 -0.000002
# 2 -0.005407 0.010900 -0.002009 0.000001 -0.000978 0.000001
# 3 0.001966 -0.002009 0.022027 0.000000 0.009199 -0.000005
# 4 0.000000 0.000001 0.000000 -0.023809 0.000000 -0.049965
# 5 0.011843 -0.000978 0.009199 0.000000 0.045706 0.000003
# 6 -0.000002 0.000001 -0.000005 -0.049965 0.000003 -0.010968
#
#
# Mechanical properties :
#
#
# Convention : Reuss Voigt Hill
#
# Bulk Modulus (GPa) = 25.20026 39.91323 32.55675
# Shear Modulus (GPa) = 58.38685 21.68420 40.03553
#
# Velocity S-wave (km/s) = 5.61354 3.42099 4.64839
# Velocity P-wave (km/s) = 7.45765 6.09473 6.81037
#
# Compressibility (1/GPa) = 0.03968212
#
# Stress axis : x y z
#
# Youngs Moduli (GPa) = 56.64527 91.74629 45.39833
#
# Poissons Ratio (x) = 0.49608 -0.08927
# Poissons Ratio (y) = 0.30629 0.09119
# Poissons Ratio (z) = -0.11139 0.18428
#
# Static dielectric constant tensor:
#      x y z
#    x 1.645530 0.000000 -0.006530 
#    y 0.000000 1.611020 0.000000 
#    z -0.006530 0.000000 1.690210 
# 
# From -- ./inp_files/90311.got.cif
#   From: 2010.05.17/outbox.cif.g08.bks.cpg/sg12_46_cif.got.tgz:90311.got - 2010.06.03 13:09:07.
