data_PCOD9192343
_publ_section_title
;
Structure prediction by ZEFSAII (Michael W. Deem and Ramdas Pophale) SiO2 
 PCOD9192343
Probable space group: C 2/M
;
_chemical_formula_sum "Si O2"
_cell_formula_units_Z 64
_cell_length_a 19.085514
_cell_length_b 15.014242
_cell_length_c 15.668613
_cell_angle_alpha 90.000000
_cell_angle_beta 135.740535
_cell_angle_gamma 90.000000
_cell_volume 3133.548986
_symmetry_space_group_name_H-M "C 2/M"
_symmetry_group_IT_number 12
_symmetry_cell_setting 'monoclinic'
loop_
_space_group_symop_operation_xyz
x,y,z
-x,y,-z
-x,-y,-z
x,-y,z
1/2+x,1/2+y,z
1/2-x,1/2+y,-z
1/2-x,1/2-y,-z
1/2+x,1/2-y,z
loop_
_atom_site_type_symbol
_atom_site_label
_atom_site_fract_x
_atom_site_fract_y
_atom_site_fract_z
Si Si1 0.781788 0.252329 0.668380
Si Si2 0.755695 0.162340 0.182271
Si Si3 0.549754 0.099501 0.963032
Si Si4 0.393546 0.600392 0.868215
Si Si5 0.210189 0.850343 0.054053
Si Si6 0.091300 0.736492 0.387038
Si Si7 0.436480 0.896005 0.212198
Si Si8 0.061995 0.105956 0.768037
O O1 0.760404 0.312711 0.732866
O O2 0.842975 0.167076 0.757529
O O3 0.847184 0.287901 0.645788
O O4 0.673420 0.233442 0.532967
O O5 0.728157 0.249098 0.100674
O O6 0.863271 0.127365 0.246116
O O7 0.667495 0.094802 0.082441
O O8 0.537144 0.139249 0.859507
O O9 0.505476 0.000000 0.919764
O O10 0.500000 0.147751 0.000000
O O11 0.407437 0.500000 0.846383
O O12 0.323107 0.599524 0.889739
O O13 0.500000 0.631816 0.000000
O O14 0.317938 0.885252 0.118606
O O15 0.126810 0.864345 0.908242
O O16 0.002673 0.666494 0.329142
O O17 0.036059 0.831870 0.326344
O O18 0.461546 0.000000 0.241908
O O19 0.042247 0.000000 0.755680
#
# Coordination Sequence:
#
# PCOD9192343 Si02
#       8
#     8   8   8   8   8   8   8   8
#     4  10  25  43  63  85 128 164 211 265 302 371
#     4  11  21  38  60  89 122 168 204 261 317 369
#     4  10  20  33  54  88 124 156 200 252 305 367
#     4  10  21  39  65  97 127 158 199 255 323 382
#     4  11  21  37  61  95 129 155 200 261 313 375
#     4  11  24  45  62  89 121 170 219 257 310 372
#     4  11  21  37  62  91 123 159 202 254 312 372
#     4  12  23  39  66  96 131 170 212 261 317 381
#
# _framework density 20.424126999999999
#
# number of rings (size 3 to 8) (size 9 to 14) (size 15 to 20)
#    0.000    1.250    2.500    4.125    0.000    5.500 
#    0.000    4.375    0.000    2.250    0.000    0.000 
#    0.000    0.000    0.000    0.000    0.000    0.000 
#
# Total GULP energy -178643.286655 kJ/mol
# GULP energy per Si atom -5582.602708 kJ/mol
# Density = 2.037764 g / cm^3
# Si number density = 20.424127 Si / 1000 Ang^3
#
#
#
# Elastic Constant Matrix: (Units=GPa)
#
#
# Indices 1 2 3 4 5 6 
#
# 1 58.7182 2.9800 12.1292 0.0000 3.6292 0.0000
# 2 2.9800 98.4493 38.5455 0.0000 1.4024 0.0000
# 3 12.1292 38.5455 140.5335 0.0000 11.6422 0.0000
# 4 0.0000 0.0000 0.0000 -104.0673 0.0000 78.4242
# 5 3.6292 1.4024 11.6422 0.0000 27.1238 0.0000
# 6 0.0000 0.0000 0.0000 78.4242 0.0000 -34.5798
#
#
#
# Elastic Compliance Matrix: (Units=1/GPa)
#
#
# Indices 1 2 3 4 5 6 
#
# 1 0.017419 0.000033 -0.001368 0.000000 -0.001745 0.000000
# 2 0.000033 0.011396 -0.003193 0.000000 0.000777 0.000000
# 3 -0.001368 -0.003193 0.008379 0.000000 -0.003248 0.000000
# 4 0.000000 0.000000 0.000000 0.013552 0.000000 0.030734
# 5 -0.001745 0.000777 -0.003248 0.000000 0.038456 0.000000
# 6 0.000000 0.000000 0.000000 0.030734 0.000000 0.040783
#
#
# Mechanical properties :
#
#
# Convention : Reuss Voigt Hill
#
# Bulk Modulus (GPa) = 35.53877 45.00116 40.26997
# Shear Modulus (GPa) = 33.68861 -6.03493 13.82684
#
# Velocity S-wave (km/s) = 4.06575 -1.72082 2.60472
# Velocity P-wave (km/s) = 6.28320 4.25827 5.36710
#
# Compressibility (1/GPa) = 0.02813828
#
# Stress axis : x y z
#
# Youngs Moduli (GPa) = 57.40776 87.75393 119.35153
#
# Poissons Ratio (x) = -0.00291 0.16327
# Poissons Ratio (y) = -0.00190 0.38106
# Poissons Ratio (z) = 0.07853 0.28018
#
# Static dielectric constant tensor:
#      x y z
#    x 1.773440 0.000000 -0.004150 
#    y 0.000000 1.759550 0.000000 
#    z -0.004150 0.000000 1.711470 
# 
# From -- ./inp_files/226881.got.cif
#   From: 2010.05.17/outbox.cif.g08.bks.cpg/sg12_114_cif.got.tgz:226881.got - 2010.06.03 13:09:07.
