data_PCOD9192971
_publ_section_title
;
Structure prediction by ZEFSAII (Michael W. Deem and Ramdas Pophale) SiO2 
 PCOD9192971
Probable space group: C 2/M
;
_chemical_formula_sum "Si O2"
_cell_formula_units_Z 56
_cell_length_a 27.217013
_cell_length_b 13.854708
_cell_length_c 12.343915
_cell_angle_alpha 90.000000
_cell_angle_beta 141.248478
_cell_angle_gamma 90.000000
_cell_volume 2913.576141
_symmetry_space_group_name_H-M "C 2/M"
_symmetry_group_IT_number 12
_symmetry_cell_setting 'monoclinic'
loop_
_space_group_symop_operation_xyz
x,y,z
-x,y,-z
-x,-y,-z
x,-y,z
1/2+x,1/2+y,z
1/2-x,1/2+y,-z
1/2-x,1/2-y,-z
1/2+x,1/2-y,z
loop_
_atom_site_type_symbol
_atom_site_label
_atom_site_fract_x
_atom_site_fract_y
_atom_site_fract_z
Si Si1 0.728856 0.109952 0.753129
Si Si2 0.213627 0.222344 0.551605
Si Si3 0.877764 0.110908 0.313010
Si Si4 0.207556 0.388759 0.124188
Si Si5 0.116560 0.794673 0.896796
Si Si6 0.057148 0.609895 0.497376
Si Si7 0.450951 0.698728 0.651442
O O1 0.718374 0.183607 0.636617
O O2 0.649416 0.119153 0.686989
O O3 0.734312 0.000000 0.725984
O O4 0.807233 0.140557 0.948573
O O5 0.250000 0.250000 0.500000
O O6 0.262980 0.143283 0.705111
O O7 0.121553 0.193281 0.390320
O O8 0.785835 0.122424 0.184947
O O9 0.901746 0.183959 0.259972
O O10 0.923462 0.134948 0.501711
O O11 0.891858 0.000000 0.304574
O O12 0.182968 0.500000 0.079157
O O13 0.143354 0.313422 0.971526
O O14 0.040186 0.825551 0.834136
O O15 0.046762 0.500000 0.438455
O O16 0.043030 0.691896 0.384366
O O17 0.000000 0.622213 0.500000
#
# Coordination Sequence:
#
# PCOD9192971 Si02
#       7
#     8   8   8   8   8   8   8
#     4   9  19  34  52  78 106 133 169 211 257 308
#     4   9  19  38  60  75  94 132 178 221 261 303
#     4  10  20  34  52  74 106 148 183 208 243 301
#     4   9  20  36  53  78 108 138 175 213 254 308
#     4  11  20  32  52  77 110 142 167 206 261 318
#     4   9  17  31  50  71  99 133 168 205 244 295
#     4  10  21  34  50  77 105 133 176 218 255 305
#
# _framework density 19.220365999999999
#
# number of rings (size 3 to 8) (size 9 to 14) (size 15 to 20)
#    0.000    2.429    0.000    3.000    0.000    4.000 
#    0.000    7.857    0.000    1.714    0.000    0.000 
#    0.000    0.000    0.000    0.000    0.000    0.000 
#
# Total GULP energy -156249.899812 kJ/mol
# GULP energy per Si atom -5580.353565 kJ/mol
# Density = 1.917662 g / cm^3
# Si number density = 19.220366 Si / 1000 Ang^3
#
#
#
# Elastic Constant Matrix: (Units=GPa)
#
#
# Indices 1 2 3 4 5 6 
#
# 1 109.6654 14.0819 41.5198 0.0000 10.7680 0.0000
# 2 14.0819 77.2608 16.7814 0.0000 1.9186 0.0000
# 3 41.5198 16.7814 56.3209 0.0000 29.4350 0.0000
# 4 0.0000 0.0000 0.0000 1.2061 0.0000 -2.9832
# 5 10.7680 1.9186 29.4350 0.0000 28.1144 0.0000
# 6 0.0000 0.0000 0.0000 -2.9832 0.0000 5.2372
#
#
#
# Elastic Compliance Matrix: (Units=1/GPa)
#
#
# Indices 1 2 3 4 5 6 
#
# 1 0.014406 0.000877 -0.017593 0.000000 0.012842 0.000000
# 2 0.000877 0.014636 -0.009518 0.000000 0.008630 0.000000
# 3 -0.017593 -0.009518 0.065588 0.000000 -0.061281 0.000000
# 4 0.000000 0.000000 0.000000 -2.027571 0.000000 -1.154944
# 5 0.012842 0.008630 -0.061281 0.000000 0.094221 0.000000
# 6 0.000000 0.000000 0.000000 -1.154944 0.000000 -0.466937
#
#
# Mechanical properties :
#
#
# Convention : Reuss Voigt Hill
#
# Bulk Modulus (GPa) = 23.71765 43.11259 33.41512
# Shear Modulus (GPa) = -2.23300 18.30249 8.03474
#
# Velocity S-wave (km/s) = -1.07903 3.08919 2.04680
# Velocity P-wave (km/s) = 3.28850 5.93326 4.79676
#
# Compressibility (1/GPa) = 0.04216268
#
# Stress axis : x y z
#
# Youngs Moduli (GPa) = 69.41649 68.32298 15.24677
#
# Poissons Ratio (x) = -0.05989 0.26823
# Poissons Ratio (y) = -0.06085 0.14511
# Poissons Ratio (z) = 1.22121 0.65028
#
# Static dielectric constant tensor:
#      x y z
#    x 1.663700 0.000000 0.044320 
#    y 0.000000 1.690330 0.000000 
#    z 0.044320 0.000000 1.709650 
# 
# From -- ./inp_files/183530.got.cif
#   From: 2010.05.17/outbox.cif.g08.bks.cpg/sg12_92_cif.got.tgz:183530.got - 2010.06.03 13:09:07.
