data_PCOD9192772
_publ_section_title
;
Structure prediction by ZEFSAII (Michael W. Deem and Ramdas Pophale) SiO2 
 PCOD9192772
Probable space group: C 2/M
;
_chemical_formula_sum "Si O2"
_cell_formula_units_Z 64
_cell_length_a 14.460057
_cell_length_b 9.018144
_cell_length_c 29.601140
_cell_angle_alpha 90.000000
_cell_angle_beta 75.965442
_cell_angle_gamma 90.000000
_cell_volume 3744.849183
_symmetry_space_group_name_H-M "C 2/M"
_symmetry_group_IT_number 12
_symmetry_cell_setting 'monoclinic'
loop_
_space_group_symop_operation_xyz
x,y,z
-x,y,-z
-x,-y,-z
x,-y,z
1/2+x,1/2+y,z
1/2-x,1/2+y,-z
1/2-x,1/2-y,-z
1/2+x,1/2-y,z
loop_
_atom_site_type_symbol
_atom_site_label
_atom_site_fract_x
_atom_site_fract_y
_atom_site_fract_z
Si Si1 0.955204 0.177943 0.552621
Si Si2 0.663416 0.323166 0.199076
Si Si3 0.562252 0.678250 0.632562
Si Si4 0.219383 0.321996 0.379519
Si Si5 0.848914 0.677748 0.118133
Si Si6 0.258110 0.823460 0.950283
Si Si7 0.386709 0.822621 0.700614
Si Si8 0.555763 0.177502 0.130910
O O1 0.854007 0.249596 0.576747
O O2 0.000000 0.228049 0.500000
O O3 0.024985 0.212061 0.586439
O O4 0.944014 0.000000 0.552131
O O5 0.654628 0.500000 0.204094
O O6 0.766289 0.289114 0.164485
O O7 0.650212 0.247869 0.248896
O O8 0.586027 0.260669 0.172858
O O9 0.555561 0.500000 0.639731
O O10 0.671529 0.723550 0.626301
O O11 0.489975 0.757958 0.675157
O O12 0.214364 0.500000 0.384847
O O13 0.181503 0.284404 0.333813
O O14 0.848579 0.500000 0.110592
O O15 0.818783 0.757900 0.075631
O O16 0.952498 0.720436 0.124319
O O17 0.361309 0.791996 0.915488
O O18 0.247467 0.000000 0.955029
O O19 0.250000 0.750000 0.000000
O O20 0.390945 0.000000 0.703978
O O21 0.555414 0.000000 0.139357
#
# Coordination Sequence:
#
# PCOD9192772 Si02
#       8
#     8   8   8   8   8   8   8   8
#     4   9  18  32  50  73 101 132 165 203 248 298
#     4  10  20  34  53  76 101 129 162 203 249 295
#     4   9  18  34  52  71  99 131 165 205 248 294
#     4   9  19  34  51  72  98 130 166 206 249 292
#     4   9  19  36  55  75 101 132 168 207 248 296
#     4  10  20  34  53  76 104 136 170 209 252 297
#     4  10  20  34  51  72  99 129 164 203 244 294
#     4   9  19  36  55  75 101 134 169 206 248 295
#
# _framework density 17.090140999999999
#
# number of rings (size 3 to 8) (size 9 to 14) (size 15 to 20)
#    0.000    2.625    0.000    1.125    0.000    4.750 
#    0.000    5.000    0.000    0.000    0.000    0.000 
#    0.000    0.000    0.000    0.000    0.000    0.000 
#
# Total GULP energy -178515.696919 kJ/mol
# GULP energy per Si atom -5578.615529 kJ/mol
# Density = 1.705124 g / cm^3
# Si number density = 17.090141 Si / 1000 Ang^3
#
#
#
# Elastic Constant Matrix: (Units=GPa)
#
#
# Indices 1 2 3 4 5 6 
#
# 1 122.4394 32.4859 28.4368 0.0000 3.5932 0.0000
# 2 32.4859 29.4839 41.2563 0.0000 -0.5461 0.0000
# 3 28.4368 41.2563 104.2883 0.0000 -2.6691 0.0000
# 4 0.0000 0.0000 0.0000 29.9518 0.0000 -2.3441
# 5 3.5932 -0.5461 -2.6691 0.0000 7.8157 0.0000
# 6 0.0000 0.0000 0.0000 -2.3441 0.0000 25.6168
#
#
#
# Elastic Compliance Matrix: (Units=1/GPa)
#
#
# Indices 1 2 3 4 5 6 
#
# 1 0.012684 -0.020241 0.004402 0.000000 -0.005742 0.000000
# 2 -0.020241 0.108465 -0.037283 0.000000 0.004152 0.000000
# 3 0.004402 -0.037283 0.023222 0.000000 0.003302 0.000000
# 4 0.000000 0.000000 0.000000 0.033628 0.000000 0.003077
# 5 -0.005742 0.004152 0.003302 0.000000 0.132005 0.000000
# 6 0.000000 0.000000 0.000000 0.003077 0.000000 0.039318
#
#
# Mechanical properties :
#
#
# Convention : Reuss Voigt Hill
#
# Bulk Modulus (GPa) = 26.22848 51.17441 38.70145
# Shear Modulus (GPa) = 10.67746 22.94570 16.81158
#
# Velocity S-wave (km/s) = 2.50226 3.66816 3.13980
# Velocity P-wave (km/s) = 4.87123 6.92455 5.98658
#
# Compressibility (1/GPa) = 0.03812649
#
# Stress axis : x y z
#
# Youngs Moduli (GPa) = 78.84014 9.21954 43.06214
#
# Poissons Ratio (x) = 0.18661 -0.18955
# Poissons Ratio (y) = 1.59580 1.60550
# Poissons Ratio (z) = -0.34704 0.34373
#
# Static dielectric constant tensor:
#      x y z
#    x 1.562680 0.000000 0.000930 
#    y 0.000000 1.569840 0.000000 
#    z 0.000930 0.000000 1.551340 
# 
# From -- ./inp_files/359821.got.cif
#   From: 2010.05.17/outbox.cif.g08.bks.cpg/sg12_180_cif.got.tgz:359821.got - 2010.06.03 13:09:07.
