data_PCOD9192206
_publ_section_title
;
Structure prediction by ZEFSAII (Michael W. Deem and Ramdas Pophale) SiO2 
 PCOD9192206
Probable space group: C 2/M
;
_chemical_formula_sum "Si O2"
_cell_formula_units_Z 56
_cell_length_a 19.219851
_cell_length_b 13.323017
_cell_length_c 14.310982
_cell_angle_alpha 90.000000
_cell_angle_beta 43.469839
_cell_angle_gamma 90.000000
_cell_volume 2521.118151
_symmetry_space_group_name_H-M "C 2/M"
_symmetry_group_IT_number 12
_symmetry_cell_setting 'monoclinic'
loop_
_space_group_symop_operation_xyz
x,y,z
-x,y,-z
-x,-y,-z
x,-y,z
1/2+x,1/2+y,z
1/2-x,1/2+y,-z
1/2-x,1/2-y,-z
1/2+x,1/2-y,z
loop_
_atom_site_type_symbol
_atom_site_label
_atom_site_fract_x
_atom_site_fract_y
_atom_site_fract_z
Si Si1 0.893139 0.122162 0.058248
Si Si2 0.109621 0.716736 0.597466
Si Si3 0.405474 0.113301 0.775219
Si Si4 0.654206 0.612942 0.308262
Si Si5 0.689334 0.379584 0.055237
Si Si6 0.748595 0.613375 0.404249
Si Si7 0.668872 0.828821 0.343389
O O1 0.789329 0.166019 0.204311
O O2 0.886665 0.000000 0.074118
O O3 0.885781 0.150815 0.955343
O O4 0.000000 0.153012 0.000000
O O5 0.162177 0.678783 0.640173
O O6 0.147405 0.829498 0.539404
O O7 0.152948 0.651082 0.467736
O O8 0.993342 0.690686 0.711094
O O9 0.383344 0.107104 0.686121
O O10 0.428645 0.000000 0.786553
O O11 0.302441 0.154947 0.920319
O O12 0.608463 0.500000 0.362336
O O13 0.669941 0.630822 0.183636
O O14 0.746225 0.609280 0.293870
O O15 0.614298 0.720456 0.380787
O O16 0.695631 0.500000 0.035770
O O17 0.751995 0.500000 0.435377
#
# Coordination Sequence:
#
# PCOD9192206 Si02
#       7
#     8   8   8   8   8   8   8
#     4   9  18  33  53  80 112 141 176 225 278 331
#     4  10  20  35  55  80 110 145 184 224 271 326
#     4  10  20  33  53  83 114 143 180 226 273 325
#     4   9  18  36  57  75 104 145 184 226 275 323
#     4   8  16  33  56  81 109 142 179 221 271 325
#     4   9  19  36  56  77 106 144 185 230 274 321
#     4  10  20  34  55  82 109 141 182 224 273 332
#
# _framework density 22.212367
#
# number of rings (size 3 to 8) (size 9 to 14) (size 15 to 20)
#    0.000    2.714    0.000    2.143    0.000    5.143 
#    0.000   10.000    0.000   10.714    0.000    1.000 
#    0.000    0.000    0.000    0.000    0.000    0.000 
#
# Total GULP energy -155912.467109 kJ/mol
# GULP energy per Si atom -5568.302397 kJ/mol
# Density = 2.216181 g / cm^3
# Si number density = 22.212367 Si / 1000 Ang^3
#
#
#
# Elastic Constant Matrix: (Units=GPa)
#
#
# Indices 1 2 3 4 5 6 
#
# 1 146.1404 23.0412 70.5394 0.0000 4.7249 0.0000
# 2 23.0412 86.6223 2.7912 0.0000 -6.3199 0.0000
# 3 70.5394 2.7912 54.3749 0.0000 6.1276 0.0000
# 4 0.0000 0.0000 0.0000 16.1025 0.0000 9.7157
# 5 4.7249 -6.3199 6.1276 0.0000 33.0378 0.0000
# 6 0.0000 0.0000 0.0000 9.7157 0.0000 29.8191
#
#
#
# Elastic Compliance Matrix: (Units=1/GPa)
#
#
# Indices 1 2 3 4 5 6 
#
# 1 0.019930 -0.004392 -0.025752 0.000000 0.001086 0.000000
# 2 -0.004392 0.012716 0.004801 0.000000 0.002170 0.000000
# 3 -0.025752 0.004801 0.052122 0.000000 -0.005066 0.000000
# 4 0.000000 0.000000 0.000000 0.077298 0.000000 -0.025185
# 5 0.001086 0.002170 -0.005066 0.000000 0.031468 0.000000
# 6 0.000000 0.000000 0.000000 -0.025185 0.000000 0.041741
#
#
# Mechanical properties :
#
#
# Convention : Reuss Voigt Hill
#
# Bulk Modulus (GPa) = 29.34079 53.32015 41.33047
# Shear Modulus (GPa) = 16.81668 28.50959 22.66314
#
# Velocity S-wave (km/s) = 2.75451 3.58648 3.19767
# Velocity P-wave (km/s) = 4.83263 6.41929 5.68162
#
# Compressibility (1/GPa) = 0.03408224
#
# Stress axis : x y z
#
# Youngs Moduli (GPa) = 50.17550 78.63888 19.18557
#
# Poissons Ratio (x) = 0.34541 0.49406
# Poissons Ratio (y) = 0.22039 -0.09210
# Poissons Ratio (z) = 1.29211 -0.37752
#
# Static dielectric constant tensor:
#      x y z
#    x 1.826730 0.000000 0.002980 
#    y 0.000000 1.876550 0.000000 
#    z 0.002980 0.000000 1.824940 
# 
# From -- ./inp_files/225204.got.cif
#   From: 2010.05.17/outbox.cif.g08.bks.cpg/sg12_113_cif.got.tgz:225204.got - 2010.06.03 13:09:07.
