data_PCOD9192435
_publ_section_title
;
Structure prediction by ZEFSAII (Michael W. Deem and Ramdas Pophale) SiO2 
 PCOD9192435
Probable space group: C 2/M
;
_chemical_formula_sum "Si O2"
_cell_formula_units_Z 56
_cell_length_a 8.688084
_cell_length_b 21.418266
_cell_length_c 16.686717
_cell_angle_alpha 90.000000
_cell_angle_beta 125.039198
_cell_angle_gamma 90.000000
_cell_volume 2542.351207
_symmetry_space_group_name_H-M "C 2/M"
_symmetry_group_IT_number 12
_symmetry_cell_setting 'monoclinic'
loop_
_space_group_symop_operation_xyz
x,y,z
-x,y,-z
-x,-y,-z
x,-y,z
1/2+x,1/2+y,z
1/2-x,1/2+y,-z
1/2-x,1/2-y,-z
1/2+x,1/2-y,z
loop_
_atom_site_type_symbol
_atom_site_label
_atom_site_fract_x
_atom_site_fract_y
_atom_site_fract_z
Si Si1 0.941093 0.427999 0.101498
Si Si2 0.292835 0.426859 0.461948
Si Si3 0.759301 0.836422 0.234036
Si Si4 0.610853 0.426516 0.331506
Si Si5 0.147032 0.845236 0.982467
Si Si6 0.936035 0.744047 0.165216
Si Si7 0.104009 0.425809 0.721710
O O1 0.985379 0.500000 0.102187
O O2 0.117123 0.382484 0.145553
O O3 0.776764 0.402453 0.995291
O O4 0.875988 0.420502 0.176188
O O5 0.500000 0.400742 0.500000
O O6 0.302057 0.500000 0.439885
O O7 0.268364 0.424428 0.550471
O O8 0.104313 0.401311 0.364289
O O9 0.838168 0.778454 0.208162
O O10 0.612646 0.797300 0.245080
O O11 0.934509 0.882188 0.300572
O O12 0.554586 0.500000 0.304083
O O13 0.730194 0.404190 0.289306
O O14 0.291047 0.799755 0.073055
O O15 0.036199 0.802289 0.887195
O O16 0.000000 0.872127 0.000000
O O17 0.099318 0.500000 0.703484
#
# Coordination Sequence:
#
# PCOD9192435 Si02
#       7
#     8   8   8   8   8   8   8
#     4  10  22  37  56  87 119 152 182 229 300 351
#     4   9  16  29  52  83 121 158 189 222 268 338
#     4  11  22  37  60  81 116 146 194 250 279 340
#     4  10  20  33  55  90 122 152 185 229 291 343
#     4  10  20  37  61  80 111 144 190 245 279 341
#     4  10  22  38  57  84 104 146 202 245 285 319
#     4   9  18  33  53  82 124 158 187 221 271 351
#
# _framework density 22.026854
#
# number of rings (size 3 to 8) (size 9 to 14) (size 15 to 20)
#    0.000    2.143    1.429    1.714    2.000    4.286 
#    0.000    2.143    0.000    0.000    0.000   30.000 
#    0.000    0.000    0.000    0.000    0.000    0.000 
#
# Total GULP energy -155890.204560 kJ/mol
# GULP energy per Si atom -5567.507306 kJ/mol
# Density = 2.197672 g / cm^3
# Si number density = 22.026854 Si / 1000 Ang^3
#
#
#
# Elastic Constant Matrix: (Units=GPa)
#
#
# Indices 1 2 3 4 5 6 
#
# 1 95.8338 40.0114 40.9262 0.0000 8.0107 0.0000
# 2 40.0114 100.6489 35.6059 0.0000 14.8689 0.0000
# 3 40.9262 35.6059 60.4423 0.0000 13.5243 0.0000
# 4 0.0000 0.0000 0.0000 21.9252 0.0000 21.7675
# 5 8.0107 14.8689 13.5243 0.0000 28.9372 0.0000
# 6 0.0000 0.0000 0.0000 21.7675 0.0000 -11.1232
#
#
#
# Elastic Compliance Matrix: (Units=1/GPa)
#
#
# Indices 1 2 3 4 5 6 
#
# 1 0.015457 -0.003219 -0.008915 0.000000 0.001541 0.000000
# 2 -0.003219 0.013518 -0.004946 0.000000 -0.003743 0.000000
# 3 -0.008915 -0.004946 0.027221 0.000000 -0.007713 0.000000
# 4 0.000000 0.000000 0.000000 0.015498 0.000000 0.030329
# 5 0.001541 -0.003743 -0.007713 0.000000 0.039659 0.000000
# 6 0.000000 0.000000 0.000000 0.030329 0.000000 -0.030549
#
#
# Mechanical properties :
#
#
# Convention : Reuss Voigt Hill
#
# Bulk Modulus (GPa) = 45.38082 54.44579 49.91331
# Shear Modulus (GPa) = 40.88046 17.30662 29.09354
#
# Velocity S-wave (km/s) = 4.31273 2.80608 3.63825
# Velocity P-wave (km/s) = 6.74142 5.93889 6.35284
#
# Compressibility (1/GPa) = 0.02203574
#
# Stress axis : x y z
#
# Youngs Moduli (GPa) = 64.69657 73.97633 36.73689
#
# Poissons Ratio (x) = 0.23810 0.32750
# Poissons Ratio (y) = 0.20823 0.18171
# Poissons Ratio (z) = 0.57676 0.36591
#
# Static dielectric constant tensor:
#      x y z
#    x 1.930730 0.000000 -0.009170 
#    y 0.000000 1.802300 0.000000 
#    z -0.009170 0.000000 1.835990 
# 
# From -- ./inp_files/301804.got.cif
#   From: 2010.05.17/outbox.cif.g08.bks.cpg/sg12_151_cif.got.tgz:301804.got - 2010.06.03 13:09:07.
