data_PCOD9192987
_publ_section_title
;
Structure prediction by ZEFSAII (Michael W. Deem and Ramdas Pophale) SiO2 
 PCOD9192987
Probable space group: C 2/M
;
_chemical_formula_sum "Si O2"
_cell_formula_units_Z 64
_cell_length_a 8.953176
_cell_length_b 10.868981
_cell_length_c 34.652972
_cell_angle_alpha 90.000000
_cell_angle_beta 98.662406
_cell_angle_gamma 90.000000
_cell_volume 3333.680202
_symmetry_space_group_name_H-M "C 2/M"
_symmetry_group_IT_number 12
_symmetry_cell_setting 'monoclinic'
loop_
_space_group_symop_operation_xyz
x,y,z
-x,y,-z
-x,-y,-z
x,-y,z
1/2+x,1/2+y,z
1/2-x,1/2+y,-z
1/2-x,1/2-y,-z
1/2+x,1/2-y,z
loop_
_atom_site_type_symbol
_atom_site_label
_atom_site_fract_x
_atom_site_fract_y
_atom_site_fract_z
Si Si1 0.982636 0.139410 0.542130
Si Si2 0.115079 0.861641 0.142039
Si Si3 0.363406 0.143193 0.264603
Si Si4 0.715155 0.791777 0.405468
Si Si5 0.777747 0.861322 0.109592
Si Si6 0.477298 0.361544 0.771865
Si Si7 0.674818 0.864007 0.018225
Si Si8 0.412083 0.861795 0.353511
O O1 0.147394 0.138873 0.568416
O O2 0.000000 0.195162 0.500000
O O3 0.866794 0.210134 0.565051
O O4 0.927430 0.000000 0.535369
O O5 0.220998 0.749718 0.133954
O O6 0.065785 0.852713 0.184743
O O7 0.958464 0.852500 0.112359
O O8 0.179689 0.000000 0.138678
O O9 0.422973 0.246428 0.237539
O O10 0.181920 0.144986 0.256734
O O11 0.420471 0.179156 0.309464
O O12 0.408597 0.000000 0.257760
O O13 0.576492 0.860526 0.379694
O O14 0.798993 0.715807 0.375246
O O15 0.699571 0.851087 0.064974
O O16 0.746711 0.000000 0.123944
O O17 0.542761 0.500000 0.768082
O O18 0.736954 0.000000 0.009761
O O19 0.500000 0.863423 0.000000
O O20 0.750000 0.750000 0.000000
O O21 0.352351 0.000000 0.349879
#
# Coordination Sequence:
#
# PCOD9192987 Si02
#       8
#     8   8   8   8   8   8   8   8
#     4  10  20  34  52  75 102 132 168 208 250 300
#     4  10  21  36  55  79 107 139 176 217 262 314
#     4  10  21  36  55  79 106 138 176 216 260 312
#     4  10  20  34  53  75 101 134 168 206 255 301
#     4  10  21  36  54  79 108 138 177 221 264 314
#     4  10  21  37  55  79 109 139 175 218 262 312
#     4  10  21  36  54  78 107 139 177 220 265 316
#     4  10  20  35  53  75 103 133 169 211 253 302
#
# _framework density 19.198001999999999
#
# number of rings (size 3 to 8) (size 9 to 14) (size 15 to 20)
#    0.000    2.000    0.000    3.375    0.000    2.250 
#    0.000    3.125    0.000    6.000    0.000    0.000 
#    0.000    0.000    0.000    0.000    0.000    0.000 
#
# Total GULP energy -178474.487501 kJ/mol
# GULP energy per Si atom -5577.327734 kJ/mol
# Density = 1.915431 g / cm^3
# Si number density = 19.198002 Si / 1000 Ang^3
#
#
#
# Elastic Constant Matrix: (Units=GPa)
#
#
# Indices 1 2 3 4 5 6 
#
# 1 46.8084 30.4831 -1.7068 0.0000 -2.7234 0.0000
# 2 30.4831 135.0353 25.0361 0.0000 -32.4602 0.0000
# 3 -1.7068 25.0361 48.5381 0.0000 3.9338 0.0000
# 4 0.0000 0.0000 0.0000 -250.8130 0.0000 -0.2273
# 5 -2.7234 -32.4602 3.9338 0.0000 27.1854 0.0000
# 6 0.0000 0.0000 0.0000 -0.2273 0.0000 17.5871
#
#
#
# Elastic Compliance Matrix: (Units=1/GPa)
#
#
# Indices 1 2 3 4 5 6 
#
# 1 0.027475 -0.009898 0.006887 0.000000 -0.010063 0.000000
# 2 -0.009898 0.016412 -0.010444 0.000000 0.020116 0.000000
# 3 0.006887 -0.010444 0.027509 0.000000 -0.015761 0.000000
# 4 0.000000 0.000000 0.000000 -0.003987 0.000000 -0.000052
# 5 -0.010063 0.020116 -0.015761 0.000000 0.062076 0.000000
# 6 0.000000 0.000000 0.000000 -0.000052 0.000000 0.056859
#
#
# Mechanical properties :
#
#
# Convention : Reuss Voigt Hill
#
# Bulk Modulus (GPa) = 22.47863 37.55629 30.01746
# Shear Modulus (GPa) = 21.92197 -29.43679 -3.75741
#
# Velocity S-wave (km/s) = 3.38285 -3.92002 -1.40051
# Velocity P-wave (km/s) = 5.19543 0.94003 3.61309
#
# Compressibility (1/GPa) = 0.04448670
#
# Stress axis : x y z
#
# Youngs Moduli (GPa) = 36.39620 60.93222 36.35211
#
# Poissons Ratio (x) = 0.60312 -0.25037
# Poissons Ratio (y) = 0.36026 0.37965
# Poissons Ratio (z) = -0.25067 0.63635
#
# Static dielectric constant tensor:
#      x y z
#    x 1.641170 0.000000 0.022890 
#    y 0.000000 1.672540 0.000000 
#    z 0.022890 0.000000 1.687790 
# 
# From -- ./inp_files/372172.got.cif
#   From: 2010.05.17/outbox.cif.g08.bks.cpg/sg12_187_cif.got.tgz:372172.got - 2010.06.03 13:09:07.
