data_PCOD9192797
_publ_section_title
;
Structure prediction by ZEFSAII (Michael W. Deem and Ramdas Pophale) SiO2 
 PCOD9192797
Probable space group: C 2/M
;
_chemical_formula_sum "Si O2"
_cell_formula_units_Z 42
_cell_length_a 9.150070
_cell_length_b 30.054182
_cell_length_c 7.407585
_cell_angle_alpha 90.000000
_cell_angle_beta 44.727729
_cell_angle_gamma 90.000000
_cell_volume 1433.564895
_symmetry_space_group_name_H-M "C 2/M"
_symmetry_group_IT_number 12
_symmetry_cell_setting 'monoclinic'
loop_
_space_group_symop_operation_xyz
x,y,z
-x,y,-z
-x,-y,-z
x,-y,z
1/2+x,1/2+y,z
1/2-x,1/2+y,-z
1/2-x,1/2-y,-z
1/2+x,1/2-y,z
loop_
_atom_site_type_symbol
_atom_site_label
_atom_site_fract_x
_atom_site_fract_y
_atom_site_fract_z
Si Si1 0.195618 0.449435 0.146004
Si Si2 0.485176 0.240102 0.726316
Si Si3 0.870865 0.165558 0.339651
Si Si4 0.335071 0.568991 0.416017
Si Si5 0.831345 0.648363 0.883858
Si Si6 0.500000 0.500000 0.500000
O O1 0.138317 0.500000 0.146186
O O2 0.202109 0.445770 0.359451
O O3 0.103402 0.402742 0.154257
O O4 0.434511 0.442826 0.867285
O O5 0.500000 0.243833 0.500000
O O6 0.626291 0.280600 0.672774
O O7 0.504093 0.187166 0.761016
O O8 0.250000 0.250000 0.000000
O O9 0.807421 0.119937 0.491646
O O10 0.766596 0.153691 0.234084
O O11 0.119948 0.160354 0.171564
O O12 0.329809 0.538189 0.591564
#
# Coordination Sequence:
#
# PCOD9192797 Si02
#       6
#     8   8   8   8   8   2
#     4   9  13  27  41  58  86 129 166 192 235 300
#     4  10  20  34  51  73  98 131 167 210 250 294
#     4   8  16  30  46  67  99 128 162 201 249 298
#     4   9  16  22  37  62  93 126 155 194 249 302
#     4   8  16  29  49  69  92 129 167 202 243 295
#     4  12  16  18  32  64 100 118 150 200 258 294
#
# _framework density 29.297591000000001
#
# number of rings (size 3 to 8) (size 9 to 14) (size 15 to 20)
#    0.000    3.048    1.905    2.857    1.333    0.762 
#    0.000    0.000    0.000    0.571    0.000    0.000 
#    0.000    0.000    0.000   32.952    0.000    0.000 
#
# Total GULP energy -116915.638457 kJ/mol
# GULP energy per Si atom -5567.411355 kJ/mol
# Density = 2.923091 g / cm^3
# Si number density = 29.297591 Si / 1000 Ang^3
#
#
#
# Elastic Constant Matrix: (Units=GPa)
#
#
# Indices 1 2 3 4 5 6 
#
# 1 112.5759 76.6937 29.9917 0.0000 -15.1985 0.0000
# 2 76.6937 391.3986 38.4052 0.0000 -24.6233 0.0000
# 3 29.9917 38.4052 59.1537 0.0000 6.6679 0.0000
# 4 0.0000 0.0000 0.0000 65.1528 0.0000 -14.6805
# 5 -15.1985 -24.6233 6.6679 0.0000 37.6487 0.0000
# 6 0.0000 0.0000 0.0000 -14.6805 0.0000 45.4088
#
#
#
# Elastic Compliance Matrix: (Units=1/GPa)
#
#
# Indices 1 2 3 4 5 6 
#
# 1 0.012088 -0.001500 -0.005709 0.000000 0.004910 0.000000
# 2 -0.001500 0.003095 -0.001438 0.000000 0.001674 0.000000
# 3 -0.005709 -0.001438 0.021529 0.000000 -0.007058 0.000000
# 4 0.000000 0.000000 0.000000 0.016554 0.000000 0.005352
# 5 0.004910 0.001674 -0.007058 0.000000 0.030888 0.000000
# 6 0.000000 0.000000 0.000000 0.005352 0.000000 0.023752
#
#
# Mechanical properties :
#
#
# Convention : Reuss Voigt Hill
#
# Bulk Modulus (GPa) = 51.49438 94.81216 73.15327
# Shear Modulus (GPa) = 37.97288 57.51123 47.74205
#
# Velocity S-wave (km/s) = 3.60406 4.43538 4.04115
# Velocity P-wave (km/s) = 5.91045 7.65912 6.84089
#
# Compressibility (1/GPa) = 0.01941960
#
# Stress axis : x y z
#
# Youngs Moduli (GPa) = 82.72433 323.08517 46.44976
#
# Poissons Ratio (x) = 0.48450 0.26517
# Poissons Ratio (y) = 0.12405 0.06679
# Poissons Ratio (z) = 0.47226 0.46455
#
# Static dielectric constant tensor:
#      x y z
#    x 2.324390 0.000000 -0.107770 
#    y 0.000000 2.277490 0.000000 
#    z -0.107770 0.000000 2.721140 
# 
# From -- ./inp_files/66737.got.cif
#   From: 2010.05.17/outbox.cif.g08.bks.cpg/sg12_34_cif.got.tgz:66737.got - 2010.06.03 13:09:07.
