data_PCOD9192009
_publ_section_title
;
Structure prediction by ZEFSAII (Michael W. Deem and Ramdas Pophale) SiO2 
 PCOD9192009
Probable space group: C 2/M
;
_chemical_formula_sum "Si O2"
_cell_formula_units_Z 64
_cell_length_a 26.446554
_cell_length_b 13.656544
_cell_length_c 9.371627
_cell_angle_alpha 90.000000
_cell_angle_beta 76.119985
_cell_angle_gamma 90.000000
_cell_volume 3285.903147
_symmetry_space_group_name_H-M "C 2/M"
_symmetry_group_IT_number 12
_symmetry_cell_setting 'monoclinic'
loop_
_space_group_symop_operation_xyz
x,y,z
-x,y,-z
-x,-y,-z
x,-y,z
1/2+x,1/2+y,z
1/2-x,1/2+y,-z
1/2-x,1/2-y,-z
1/2+x,1/2-y,z
loop_
_atom_site_type_symbol
_atom_site_label
_atom_site_fract_x
_atom_site_fract_y
_atom_site_fract_z
Si Si1 0.124321 0.725637 0.192446
Si Si2 0.339977 0.117941 0.260107
Si Si3 0.783882 0.115694 0.353000
Si Si4 0.718609 0.116970 0.975911
Si Si5 0.682145 0.761182 0.442535
Si Si6 0.520559 0.886759 0.335938
Si Si7 0.168323 0.884325 0.978676
Si Si8 0.951801 0.612915 0.113843
O O1 0.170252 0.657246 0.098762
O O2 0.142129 0.750883 0.341444
O O3 0.069138 0.671621 0.238781
O O4 0.125970 0.819959 0.088755
O O5 0.336388 0.171148 0.412908
O O6 0.393606 0.150942 0.147896
O O7 0.342237 0.000000 0.278682
O O8 0.293431 0.140083 0.181712
O O9 0.732832 0.179790 0.353781
O O10 0.803345 0.159295 0.489978
O O11 0.771854 0.000000 0.368475
O O12 0.824611 0.130171 0.195929
O O13 0.717451 0.000000 0.990500
O O14 0.775672 0.146876 0.990805
O O15 0.500000 0.847390 0.500000
O O16 0.471800 0.888308 0.261967
O O17 0.537475 0.000000 0.345169
O O18 0.161276 0.000000 0.008103
O O19 0.948149 0.500000 0.061856
O O20 0.000000 0.661491 0.000000
#
# Coordination Sequence:
#
# PCOD9192009 Si02
#       8
#     8   8   8   8   8   8   8   8
#     4  12  22  34  57  82 112 145 192 232 273 331
#     4  10  20  33  52  79 113 148 186 226 269 328
#     4  10  22  39  53  72 108 148 184 225 270 319
#     4  10  20  33  53  81 114 152 188 225 271 324
#     4  11  23  33  53  79 105 142 185 223 274 324
#     4  10  21  36  55  81 115 149 180 221 279 338
#     4  10  22  39  56  77 111 152 191 231 271 319
#     4   9  17  31  49  73 105 141 179 222 270 319
#
# _framework density 19.477141
#
# number of rings (size 3 to 8) (size 9 to 14) (size 15 to 20)
#    0.000    1.750    1.250    3.375    3.500    5.000 
#    0.000    0.000    0.000    0.375    0.000    0.875 
#    0.000   10.000    0.000    0.000    0.000    0.000 
#
# Total GULP energy -178722.297086 kJ/mol
# GULP energy per Si atom -5585.071784 kJ/mol
# Density = 1.943281 g / cm^3
# Si number density = 19.477141 Si / 1000 Ang^3
#
#
#
# Elastic Constant Matrix: (Units=GPa)
#
#
# Indices 1 2 3 4 5 6 
#
# 1 54.3810 21.7551 16.4833 0.0000 -2.8009 0.0000
# 2 21.7551 88.1470 31.2657 0.0000 -9.5164 0.0000
# 3 16.4833 31.2657 93.3363 0.0000 -4.6043 0.0000
# 4 0.0000 0.0000 0.0000 33.2396 0.0000 -5.1940
# 5 -2.8009 -9.5164 -4.6043 0.0000 33.8226 0.0000
# 6 0.0000 0.0000 0.0000 -5.1940 0.0000 17.4094
#
#
#
# Elastic Compliance Matrix: (Units=1/GPa)
#
#
# Indices 1 2 3 4 5 6 
#
# 1 0.020801 -0.004326 -0.002214 0.000000 0.000204 0.000000
# 2 -0.004326 0.014096 -0.003805 0.000000 0.003090 0.000000
# 3 -0.002214 -0.003805 0.012401 0.000000 0.000434 0.000000
# 4 0.000000 0.000000 0.000000 0.031556 0.000000 0.009415
# 5 0.000204 0.003090 0.000434 0.000000 0.030511 0.000000
# 6 0.000000 0.000000 0.000000 0.009415 0.000000 0.060249
#
#
# Mechanical properties :
#
#
# Convention : Reuss Voigt Hill
#
# Bulk Modulus (GPa) = 37.58528 41.65250 39.61889
# Shear Modulus (GPa) = 25.10357 27.98500 26.54428
#
# Velocity S-wave (km/s) = 3.59398 3.79464 3.69568
# Velocity P-wave (km/s) = 6.04659 6.37423 6.21257
#
# Compressibility (1/GPa) = 0.02660616
#
# Stress axis : x y z
#
# Youngs Moduli (GPa) = 48.07417 70.94319 80.63806
#
# Poissons Ratio (x) = 0.30693 0.17855
# Poissons Ratio (y) = 0.20799 0.30685
# Poissons Ratio (z) = 0.10645 0.26996
#
# Static dielectric constant tensor:
#      x y z
#    x 1.676610 0.000000 0.013460 
#    y 0.000000 1.705190 0.000000 
#    z 0.013460 0.000000 1.731880 
# 
# From -- ./inp_files/104548.got.cif
#   From: 2010.05.17/outbox.cif.g08.bks.cpg/sg12_53_cif.got.tgz:104548.got - 2010.06.03 13:09:07.
