data_PCOD9192334
_publ_section_title
;
Structure prediction by ZEFSAII (Michael W. Deem and Ramdas Pophale) SiO2 
 PCOD9192334
Probable space group: C 2/M
;
_chemical_formula_sum "Si O2"
_cell_formula_units_Z 64
_cell_length_a 27.227526
_cell_length_b 14.365398
_cell_length_c 9.899168
_cell_angle_alpha 90.000000
_cell_angle_beta 135.018573
_cell_angle_gamma 90.000000
_cell_volume 2736.961666
_symmetry_space_group_name_H-M "C 2/M"
_symmetry_group_IT_number 12
_symmetry_cell_setting 'monoclinic'
loop_
_space_group_symop_operation_xyz
x,y,z
-x,y,-z
-x,-y,-z
x,-y,z
1/2+x,1/2+y,z
1/2-x,1/2+y,-z
1/2-x,1/2-y,-z
1/2+x,1/2-y,z
loop_
_atom_site_type_symbol
_atom_site_label
_atom_site_fract_x
_atom_site_fract_y
_atom_site_fract_z
Si Si1 0.197416 0.361626 0.791417
Si Si2 0.899289 0.890080 0.877634
Si Si3 0.239364 0.660376 0.153413
Si Si4 0.081213 0.705517 0.934570
Si Si5 0.057654 0.295099 0.441458
Si Si6 0.256963 0.101695 0.414696
Si Si7 0.902315 0.388101 0.762678
Si Si8 0.884565 0.894841 0.535593
O O1 0.226800 0.258531 0.821089
O O2 0.114134 0.353724 0.634933
O O3 0.219547 0.407806 0.694858
O O4 0.229956 0.394899 0.994339
O O5 0.932285 0.810687 0.035058
O O6 0.818827 0.858672 0.730587
O O7 0.913611 0.885579 0.745411
O O8 0.907400 0.000000 0.933908
O O9 0.160580 0.681969 0.047630
O O10 0.299886 0.617798 0.365842
O O11 0.066100 0.638266 0.032735
O O12 0.024764 0.693571 0.705674
O O13 0.070969 0.332907 0.314533
O O14 0.081683 0.187193 0.487349
O O15 0.321799 0.146523 0.614008
O O16 0.248783 0.000000 0.461297
O O17 0.904280 0.500000 0.745491
O O18 0.899748 0.000000 0.519384
#
# Coordination Sequence:
#
# PCOD9192334 Si02
#       8
#     8   8   8   8   8   8   8   8
#     4   9  19  38  55  78 107 146 193 241 282 331
#     4  10  20  33  54  86 120 150 186 232 287 344
#     4  10  21  35  58  82 107 147 195 242 288 328
#     4  12  22  34  57  86 117 155 189 238 287 347
#     4  10  22  37  57  83 117 157 193 228 291 346
#     4   9  17  32  55  80 106 143 184 232 286 335
#     4  10  21  36  56  82 114 149 189 231 283 349
#     4  10  21  38  59  86 120 154 191 238 292 348
#
# _framework density 23.383593000000001
#
# number of rings (size 3 to 8) (size 9 to 14) (size 15 to 20)
#    0.000    2.000    2.500    1.125    0.000    5.000 
#    0.000    1.250    0.000    0.000    0.000    8.750 
#    0.000    0.000    0.000    0.000    0.000    0.000 
#
# Total GULP energy -178412.925992 kJ/mol
# GULP energy per Si atom -5575.403937 kJ/mol
# Density = 2.333037 g / cm^3
# Si number density = 23.383593 Si / 1000 Ang^3
#
#
#
# Elastic Constant Matrix: (Units=GPa)
#
#
# Indices 1 2 3 4 5 6 
#
# 1 45.3804 1.6435 6.7857 0.0000 10.3401 0.0000
# 2 1.6435 103.4236 -5.1098 0.0000 -6.1847 0.0000
# 3 6.7857 -5.1098 80.2608 0.0000 9.0097 0.0000
# 4 0.0000 0.0000 0.0000 -4.8642 0.0000 5.2714
# 5 10.3401 -6.1847 9.0097 0.0000 35.7246 0.0000
# 6 0.0000 0.0000 0.0000 5.2714 0.0000 7.5507
#
#
#
# Elastic Compliance Matrix: (Units=1/GPa)
#
#
# Indices 1 2 3 4 5 6 
#
# 1 0.023790 -0.000844 -0.001313 0.000000 -0.006701 0.000000
# 2 -0.000844 0.009815 0.000492 0.000000 0.001819 0.000000
# 3 -0.001313 0.000492 0.012915 0.000000 -0.002792 0.000000
# 4 0.000000 0.000000 0.000000 -0.117037 0.000000 0.081708
# 5 -0.006701 0.001819 -0.002792 0.000000 0.030950 0.000000
# 6 0.000000 0.000000 0.000000 0.081708 0.000000 0.075396
#
#
# Mechanical properties :
#
#
# Convention : Reuss Voigt Hill
#
# Bulk Modulus (GPa) = 23.15282 26.18928 24.67105
# Shear Modulus (GPa) = 93.36156 22.73192 58.04674
#
# Velocity S-wave (km/s) = 6.32556 3.12128 4.98774
# Velocity P-wave (km/s) = 7.95444 4.92078 6.61390
#
# Compressibility (1/GPa) = 0.04319129
#
# Stress axis : x y z
#
# Youngs Moduli (GPa) = 42.03529 101.87988 77.42864
#
# Poissons Ratio (x) = 0.08594 0.10165
# Poissons Ratio (y) = 0.03546 -0.03809
# Poissons Ratio (z) = 0.05518 -0.05012
#
# Static dielectric constant tensor:
#      x y z
#    x 1.927810 0.000000 0.060990 
#    y 0.000000 1.960110 0.000000 
#    z 0.060990 0.000000 1.958590 
# 
# From -- ./inp_files/189485.got.cif
#   From: 2010.05.17/outbox.cif.g08.bks.cpg/sg12_95_cif.got.tgz:189485.got - 2010.06.03 13:09:07.
