data_PCOD9192141
_publ_section_title
;
Structure prediction by ZEFSAII (Michael W. Deem and Ramdas Pophale) SiO2 
 PCOD9192141
Probable space group: C 2/M
;
_chemical_formula_sum "Si O2"
_cell_formula_units_Z 64
_cell_length_a 32.973766
_cell_length_b 9.524729
_cell_length_c 18.794510
_cell_angle_alpha 90.000000
_cell_angle_beta 34.580348
_cell_angle_gamma 90.000000
_cell_volume 3350.155957
_symmetry_space_group_name_H-M "C 2/M"
_symmetry_group_IT_number 12
_symmetry_cell_setting 'monoclinic'
loop_
_space_group_symop_operation_xyz
x,y,z
-x,y,-z
-x,-y,-z
x,-y,z
1/2+x,1/2+y,z
1/2-x,1/2+y,-z
1/2-x,1/2-y,-z
1/2+x,1/2-y,z
loop_
_atom_site_type_symbol
_atom_site_label
_atom_site_fract_x
_atom_site_fract_y
_atom_site_fract_z
Si Si1 0.547302 0.170492 0.865017
Si Si2 0.788133 0.835165 0.808265
Si Si3 0.547642 0.161773 0.576701
Si Si4 0.712813 0.830889 0.618607
Si Si5 0.573055 0.662593 0.316700
Si Si6 0.339484 0.662845 0.957407
Si Si7 0.460269 0.162160 0.851014
Si Si8 0.807744 0.164851 0.620033
O O1 0.630057 0.213769 0.746125
O O2 0.508165 0.208594 0.848203
O O3 0.548256 0.000000 0.866457
O O4 0.500000 0.219888 0.000000
O O5 0.871173 0.799092 0.702101
O O6 0.771103 0.816280 0.749784
O O7 0.780280 0.000000 0.838064
O O8 0.735336 0.742551 0.930963
O O9 0.495045 0.240873 0.598044
O O10 0.507021 0.164763 0.711580
O O11 0.621735 0.241312 0.481069
O O12 0.558470 0.000000 0.540610
O O13 0.750000 0.750000 0.500000
O O14 0.756166 0.803341 0.628663
O O15 0.714407 0.000000 0.603814
O O16 0.550835 0.500000 0.356811
O O17 0.621979 0.671985 0.174788
O O18 0.330160 0.500000 0.988167
O O19 0.392559 0.740186 0.935300
O O20 0.437362 0.000000 0.895914
O O21 0.828237 0.000000 0.585767
#
# Coordination Sequence:
#
# PCOD9192141 Si02
#       8
#     8   8   8   8   8   8   8   8
#     4   9  18  32  56  85 110 139 182 236 281 326
#     4  10  21  36  55  79 108 145 186 227 272 326
#     4  10  20  35  56  81 108 142 186 229 272 326
#     4  10  21  38  60  86 113 148 191 233 285 342
#     4   9  19  36  56  79 109 144 183 227 274 327
#     4  10  20  33  53  80 110 144 179 222 276 329
#     4   9  18  33  55  79 104 140 181 222 269 328
#     4  10  22  37  56  81 109 144 184 227 276 330
#
# _framework density 19.103588999999999
#
# number of rings (size 3 to 8) (size 9 to 14) (size 15 to 20)
#    0.000    2.375    0.000    1.875    1.750    4.000 
#    0.000    3.125    0.000    0.750    0.000    0.000 
#    0.000    0.000    0.000    0.000    0.000    0.000 
#
# Total GULP energy -178669.880241 kJ/mol
# GULP energy per Si atom -5583.433758 kJ/mol
# Density = 1.906011 g / cm^3
# Si number density = 19.103589 Si / 1000 Ang^3
#
#
#
# Elastic Constant Matrix: (Units=GPa)
#
#
# Indices 1 2 3 4 5 6 
#
# 1 132.6029 48.8140 45.9534 0.0008 -6.9461 0.0003
# 2 48.8140 59.6188 44.3093 0.0043 -10.4846 -0.0030
# 3 45.9534 44.3093 91.1280 0.0031 -13.2571 -0.0014
# 4 0.0008 0.0043 0.0031 24.5958 -0.0017 -10.8737
# 5 -6.9461 -10.4846 -13.2571 -0.0017 24.2750 0.0008
# 6 0.0003 -0.0030 -0.0014 -10.8737 0.0008 18.2887
#
#
#
# Elastic Compliance Matrix: (Units=1/GPa)
#
#
# Indices 1 2 3 4 5 6 
#
# 1 0.011022 -0.007798 -0.001952 0.000001 -0.001281 -0.000001
# 2 -0.007798 0.032295 -0.010935 -0.000002 0.005745 0.000003
# 3 -0.001952 -0.010935 0.017931 0.000000 0.004511 -0.000001
# 4 0.000001 -0.000002 0.000000 0.055155 0.000002 0.032793
# 5 -0.001281 0.005745 0.004511 0.000002 0.045773 0.000001
# 6 -0.000001 0.000003 -0.000001 0.032793 0.000001 0.074176
#
#
# Mechanical properties :
#
#
# Convention : Reuss Voigt Hill
#
# Bulk Modulus (GPa) = 50.30856 62.38925 56.34891
# Shear Modulus (GPa) = 17.58404 23.05010 20.31707
#
# Velocity S-wave (km/s) = 3.03720 3.47736 3.26471
# Velocity P-wave (km/s) = 6.22022 6.98942 6.61601
#
# Compressibility (1/GPa) = 0.01987733
#
# Stress axis : x y z
#
# Youngs Moduli (GPa) = 90.73134 30.96412 55.76861
#
# Poissons Ratio (x) = 0.24147 0.10888
# Poissons Ratio (y) = 0.70755 0.60982
# Poissons Ratio (z) = 0.17715 0.33859
#
# Static dielectric constant tensor:
#      x y z
#    x 1.663690 0.000000 0.016180 
#    y 0.000000 1.639900 0.000000 
#    z 0.016180 0.000000 1.658410 
# 
# From -- ./inp_files/295628.got.cif
#   From: 2010.05.17/outbox.cif.g08.bks.cpg/sg12_148_cif.got.tgz:295628.got - 2010.06.03 13:09:07.
