data_PCOD9192205
_publ_section_title
;
Structure prediction by ZEFSAII (Michael W. Deem and Ramdas Pophale) SiO2 
 PCOD9192205
Probable space group: C 2/M
;
_chemical_formula_sum "Si O2"
_cell_formula_units_Z 40
_cell_length_a 20.286074
_cell_length_b 7.369687
_cell_length_c 13.805236
_cell_angle_alpha 90.000000
_cell_angle_beta 51.713522
_cell_angle_gamma 90.000000
_cell_volume 1620.010122
_symmetry_space_group_name_H-M "C 2/M"
_symmetry_group_IT_number 12
_symmetry_cell_setting 'monoclinic'
loop_
_space_group_symop_operation_xyz
x,y,z
-x,y,-z
-x,-y,-z
x,-y,z
1/2+x,1/2+y,z
1/2-x,1/2+y,-z
1/2-x,1/2-y,-z
1/2+x,1/2-y,z
loop_
_atom_site_type_symbol
_atom_site_label
_atom_site_fract_x
_atom_site_fract_y
_atom_site_fract_z
Si Si1 0.846805 0.783429 0.892322
Si Si2 0.625317 0.780821 0.576624
Si Si3 0.542258 0.293499 0.367905
Si Si4 0.222046 0.210000 0.686485
Si Si5 0.589500 0.722271 0.961880
O O1 0.879599 0.710105 0.759856
O O2 0.859775 0.000000 0.875623
O O3 0.750000 0.750000 0.000000
O O4 0.897474 0.717428 0.939894
O O5 0.533156 0.707757 0.641171
O O6 0.689039 0.716403 0.433368
O O7 0.663186 0.721101 0.644599
O O8 0.623889 0.000000 0.577341
O O9 0.500000 0.204496 0.500000
O O10 0.564300 0.500000 0.375842
O O11 0.167761 0.285852 0.824370
O O12 0.237725 0.000000 0.695372
O O13 0.590733 0.500000 0.958922
O O14 0.500000 0.778141 0.000000
#
# Coordination Sequence:
#
# PCOD9192205 Si02
#       5
#     8   8   8   8   8
#     4  10  22  39  60  86 116 152 192 237 289 343
#     4  10  20  33  53  83 113 144 186 237 287 330
#     4  10  22  39  58  80 111 154 196 230 277 341
#     4   9  18  33  54  80 110 145 184 231 284 341
#     4   9  17  32  57  82 106 144 192 233 276 335
#
# _framework density 24.691203999999999
#
# number of rings (size 3 to 8) (size 9 to 14) (size 15 to 20)
#    0.000    2.400    0.000    1.800    2.800    5.200 
#    0.000    1.000    0.000    2.400    0.000    0.000 
#    0.000    0.000    0.000    0.000    0.000    0.000 
#
# Total GULP energy -111825.657362 kJ/mol
# GULP energy per Si atom -5591.282868 kJ/mol
# Density = 2.463501 g / cm^3
# Si number density = 24.691204 Si / 1000 Ang^3
#
#
#
# Elastic Constant Matrix: (Units=GPa)
#
#
# Indices 1 2 3 4 5 6 
#
# 1 67.0337 -4.8479 26.9166 0.0000 -4.0069 0.0001
# 2 -4.8479 99.3412 9.1513 -0.0009 4.2865 0.0005
# 3 26.9166 9.1513 231.1640 -0.0002 10.7955 0.0001
# 4 0.0000 -0.0009 -0.0002 -5.0529 0.0001 2.6183
# 5 -4.0069 4.2865 10.7955 0.0001 33.6471 0.0000
# 6 0.0001 0.0005 0.0001 2.6183 0.0000 1.2306
#
#
#
# Elastic Compliance Matrix: (Units=1/GPa)
#
#
# Indices 1 2 3 4 5 6 
#
# 1 0.015929 0.000857 -0.002002 0.000000 0.002430 0.000000
# 2 0.000857 0.010195 -0.000454 -0.000002 -0.001051 0.000000
# 3 -0.002002 -0.000454 0.004655 0.000000 -0.001674 0.000000
# 4 0.000000 -0.000002 0.000000 -0.094132 0.000001 0.200272
# 5 0.002430 -0.001051 -0.001674 0.000001 0.030681 0.000000
# 6 0.000000 0.000000 0.000000 0.200272 0.000000 0.386497
#
#
# Mechanical properties :
#
#
# Convention : Reuss Voigt Hill
#
# Bulk Modulus (GPa) = 36.25751 51.10878 43.68314
# Shear Modulus (GPa) = 13.65308 30.38623 22.01966
#
# Velocity S-wave (km/s) = 2.35405 3.51187 2.98954
# Velocity P-wave (km/s) = 4.70159 6.09823 5.44488
#
# Compressibility (1/GPa) = 0.02758050
#
# Stress axis : x y z
#
# Youngs Moduli (GPa) = 62.77832 98.08409 214.81193
#
# Poissons Ratio (x) = -0.08405 0.43009
# Poissons Ratio (y) = -0.05380 0.09759
# Poissons Ratio (z) = 0.12569 0.04456
#
# Static dielectric constant tensor:
#      x y z
#    x 1.904390 0.000000 0.021840 
#    y 0.000000 1.941410 0.000000 
#    z 0.021840 0.000000 2.062900 
# 
# From -- ./inp_files/229660.got.cif
#   From: 2010.05.17/outbox.cif.g08.bks.cpg/sg12_115_cif.got.tgz:229660.got - 2010.06.03 13:09:07.
