data_PCOD9192142
_publ_section_title
;
Structure prediction by ZEFSAII (Michael W. Deem and Ramdas Pophale) SiO2 
 PCOD9192142
Probable space group: C 2/M
;
_chemical_formula_sum "Si O2"
_cell_formula_units_Z 56
_cell_length_a 27.971093
_cell_length_b 7.612479
_cell_length_c 13.065693
_cell_angle_alpha 90.000000
_cell_angle_beta 113.495043
_cell_angle_gamma 90.000000
_cell_volume 2551.420942
_symmetry_space_group_name_H-M "C 2/M"
_symmetry_group_IT_number 12
_symmetry_cell_setting 'monoclinic'
loop_
_space_group_symop_operation_xyz
x,y,z
-x,y,-z
-x,-y,-z
x,-y,z
1/2+x,1/2+y,z
1/2-x,1/2+y,-z
1/2-x,1/2-y,-z
1/2+x,1/2-y,z
loop_
_atom_site_type_symbol
_atom_site_label
_atom_site_fract_x
_atom_site_fract_y
_atom_site_fract_z
Si Si1 0.747987 0.711692 0.684535
Si Si2 0.445899 0.212354 0.403499
Si Si3 0.211625 0.789231 0.874613
Si Si4 0.863241 0.712292 0.722994
Si Si5 0.557765 0.289855 0.026227
Si Si6 0.900491 0.208019 0.153786
Si Si7 0.362665 0.209530 0.496885
O O1 0.751110 0.500000 0.690085
O O2 0.733807 0.778003 0.786095
O O3 0.804556 0.775726 0.697568
O O4 0.698542 0.757382 0.572508
O O5 0.500000 0.269966 0.500000
O O6 0.439868 0.268502 0.281223
O O7 0.397583 0.277592 0.432413
O O8 0.445205 0.000000 0.403058
O O9 0.154687 0.717889 0.854395
O O10 0.207597 0.000000 0.859886
O O11 0.250000 0.750000 0.000000
O O12 0.861497 0.500000 0.717642
O O13 0.878809 0.775655 0.622864
O O14 0.903021 0.759449 0.846617
O O15 0.552778 0.500000 0.009525
O O16 0.580403 0.219194 0.938304
O O17 0.500000 0.219865 0.000000
O O18 0.892411 0.000000 0.131683
O O19 0.370225 0.000000 0.503331
#
# Coordination Sequence:
#
# PCOD9192142 Si02
#       7
#     8   8   8   8   8   8   8
#     4  10  20  36  56  83 116 147 186 231 277 334
#     4  10  22  38  58  85 115 147 188 235 280 331
#     4  10  20  33  53  80 110 144 182 225 272 325
#     4  10  22  38  58  85 116 150 189 232 278 333
#     4  10  23  41  59  83 114 148 189 235 281 333
#     4  10  21  39  59  82 113 146 186 233 279 332
#     4  10  21  37  57  85 117 149 187 230 279 335
#
# _framework density 21.948554000000001
#
# number of rings (size 3 to 8) (size 9 to 14) (size 15 to 20)
#    0.000    2.000    1.429    1.286    2.000    3.429 
#    0.000    0.000    0.000    0.000    0.000    0.000 
#    0.000    0.000    0.000    0.000    0.000    0.000 
#
# Total GULP energy -156478.999554 kJ/mol
# GULP energy per Si atom -5588.535698 kJ/mol
# Density = 2.189860 g / cm^3
# Si number density = 21.948554 Si / 1000 Ang^3
#
#
#
# Elastic Constant Matrix: (Units=GPa)
#
#
# Indices 1 2 3 4 5 6 
#
# 1 77.5373 2.2022 43.1765 0.0000 -6.3609 0.0000
# 2 2.2022 42.7308 -19.0610 0.0000 -11.2591 0.0000
# 3 43.1765 -19.0610 157.1693 0.0000 -14.9840 0.0000
# 4 0.0000 0.0000 0.0000 -62.9560 0.0000 -12.9066
# 5 -6.3609 -11.2591 -14.9840 0.0000 39.9333 0.0000
# 6 0.0000 0.0000 0.0000 -12.9066 0.0000 -20.0901
#
#
#
# Elastic Compliance Matrix: (Units=1/GPa)
#
#
# Indices 1 2 3 4 5 6 
#
# 1 0.015551 -0.002886 -0.004629 0.000000 -0.000073 0.000000
# 2 -0.002886 0.028330 0.005130 0.000000 0.009453 0.000000
# 3 -0.004629 0.005130 0.008633 0.000000 0.003948 0.000000
# 4 0.000000 0.000000 0.000000 -0.018293 0.000000 0.011752
# 5 -0.000073 0.009453 0.003948 0.000000 0.029177 0.000000
# 6 0.000000 0.000000 0.000000 0.011752 0.000000 -0.057326
#
#
# Mechanical properties :
#
#
# Convention : Reuss Voigt Hill
#
# Bulk Modulus (GPa) = 20.94524 36.67473 28.80999
# Shear Modulus (GPa) = 186.88329 8.11877 97.50103
#
# Velocity S-wave (km/s) = 9.23747 1.92536 6.67225
# Velocity P-wave (km/s) = 11.10577 4.65708 8.51547
#
# Compressibility (1/GPa) = 0.04774354
#
# Stress axis : x y z
#
# Youngs Moduli (GPa) = 64.30642 35.29835 115.83857
#
# Poissons Ratio (x) = 0.10186 0.53621
# Poissons Ratio (y) = 0.18556 -0.59421
# Poissons Ratio (z) = 0.29767 -0.18107
#
# Static dielectric constant tensor:
#      x y z
#    x 1.807720 0.000000 -0.028260 
#    y 0.000000 1.818180 0.000000 
#    z -0.028260 0.000000 1.767260 
# 
# From -- ./inp_files/180677.got.cif
#   From: 2010.05.17/outbox.cif.g08.bks.cpg/sg12_91_cif.got.tgz:180677.got - 2010.06.03 13:09:07.
