data_PCOD9192092
_publ_section_title
;
Structure prediction by ZEFSAII (Michael W. Deem and Ramdas Pophale) SiO2 
 PCOD9192092
Probable space group: C 2/M
;
_chemical_formula_sum "Si O2"
_cell_formula_units_Z 56
_cell_length_a 19.636664
_cell_length_b 8.977341
_cell_length_c 19.812290
_cell_angle_alpha 90.000000
_cell_angle_beta 67.304500
_cell_angle_gamma 90.000000
_cell_volume 3222.171709
_symmetry_space_group_name_H-M "C 2/M"
_symmetry_group_IT_number 12
_symmetry_cell_setting 'monoclinic'
loop_
_space_group_symop_operation_xyz
x,y,z
-x,y,-z
-x,-y,-z
x,-y,z
1/2+x,1/2+y,z
1/2-x,1/2+y,-z
1/2-x,1/2-y,-z
1/2+x,1/2-y,z
loop_
_atom_site_type_symbol
_atom_site_label
_atom_site_fract_x
_atom_site_fract_y
_atom_site_fract_z
Si Si1 0.237450 0.321177 0.431437
Si Si2 0.809610 0.824293 0.063075
Si Si3 0.424877 0.819719 0.489932
Si Si4 0.100663 0.821079 0.648059
Si Si5 0.560292 0.825780 0.919491
Si Si6 0.507481 0.175295 0.202968
Si Si7 0.343813 0.322992 0.895166
O O1 0.237886 0.500000 0.436968
O O2 0.250000 0.250000 0.500000
O O3 0.153368 0.280746 0.442894
O O4 0.313997 0.280626 0.364795
O O5 0.869774 0.777002 0.094232
O O6 0.734494 0.734428 0.101308
O O7 0.794557 0.000000 0.069421
O O8 0.841906 0.786021 0.976209
O O9 0.500000 0.774839 0.500000
O O10 0.418190 0.747106 0.418348
O O11 0.427232 0.000000 0.481883
O O12 0.043774 0.757066 0.723668
O O13 0.095711 0.000000 0.646421
O O14 0.526568 0.805859 0.858706
O O15 0.419078 0.000000 0.079830
O O16 0.500000 0.791281 0.000000
O O17 0.589028 0.242895 0.167185
O O18 0.510553 0.000000 0.217081
O O19 0.350612 0.500000 0.886084
#
# Coordination Sequence:
#
# PCOD9192092 Si02
#       7
#     8   8   8   8   8   8   8
#     4   8  15  29  50  75 102 134 170 206 247 300
#     4  10  20  33  53  78 103 133 174 222 271 326
#     4   9  17  32  56  83 108 137 175 217 260 310
#     4  10  20  34  52  76 108 142 176 216 265 320
#     4  10  20  35  54  76 103 137 179 229 276 320
#     4  11  22  36  55  77 105 141 182 226 277 328
#     4  10  20  34  53  76 104 137 174 219 271 326
#
# _framework density 17.379583
#
# number of rings (size 3 to 8) (size 9 to 14) (size 15 to 20)
#    0.000    2.286    1.429    1.714    0.000    3.429 
#    0.000    1.429    0.000    5.143    0.000    0.000 
#    0.000    0.000    0.000    0.000    0.000    0.000 
#
# Total GULP energy -156057.777246 kJ/mol
# GULP energy per Si atom -5573.492045 kJ/mol
# Density = 1.734003 g / cm^3
# Si number density = 17.379583 Si / 1000 Ang^3
#
#
#
# Elastic Constant Matrix: (Units=GPa)
#
#
# Indices 1 2 3 4 5 6 
#
# 1 121.5411 43.7875 45.9895 0.0000 -27.3334 0.0000
# 2 43.7875 35.2564 35.1858 0.0000 -10.9178 0.0000
# 3 45.9895 35.1858 80.0488 0.0000 -29.1713 0.0000
# 4 0.0000 0.0000 0.0000 20.6694 0.0000 -1.1010
# 5 -27.3334 -10.9178 -29.1713 0.0000 27.3414 0.0000
# 6 0.0000 0.0000 0.0000 -1.1010 0.0000 27.9558
#
#
#
# Elastic Compliance Matrix: (Units=1/GPa)
#
#
# Indices 1 2 3 4 5 6 
#
# 1 0.017525 -0.022184 0.004645 0.000000 0.013617 0.000000
# 2 -0.022184 0.079173 -0.030459 0.000000 -0.023061 0.000000
# 3 0.004645 -0.030459 0.033495 0.000000 0.028218 0.000000
# 4 0.000000 0.000000 0.000000 0.048482 0.000000 0.001909
# 5 0.013617 -0.023061 0.028218 0.000000 0.071086 0.000000
# 6 0.000000 0.000000 0.000000 0.001909 0.000000 0.035846
#
#
# Mechanical properties :
#
#
# Convention : Reuss Voigt Hill
#
# Bulk Modulus (GPa) = 29.24283 54.08575 41.66429
# Shear Modulus (GPa) = 12.72257 22.65222 17.68740
#
# Velocity S-wave (km/s) = 2.70856 3.61415 3.19362
# Velocity P-wave (km/s) = 5.16181 6.97166 6.13385
#
# Compressibility (1/GPa) = 0.03419641
#
# Stress axis : x y z
#
# Youngs Moduli (GPa) = 57.06259 12.63059 29.85497
#
# Poissons Ratio (x) = 0.28020 -0.13869
# Poissons Ratio (y) = 1.26589 0.90936
# Poissons Ratio (z) = -0.26508 0.38472
#
# Static dielectric constant tensor:
#      x y z
#    x 1.603500 0.000000 -0.023780 
#    y 0.000000 1.575010 0.000000 
#    z -0.023780 0.000000 1.567080 
# 
# From -- ./inp_files/275264.got.cif
#   From: 2010.05.17/outbox.cif.g08.bks.cpg/sg12_138_cif.got.tgz:275264.got - 2010.06.03 13:09:07.
