data_PCOD9192363
_publ_section_title
;
Structure prediction by ZEFSAII (Michael W. Deem and Ramdas Pophale) SiO2 
 PCOD9192363
Probable space group: C 2/M
;
_chemical_formula_sum "Si O2"
_cell_formula_units_Z 64
_cell_length_a 20.044667
_cell_length_b 7.382522
_cell_length_c 24.546034
_cell_angle_alpha 90.000000
_cell_angle_beta 53.478426
_cell_angle_gamma 90.000000
_cell_volume 2919.057149
_symmetry_space_group_name_H-M "C 2/M"
_symmetry_group_IT_number 12
_symmetry_cell_setting 'monoclinic'
loop_
_space_group_symop_operation_xyz
x,y,z
-x,y,-z
-x,-y,-z
x,-y,z
1/2+x,1/2+y,z
1/2-x,1/2+y,-z
1/2-x,1/2-y,-z
1/2+x,1/2-y,z
loop_
_atom_site_type_symbol
_atom_site_label
_atom_site_fract_x
_atom_site_fract_y
_atom_site_fract_z
Si Si1 0.367926 0.780319 0.206702
Si Si2 0.907403 0.778559 0.561171
Si Si3 0.751333 0.783840 0.563571
Si Si4 0.897743 0.283682 0.788276
Si Si5 0.182016 0.216137 0.287363
Si Si6 0.156112 0.283370 0.065408
Si Si7 0.008237 0.721534 0.058054
Si Si8 0.080388 0.280377 0.698738
O O1 0.274335 0.712981 0.252939
O O2 0.425559 0.720587 0.129739
O O3 0.411969 0.736226 0.241559
O O4 0.364182 0.000000 0.205918
O O5 0.833845 0.719523 0.555386
O O6 0.880772 0.719856 0.635065
O O7 0.000000 0.718783 0.500000
O O8 0.908940 0.000000 0.559130
O O9 0.750000 0.750000 0.500000
O O10 0.663863 0.713092 0.629500
O O11 0.751154 0.000000 0.572695
O O12 0.905260 0.500000 0.791078
O O13 0.840840 0.250838 0.763859
O O14 0.864614 0.215664 0.863053
O O15 0.989316 0.215094 0.726820
O O16 0.184714 0.000000 0.293139
O O17 0.146338 0.500000 0.072359
O O18 0.088584 0.218524 0.053724
O O19 0.250000 0.250000 0.000000
O O20 0.010619 0.500000 0.056623
O O21 0.000000 0.780805 0.000000
O O22 0.081358 0.500000 0.692148
#
# Coordination Sequence:
#
# PCOD9192363 Si02
#       8
#     8   8   8   8   8   8   8   8
#     4   9  15  29  52  75  97 126 173 222 250 285
#     4   9  18  33  51  74 107 140 168 207 261 311
#     4  10  20  34  54  78 104 137 175 215 260 308
#     4  10  21  36  53  75 107 142 170 207 265 319
#     4  10  20  33  55  82 102 131 177 221 257 300
#     4  10  21  36  54  77 107 140 171 211 263 315
#     4   9  17  29  49  77 102 127 166 215 256 288
#     4   9  16  32  54  72  97 137 180 213 249 304
#
# _framework density 21.924886999999998
#
# number of rings (size 3 to 8) (size 9 to 14) (size 15 to 20)
#    0.000    2.500    2.500    0.000    3.500    0.500 
#    0.000    0.625    0.000    2.625    0.000    0.000 
#    0.000    0.000    0.000    0.000    0.000    0.000 
#
# Total GULP energy -178626.782827 kJ/mol
# GULP energy per Si atom -5582.086963 kJ/mol
# Density = 2.187498 g / cm^3
# Si number density = 21.924887 Si / 1000 Ang^3
#
#
#
# Elastic Constant Matrix: (Units=GPa)
#
#
# Indices 1 2 3 4 5 6 
#
# 1 68.9887 -4.5623 13.0602 -0.0012 -4.2836 -0.0021
# 2 -4.5623 75.5753 -3.2598 -0.0049 -3.2369 -0.0068
# 3 13.0602 -3.2598 130.2537 -0.0001 -3.9212 -0.0001
# 4 -0.0012 -0.0049 -0.0001 8.3270 0.0001 9.4060
# 5 -4.2836 -3.2369 -3.9212 0.0001 40.7882 -0.0003
# 6 -0.0021 -0.0068 -0.0001 9.4060 -0.0003 3.8148
#
#
#
# Elastic Compliance Matrix: (Units=1/GPa)
#
#
# Indices 1 2 3 4 5 6 
#
# 1 0.014918 0.000903 -0.001428 0.000005 0.001501 -0.000002
# 2 0.000903 0.013349 0.000279 0.000011 0.001181 -0.000003
# 3 -0.001428 0.000279 0.007846 0.000000 0.000626 0.000000
# 4 0.000005 0.000011 0.000000 -0.067273 0.000003 0.165871
# 5 0.001501 0.001181 0.000626 0.000003 0.024828 -0.000002
# 6 -0.000002 -0.000003 0.000000 0.165871 -0.000002 -0.146843
#
#
# Mechanical properties :
#
#
# Convention : Reuss Voigt Hill
#
# Bulk Modulus (GPa) = 28.07223 31.69931 29.88577
# Shear Modulus (GPa) = -35.50926 28.55800 -3.47563
#
# Velocity S-wave (km/s) = -4.02878 3.61298 -1.26043
# Velocity P-wave (km/s) = 2.96812 5.64751 3.39740
#
# Compressibility (1/GPa) = 0.03562239
#
# Stress axis : x y z
#
# Youngs Moduli (GPa) = 67.03127 74.91209 127.44772
#
# Poissons Ratio (x) = -0.06767 0.18200
# Poissons Ratio (y) = -0.06055 -0.03557
# Poissons Ratio (z) = 0.09572 -0.02091
#
# Static dielectric constant tensor:
#      x y z
#    x 0.889580 -0.000210 0.071030 
#    y -0.000210 1.893010 0.000010 
#    z 0.071030 0.000010 1.786310 
# 
# From -- ./inp_files/315333.got.cif
#   From: 2010.05.17/outbox.cif.g08.bks.cpg/sg12_158_cif.got.tgz:315333.got - 2010.06.03 13:09:07.
