data_PCOD9192985
_publ_section_title
;
Structure prediction by ZEFSAII (Michael W. Deem and Ramdas Pophale) SiO2 
 PCOD9192985
Probable space group: C 2/M
;
_chemical_formula_sum "Si O2"
_cell_formula_units_Z 56
_cell_length_a 19.410603
_cell_length_b 9.339488
_cell_length_c 25.197373
_cell_angle_alpha 90.000000
_cell_angle_beta 138.503007
_cell_angle_gamma 90.000000
_cell_volume 3026.607950
_symmetry_space_group_name_H-M "C 2/M"
_symmetry_group_IT_number 12
_symmetry_cell_setting 'monoclinic'
loop_
_space_group_symop_operation_xyz
x,y,z
-x,y,-z
-x,-y,-z
x,-y,z
1/2+x,1/2+y,z
1/2-x,1/2+y,-z
1/2-x,1/2-y,-z
1/2+x,1/2-y,z
loop_
_atom_site_type_symbol
_atom_site_label
_atom_site_fract_x
_atom_site_fract_y
_atom_site_fract_z
Si Si1 0.201945 0.668491 0.422969
Si Si2 0.621739 0.168806 0.068915
Si Si3 0.498384 0.667077 0.815086
Si Si4 0.281750 0.172074 0.685759
Si Si5 0.955615 0.669828 0.261949
Si Si6 0.802876 0.168957 0.252554
Si Si7 0.178282 0.165597 0.999295
O O1 0.219600 0.500000 0.440406
O O2 0.250000 0.750000 0.500000
O O3 0.248877 0.709211 0.392316
O O4 0.077502 0.691077 0.346806
O O5 0.687688 0.188399 0.160642
O O6 0.627664 0.000000 0.058605
O O7 0.500000 0.207178 0.000000
O O8 0.675930 0.260822 0.054734
O O9 0.485231 0.500000 0.793288
O O10 0.388882 0.745519 0.758022
O O11 0.558057 0.747834 0.801726
O O12 0.564300 0.673992 0.906856
O O13 0.203861 0.203930 0.688945
O O14 0.301558 0.000000 0.698194
O O15 0.937648 0.500000 0.245489
O O16 0.882554 0.737466 0.264614
O O17 0.828689 0.000000 0.261564
O O18 0.209165 0.000000 0.020549
O O19 0.250000 0.250000 0.000000
#
# Coordination Sequence:
#
# PCOD9192985 Si02
#       7
#     8   8   8   8   8   8   8
#     4   9  19  36  58  83 108 136 171 210 256 313
#     4  10  21  36  54  76 104 141 182 224 272 319
#     4  10  20  34  52  75 101 134 180 224 263 313
#     4   9  19  36  57  80 106 137 173 212 257 311
#     4  10  21  36  55  80 109 141 176 216 265 316
#     4  10  20  35  55  79 107 140 180 222 264 314
#     4  11  23  35  49  72 102 136 177 225 271 315
#
# _framework density 18.502562999999999
#
# number of rings (size 3 to 8) (size 9 to 14) (size 15 to 20)
#    0.000    2.143    0.000    3.857    0.000   11.143 
#    0.000    0.714    0.000    4.286    0.000    0.000 
#    0.000    0.000    0.000    0.000    0.000    0.000 
#
# Total GULP energy -156297.320574 kJ/mol
# GULP energy per Si atom -5582.047163 kJ/mol
# Density = 1.846045 g / cm^3
# Si number density = 18.502563 Si / 1000 Ang^3
#
#
#
# Elastic Constant Matrix: (Units=GPa)
#
#
# Indices 1 2 3 4 5 6 
#
# 1 98.2245 43.3444 17.0401 0.0000 -26.0714 0.0000
# 2 43.3444 47.9709 25.7873 0.0000 -14.0974 0.0000
# 3 17.0401 25.7873 61.1613 0.0000 -24.2148 0.0000
# 4 0.0000 0.0000 0.0000 30.0193 0.0000 0.7620
# 5 -26.0714 -14.0974 -24.2148 0.0000 24.0275 0.0000
# 6 0.0000 0.0000 0.0000 0.7620 0.0000 32.9620
#
#
#
# Elastic Compliance Matrix: (Units=1/GPa)
#
#
# Indices 1 2 3 4 5 6 
#
# 1 0.024371 -0.020927 0.012715 0.000000 0.026980 0.000000
# 2 -0.020927 0.045708 -0.019657 0.000000 -0.015700 0.000000
# 3 0.012715 -0.019657 0.036593 0.000000 0.039142 0.000000
# 4 0.000000 0.000000 0.000000 0.033332 0.000000 -0.000771
# 5 0.026980 -0.015700 0.039142 0.000000 0.101130 0.000000
# 6 0.000000 0.000000 0.000000 -0.000771 0.000000 0.030356
#
#
# Mechanical properties :
#
#
# Convention : Reuss Voigt Hill
#
# Bulk Modulus (GPa) = 19.63332 42.18891 30.91112
# Shear Modulus (GPa) = 14.52629 25.48074 20.00352
#
# Velocity S-wave (km/s) = 2.80500 3.71502 3.29161
# Velocity P-wave (km/s) = 4.59618 6.42285 5.58470
#
# Compressibility (1/GPa) = 0.05093381
#
# Stress axis : x y z
#
# Youngs Moduli (GPa) = 41.03277 21.87814 27.32800
#
# Poissons Ratio (x) = 0.45784 -0.34749
# Poissons Ratio (y) = 0.85869 0.53719
# Poissons Ratio (z) = -0.52175 0.43006
#
# Static dielectric constant tensor:
#      x y z
#    x 1.634470 0.000000 0.003250 
#    y 0.000000 1.616640 0.000000 
#    z 0.003250 0.000000 1.641650 
# 
# From -- ./inp_files/342527.got.cif
#   From: 2010.05.17/outbox.cif.g08.bks.cpg/sg12_172_cif.got.tgz:342527.got - 2010.06.03 13:09:07.
