data_PCOD9192163
_publ_section_title
;
Structure prediction by ZEFSAII (Michael W. Deem and Ramdas Pophale) SiO2 
 PCOD9192163
Probable space group: C 2/M
;
_chemical_formula_sum "Si O2"
_cell_formula_units_Z 64
_cell_length_a 15.479796
_cell_length_b 8.602968
_cell_length_c 25.194339
_cell_angle_alpha 90.000000
_cell_angle_beta 90.049290
_cell_angle_gamma 90.000000
_cell_volume 3355.184049
_symmetry_space_group_name_H-M "C 2/M"
_symmetry_group_IT_number 12
_symmetry_cell_setting 'monoclinic'
loop_
_space_group_symop_operation_xyz
x,y,z
-x,y,-z
-x,-y,-z
x,-y,z
1/2+x,1/2+y,z
1/2-x,1/2+y,-z
1/2-x,1/2-y,-z
1/2+x,1/2-y,z
loop_
_atom_site_type_symbol
_atom_site_label
_atom_site_fract_x
_atom_site_fract_y
_atom_site_fract_z
Si Si1 0.528009 0.810874 0.941057
Si Si2 0.627719 0.813346 0.133997
Si Si3 0.275392 0.187004 0.058002
Si Si4 0.273887 0.814565 0.331843
Si Si5 0.271362 0.674886 0.443792
Si Si6 0.021281 0.177005 0.556420
Si Si7 0.467262 0.688728 0.328693
Si Si8 0.878399 0.811926 0.747289
O O1 0.458218 0.760376 0.897719
O O2 0.626148 0.763611 0.930151
O O3 0.526699 0.000000 0.941713
O O4 0.500000 0.759287 0.000000
O O5 0.709169 0.750010 0.101341
O O6 0.626905 0.754804 0.193978
O O7 0.629890 0.000000 0.133068
O O8 0.272154 0.000000 0.056859
O O9 0.250000 0.250000 0.000000
O O10 0.244246 0.766131 0.391041
O O11 0.369316 0.746010 0.321373
O O12 0.203291 0.763162 0.288736
O O13 0.280191 0.000000 0.330056
O O14 0.236777 0.500000 0.441814
O O15 0.250000 0.750000 0.500000
O O16 0.375307 0.667680 0.441048
O O17 0.997379 0.245341 0.613634
O O18 0.000000 0.254274 0.500000
O O19 0.984476 0.000000 0.554203
O O20 0.465094 0.500000 0.331668
O O21 0.533458 0.734675 0.282817
O O22 0.877483 0.000000 0.749864
#
# Coordination Sequence:
#
# PCOD9192163 Si02
#       8
#     8   8   8   8   8   8   8   8
#     4   9  18  36  60  85 119 158 190 228 288 348
#     4  11  23  40  61  88 119 155 200 244 290 344
#     4  11  21  37  62  90 124 160 196 238 288 346
#     4  10  21  38  60  83 114 153 194 239 296 355
#     4  10  20  33  53  81 114 147 186 236 292 351
#     4   8  15  28  51  78 103 137 181 225 277 343
#     4   9  19  37  59  82 112 150 194 242 289 343
#     4  10  23  41  61  84 115 159 201 238 288 353
#
# _framework density 19.074960000000001
#
# number of rings (size 3 to 8) (size 9 to 14) (size 15 to 20)
#    0.000    2.250    1.250    2.250    1.750    2.500 
#    0.000    6.875    0.000    1.875    0.000    0.000 
#    0.000    0.000    0.000    0.000    0.000    0.000 
#
# Total GULP energy -178549.686893 kJ/mol
# GULP energy per Si atom -5579.677715 kJ/mol
# Density = 1.903154 g / cm^3
# Si number density = 19.074960 Si / 1000 Ang^3
#
#
#
# Elastic Constant Matrix: (Units=GPa)
#
#
# Indices 1 2 3 4 5 6 
#
# 1 137.8694 30.8958 101.9052 0.0000 -1.9244 0.0000
# 2 30.8958 32.9527 38.7589 0.0000 -2.5658 0.0000
# 3 101.9052 38.7589 205.5032 0.0000 -5.4297 0.0000
# 4 0.0000 0.0000 0.0000 31.6298 0.0000 -0.6685
# 5 -1.9244 -2.5658 -5.4297 0.0000 37.2263 0.0000
# 6 0.0000 0.0000 0.0000 -0.6685 0.0000 23.1057
#
#
#
# Elastic Compliance Matrix: (Units=1/GPa)
#
#
# Indices 1 2 3 4 5 6 
#
# 1 0.012201 -0.005585 -0.005010 0.000000 -0.000485 0.000000
# 2 -0.005585 0.041651 -0.005038 0.000000 0.001847 0.000000
# 3 -0.005010 -0.005038 0.008316 0.000000 0.000607 0.000000
# 4 0.000000 0.000000 0.000000 0.031635 0.000000 0.000915
# 5 -0.000485 0.001847 0.000607 0.000000 0.027054 0.000000
# 6 0.000000 0.000000 0.000000 0.000915 0.000000 0.043306
#
#
# Mechanical properties :
#
#
# Convention : Reuss Voigt Hill
#
# Bulk Modulus (GPa) = 32.35716 79.93833 56.14775
# Shear Modulus (GPa) = 24.30386 32.04339 28.17363
#
# Velocity S-wave (km/s) = 3.57336 4.10306 3.84734
# Velocity P-wave (km/s) = 5.83311 8.02778 7.01678
#
# Compressibility (1/GPa) = 0.03090506
#
# Stress axis : x y z
#
# Youngs Moduli (GPa) = 81.96161 24.00874 120.24354
#
# Poissons Ratio (x) = 0.13408 0.60238
# Poissons Ratio (y) = 0.45772 0.60573
# Poissons Ratio (z) = 0.41060 0.12095
#
# Static dielectric constant tensor:
#      x y z
#    x 1.658350 0.000000 0.005320 
#    y 0.000000 1.667970 0.000000 
#    z 0.005320 0.000000 1.655530 
# 
# From -- ./inp_files/338898.got.cif
#   From: 2010.05.17/outbox.cif.g08.bks.cpg/sg12_170_cif.got.tgz:338898.got - 2010.06.03 13:09:07.
