data_PCOD9192177
_publ_section_title
;
Structure prediction by ZEFSAII (Michael W. Deem and Ramdas Pophale) SiO2 
 PCOD9192177
Probable space group: C 2/M
;
_chemical_formula_sum "Si O2"
_cell_formula_units_Z 56
_cell_length_a 15.921463
_cell_length_b 10.017904
_cell_length_c 26.753311
_cell_angle_alpha 90.000000
_cell_angle_beta 36.146231
_cell_angle_gamma 90.000000
_cell_volume 2516.967306
_symmetry_space_group_name_H-M "C 2/M"
_symmetry_group_IT_number 12
_symmetry_cell_setting 'monoclinic'
loop_
_space_group_symop_operation_xyz
x,y,z
-x,y,-z
-x,-y,-z
x,-y,z
1/2+x,1/2+y,z
1/2-x,1/2+y,-z
1/2-x,1/2-y,-z
1/2+x,1/2-y,z
loop_
_atom_site_type_symbol
_atom_site_label
_atom_site_fract_x
_atom_site_fract_y
_atom_site_fract_z
Si Si1 0.419347 0.847379 0.888125
Si Si2 0.673633 0.842763 0.964783
Si Si3 0.962738 0.649841 0.272385
Si Si4 0.712737 0.338087 0.193366
Si Si5 0.648224 0.139345 0.529563
Si Si6 0.320728 0.152240 0.699997
Si Si7 0.345101 0.261365 0.576690
O O1 0.302362 0.743555 0.925163
O O2 0.536902 0.840113 0.788587
O O3 0.363280 0.000000 0.911766
O O4 0.445219 0.825112 0.934720
O O5 0.671934 0.811217 0.906588
O O6 0.707397 0.000000 0.948656
O O7 0.018816 0.500000 0.257610
O O8 0.799311 0.661045 0.367213
O O9 0.066263 0.767190 0.242917
O O10 0.700318 0.500000 0.206323
O O11 0.740606 0.258288 0.231181
O O12 0.750000 0.250000 0.500000
O O13 0.491172 0.148949 0.627438
O O14 0.636194 0.152372 0.475694
O O15 0.715120 0.000000 0.511011
O O16 0.315178 0.198215 0.645150
O O17 0.265639 0.000000 0.732183
O O18 0.500000 0.333198 0.500000
#
# Coordination Sequence:
#
# PCOD9192177 Si02
#       7
#     8   8   8   8   8   8   8
#     4   8  14  26  46  72 102 134 168 209 255 305
#     4   8  14  26  45  72 105 136 166 204 254 307
#     4  10  20  34  54  80 107 137 177 221 264 311
#     4  10  20  33  53  82 112 140 172 213 260 312
#     4  10  21  37  57  79 102 130 169 215 263 315
#     4  10  21  37  55  75 102 138 178 217 260 310
#     4  10  22  38  55  76 103 138 178 220 263 308
#
# _framework density 22.248999000000001
#
# number of rings (size 3 to 8) (size 9 to 14) (size 15 to 20)
#    0.000    2.571    0.000    1.714    0.000    7.714 
#    0.000    2.857    0.000    0.857    0.000    5.000 
#    0.000    0.000    0.000    0.000    0.000    0.000 
#
# Total GULP energy -155950.977784 kJ/mol
# GULP energy per Si atom -5569.677778 kJ/mol
# Density = 2.219836 g / cm^3
# Si number density = 22.248999 Si / 1000 Ang^3
#
#
#
# Elastic Constant Matrix: (Units=GPa)
#
#
# Indices 1 2 3 4 5 6 
#
# 1 77.2627 41.1307 35.3964 0.0000 31.3563 0.0000
# 2 41.1307 106.8446 53.3145 0.0000 20.6816 0.0000
# 3 35.3964 53.3145 144.1958 0.0000 42.6093 0.0000
# 4 0.0000 0.0000 0.0000 15.9609 0.0000 2.8265
# 5 31.3563 20.6816 42.6093 0.0000 50.4426 0.0000
# 6 0.0000 0.0000 0.0000 2.8265 0.0000 -8.2092
#
#
#
# Elastic Compliance Matrix: (Units=1/GPa)
#
#
# Indices 1 2 3 4 5 6 
#
# 1 0.020152 -0.005900 0.000295 0.000000 -0.010357 0.000000
# 2 -0.005900 0.013289 -0.003917 0.000000 0.001527 0.000000
# 3 0.000295 -0.003917 0.010515 0.000000 -0.007460 0.000000
# 4 0.000000 0.000000 0.000000 0.059053 0.000000 0.020332
# 5 -0.010357 0.001527 -0.007460 0.000000 0.031938 0.000000
# 6 0.000000 0.000000 0.000000 0.020332 0.000000 -0.114814
#
#
# Mechanical properties :
#
#
# Convention : Reuss Voigt Hill
#
# Bulk Modulus (GPa) = 40.13919 65.33182 52.73550
# Shear Modulus (GPa) = 105.30636 24.86963 65.08800
#
# Velocity S-wave (km/s) = 6.88720 3.34696 5.41460
# Velocity P-wave (km/s) = 9.01803 6.66062 7.92744
#
# Compressibility (1/GPa) = 0.02491331
#
# Stress axis : x y z
#
# Youngs Moduli (GPa) = 49.62313 75.24804 95.10231
#
# Poissons Ratio (x) = 0.44397 -0.02808
# Poissons Ratio (y) = 0.29278 0.37247
# Poissons Ratio (z) = -0.01465 0.29471
#
# Static dielectric constant tensor:
#      x y z
#    x 1.865580 0.000000 0.042560 
#    y 0.000000 1.778130 0.000000 
#    z 0.042560 0.000000 1.865330 
# 
# From -- ./inp_files/362978.got.cif
#   From: 2010.05.17/outbox.cif.g08.bks.cpg/sg12_182_cif.got.tgz:362978.got - 2010.06.03 13:09:07.
