data_PCOD9192800
_publ_section_title
;
Structure prediction by ZEFSAII (Michael W. Deem and Ramdas Pophale) SiO2 
 PCOD9192800
Probable space group: C 2/M
;
_chemical_formula_sum "Si O2"
_cell_formula_units_Z 64
_cell_length_a 14.635381
_cell_length_b 7.650172
_cell_length_c 31.276232
_cell_angle_alpha 90.000000
_cell_angle_beta 61.277574
_cell_angle_gamma 90.000000
_cell_volume 3070.920112
_symmetry_space_group_name_H-M "C 2/M"
_symmetry_group_IT_number 12
_symmetry_cell_setting 'monoclinic'
loop_
_space_group_symop_operation_xyz
x,y,z
-x,y,-z
-x,-y,-z
x,-y,z
1/2+x,1/2+y,z
1/2-x,1/2+y,-z
1/2-x,1/2-y,-z
1/2+x,1/2-y,z
loop_
_atom_site_type_symbol
_atom_site_label
_atom_site_fract_x
_atom_site_fract_y
_atom_site_fract_z
Si Si1 0.283876 0.288768 0.212017
Si Si2 0.560558 0.702317 0.616672
Si Si3 0.665458 0.202423 0.321281
Si Si4 0.944497 0.710382 0.055221
Si Si5 0.511138 0.290098 0.133841
Si Si6 0.290063 0.214971 0.594103
Si Si7 0.282281 0.709363 0.866734
Si Si8 0.367977 0.791844 0.488908
O O1 0.286777 0.500000 0.213526
O O2 0.228958 0.221420 0.267269
O O3 0.402227 0.224690 0.178395
O O4 0.221566 0.243690 0.182968
O O5 0.554888 0.500000 0.629680
O O6 0.458237 0.790792 0.658139
O O7 0.672340 0.768882 0.607978
O O8 0.561835 0.717878 0.564759
O O9 0.685151 0.278391 0.364022
O O10 0.697578 0.000000 0.317283
O O11 0.938407 0.500000 0.053273
O O12 0.007128 0.751245 0.084372
O O13 0.826635 0.777193 0.089143
O O14 0.000000 0.776764 0.000000
O O15 0.510202 0.500000 0.138909
O O16 0.614317 0.221647 0.133716
O O17 0.367532 0.269597 0.538195
O O18 0.293250 0.000000 0.592533
O O19 0.281462 0.500000 0.872720
O O20 0.250000 0.750000 0.500000
O O21 0.384917 0.000000 0.484909
#
# Coordination Sequence:
#
# PCOD9192800 Si02
#       8
#     8   8   8   8   8   8   8   8
#     4   9  19  34  51  71  96 124 161 209 253 292
#     4  10  20  34  51  74 100 128 162 201 246 298
#     4  10  20  35  52  71  95 126 162 201 247 299
#     4   9  18  32  49  74 109 141 167 203 251 297
#     4   9  18  33  52  74  98 131 174 211 244 290
#     4   8  17  33  52  71  95 128 162 193 238 299
#     4   9  18  33  53  74  99 133 170 205 246 296
#     4   9  16  30  51  73  98 130 164 200 243 296
#
# _framework density 20.84066
#
# number of rings (size 3 to 8) (size 9 to 14) (size 15 to 20)
#    0.000    2.875    0.000    1.500    0.000    3.250 
#    0.000    8.750    0.000    0.000    0.000    0.000 
#    0.000    0.000    0.000    0.000    0.000    0.000 
#
# Total GULP energy -178505.940025 kJ/mol
# GULP energy per Si atom -5578.310626 kJ/mol
# Density = 2.079323 g / cm^3
# Si number density = 20.840660 Si / 1000 Ang^3
#
#
#
# Elastic Constant Matrix: (Units=GPa)
#
#
# Indices 1 2 3 4 5 6 
#
# 1 127.5395 0.2449 71.5130 0.0000 7.6327 0.0000
# 2 0.2449 36.3971 -2.8239 0.0000 -1.3881 0.0000
# 3 71.5130 -2.8239 166.5332 0.0000 3.1624 0.0000
# 4 0.0000 0.0000 0.0000 16.7946 0.0000 5.2716
# 5 7.6327 -1.3881 3.1624 0.0000 9.1767 0.0000
# 6 0.0000 0.0000 0.0000 5.2716 0.0000 3.2406
#
#
#
# Elastic Compliance Matrix: (Units=1/GPa)
#
#
# Indices 1 2 3 4 5 6 
#
# 1 0.010828 -0.000712 -0.004518 0.000000 -0.007557 0.000000
# 2 -0.000712 0.027706 0.000689 0.000000 0.004545 0.000000
# 3 -0.004518 0.000689 0.007935 0.000000 0.001128 0.000000
# 4 0.000000 0.000000 0.000000 0.121666 0.000000 -0.197915
# 5 -0.007557 0.004545 0.001128 0.000000 0.115556 0.000000
# 6 0.000000 0.000000 0.000000 -0.197915 0.000000 0.630533
#
#
# Mechanical properties :
#
#
# Convention : Reuss Voigt Hill
#
# Bulk Modulus (GPa) = 26.74667 52.03754 39.39211
# Shear Modulus (GPa) = 5.34321 23.27811 14.31066
#
# Velocity S-wave (km/s) = 1.60294 3.34572 2.62328
# Velocity P-wave (km/s) = 4.03579 6.32048 5.30265
#
# Compressibility (1/GPa) = 0.03738783
#
# Stress axis : x y z
#
# Youngs Moduli (GPa) = 92.35541 36.09286 126.01900
#
# Poissons Ratio (x) = 0.02568 0.56938
# Poissons Ratio (y) = 0.06572 -0.08684
# Poissons Ratio (z) = 0.41728 -0.02487
#
# Static dielectric constant tensor:
#      x y z
#    x 1.750790 0.000000 -0.007670 
#    y 0.000000 1.770290 0.000000 
#    z -0.007670 0.000000 1.738900 
# 
# From -- ./inp_files/374993.got.cif
#   From: 2010.05.17/outbox.cif.g08.bks.cpg/sg12_188_cif.got.tgz:374993.got - 2010.06.03 13:09:07.
