data_PCOD9192173
_publ_section_title
;
Structure prediction by ZEFSAII (Michael W. Deem and Ramdas Pophale) SiO2 
 PCOD9192173
Probable space group: C 2/M
;
_chemical_formula_sum "Si O2"
_cell_formula_units_Z 64
_cell_length_a 20.351471
_cell_length_b 8.952885
_cell_length_c 31.620073
_cell_angle_alpha 90.000000
_cell_angle_beta 35.943017
_cell_angle_gamma 90.000000
_cell_volume 3381.779217
_symmetry_space_group_name_H-M "C 2/M"
_symmetry_group_IT_number 12
_symmetry_cell_setting 'monoclinic'
loop_
_space_group_symop_operation_xyz
x,y,z
-x,y,-z
-x,-y,-z
x,-y,z
1/2+x,1/2+y,z
1/2-x,1/2+y,-z
1/2-x,1/2-y,-z
1/2+x,1/2-y,z
loop_
_atom_site_type_symbol
_atom_site_label
_atom_site_fract_x
_atom_site_fract_y
_atom_site_fract_z
Si Si1 0.772005 0.179523 0.364490
Si Si2 0.951930 0.330295 0.477157
Si Si3 0.073739 0.820860 0.922360
Si Si4 0.990766 0.679824 0.738497
Si Si5 0.680462 0.823864 0.097518
Si Si6 0.167288 0.822883 0.334971
Si Si7 0.691601 0.820057 0.232520
Si Si8 0.595835 0.174704 0.046482
O O1 0.675836 0.218154 0.449163
O O2 0.734388 0.250294 0.339301
O O3 0.892037 0.239306 0.315907
O O4 0.771004 0.000000 0.360819
O O5 0.956965 0.500000 0.457374
O O6 0.000000 0.336599 0.500000
O O7 0.037071 0.224586 0.408377
O O8 0.203557 0.778192 0.852130
O O9 0.011143 0.765025 0.913200
O O10 0.070252 0.000000 0.925878
O O11 0.000000 0.762632 0.000000
O O12 0.007300 0.500000 0.730908
O O13 0.905887 0.717672 0.820982
O O14 0.924109 0.718742 0.730468
O O15 0.622277 0.803867 0.082193
O O16 0.708347 0.000000 0.088186
O O17 0.795635 0.733688 0.035337
O O18 0.205277 0.757321 0.270418
O O19 0.180023 0.000000 0.329904
O O20 0.694075 0.000000 0.236536
O O21 0.579219 0.000000 0.047455
#
# Coordination Sequence:
#
# PCOD9192173 Si02
#       8
#     8   8   8   8   8   8   8   8
#     4  10  21  37  60  89 119 151 189 232 284 345
#     4   8  16  34  58  84 116 150 185 231 284 338
#     4  10  21  38  59  79 106 148 194 234 281 343
#     4  10  21  38  59  82 113 152 193 238 285 338
#     4   9  19  36  55  77 110 146 182 229 285 338
#     4  11  22  36  59  88 118 150 191 240 283 333
#     4  10  22  39  58  82 115 155 194 235 291 346
#     4  10  20  33  53  82 110 139 183 235 284 335
#
# _framework density 18.924949000000002
#
# number of rings (size 3 to 8) (size 9 to 14) (size 15 to 20)
#    0.000    2.250    0.000    3.375    1.750    7.000 
#    0.000    1.875    0.000    0.000    0.000    0.000 
#    0.000    0.000    0.000    0.000    0.000    0.000 
#
# Total GULP energy -178616.809936 kJ/mol
# GULP energy per Si atom -5581.775311 kJ/mol
# Density = 1.888188 g / cm^3
# Si number density = 18.924949 Si / 1000 Ang^3
#
#
#
# Elastic Constant Matrix: (Units=GPa)
#
#
# Indices 1 2 3 4 5 6 
#
# 1 68.4531 31.5308 45.4363 0.0000 -20.7241 -0.0003
# 2 31.5308 32.8466 35.7230 -0.0001 -3.5784 -0.0006
# 3 45.4363 35.7230 79.8024 0.0000 -16.3392 0.0000
# 4 0.0000 -0.0001 0.0000 19.6814 0.0001 -3.1154
# 5 -20.7241 -3.5784 -16.3392 0.0001 27.4135 0.0000
# 6 -0.0003 -0.0006 0.0000 -3.1154 0.0000 25.4129
#
#
#
# Elastic Compliance Matrix: (Units=1/GPa)
#
#
# Indices 1 2 3 4 5 6 
#
# 1 0.037262 -0.029681 -0.003366 0.000000 0.022289 0.000000
# 2 -0.029681 0.085083 -0.026776 0.000001 -0.027290 0.000002
# 3 -0.003366 -0.026776 0.028699 0.000000 0.011066 -0.000001
# 4 0.000000 0.000001 0.000000 0.051815 0.000000 0.006352
# 5 0.022289 -0.027290 0.011066 0.000000 0.056361 0.000000
# 6 0.000000 0.000002 -0.000001 0.006352 0.000000 0.040129
#
#
# Mechanical properties :
#
#
# Convention : Reuss Voigt Hill
#
# Bulk Modulus (GPa) = 31.84678 45.16468 38.50573
# Shear Modulus (GPa) = 11.64257 19.06238 15.35247
#
# Velocity S-wave (km/s) = 2.48301 3.17718 2.85130
# Velocity P-wave (km/s) = 5.00848 6.11361 5.58843
#
# Compressibility (1/GPa) = 0.03140035
#
# Stress axis : x y z
#
# Youngs Moduli (GPa) = 26.83714 11.75322 34.84481
#
# Poissons Ratio (x) = 0.34884 0.11727
# Poissons Ratio (y) = 0.79654 0.93299
# Poissons Ratio (z) = 0.09032 0.31470
#
# Static dielectric constant tensor:
#      x y z
#    x 1.648250 0.000000 -0.000070 
#    y 0.000000 1.635300 0.000000 
#    z -0.000070 0.000000 1.671780 
# 
# From -- ./inp_files/378074.got.cif
#   From: 2010.05.17/outbox.cif.g08.bks.cpg/sg12_190_cif.got.tgz:378074.got - 2010.06.03 13:09:07.
