data_PCOD9192881
_publ_section_title
;
Structure prediction by ZEFSAII (Michael W. Deem and Ramdas Pophale) SiO2 
 PCOD9192881
Probable space group: C 2/M
;
_chemical_formula_sum "Si O2"
_cell_formula_units_Z 56
_cell_length_a 14.908077
_cell_length_b 7.566042
_cell_length_c 25.549921
_cell_angle_alpha 90.000000
_cell_angle_beta 115.239617
_cell_angle_gamma 90.000000
_cell_volume 2606.778197
_symmetry_space_group_name_H-M "C 2/M"
_symmetry_group_IT_number 12
_symmetry_cell_setting 'monoclinic'
loop_
_space_group_symop_operation_xyz
x,y,z
-x,y,-z
-x,-y,-z
x,-y,z
1/2+x,1/2+y,z
1/2-x,1/2+y,-z
1/2-x,1/2-y,-z
1/2+x,1/2-y,z
loop_
_atom_site_type_symbol
_atom_site_label
_atom_site_fract_x
_atom_site_fract_y
_atom_site_fract_z
Si Si1 0.399847 0.209541 0.501496
Si Si2 0.221996 0.694828 0.934851
Si Si3 0.939165 0.201347 0.937355
Si Si4 0.639162 0.781986 0.811192
Si Si5 0.686155 0.214317 0.409585
Si Si6 0.846886 0.786077 0.812859
Si Si7 0.570947 0.208587 0.279364
O O1 0.500000 0.281893 0.500000
O O2 0.369278 0.278731 0.551437
O O3 0.301480 0.234271 0.442124
O O4 0.415614 0.000000 0.512264
O O5 0.179933 0.500000 0.931608
O O6 0.326908 0.689144 0.930596
O O7 0.151225 0.784451 0.874269
O O8 0.250000 0.750000 0.000000
O O9 0.925868 0.279709 0.876300
O O10 0.980025 0.000000 0.941624
O O11 0.000000 0.286877 0.000000
O O12 0.737181 0.730706 0.803565
O O13 0.539090 0.720168 0.758949
O O14 0.638645 0.000000 0.813021
O O15 0.630998 0.279584 0.343890
O O16 0.684555 0.000000 0.409712
O O17 0.871391 0.730924 0.760653
O O18 0.850092 0.000000 0.816574
O O19 0.558779 0.000000 0.286276
#
# Coordination Sequence:
#
# PCOD9192881 Si02
#       7
#     8   8   8   8   8   8   8
#     4   9  18  34  57  82 107 135 170 210 244 283
#     4   9  17  29  46  67  90 119 156 200 252 305
#     4   8  15  28  45  65  90 119 154 201 256 305
#     4   8  17  34  50  67  97 134 166 202 255 313
#     4   9  19  34  51  77 108 138 170 204 250 300
#     4   9  18  33  52  72  94 128 175 215 249 301
#     4  10  20  34  52  72 103 141 168 202 257 309
#
# _framework density 21.482458000000001
#
# number of rings (size 3 to 8) (size 9 to 14) (size 15 to 20)
#    0.000    3.143    0.000    1.714    2.000    2.000 
#    0.000    6.429    0.000    0.857    0.000    0.000 
#    0.000    0.000    0.000    0.000    0.000    0.000 
#
# Total GULP energy -156048.921341 kJ/mol
# GULP energy per Si atom -5573.175762 kJ/mol
# Density = 2.143356 g / cm^3
# Si number density = 21.482458 Si / 1000 Ang^3
#
#
#
# Elastic Constant Matrix: (Units=GPa)
#
#
# Indices 1 2 3 4 5 6 
#
# 1 125.5970 -4.5061 81.3789 0.0000 14.4640 0.0000
# 2 -4.5061 41.7596 -4.4410 0.0000 0.4231 0.0000
# 3 81.3789 -4.4410 212.3272 0.0000 24.0954 0.0000
# 4 0.0000 0.0000 0.0000 -7.9318 0.0000 -35.3400
# 5 14.4640 0.4231 24.0954 0.0000 20.4893 0.0000
# 6 0.0000 0.0000 0.0000 -35.3400 0.0000 -32.5222
#
#
#
# Elastic Compliance Matrix: (Units=1/GPa)
#
#
# Indices 1 2 3 4 5 6 
#
# 1 0.010795 0.000798 -0.003755 0.000000 -0.003221 0.000000
# 2 0.000798 0.024087 0.000367 0.000000 -0.001493 0.000000
# 3 -0.003755 0.000367 0.006759 0.000000 -0.005305 0.000000
# 4 0.000000 0.000000 0.000000 0.032819 0.000000 -0.035663
# 5 -0.003221 -0.001493 -0.005305 0.000000 0.057349 0.000000
# 6 0.000000 0.000000 0.000000 -0.035663 0.000000 0.008004
#
#
# Mechanical properties :
#
#
# Convention : Reuss Voigt Hill
#
# Bulk Modulus (GPa) = 27.42674 58.28303 42.85489
# Shear Modulus (GPa) = 31.81769 16.49051 24.15410
#
# Velocity S-wave (km/s) = 3.85268 2.77361 3.35679
# Velocity P-wave (km/s) = 5.70838 6.11937 5.91744
#
# Compressibility (1/GPa) = 0.03646076
#
# Stress axis : x y z
#
# Youngs Moduli (GPa) = 92.63937 41.51632 147.95945
#
# Poissons Ratio (x) = -0.03313 0.55559
# Poissons Ratio (y) = -0.07393 -0.05435
# Poissons Ratio (z) = 0.34787 -0.01525
#
# Static dielectric constant tensor:
#      x y z
#    x 1.760880 0.000000 0.003040 
#    y 0.000000 1.858700 0.000000 
#    z 0.003040 0.000000 1.804870 
# 
# From -- ./inp_files/338205.got.cif
#   From: 2010.05.17/outbox.cif.g08.bks.cpg/sg12_170_cif.got.tgz:338205.got - 2010.06.03 13:09:07.
