data_PCOD9192080
_publ_section_title
;
Structure prediction by ZEFSAII (Michael W. Deem and Ramdas Pophale) SiO2 
 PCOD9192080
Probable space group: C 2/M
;
_chemical_formula_sum "Si O2"
_cell_formula_units_Z 64
_cell_length_a 18.664177
_cell_length_b 14.716537
_cell_length_c 15.310257
_cell_angle_alpha 90.000000
_cell_angle_beta 58.699994
_cell_angle_gamma 90.000000
_cell_volume 3593.255231
_symmetry_space_group_name_H-M "C 2/M"
_symmetry_group_IT_number 12
_symmetry_cell_setting 'monoclinic'
loop_
_space_group_symop_operation_xyz
x,y,z
-x,y,-z
-x,-y,-z
x,-y,z
1/2+x,1/2+y,z
1/2-x,1/2+y,-z
1/2-x,1/2-y,-z
1/2+x,1/2-y,z
loop_
_atom_site_type_symbol
_atom_site_label
_atom_site_fract_x
_atom_site_fract_y
_atom_site_fract_z
Si Si1 0.728633 0.605615 0.753323
Si Si2 0.717096 0.767067 0.423307
Si Si3 0.910092 0.106142 0.011439
Si Si4 0.809633 0.604286 0.310162
Si Si5 0.097718 0.608268 0.926959
Si Si6 0.847377 0.728734 0.950891
Si Si7 0.915061 0.604153 0.424253
Si Si8 0.897176 0.393750 0.756677
O O1 0.719768 0.500000 0.735513
O O2 0.723870 0.666508 0.670538
O O3 0.659863 0.626203 0.870516
O O4 0.819426 0.619240 0.740438
O O5 0.750000 0.750000 0.500000
O O6 0.729947 0.670193 0.369256
O O7 0.629490 0.820240 0.488033
O O8 0.900543 0.000000 0.991110
O O9 0.895523 0.178024 0.943798
O O10 0.000000 0.116870 0.000000
O O11 0.783530 0.500000 0.316404
O O12 0.866509 0.629968 0.191211
O O13 0.867336 0.608943 0.360654
O O14 0.106065 0.500000 0.934735
O O15 0.145392 0.663567 0.970161
O O16 0.000000 0.631393 0.000000
O O17 0.884813 0.674201 0.845165
O O18 0.750000 0.750000 0.000000
O O19 0.903146 0.500000 0.465241
O O20 0.013181 0.619262 0.346025
O O21 0.894686 0.500000 0.788214
#
# Coordination Sequence:
#
# PCOD9192080 Si02
#       8
#     8   8   8   8   8   8   8   8
#     4  10  20  36  56  79 108 140 181 229 282 337
#     4  10  20  33  53  77 105 137 181 229 279 333
#     4  10  22  39  57  79 113 157 200 236 268 325
#     4   9  18  32  51  77 110 143 181 227 276 329
#     4  10  20  34  55  83 112 146 189 236 285 335
#     4  12  22  33  55  83 116 153 187 227 276 336
#     4   9  18  34  55  81 108 138 176 229 287 333
#     4  10  21  36  55  82 116 146 179 227 287 345
#
# _framework density 17.811147999999999
#
# number of rings (size 3 to 8) (size 9 to 14) (size 15 to 20)
#    0.000    2.000    1.250    2.625    0.000    5.500 
#    0.000    1.875    0.000    0.750    0.000    0.875 
#    0.000    0.000    0.000    0.000    0.000    0.000 
#
# Total GULP energy -178553.973047 kJ/mol
# GULP energy per Si atom -5579.811658 kJ/mol
# Density = 1.777061 g / cm^3
# Si number density = 17.811148 Si / 1000 Ang^3
#
#
#
# Elastic Constant Matrix: (Units=GPa)
#
#
# Indices 1 2 3 4 5 6 
#
# 1 70.9896 42.3034 32.6141 0.0000 -20.3255 0.0000
# 2 42.3034 88.8245 72.2730 0.0000 -7.8754 0.0000
# 3 32.6141 72.2730 94.2172 0.0000 -14.7144 0.0000
# 4 0.0000 0.0000 0.0000 34.7865 0.0000 -8.8431
# 5 -20.3255 -7.8754 -14.7144 0.0000 30.0507 0.0000
# 6 0.0000 0.0000 0.0000 -8.8431 0.0000 6.4106
#
#
#
# Elastic Compliance Matrix: (Units=1/GPa)
#
#
# Indices 1 2 3 4 5 6 
#
# 1 0.024872 -0.014455 0.004888 0.000000 0.015428 0.000000
# 2 -0.014455 0.038736 -0.026693 0.000000 -0.012695 0.000000
# 3 0.004888 -0.026693 0.031208 0.000000 0.011592 0.000000
# 4 0.000000 0.000000 0.000000 0.044271 0.000000 0.061070
# 5 0.015428 -0.012695 0.011592 0.000000 0.046061 0.000000
# 6 0.000000 0.000000 0.000000 0.061070 0.000000 0.240235
#
#
# Mechanical properties :
#
#
# Convention : Reuss Voigt Hill
#
# Bulk Modulus (GPa) = 44.85061 60.93471 52.89266
# Shear Modulus (GPa) = 9.89445 21.37227 15.63336
#
# Velocity S-wave (km/s) = 2.35950 3.46777 2.96586
# Velocity P-wave (km/s) = 5.71480 7.09364 6.44122
#
# Compressibility (1/GPa) = 0.02229624
#
# Stress axis : x y z
#
# Youngs Moduli (GPa) = 40.20593 25.81607 32.04318
#
# Poissons Ratio (x) = 0.37316 -0.15662
# Poissons Ratio (y) = 0.58116 0.85532
# Poissons Ratio (z) = -0.19652 0.68910
#
# Static dielectric constant tensor:
#      x y z
#    x 1.588540 0.000000 0.008560 
#    y 0.000000 1.638800 0.000000 
#    z 0.008560 0.000000 1.608780 
# 
# From -- ./inp_files/225251.got.cif
#   From: 2010.05.17/outbox.cif.g08.bks.cpg/sg12_113_cif.got.tgz:225251.got - 2010.06.03 13:09:07.
