data_PCOD9192792
_publ_section_title
;
Structure prediction by ZEFSAII (Michael W. Deem and Ramdas Pophale) SiO2 
 PCOD9192792
Probable space group: C 2/M
;
_chemical_formula_sum "Si O2"
_cell_formula_units_Z 64
_cell_length_a 31.147305
_cell_length_b 7.734533
_cell_length_c 13.996835
_cell_angle_alpha 90.000000
_cell_angle_beta 119.991936
_cell_angle_gamma 90.000000
_cell_volume 2920.453739
_symmetry_space_group_name_H-M "C 2/M"
_symmetry_group_IT_number 12
_symmetry_cell_setting 'monoclinic'
loop_
_space_group_symop_operation_xyz
x,y,z
-x,y,-z
-x,-y,-z
x,-y,z
1/2+x,1/2+y,z
1/2-x,1/2+y,-z
1/2-x,1/2-y,-z
1/2+x,1/2-y,z
loop_
_atom_site_type_symbol
_atom_site_label
_atom_site_fract_x
_atom_site_fract_y
_atom_site_fract_z
Si Si1 0.831963 0.208194 0.223294
Si Si2 0.038157 0.702845 0.123210
Si Si3 0.913425 0.211936 0.166979
Si Si4 0.267165 0.707015 0.803718
Si Si5 0.020400 0.797639 0.319856
Si Si6 0.216815 0.705796 0.553336
Si Si7 0.879718 0.790436 0.925143
Si Si8 0.118018 0.204718 0.525094
O O1 0.865005 0.267149 0.171351
O O2 0.774176 0.255476 0.162644
O O3 0.858744 0.274452 0.350313
O O4 0.833766 0.000000 0.226662
O O5 0.027771 0.500000 0.124118
O O6 0.032720 0.786303 0.220776
O O7 0.092402 0.726352 0.137771
O O8 0.000000 0.772649 0.000000
O O9 0.964943 0.273899 0.269783
O O10 0.914056 0.000000 0.168262
O O11 0.909616 0.265395 0.052676
O O12 0.270617 0.500000 0.800865
O O13 0.243751 0.774781 0.678697
O O14 0.323196 0.769898 0.875495
O O15 0.065834 0.721612 0.431018
O O16 0.017359 0.000000 0.342124
O O17 0.213646 0.500000 0.557409
O O18 0.250000 0.750000 0.500000
O O19 0.160711 0.773238 0.492951
O O20 0.880012 0.000000 0.922269
O O21 0.111326 0.000000 0.532593
#
# Coordination Sequence:
#
# PCOD9192792 Si02
#       8
#     8   8   8   8   8   8   8   8
#     4   9  18  35  56  79 109 140 174 223 270 310
#     4  11  23  37  53  78 112 142 174 222 272 316
#     4   9  18  33  56  82 105 137 181 222 263 313
#     4   9  20  36  53  76 105 139 178 219 263 316
#     4  10  20  35  56  80 107 143 183 217 259 322
#     4  10  20  34  51  73 104 139 178 223 268 318
#     4  10  20  36  57  79 106 142 182 218 259 320
#     4   9  19  34  53  78 107 139 177 219 265 315
#
# _framework density 21.914404999999999
#
# number of rings (size 3 to 8) (size 9 to 14) (size 15 to 20)
#    0.000    2.375    1.250    0.750    1.750    3.000 
#    0.000    3.750    0.000    0.000    0.000    4.375 
#    0.000    0.000    0.000    0.000    0.000    0.000 
#
# Total GULP energy -178637.141509 kJ/mol
# GULP energy per Si atom -5582.410672 kJ/mol
# Density = 2.186453 g / cm^3
# Si number density = 21.914405 Si / 1000 Ang^3
#
#
#
# Elastic Constant Matrix: (Units=GPa)
#
#
# Indices 1 2 3 4 5 6 
#
# 1 108.5563 -11.8996 -2.0167 0.0000 13.1076 0.0000
# 2 -11.8996 34.8580 -0.7435 0.0000 6.0197 0.0000
# 3 -2.0167 -0.7435 17.7602 0.0000 20.3102 0.0000
# 4 0.0000 0.0000 0.0000 6.8731 0.0000 3.6882
# 5 13.1076 6.0197 20.3102 0.0000 40.4342 0.0000
# 6 0.0000 0.0000 0.0000 3.6882 0.0000 18.3580
#
#
#
# Elastic Compliance Matrix: (Units=1/GPa)
#
#
# Indices 1 2 3 4 5 6 
#
# 1 0.011867 0.006709 0.016847 0.000000 -0.013308 0.000000
# 2 0.006709 0.034960 0.025058 0.000000 -0.019966 0.000000
# 3 0.016847 0.025058 0.163963 0.000000 -0.091551 0.000000
# 4 0.000000 0.000000 0.000000 0.163077 0.000000 -0.032763
# 5 -0.013308 -0.019966 -0.091551 0.000000 0.078004 0.000000
# 6 0.000000 0.000000 0.000000 -0.032763 0.000000 0.061054
#
#
# Mechanical properties :
#
#
# Convention : Reuss Voigt Hill
#
# Bulk Modulus (GPa) = 3.24656 14.65056 8.94856
# Shear Modulus (GPa) = 9.64561 24.85535 17.25048
#
# Velocity S-wave (km/s) = 2.10025 3.37144 2.80871
# Velocity P-wave (km/s) = 2.71405 4.67497 3.82240
#
# Compressibility (1/GPa) = 0.30801865
#
# Stress axis : x y z
#
# Youngs Moduli (GPa) = 84.26705 28.60376 6.09894
#
# Poissons Ratio (x) = -0.19189 -0.10275
# Poissons Ratio (y) = -0.56531 -0.15283
# Poissons Ratio (z) = -1.41966 -0.71676
#
# Static dielectric constant tensor:
#      x y z
#    x 1.816470 0.000000 0.016170 
#    y 0.000000 1.817840 0.000000 
#    z 0.016170 0.000000 1.814580 
# 
# From -- ./inp_files/249120.got.cif
#   From: 2010.05.17/outbox.cif.g08.bks.cpg/sg12_125_cif.got.tgz:249120.got - 2010.06.03 13:09:07.
