data_PCOD9192945
_publ_section_title
;
Structure prediction by ZEFSAII (Michael W. Deem and Ramdas Pophale) SiO2 
 PCOD9192945
Probable space group: C 2/M
;
_chemical_formula_sum "Si O2"
_cell_formula_units_Z 56
_cell_length_a 18.852839
_cell_length_b 7.683357
_cell_length_c 30.329876
_cell_angle_alpha 90.000000
_cell_angle_beta 141.779834
_cell_angle_gamma 90.000000
_cell_volume 2718.115816
_symmetry_space_group_name_H-M "C 2/M"
_symmetry_group_IT_number 12
_symmetry_cell_setting 'monoclinic'
loop_
_space_group_symop_operation_xyz
x,y,z
-x,y,-z
-x,-y,-z
x,-y,z
1/2+x,1/2+y,z
1/2-x,1/2+y,-z
1/2-x,1/2-y,-z
1/2+x,1/2-y,z
loop_
_atom_site_type_symbol
_atom_site_label
_atom_site_fract_x
_atom_site_fract_y
_atom_site_fract_z
Si Si1 0.458475 0.713436 0.432107
Si Si2 0.915789 0.710161 0.997698
Si Si3 0.756721 0.203450 0.275950
Si Si4 0.999995 0.714046 0.865032
Si Si5 0.117726 0.206811 0.429584
Si Si6 0.082809 0.296503 0.726895
Si Si7 0.649675 0.207727 0.855332
O O1 0.500000 0.771989 0.500000
O O2 0.240173 0.500000 0.277694
O O3 0.335030 0.774784 0.353936
O O4 0.549235 0.768046 0.439352
O O5 0.922052 0.500000 0.000825
O O6 0.784628 0.759093 0.925029
O O7 0.955691 0.771028 0.065439
O O8 0.000000 0.773027 0.000000
O O9 0.630174 0.275254 0.206659
O O10 0.834154 0.215639 0.269655
O O11 0.956159 0.000000 0.431573
O O12 0.000445 0.500000 0.866079
O O13 0.081830 0.772869 0.865155
O O14 0.250000 0.250000 0.500000
O O15 0.047703 0.278309 0.353622
O O16 0.105706 0.000000 0.421344
O O17 0.112255 0.500000 0.741728
O O18 0.104040 0.224004 0.786057
O O19 0.630786 0.000000 0.845654
#
# Coordination Sequence:
#
# PCOD9192945 Si02
#       7
#     8   8   8   8   8   8   8
#     4   8  15  28  49  76  99 125 166 208 245 291
#     4  10  20  34  54  77 100 131 170 211 257 308
#     4   9  17  32  54  74  97 132 170 210 253 300
#     4   9  18  33  52  75 102 132 170 212 254 304
#     4  10  20  34  54  78 104 135 170 210 255 301
#     4  10  20  34  52  74 102 135 171 209 249 300
#     4  10  21  35  52  76 104 135 170 209 253 300
#
# _framework density 20.602508
#
# number of rings (size 3 to 8) (size 9 to 14) (size 15 to 20)
#    0.000    2.571    0.000    3.000    0.000    3.714 
#    0.000    5.714    0.000   14.143    0.000    0.000 
#    0.000    0.000    0.000    0.000    0.000    0.000 
#
# Total GULP energy -156270.295650 kJ/mol
# GULP energy per Si atom -5581.081988 kJ/mol
# Density = 2.055562 g / cm^3
# Si number density = 20.602508 Si / 1000 Ang^3
#
#
#
# Elastic Constant Matrix: (Units=GPa)
#
#
# Indices 1 2 3 4 5 6 
#
# 1 124.8281 -7.7254 113.6470 -0.0001 -6.3652 0.0003
# 2 -7.7254 30.8136 -6.9577 0.0000 -6.4013 0.0004
# 3 113.6470 -6.9577 224.0444 0.0000 -15.4460 0.0000
# 4 -0.0001 0.0000 0.0000 17.4015 0.0000 5.5021
# 5 -6.3652 -6.4013 -15.4460 0.0000 41.1942 0.0000
# 6 0.0003 0.0004 0.0000 5.5021 0.0000 10.9372
#
#
#
# Elastic Compliance Matrix: (Units=1/GPa)
#
#
# Indices 1 2 3 4 5 6 
#
# 1 0.015016 0.002013 -0.007568 0.000000 -0.000205 -0.000001
# 2 0.002013 0.034263 0.000443 0.000001 0.005801 -0.000002
# 3 -0.007568 0.000443 0.008459 0.000000 0.002071 0.000000
# 4 0.000000 0.000001 0.000000 0.068336 0.000000 -0.034377
# 5 -0.000205 0.005801 0.002071 0.000000 0.025922 0.000000
# 6 -0.000001 -0.000002 0.000000 -0.034377 0.000000 0.108725
#
#
# Mechanical properties :
#
#
# Convention : Reuss Voigt Hill
#
# Bulk Modulus (GPa) = 21.04686 64.17934 42.61310
# Shear Modulus (GPa) = 17.43483 32.62139 25.02811
#
# Velocity S-wave (km/s) = 2.91219 3.98347 3.48919
# Velocity P-wave (km/s) = 4.64173 7.23715 6.07955
#
# Compressibility (1/GPa) = 0.04751303
#
# Stress axis : x y z
#
# Youngs Moduli (GPa) = 66.59776 29.18588 118.21789
#
# Poissons Ratio (x) = -0.05875 0.89470
# Poissons Ratio (y) = -0.13407 -0.05235
# Poissons Ratio (z) = 0.50403 -0.01292
#
# Static dielectric constant tensor:
#      x y z
#    x 1.706990 0.000000 -0.006420 
#    y 0.000000 1.783010 0.000000 
#    z -0.006420 0.000000 1.736040 
# 
# From -- ./inp_files/363195.got.cif
#   From: 2010.05.17/outbox.cif.g08.bks.cpg/sg12_182_cif.got.tgz:363195.got - 2010.06.03 13:09:07.
