data_PCOD9192801
_publ_section_title
;
Structure prediction by ZEFSAII (Michael W. Deem and Ramdas Pophale) SiO2 
 PCOD9192801
Probable space group: C 2/M
;
_chemical_formula_sum "Si O2"
_cell_formula_units_Z 56
_cell_length_a 25.864736
_cell_length_b 7.677445
_cell_length_c 16.656839
_cell_angle_alpha 90.000000
_cell_angle_beta 123.492155
_cell_angle_gamma 90.000000
_cell_volume 2758.438428
_symmetry_space_group_name_H-M "C 2/M"
_symmetry_group_IT_number 12
_symmetry_cell_setting 'monoclinic'
loop_
_space_group_symop_operation_xyz
x,y,z
-x,y,-z
-x,-y,-z
x,-y,z
1/2+x,1/2+y,z
1/2-x,1/2+y,-z
1/2-x,1/2-y,-z
1/2+x,1/2-y,z
loop_
_atom_site_type_symbol
_atom_site_label
_atom_site_fract_x
_atom_site_fract_y
_atom_site_fract_z
Si Si1 0.247653 0.711380 0.871049
Si Si2 0.964070 0.788555 0.548695
Si Si3 0.985350 0.792368 0.236760
Si Si4 0.729493 0.707391 0.288516
Si Si5 0.331904 0.205038 0.494903
Si Si6 0.117295 0.707799 0.292646
Si Si7 0.149247 0.207010 0.916295
O O1 0.249121 0.500000 0.872019
O O2 0.253800 0.774817 0.785305
O O3 0.185226 0.764850 0.863407
O O4 0.305067 0.775753 0.975188
O O5 0.893350 0.726230 0.493613
O O6 0.000000 0.731749 0.500000
O O7 0.997278 0.726752 0.659100
O O8 0.962981 0.000000 0.548379
O O9 0.920325 0.721540 0.148539
O O10 0.045710 0.761736 0.234125
O O11 0.977845 0.000000 0.238448
O O12 0.740440 0.500000 0.295289
O O13 0.773779 0.780531 0.396842
O O14 0.658780 0.736332 0.253547
O O15 0.350035 0.279778 0.597647
O O16 0.320081 0.000000 0.497366
O O17 0.118141 0.500000 0.297664
O O18 0.144879 0.000000 0.926565
#
# Coordination Sequence:
#
# PCOD9192801 Si02
#       7
#     8   8   8   8   8   8   8
#     4   9  19  34  52  77 103 128 162 205 248 294
#     4   9  18  30  45  70 101 129 163 203 240 287
#     4   9  18  33  52  71  97 134 166 198 247 298
#     4  10  20  34  52  73 101 133 166 203 248 296
#     4   9  19  33  48  70  99 132 166 200 243 292
#     4  10  20  34  51  74 100 129 169 209 244 289
#     4   9  18  34  55  76 100 130 165 202 246 297
#
# _framework density 20.301341000000001
#
# number of rings (size 3 to 8) (size 9 to 14) (size 15 to 20)
#    0.000    2.714    0.000    0.857    2.000    2.571 
#    0.000    0.714    0.000    4.286    0.000    0.000 
#    0.000    0.000    0.000    0.000    0.000    0.000 
#
# Total GULP energy -156219.728981 kJ/mol
# GULP energy per Si atom -5579.276035 kJ/mol
# Density = 2.025513 g / cm^3
# Si number density = 20.301341 Si / 1000 Ang^3
#
#
#
# Elastic Constant Matrix: (Units=GPa)
#
#
# Indices 1 2 3 4 5 6 
#
# 1 90.1361 -18.2612 47.3407 0.0000 18.5404 0.0000
# 2 -18.2612 30.8062 1.5154 0.0000 5.2359 0.0000
# 3 47.3407 1.5154 52.1625 0.0000 23.0162 0.0000
# 4 0.0000 0.0000 0.0000 3.2449 0.0000 0.9685
# 5 18.5404 5.2359 23.0162 0.0000 27.1703 0.0000
# 6 0.0000 0.0000 0.0000 0.9685 0.0000 22.6991
#
#
#
# Elastic Compliance Matrix: (Units=1/GPa)
#
#
# Indices 1 2 3 4 5 6 
#
# 1 0.028887 0.018589 -0.026315 0.000000 -0.001003 0.000000
# 2 0.018589 0.045819 -0.013907 0.000000 -0.009734 0.000000
# 3 -0.026315 -0.013907 0.054855 0.000000 -0.025832 0.000000
# 4 0.000000 0.000000 0.000000 0.312155 0.000000 -0.013318
# 5 -0.001003 -0.009734 -0.025832 0.000000 0.061247 0.000000
# 6 0.000000 0.000000 0.000000 -0.013318 0.000000 0.044623
#
#
# Mechanical properties :
#
#
# Convention : Reuss Voigt Hill
#
# Bulk Modulus (GPa) = 11.58803 26.03272 18.81037
# Shear Modulus (GPa) = 8.06952 20.12353 14.09652
#
# Velocity S-wave (km/s) = 1.99587 3.15181 2.63794
# Velocity P-wave (km/s) = 3.32141 5.10845 4.30859
#
# Compressibility (1/GPa) = 0.08629595
#
# Stress axis : x y z
#
# Youngs Moduli (GPa) = 34.61716 21.82523 18.22992
#
# Poissons Ratio (x) = -0.40570 0.47971
# Poissons Ratio (y) = -0.64349 0.25352
# Poissons Ratio (z) = 0.91094 0.30352
#
# Static dielectric constant tensor:
#      x y z
#    x 1.700810 0.000000 0.013640 
#    y 0.000000 1.739510 0.000000 
#    z 0.013640 0.000000 1.740920 
# 
# From -- ./inp_files/238908.got.cif
#   From: 2010.05.17/outbox.cif.g08.bks.cpg/sg12_120_cif.got.tgz:238908.got - 2010.06.03 13:09:07.
