data_PCOD9192526
_publ_section_title
;
Structure prediction by ZEFSAII (Michael W. Deem and Ramdas Pophale) SiO2 
 PCOD9192526
Probable space group: C 2/M
;
_chemical_formula_sum "Si O2"
_cell_formula_units_Z 56
_cell_length_a 21.818757
_cell_length_b 8.020150
_cell_length_c 30.672377
_cell_angle_alpha 90.000000
_cell_angle_beta 30.387156
_cell_angle_gamma 90.000000
_cell_volume 2715.022566
_symmetry_space_group_name_H-M "C 2/M"
_symmetry_group_IT_number 12
_symmetry_cell_setting 'monoclinic'
loop_
_space_group_symop_operation_xyz
x,y,z
-x,y,-z
-x,-y,-z
x,-y,z
1/2+x,1/2+y,z
1/2-x,1/2+y,-z
1/2-x,1/2-y,-z
1/2+x,1/2-y,z
loop_
_atom_site_type_symbol
_atom_site_label
_atom_site_fract_x
_atom_site_fract_y
_atom_site_fract_z
Si Si1 0.750606 0.197796 0.050037
Si Si2 0.399754 0.296930 0.619230
Si Si3 0.106163 0.801766 0.217998
Si Si4 0.760253 0.702176 0.203001
Si Si5 0.828920 0.203445 0.569180
Si Si6 0.979216 0.801458 0.964038
Si Si7 0.337317 0.199537 0.406233
O O1 0.635177 0.240950 0.151347
O O2 0.760634 0.000000 0.043520
O O3 0.750000 0.250000 0.000000
O O4 0.868279 0.268022 0.003846
O O5 0.401028 0.500000 0.618256
O O6 0.337680 0.243159 0.701424
O O7 0.538972 0.244883 0.529463
O O8 0.326886 0.243839 0.620755
O O9 0.212130 0.737855 0.185500
O O10 0.976336 0.757761 0.318668
O O11 0.114071 0.000000 0.212355
O O12 0.765308 0.500000 0.199277
O O13 0.890390 0.769189 0.136930
O O14 0.726557 0.261870 0.599084
O O15 0.826145 0.000000 0.570597
O O16 0.959840 0.000000 0.980292
O O17 0.000000 0.729727 0.000000
O O18 0.250000 0.250000 0.500000
O O19 0.339310 0.000000 0.404711
#
# Coordination Sequence:
#
# PCOD9192526 Si02
#       7
#     8   8   8   8   8   8   8
#     4  11  24  43  65  90 123 164 204 251 310 371
#     4   8  14  28  50  78 107 139 178 232 287 336
#     4  11  23  39  59  87 121 157 200 251 303 366
#     4  10  20  33  57  88 115 145 194 246 291 351
#     4   8  15  29  50  74 107 143 183 231 285 340
#     4  10  21  39  61  84 115 151 190 240 302 361
#     4  11  22  36  56  84 117 157 200 246 301 364
#
# _framework density 20.625979000000001
#
# number of rings (size 3 to 8) (size 9 to 14) (size 15 to 20)
#    0.000    2.143    1.429    3.000    0.000    5.429 
#    0.000    1.429    0.000    0.857    0.000    6.000 
#    0.000    0.000    0.000    0.000    0.000    0.000 
#
# Total GULP energy -156203.186296 kJ/mol
# GULP energy per Si atom -5578.685225 kJ/mol
# Density = 2.057903 g / cm^3
# Si number density = 20.625979 Si / 1000 Ang^3
#
#
#
# Elastic Constant Matrix: (Units=GPa)
#
#
# Indices 1 2 3 4 5 6 
#
# 1 113.2619 14.1461 52.8823 0.0009 0.9802 0.0063
# 2 14.1461 30.7063 6.5228 -0.0032 3.9418 0.0066
# 3 52.8823 6.5228 102.4497 0.0008 12.8067 -0.0011
# 4 0.0009 -0.0032 0.0008 29.9206 -0.0010 0.9884
# 5 0.9802 3.9418 12.8067 -0.0010 36.1496 0.0004
# 6 0.0063 0.0066 -0.0011 0.9884 0.0004 16.0389
#
#
#
# Elastic Compliance Matrix: (Units=1/GPa)
#
#
# Indices 1 2 3 4 5 6 
#
# 1 0.012376 -0.004656 -0.006397 0.000000 0.002438 -0.000003
# 2 -0.004656 0.035076 0.000662 0.000004 -0.003933 -0.000013
# 3 -0.006397 0.000662 0.013611 0.000000 -0.004721 0.000003
# 4 0.000000 0.000004 0.000000 0.033490 0.000001 -0.002064
# 5 0.002438 -0.003933 -0.004721 0.000001 0.029698 0.000000
# 6 -0.000003 -0.000013 0.000003 -0.002064 0.000000 0.062476
#
#
# Mechanical properties :
#
#
# Convention : Reuss Voigt Hill
#
# Bulk Modulus (GPa) = 24.82559 43.72446 34.27502
# Shear Modulus (GPa) = 22.63115 27.94627 25.28871
#
# Velocity S-wave (km/s) = 3.31602 3.68490 3.50531
# Velocity P-wave (km/s) = 5.16948 6.27291 5.74773
#
# Compressibility (1/GPa) = 0.04028101
#
# Stress axis : x y z
#
# Youngs Moduli (GPa) = 80.80102 28.50971 73.47192
#
# Poissons Ratio (x) = 0.13273 0.46997
# Poissons Ratio (y) = 0.37619 -0.04861
# Poissons Ratio (z) = 0.51685 -0.01886
#
# Static dielectric constant tensor:
#      x y z
#    x 1.776610 0.000000 0.015080 
#    y 0.000000 1.745660 0.000030 
#    z 0.015080 0.000030 1.791160 
# 
# From -- ./inp_files/380638.got.cif
#   From: 2010.05.17/outbox.cif.g08.bks.cpg/sg12_191_cif.got.tgz:380638.got - 2010.06.03 13:09:07.
