data_PCOD9192716
_publ_section_title
;
Structure prediction by ZEFSAII (Michael W. Deem and Ramdas Pophale) SiO2 
 PCOD9192716
Probable space group: C 2/M
;
_chemical_formula_sum "Si O2"
_cell_formula_units_Z 64
_cell_length_a 9.945695
_cell_length_b 18.235117
_cell_length_c 31.975609
_cell_angle_alpha 90.000000
_cell_angle_beta 144.791093
_cell_angle_gamma 90.000000
_cell_volume 3343.540032
_symmetry_space_group_name_H-M "C 2/M"
_symmetry_group_IT_number 12
_symmetry_cell_setting 'monoclinic'
loop_
_space_group_symop_operation_xyz
x,y,z
-x,y,-z
-x,-y,-z
x,-y,z
1/2+x,1/2+y,z
1/2-x,1/2+y,-z
1/2-x,1/2-y,-z
1/2+x,1/2-y,z
loop_
_atom_site_type_symbol
_atom_site_label
_atom_site_fract_x
_atom_site_fract_y
_atom_site_fract_z
Si Si1 0.387800 0.707037 0.339776
Si Si2 0.806222 0.587070 0.172486
Si Si3 0.052648 0.680856 0.060122
Si Si4 0.767830 0.088563 0.246772
Si Si5 0.809968 0.196162 0.415546
Si Si6 0.910816 0.147867 0.021212
Si Si7 0.989419 0.166133 0.770596
Si Si8 0.432293 0.913801 0.296387
O O1 0.364138 0.626266 0.313766
O O2 0.611384 0.743813 0.374908
O O3 0.418017 0.707696 0.397222
O O4 0.159324 0.758534 0.272722
O O5 0.805193 0.500000 0.176519
O O6 0.551963 0.612602 0.094977
O O7 0.889287 0.617125 0.238465
O O8 0.991395 0.603613 0.182796
O O9 0.312368 0.673834 0.143583
O O10 0.986265 0.766826 0.042117
O O11 0.000000 0.652883 0.000000
O O12 0.864891 0.643151 0.042852
O O13 0.881779 0.134393 0.237869
O O14 0.803890 0.000000 0.253035
O O15 0.659766 0.122055 0.374033
O O16 0.000000 0.195509 0.500000
O O17 0.000000 0.116671 0.000000
O O18 0.794631 0.108185 0.735142
O O19 0.458874 0.000000 0.301038
#
# Coordination Sequence:
#
# PCOD9192716 Si02
#       8
#     8   8   8   8   8   8   8   8
#     4  11  22  40  64  96 124 163 202 256 300 369
#     4  10  20  35  57  80 112 157 205 251 297 362
#     4  10  21  34  53  81 112 153 196 256 310 355
#     4  11  22  38  62  91 123 159 208 259 306 362
#     4  11  23  40  65  96 127 160 199 250 306 369
#     4  10  20  34  50  77 114 147 195 254 306 358
#     4  11  22  38  64  87 121 163 209 256 308 365
#     4  10  22  39  60  88 118 158 207 251 300 361
#
# _framework density 19.141389
#
# number of rings (size 3 to 8) (size 9 to 14) (size 15 to 20)
#    0.000    1.500    2.500    3.000    0.000    2.500 
#    0.000    1.250    0.000    3.750    0.000    0.000 
#    0.000    0.000    0.000    0.000    0.000    0.000 
#
# Total GULP energy -178549.498749 kJ/mol
# GULP energy per Si atom -5579.671836 kJ/mol
# Density = 1.909782 g / cm^3
# Si number density = 19.141389 Si / 1000 Ang^3
#
#
#
# Elastic Constant Matrix: (Units=GPa)
#
#
# Indices 1 2 3 4 5 6 
#
# 1 69.2995 -1.3742 7.4439 -0.0003 -9.1036 -0.0002
# 2 -1.3742 33.8550 13.6079 -0.0004 2.6487 -0.0002
# 3 7.4439 13.6079 100.9176 0.0000 -8.8796 -0.0002
# 4 -0.0003 -0.0004 0.0000 11.3517 0.0000 -6.7576
# 5 -9.1036 2.6487 -8.8796 0.0000 28.3741 -0.0001
# 6 -0.0002 -0.0002 -0.0002 -6.7576 -0.0001 17.8549
#
#
#
# Elastic Compliance Matrix: (Units=1/GPa)
#
#
# Indices 1 2 3 4 5 6 
#
# 1 0.015125 0.000577 -0.000793 0.000001 0.004551 0.000000
# 2 0.000577 0.031784 -0.004703 0.000001 -0.004254 0.000001
# 3 -0.000793 -0.004703 0.010919 0.000000 0.003602 0.000000
# 4 0.000001 0.000001 0.000000 0.113712 0.000000 0.043037
# 5 0.004551 -0.004254 0.003602 0.000000 0.038228 0.000000
# 6 0.000000 0.000001 0.000000 0.043037 0.000000 0.072295
#
#
# Mechanical properties :
#
#
# Convention : Reuss Voigt Hill
#
# Bulk Modulus (GPa) = 20.83799 27.04749 23.94274
# Shear Modulus (GPa) = 16.23923 23.80910 20.02416
#
# Velocity S-wave (km/s) = 2.91586 3.53066 3.23788
# Velocity P-wave (km/s) = 4.71660 5.54813 5.14918
#
# Compressibility (1/GPa) = 0.04798927
#
# Stress axis : x y z
#
# Youngs Moduli (GPa) = 66.11771 31.46221 91.58705
#
# Poissons Ratio (x) = -0.01814 0.07263
# Poissons Ratio (y) = -0.03812 0.43070
# Poissons Ratio (z) = 0.05243 0.14796
#
# Static dielectric constant tensor:
#      x y z
#    x 1.709170 0.000000 -0.015660 
#    y 0.000000 1.659440 0.000000 
#    z -0.015660 0.000000 1.648000 
# 
# From -- ./inp_files/372971.got.cif
#   From: 2010.05.17/outbox.cif.g08.bks.cpg/sg12_187_cif.got.tgz:372971.got - 2010.06.03 13:09:07.
