data_PCOD9192754
_publ_section_title
;
Structure prediction by ZEFSAII (Michael W. Deem and Ramdas Pophale) SiO2 
 PCOD9192754
Probable space group: C 2/M
;
_chemical_formula_sum "Si O2"
_cell_formula_units_Z 48
_cell_length_a 20.091132
_cell_length_b 7.485161
_cell_length_c 12.037082
_cell_angle_alpha 90.000000
_cell_angle_beta 96.062033
_cell_angle_gamma 90.000000
_cell_volume 1800.078495
_symmetry_space_group_name_H-M "C 2/M"
_symmetry_group_IT_number 12
_symmetry_cell_setting 'monoclinic'
loop_
_space_group_symop_operation_xyz
x,y,z
-x,y,-z
-x,-y,-z
x,-y,z
1/2+x,1/2+y,z
1/2-x,1/2+y,-z
1/2-x,1/2-y,-z
1/2+x,1/2-y,z
loop_
_atom_site_type_symbol
_atom_site_label
_atom_site_fract_x
_atom_site_fract_y
_atom_site_fract_z
Si Si1 0.617867 0.718801 0.873354
Si Si2 0.579130 0.789922 0.391398
Si Si3 0.527741 0.295207 0.159698
Si Si4 0.367088 0.284573 0.375454
Si Si5 0.672643 0.716271 0.104771
Si Si6 0.222822 0.292803 0.342557
O O1 0.617992 0.500000 0.872517
O O2 0.542728 0.777765 0.893931
O O3 0.625220 0.780382 0.748722
O O4 0.671524 0.773751 0.975906
O O5 0.528006 0.706732 0.294810
O O6 0.578418 0.767071 0.523407
O O7 0.652593 0.712310 0.369760
O O8 0.576466 0.000000 0.367483
O O9 0.530181 0.500000 0.123429
O O10 0.599114 0.220174 0.135441
O O11 0.365615 0.500000 0.372217
O O12 0.292878 0.217831 0.397521
O O13 0.676102 0.500000 0.109621
O O14 0.722830 0.784402 0.207504
O O15 0.220680 0.500000 0.372957
#
# Coordination Sequence:
#
# PCOD9192754 Si02
#       6
#     8   8   8   8   8   8
#     4   9  18  32  51  75 100 127 161 200 238 282
#     4  10  20  34  51  72  98 126 162 205 244 283
#     4   9  17  32  54  75  96 126 163 199 238 285
#     4  10  20  34  51  71  98 131 164 197 239 289
#     4   9  17  31  53  77  98 124 161 201 238 281
#     4   9  19  34  51  72  98 128 161 200 243 286
#
# _framework density 26.665503000000001
#
# number of rings (size 3 to 8) (size 9 to 14) (size 15 to 20)
#    0.000    2.667    0.000    1.500    0.000    4.667 
#    0.000    5.833    0.000    4.000    0.000    0.000 
#    0.000    0.000    0.000    0.000    0.000    0.000 
#
# Total GULP energy -134180.709372 kJ/mol
# GULP energy per Si atom -5590.862891 kJ/mol
# Density = 2.660481 g / cm^3
# Si number density = 26.665503 Si / 1000 Ang^3
#
#
#
# Elastic Constant Matrix: (Units=GPa)
#
#
# Indices 1 2 3 4 5 6 
#
# 1 60.2397 -4.4403 13.4563 0.0000 21.9218 0.0000
# 2 -4.4403 96.7808 -1.5262 0.0000 -1.6168 0.0000
# 3 13.4563 -1.5262 196.5437 0.0000 22.8109 0.0000
# 4 0.0000 0.0000 0.0000 19.1541 0.0000 0.6578
# 5 21.9218 -1.6168 22.8109 0.0000 51.9488 0.0000
# 6 0.0000 0.0000 0.0000 0.6578 0.0000 -1.4304
#
#
#
# Elastic Compliance Matrix: (Units=1/GPa)
#
#
# Indices 1 2 3 4 5 6 
#
# 1 0.019698 0.000762 -0.000401 0.000000 -0.008113 0.000000
# 2 0.000762 0.010368 0.000030 0.000000 -0.000012 0.000000
# 3 -0.000401 0.000030 0.005370 0.000000 -0.002188 0.000000
# 4 0.000000 0.000000 0.000000 0.051396 0.000000 0.023636
# 5 -0.008113 -0.000012 -0.002188 0.000000 0.023633 0.000000
# 6 0.000000 0.000000 0.000000 0.023636 0.000000 -0.688260
#
#
# Mechanical properties :
#
#
# Convention : Reuss Voigt Hill
#
# Bulk Modulus (GPa) = 27.61160 40.94931 34.28046
# Shear Modulus (GPa) = -8.82608 37.00615 14.09004
#
# Velocity S-wave (km/s) = -1.82129 3.72935 2.30119
# Velocity P-wave (km/s) = 2.44018 5.82529 4.46590
#
# Compressibility (1/GPa) = 0.03621666
#
# Stress axis : x y z
#
# Youngs Moduli (GPa) = 50.76565 96.45199 186.23668
#
# Poissons Ratio (x) = -0.07349 0.07471
# Poissons Ratio (y) = -0.03868 -0.00554
# Poissons Ratio (z) = 0.02037 -0.00287
#
# Static dielectric constant tensor:
#      x y z
#    x 2.131990 0.000000 -0.095300 
#    y 0.000000 1.999300 0.000000 
#    z -0.095300 0.000000 2.140560 
# 
# From -- ./inp_files/94520.got.cif
#   From: 2010.05.17/outbox.cif.g08.bks.cpg/sg12_48_cif.got.tgz:94520.got - 2010.06.03 13:09:07.
