data_PCOD9192103
_publ_section_title
;
Structure prediction by ZEFSAII (Michael W. Deem and Ramdas Pophale) SiO2 
 PCOD9192103
Probable space group: C 2/M
;
_chemical_formula_sum "Si O2"
_cell_formula_units_Z 48
_cell_length_a 23.451102
_cell_length_b 8.550060
_cell_length_c 26.727496
_cell_angle_alpha 90.000000
_cell_angle_beta 29.958920
_cell_angle_gamma 90.000000
_cell_volume 2676.214510
_symmetry_space_group_name_H-M "C 2/M"
_symmetry_group_IT_number 12
_symmetry_cell_setting 'monoclinic'
loop_
_space_group_symop_operation_xyz
x,y,z
-x,y,-z
-x,-y,-z
x,-y,z
1/2+x,1/2+y,z
1/2-x,1/2+y,-z
1/2-x,1/2-y,-z
1/2+x,1/2-y,z
loop_
_atom_site_type_symbol
_atom_site_label
_atom_site_fract_x
_atom_site_fract_y
_atom_site_fract_z
Si Si1 0.153005 0.821310 0.607998
Si Si2 0.172149 0.681903 0.698982
Si Si3 0.193783 0.810364 0.119698
Si Si4 0.427008 0.813418 0.508042
Si Si5 0.424679 0.189420 0.890711
Si Si6 0.050467 0.821836 0.316302
O O1 0.250000 0.750000 0.500000
O O2 0.146351 0.708276 0.660020
O O3 0.043176 0.827190 0.656607
O O4 0.178571 0.000000 0.605132
O O5 0.184082 0.500000 0.702431
O O6 0.295618 0.758758 0.613012
O O7 0.050730 0.742409 0.812877
O O8 0.113580 0.753028 0.134790
O O9 0.156109 0.753824 0.203673
O O10 0.186198 0.000000 0.126356
O O11 0.321996 0.766156 0.006053
O O12 0.500000 0.755982 0.500000
O O13 0.490718 0.759605 0.408809
O O14 0.426604 0.000000 0.508373
O O15 0.427876 0.000000 0.884834
O O16 0.077279 0.000000 0.311545
#
# Coordination Sequence:
#
# PCOD9192103 Si02
#       6
#     8   8   8   8   8   8
#     4  11  20  30  47  76 108 139 171 206 254 308
#     4  11  21  33  52  78 107 140 173 208 256 309
#     4   9  17  31  49  75 110 142 171 202 244 298
#     4  11  25  41  56  74  97 131 176 225 271 312
#     4   9  18  30  48  76 110 142 171 203 242 298
#     4  10  20  33  53  78 106 139 171 208 255 307
#
# _framework density 17.935783000000001
#
# number of rings (size 3 to 8) (size 9 to 14) (size 15 to 20)
#    0.000    1.833    3.333    1.500    0.000    3.333 
#    0.000    0.000    0.000    1.000    0.000    7.000 
#    0.000    0.000    0.000    0.000    0.000    0.000 
#
# Total GULP energy -133643.151346 kJ/mol
# GULP energy per Si atom -5568.464639 kJ/mol
# Density = 1.789496 g / cm^3
# Si number density = 17.935783 Si / 1000 Ang^3
#
#
#
# Elastic Constant Matrix: (Units=GPa)
#
#
# Indices 1 2 3 4 5 6 
#
# 1 73.0584 12.0224 53.1391 0.0001 -11.4409 0.0000
# 2 12.0224 22.5052 25.6572 0.0003 -2.3612 -0.0003
# 3 53.1391 25.6572 168.8972 0.0002 -16.7742 -0.0002
# 4 0.0001 0.0003 0.0002 11.5587 -0.0002 -0.2494
# 5 -11.4409 -2.3612 -16.7742 -0.0002 10.4414 0.0001
# 6 0.0000 -0.0003 -0.0002 -0.2494 0.0001 18.8423
#
#
#
# Elastic Compliance Matrix: (Units=1/GPa)
#
#
# Indices 1 2 3 4 5 6 
#
# 1 0.019564 -0.004292 -0.004129 0.000000 0.013832 0.000000
# 2 -0.004292 0.054694 -0.007373 -0.000001 -0.004179 0.000001
# 3 -0.004129 -0.007373 0.009192 0.000000 0.008574 0.000000
# 4 0.000000 -0.000001 0.000000 0.086540 0.000001 0.001146
# 5 0.013832 -0.004179 0.008574 0.000001 0.123757 -0.000001
# 6 0.000000 0.000001 0.000000 0.001146 -0.000001 0.053087
#
#
# Mechanical properties :
#
#
# Convention : Reuss Voigt Hill
#
# Bulk Modulus (GPa) = 19.28266 49.56647 34.42456
# Shear Modulus (GPa) = 12.63551 19.74462 16.19006
#
# Velocity S-wave (km/s) = 2.65709 3.32151 3.00770
# Velocity P-wave (km/s) = 4.49309 6.51194 5.59434
#
# Compressibility (1/GPa) = 0.05186007
#
# Stress axis : x y z
#
# Youngs Moduli (GPa) = 51.11537 18.28341 108.79451
#
# Poissons Ratio (x) = 0.07847 0.44927
# Poissons Ratio (y) = 0.21938 0.80218
# Poissons Ratio (z) = 0.21108 0.13481
#
# Static dielectric constant tensor:
#      x y z
#    x 1.592960 0.000000 -0.017630 
#    y 0.000000 1.627890 0.000000 
#    z -0.017630 0.000000 1.708700 
# 
# From -- ./inp_files/365360.got.cif
#   From: 2010.05.17/outbox.cif.g08.bks.cpg/sg12_183_cif.got.tgz:365360.got - 2010.06.03 13:09:07.
