data_PCOD9192701
_publ_section_title
;
Structure prediction by ZEFSAII (Michael W. Deem and Ramdas Pophale) SiO2 
 PCOD9192701
Probable space group: C 2/M
;
_chemical_formula_sum "Si O2"
_cell_formula_units_Z 32
_cell_length_a 7.571045
_cell_length_b 27.733202
_cell_length_c 7.521738
_cell_angle_alpha 90.000000
_cell_angle_beta 122.102036
_cell_angle_gamma 90.000000
_cell_volume 1337.858812
_symmetry_space_group_name_H-M "C 2/M"
_symmetry_group_IT_number 12
_symmetry_cell_setting 'monoclinic'
loop_
_space_group_symop_operation_xyz
x,y,z
-x,y,-z
-x,-y,-z
x,-y,z
1/2+x,1/2+y,z
1/2-x,1/2+y,-z
1/2-x,1/2-y,-z
1/2+x,1/2-y,z
loop_
_atom_site_type_symbol
_atom_site_label
_atom_site_fract_x
_atom_site_fract_y
_atom_site_fract_z
Si Si1 0.416108 0.000000 0.174596
Si Si2 0.332871 0.314701 0.165828
Si Si3 0.123184 0.080339 0.877430
Si Si4 0.326175 0.500000 0.583322
Si Si5 0.215713 0.284534 0.710911
O O1 0.662083 0.000000 0.336411
O O2 0.308317 0.000000 0.309150
O O3 0.319295 0.952788 0.032548
O O4 0.309831 0.371085 0.185422
O O5 0.579775 0.305349 0.272533
O O6 0.258675 0.273559 0.260709
O O7 0.224612 0.303381 0.918277
O O8 0.968107 0.047187 0.680182
O O9 0.000000 0.091846 0.000000
O O10 0.000000 0.296364 0.500000
#
# Coordination Sequence:
#
# PCOD9192701 Si02
#       5
#     4   8   8   4   8
#     4   8  15  25  42  65  93 123 155 197 246 297
#     4  10  20  34  50  74 103 134 167 205 245 293
#     4   9  15  28  42  65 100 126 153 199 248 289
#     4   8  15  25  42  65  95 122 155 197 247 296
#     4  10  20  34  51  70 101 135 171 207 244 288
#
# _framework density 23.918814000000001
#
# number of rings (size 3 to 8) (size 9 to 14) (size 15 to 20)
#    0.000    2.750    2.500    2.250    0.000    2.000 
#    0.000    0.000    0.000    0.000    0.000    3.500 
#    0.000   74.000    0.000    0.000    0.000    0.000 
#
# Total GULP energy -89561.849609 kJ/mol
# GULP energy per Si atom -5597.615601 kJ/mol
# Density = 2.386437 g / cm^3
# Si number density = 23.918814 Si / 1000 Ang^3
#
#
#
# Elastic Constant Matrix: (Units=GPa)
#
#
# Indices 1 2 3 4 5 6 
#
# 1 62.6769 2.3630 38.2624 0.0000 14.1923 0.0000
# 2 2.3630 180.1595 53.2695 0.0000 36.2983 0.0000
# 3 38.2624 53.2695 171.5851 0.0000 46.6285 0.0000
# 4 0.0000 0.0000 0.0000 -10.4557 0.0000 1.3100
# 5 14.1923 36.2983 46.6285 0.0000 43.0207 0.0000
# 6 0.0000 0.0000 0.0000 1.3100 0.0000 0.4051
#
#
#
# Elastic Compliance Matrix: (Units=1/GPa)
#
#
# Indices 1 2 3 4 5 6 
#
# 1 0.018991 0.001572 -0.003770 0.000000 -0.003505 0.000000
# 2 0.001572 0.006890 -0.001090 0.000000 -0.005151 0.000000
# 3 -0.003770 -0.001090 0.009099 0.000000 -0.007699 0.000000
# 4 0.000000 0.000000 0.000000 -0.068063 0.000000 0.220120
# 5 -0.003505 -0.005151 -0.007699 0.000000 0.037091 0.000000
# 6 0.000000 0.000000 0.000000 0.220120 0.000000 1.756868
#
#
# Mechanical properties :
#
#
# Convention : Reuss Voigt Hill
#
# Bulk Modulus (GPa) = 35.20710 66.91237 51.05973
# Shear Modulus (GPa) = 2.81386 27.96247 15.38816
#
# Velocity S-wave (km/s) = 1.08581 3.42286 2.53919
# Velocity P-wave (km/s) = 4.04021 6.60733 5.47632
#
# Compressibility (1/GPa) = 0.02840336
#
# Stress axis : x y z
#
# Youngs Moduli (GPa) = 52.65681 145.13744 109.89754
#
# Poissons Ratio (x) = -0.22814 0.41437
# Poissons Ratio (y) = -0.08277 0.11977
# Poissons Ratio (z) = 0.19854 0.15818
#
# Static dielectric constant tensor:
#      x y z
#    x 1.936630 0.000000 -0.042810 
#    y 0.000000 1.870760 0.000000 
#    z -0.042810 0.000000 1.911900 
# 
# From -- ./inp_files/40725.got.cif
#   From: 2010.05.17/outbox.cif.g08.bks.cpg/sg12_21_cif.got.tgz:40725.got - 2010.06.03 13:09:07.
