data_PCOD9192208
_publ_section_title
;
Structure prediction by ZEFSAII (Michael W. Deem and Ramdas Pophale) SiO2 
 PCOD9192208
Probable space group: C 2/M
;
_chemical_formula_sum "Si O2"
_cell_formula_units_Z 48
_cell_length_a 19.150237
_cell_length_b 14.091893
_cell_length_c 14.261263
_cell_angle_alpha 90.000000
_cell_angle_beta 141.116197
_cell_angle_gamma 90.000000
_cell_volume 2415.924614
_symmetry_space_group_name_H-M "C 2/M"
_symmetry_group_IT_number 12
_symmetry_cell_setting 'monoclinic'
loop_
_space_group_symop_operation_xyz
x,y,z
-x,y,-z
-x,-y,-z
x,-y,z
1/2+x,1/2+y,z
1/2-x,1/2+y,-z
1/2-x,1/2-y,-z
1/2+x,1/2-y,z
loop_
_atom_site_type_symbol
_atom_site_label
_atom_site_fract_x
_atom_site_fract_y
_atom_site_fract_z
Si Si1 0.598004 0.390425 0.366324
Si Si2 0.799905 0.386373 0.439053
Si Si3 0.330436 0.395778 0.344567
Si Si4 0.918232 0.609620 0.992813
Si Si5 0.470674 0.796397 0.241744
Si Si6 0.618111 0.190999 0.659117
O O1 0.564334 0.500000 0.315308
O O2 0.690161 0.363160 0.384718
O O3 0.656340 0.386925 0.529655
O O4 0.498134 0.315387 0.264270
O O5 0.811665 0.500000 0.450836
O O6 0.909458 0.341356 0.602627
O O7 0.795673 0.348351 0.327290
O O8 0.373702 0.500000 0.361632
O O9 0.385400 0.304363 0.356689
O O10 0.203509 0.391194 0.178782
O O11 0.951600 0.500000 0.046407
O O12 0.929020 0.665612 0.099828
O O13 0.000000 0.650035 0.000000
O O14 0.382696 0.824507 0.230936
O O15 0.500000 0.150578 0.500000
#
# Coordination Sequence:
#
# PCOD9192208 Si02
#       6
#     8   8   8   8   8   8
#     4  10  20  35  60  87 111 146 194 241 279 326
#     4  10  20  33  53  83 115 146 188 236 282 331
#     4  10  20  36  57  83 116 147 186 236 283 332
#     4  10  22  37  57  85 112 145 186 234 287 333
#     4  11  21  35  57  84 113 149 187 232 285 337
#     4  10  21  34  53  86 113 148 187 228 289 335
#
# _framework density 19.868169000000002
#
# number of rings (size 3 to 8) (size 9 to 14) (size 15 to 20)
#    0.000    1.833    3.333    2.000    2.333    8.000 
#    0.000    0.000    0.000    1.500    0.000    0.000 
#    0.000    0.000    0.000    0.000    0.000    0.000 
#
# Total GULP energy -133908.822941 kJ/mol
# GULP energy per Si atom -5579.534289 kJ/mol
# Density = 1.982295 g / cm^3
# Si number density = 19.868169 Si / 1000 Ang^3
#
#
#
# Elastic Constant Matrix: (Units=GPa)
#
#
# Indices 1 2 3 4 5 6 
#
# 1 58.0807 8.1177 30.3781 0.0000 -26.1003 0.0000
# 2 8.1177 60.9660 19.8248 0.0000 -12.3408 0.0000
# 3 30.3781 19.8248 70.0446 0.0000 -23.5067 0.0000
# 4 0.0000 0.0000 0.0000 305.6143 0.0000 -135.4335
# 5 -26.1003 -12.3408 -23.5067 0.0000 33.9863 0.0000
# 6 0.0000 0.0000 0.0000 -135.4335 0.0000 74.7846
#
#
#
# Elastic Compliance Matrix: (Units=1/GPa)
#
#
# Indices 1 2 3 4 5 6 
#
# 1 0.028634 0.002088 -0.007000 0.000000 0.017906 0.000000
# 2 0.002088 0.018631 -0.004389 0.000000 0.005333 0.000000
# 3 -0.007000 -0.004389 0.021118 0.000000 0.007636 0.000000
# 4 0.000000 0.000000 0.000000 0.016571 0.000000 0.030010
# 5 0.017906 0.005333 0.007636 0.000000 0.050393 0.000000
# 6 0.000000 0.000000 0.000000 0.030010 0.000000 0.067718
#
#
# Mechanical properties :
#
#
# Convention : Reuss Voigt Hill
#
# Bulk Modulus (GPa) = 20.08821 33.97030 27.02925
# Shear Modulus (GPa) = 20.98545 91.59509 56.29027
#
# Velocity S-wave (km/s) = 3.25350 6.79717 5.32855
# Velocity P-wave (km/s) = 4.92406 8.87339 7.17577
#
# Compressibility (1/GPa) = 0.04978045
#
# Stress axis : x y z
#
# Youngs Moduli (GPa) = 34.92412 53.67309 47.35400
#
# Poissons Ratio (x) = -0.11208 0.33148
# Poissons Ratio (y) = -0.07293 0.20784
# Poissons Ratio (z) = 0.24447 0.23558
#
# Static dielectric constant tensor:
#      x y z
#    x 1.763780 0.000000 0.019270 
#    y 0.000000 1.727050 0.000000 
#    z 0.019270 0.000000 1.677470 
# 
# From -- ./inp_files/167622.got.cif
#   From: 2010.05.17/outbox.cif.g08.bks.cpg/sg12_84_cif.got.tgz:167622.got - 2010.06.03 13:09:07.
