data_PCOD9192521
_publ_section_title
;
Structure prediction by ZEFSAII (Michael W. Deem and Ramdas Pophale) SiO2 
 PCOD9192521
Probable space group: C 2/M
;
_chemical_formula_sum "Si O2"
_cell_formula_units_Z 36
_cell_length_a 11.381765
_cell_length_b 29.666440
_cell_length_c 5.672790
_cell_angle_alpha 90.000000
_cell_angle_beta 71.442138
_cell_angle_gamma 90.000000
_cell_volume 1815.855741
_symmetry_space_group_name_H-M "C 2/M"
_symmetry_group_IT_number 12
_symmetry_cell_setting 'monoclinic'
loop_
_space_group_symop_operation_xyz
x,y,z
-x,y,-z
-x,-y,-z
x,-y,z
1/2+x,1/2+y,z
1/2-x,1/2+y,-z
1/2-x,1/2-y,-z
1/2+x,1/2-y,z
loop_
_atom_site_type_symbol
_atom_site_label
_atom_site_fract_x
_atom_site_fract_y
_atom_site_fract_z
Si Si1 0.367845 0.756288 0.710228
Si Si2 0.214428 0.823607 0.562076
Si Si3 0.157358 0.415494 0.647408
Si Si4 0.119037 0.552255 0.171575
Si Si5 0.500000 0.296770 0.000000
O O1 0.500000 0.760427 0.500000
O O2 0.302645 0.803766 0.710821
O O3 0.296102 0.715789 0.624814
O O4 0.401983 0.737085 0.942321
O O5 0.276456 0.867485 0.415423
O O6 0.076961 0.826350 0.763869
O O7 0.187319 0.439434 0.376980
O O8 0.006442 0.417594 0.745930
O O9 0.189156 0.437175 0.881823
O O10 0.079089 0.500000 0.191342
#
# Coordination Sequence:
#
# PCOD9192521 Si02
#       5
#     8   8   8   8   4
#     4   9  20  37  53  76 114 158 198 253 294 339
#     4  10  21  35  54  83 116 153 210 237 297 335
#     4  10  20  33  57  87 117 153 189 234 284 370
#     4  10  20  38  58  89 124 152 179 241 321 365
#     4  10  20  38  56  72 113 168 199 244 290 340
#
# _framework density 19.825364
#
# number of rings (size 3 to 8) (size 9 to 14) (size 15 to 20)
#    0.000    2.222    0.000    4.000    6.222    0.000 
#    0.000    0.000    0.000    0.000    0.000    8.556 
#    0.000    0.000    0.000    0.000    0.000    0.000 
#
# Total GULP energy -100219.580601 kJ/mol
# GULP energy per Si atom -5567.754478 kJ/mol
# Density = 1.978024 g / cm^3
# Si number density = 19.825364 Si / 1000 Ang^3
#
#
#
# Elastic Constant Matrix: (Units=GPa)
#
#
# Indices 1 2 3 4 5 6 
#
# 1 36.6097 28.4650 23.2666 0.0000 5.4022 0.0000
# 2 28.4650 70.5614 36.5356 0.0000 -11.3665 0.0000
# 3 23.2666 36.5356 140.2998 0.0000 13.1388 0.0000
# 4 0.0000 0.0000 0.0000 5.3098 0.0000 4.1302
# 5 5.4022 -11.3665 13.1388 0.0000 37.4467 0.0000
# 6 0.0000 0.0000 0.0000 4.1302 0.0000 -7.2378
#
#
#
# Elastic Compliance Matrix: (Units=1/GPa)
#
#
# Indices 1 2 3 4 5 6 
#
# 1 0.044976 -0.019395 -0.001291 0.000000 -0.011923 0.000000
# 2 -0.019395 0.026543 -0.004872 0.000000 0.012564 0.000000
# 3 -0.001291 -0.004872 0.009028 0.000000 -0.004460 0.000000
# 4 0.000000 0.000000 0.000000 0.130436 0.000000 0.074432
# 5 -0.011923 0.012564 -0.004460 0.000000 0.033803 0.000000
# 6 0.000000 0.000000 0.000000 0.074432 0.000000 -0.095690
#
#
# Mechanical properties :
#
#
# Convention : Reuss Voigt Hill
#
# Bulk Modulus (GPa) = 33.98016 47.11170 40.54593
# Shear Modulus (GPa) = 23.80688 17.71733 20.76210
#
# Velocity S-wave (km/s) = 3.46906 2.99267 3.23963
# Velocity P-wave (km/s) = 5.76392 5.97967 5.87278
#
# Compressibility (1/GPa) = 0.02942893
#
# Stress axis : x y z
#
# Youngs Moduli (GPa) = 22.23431 37.67457 110.76371
#
# Poissons Ratio (x) = 0.73072 0.14302
# Poissons Ratio (y) = 0.43124 0.53968
# Poissons Ratio (z) = 0.02871 0.18356
#
# Static dielectric constant tensor:
#      x y z
#    x 1.749570 0.000000 0.016880 
#    y 0.000000 1.662370 0.000000 
#    z 0.016880 0.000000 1.832110 
# 
# From -- ./inp_files/8099.got.cif
#   From: 2010.05.17/outbox.cif.g08.bks.cpg/sg12_5_cif.got.tgz:8099.got - 2010.06.03 13:09:07.
