data_PCOD9192408
_publ_section_title
;
Structure prediction by ZEFSAII (Michael W. Deem and Ramdas Pophale) SiO2 
 PCOD9192408
Probable space group: C 2/M
;
_chemical_formula_sum "Si O2"
_cell_formula_units_Z 64
_cell_length_a 33.953012
_cell_length_b 7.904552
_cell_length_c 14.859454
_cell_angle_alpha 90.000000
_cell_angle_beta 135.610321
_cell_angle_gamma 90.000000
_cell_volume 2789.765099
_symmetry_space_group_name_H-M "C 2/M"
_symmetry_group_IT_number 12
_symmetry_cell_setting 'monoclinic'
loop_
_space_group_symop_operation_xyz
x,y,z
-x,y,-z
-x,-y,-z
x,-y,z
1/2+x,1/2+y,z
1/2-x,1/2+y,-z
1/2-x,1/2-y,-z
1/2+x,1/2-y,z
loop_
_atom_site_type_symbol
_atom_site_label
_atom_site_fract_x
_atom_site_fract_y
_atom_site_fract_z
Si Si1 0.757487 0.204134 0.866642
Si Si2 0.457067 0.695532 0.806946
Si Si3 0.739902 0.205822 0.628938
Si Si4 0.146943 0.805943 0.252429
Si Si5 0.120656 0.204833 0.864026
Si Si6 0.579951 0.191393 0.984354
Si Si7 0.633800 0.697038 0.691821
Si Si8 0.384291 0.801964 0.539655
O O1 0.756263 0.246744 0.758677
O O2 0.701215 0.284582 0.815001
O O3 0.752707 0.000000 0.866438
O O4 0.815915 0.259116 0.005655
O O5 0.464202 0.500000 0.845432
O O6 0.404384 0.772879 0.775634
O O7 0.516637 0.783006 0.915234
O O8 0.435725 0.707022 0.669600
O O9 0.790594 0.271272 0.649151
O O10 0.675247 0.262323 0.515311
O O11 0.739585 0.000000 0.621745
O O12 0.152412 0.000000 0.292143
O O13 0.122692 0.805419 0.111080
O O14 0.082168 0.265811 0.882668
O O15 0.106905 0.263044 0.740545
O O16 0.120091 0.000000 0.862409
O O17 0.598344 0.000000 0.028510
O O18 0.619856 0.500000 0.658754
O O19 0.619530 0.783193 0.574023
O O20 0.389688 0.000000 0.568989
#
# Coordination Sequence:
#
# PCOD9192408 Si02
#       8
#     8   8   8   8   8   8   8   8
#     4   9  16  30  53  80 118 158 187 228 286 343
#     4  11  24  41  63  85 110 154 202 244 289 346
#     4   8  15  31  57  85 116 153 186 225 282 340
#     4  10  20  39  64  88 117 153 193 234 289 354
#     4  10  20  36  57  82 116 156 193 236 289 344
#     4  12  25  39  59  88 120 151 191 246 294 343
#     4  10  20  33  55  86 118 152 194 238 281 342
#     4  10  21  39  60  83 119 159 194 239 289 340
#
# _framework density 22.940999000000001
#
# number of rings (size 3 to 8) (size 9 to 14) (size 15 to 20)
#    0.000    2.000    1.250    3.750    0.000    4.500 
#    0.000    1.250    0.000    3.750    0.000    0.000 
#    0.000    0.000    0.000    0.000    0.000    0.000 
#
# Total GULP energy -178824.012885 kJ/mol
# GULP energy per Si atom -5588.250403 kJ/mol
# Density = 2.288878 g / cm^3
# Si number density = 22.940999 Si / 1000 Ang^3
#
#
#
# Elastic Constant Matrix: (Units=GPa)
#
#
# Indices 1 2 3 4 5 6 
#
# 1 83.6308 0.8056 19.0402 0.0000 -15.2809 0.0000
# 2 0.8056 47.0540 4.2174 0.0000 -6.0013 0.0000
# 3 19.0402 4.2174 76.6005 0.0000 5.2092 0.0000
# 4 0.0000 0.0000 0.0000 16.2417 0.0000 0.1942
# 5 -15.2809 -6.0013 5.2092 0.0000 16.6762 0.0000
# 6 0.0000 0.0000 0.0000 0.1942 0.0000 18.1757
#
#
#
# Elastic Compliance Matrix: (Units=1/GPa)
#
#
# Indices 1 2 3 4 5 6 
#
# 1 0.016373 0.002444 -0.005399 0.000000 0.017570 0.000000
# 2 0.002444 0.022888 -0.002636 0.000000 0.011300 0.000000
# 3 -0.005399 -0.002636 0.015267 0.000000 -0.010665 0.000000
# 4 0.000000 0.000000 0.000000 0.061578 0.000000 -0.000658
# 5 0.017570 0.011300 -0.010665 0.000000 0.083464 0.000000
# 6 0.000000 0.000000 0.000000 -0.000658 0.000000 0.055025
#
#
# Mechanical properties :
#
#
# Convention : Reuss Voigt Hill
#
# Bulk Modulus (GPa) = 23.06997 28.37909 25.72453
# Shear Modulus (GPa) = 17.84273 22.43352 20.13812
#
# Velocity S-wave (km/s) = 2.79187 3.13050 2.96602
# Velocity P-wave (km/s) = 4.52446 5.04619 4.79243
#
# Compressibility (1/GPa) = 0.04334639
#
# Stress axis : x y z
#
# Youngs Moduli (GPa) = 61.07494 43.69137 65.49977
#
# Poissons Ratio (x) = -0.10680 0.35365
# Poissons Ratio (y) = -0.14929 0.17267
# Poissons Ratio (z) = 0.32976 0.11518
#
# Static dielectric constant tensor:
#      x y z
#    x 1.902480 0.000000 -0.038670 
#    y 0.000000 1.818400 0.000000 
#    z -0.038670 0.000000 1.841270 
# 
# From -- ./inp_files/250040.got.cif
#   From: 2010.05.17/outbox.cif.g08.bks.cpg/sg12_126_cif.got.tgz:250040.got - 2010.06.03 13:09:07.
