data_PCOD9192281
_publ_section_title
;
Structure prediction by ZEFSAII (Michael W. Deem and Ramdas Pophale) SiO2 
 PCOD9192281
Probable space group: C 2/M
;
_chemical_formula_sum "Si O2"
_cell_formula_units_Z 64
_cell_length_a 21.231527
_cell_length_b 8.757963
_cell_length_c 24.238024
_cell_angle_alpha 90.000000
_cell_angle_beta 53.843612
_cell_angle_gamma 90.000000
_cell_volume 3638.944847
_symmetry_space_group_name_H-M "C 2/M"
_symmetry_group_IT_number 12
_symmetry_cell_setting 'monoclinic'
loop_
_space_group_symop_operation_xyz
x,y,z
-x,y,-z
-x,-y,-z
x,-y,z
1/2+x,1/2+y,z
1/2-x,1/2+y,-z
1/2-x,1/2-y,-z
1/2+x,1/2-y,z
loop_
_atom_site_type_symbol
_atom_site_label
_atom_site_fract_x
_atom_site_fract_y
_atom_site_fract_z
Si Si1 0.856485 0.831351 0.469093
Si Si2 0.979226 0.684024 0.073603
Si Si3 0.260225 0.815692 0.678919
Si Si4 0.236008 0.317438 0.094194
Si Si5 0.623672 0.682304 0.064072
Si Si6 0.084296 0.678409 0.460145
Si Si7 0.315002 0.171990 0.386657
Si Si8 0.703571 0.816462 0.822780
O O1 0.892089 0.701320 0.488857
O O2 0.767855 0.839810 0.538005
O O3 0.861820 0.782601 0.403028
O O4 0.890390 0.000000 0.460595
O O5 0.986224 0.500000 0.073166
O O6 0.041324 0.754376 0.084312
O O7 0.888678 0.724936 0.129595
O O8 0.000000 0.730512 0.000000
O O9 0.345912 0.761837 0.613952
O O10 0.201596 0.744668 0.664038
O O11 0.241447 0.756405 0.749031
O O12 0.256930 0.000000 0.677844
O O13 0.229695 0.500000 0.102558
O O14 0.160333 0.253963 0.100792
O O15 0.254444 0.243794 0.143730
O O16 0.311249 0.282553 0.016603
O O17 0.619100 0.500000 0.072575
O O18 0.078170 0.500000 0.449504
O O19 0.000000 0.753044 0.500000
O O20 0.346388 0.000000 0.365809
O O21 0.708757 0.000000 0.818422
#
# Coordination Sequence:
#
# PCOD9192281 Si02
#       8
#     8   8   8   8   8   8   8   8
#     4   9  16  26  45  74 102 127 160 205 253 297
#     4  10  20  35  55  80 110 144 182 226 274 323
#     4  10  20  34  53  77 106 137 172 215 262 316
#     4  10  20  34  54  80 110 145 184 225 273 326
#     4  10  20  33  54  82 111 141 180 230 277 322
#     4   9  18  33  53  76 102 135 173 212 257 311
#     4   9  16  28  47  71  99 130 164 202 249 304
#     4  11  22  36  56  80 110 146 184 224 272 329
#
# _framework density 17.587516000000001
#
# number of rings (size 3 to 8) (size 9 to 14) (size 15 to 20)
#    0.000    2.250    1.250    2.250    0.000    6.000 
#    0.000    0.000    2.750    0.000    0.000    0.000 
#    0.000    0.000    0.000    0.000    0.000    0.000 
#
# Total GULP energy -178281.246271 kJ/mol
# GULP energy per Si atom -5571.288946 kJ/mol
# Density = 1.754749 g / cm^3
# Si number density = 17.587516 Si / 1000 Ang^3
#
#
#
# Elastic Constant Matrix: (Units=GPa)
#
#
# Indices 1 2 3 4 5 6 
#
# 1 102.3583 23.6931 53.9536 -0.0003 14.1673 0.0004
# 2 23.6931 44.5610 34.3502 -0.0006 8.4420 0.0006
# 3 53.9536 34.3502 96.9697 0.0000 23.5405 0.0000
# 4 -0.0003 -0.0006 0.0000 56.4118 -0.0001 18.2371
# 5 14.1673 8.4420 23.5405 -0.0001 24.0459 0.0000
# 6 0.0004 0.0006 0.0000 18.2371 0.0000 30.1432
#
#
#
# Elastic Compliance Matrix: (Units=1/GPa)
#
#
# Indices 1 2 3 4 5 6 
#
# 1 0.013961 -0.001972 -0.006874 0.000000 -0.000803 0.000000
# 2 -0.001972 0.031150 -0.009923 0.000001 -0.000060 -0.000001
# 3 -0.006874 -0.009923 0.020756 0.000000 -0.012786 0.000000
# 4 0.000000 0.000001 0.000000 0.022037 0.000000 -0.013333
# 5 -0.000803 -0.000060 -0.012786 0.000000 0.054599 0.000000
# 6 0.000000 -0.000001 0.000000 -0.013333 0.000000 0.041242
#
#
# Mechanical properties :
#
#
# Convention : Reuss Voigt Hill
#
# Bulk Modulus (GPa) = 35.29880 51.98697 43.64289
# Shear Modulus (GPa) = 21.67081 30.91298 26.29189
#
# Velocity S-wave (km/s) = 3.51404 4.19700 3.87061
# Velocity P-wave (km/s) = 6.04802 7.28763 6.69657
#
# Compressibility (1/GPa) = 0.02832957
#
# Stress axis : x y z
#
# Youngs Moduli (GPa) = 71.63022 32.10275 48.17812
#
# Poissons Ratio (x) = 0.06329 0.33118
# Poissons Ratio (y) = 0.14123 0.47806
# Poissons Ratio (z) = 0.49240 0.31855
#
# Static dielectric constant tensor:
#      x y z
#    x 1.623620 0.000000 -0.007690 
#    y 0.000000 1.607150 0.000000 
#    z -0.007690 0.000000 1.579280 
# 
# From -- ./inp_files/319905.got.cif
#   From: 2010.05.17/outbox.cif.g08.bks.cpg/sg12_160_cif.got.tgz:319905.got - 2010.06.03 13:09:07.
