data_PCOD9192860
_publ_section_title
;
Structure prediction by ZEFSAII (Michael W. Deem and Ramdas Pophale) SiO2 
 PCOD9192860
Probable space group: C 2/M
;
_chemical_formula_sum "Si O2"
_cell_formula_units_Z 44
_cell_length_a 8.089627
_cell_length_b 24.146007
_cell_length_c 11.155628
_cell_angle_alpha 90.000000
_cell_angle_beta 109.389732
_cell_angle_gamma 90.000000
_cell_volume 2055.462077
_symmetry_space_group_name_H-M "C 2/M"
_symmetry_group_IT_number 12
_symmetry_cell_setting 'monoclinic'
loop_
_space_group_symop_operation_xyz
x,y,z
-x,y,-z
-x,-y,-z
x,-y,z
1/2+x,1/2+y,z
1/2-x,1/2+y,-z
1/2-x,1/2-y,-z
1/2+x,1/2-y,z
loop_
_atom_site_type_symbol
_atom_site_label
_atom_site_fract_x
_atom_site_fract_y
_atom_site_fract_z
Si Si1 0.211012 0.436909 0.879150
Si Si2 0.281120 0.738532 0.647864
Si Si3 0.085895 0.160363 0.651679
Si Si4 0.134062 0.316223 0.832311
Si Si5 0.924407 0.061763 0.175529
Si Si6 0.000000 0.767490 0.000000
O O1 0.137897 0.500000 0.847555
O O2 0.096582 0.381615 0.832752
O O3 0.378675 0.432225 0.830364
O O4 0.292811 0.433297 0.031916
O O5 0.250000 0.750000 0.500000
O O6 0.258473 0.801563 0.688278
O O7 0.445014 0.697767 0.688346
O O8 0.139893 0.705073 0.695694
O O9 0.113627 0.105782 0.732597
O O10 0.000000 0.150884 0.500000
O O11 0.037250 0.273914 0.898552
O O12 0.334834 0.305592 0.927969
O O13 0.909038 0.000000 0.220544
#
# Coordination Sequence:
#
# PCOD9192860 Si02
#       6
#     8   8   8   8   8   4
#     4   9  18  31  52  74 102 139 173 214 264 311
#     4  10  21  34  52  74 107 143 174 215 259 311
#     4  10  20  34  51  78 106 138 176 215 261 309
#     4  11  20  36  52  78 114 134 182 210 269 315
#     4   9  17  31  50  76 103 134 172 216 263 305
#     4  10  24  30  52  86 108 144 162 226 264 318
#
# _framework density 21.406379999999999
#
# number of rings (size 3 to 8) (size 9 to 14) (size 15 to 20)
#    0.000    2.182    1.818    3.273    5.091    0.364 
#    0.000    0.455    0.000    0.000    0.000    1.273 
#    0.000   11.273    0.000    0.000    0.000    0.000 
#
# Total GULP energy -122741.663870 kJ/mol
# GULP energy per Si atom -5579.166540 kJ/mol
# Density = 2.135766 g / cm^3
# Si number density = 21.406380 Si / 1000 Ang^3
#
#
#
# Elastic Constant Matrix: (Units=GPa)
#
#
# Indices 1 2 3 4 5 6 
#
# 1 21.9469 19.8360 23.1318 0.0000 -7.9492 0.0000
# 2 19.8360 213.5594 66.2667 0.0000 -16.8078 0.0000
# 3 23.1318 66.2667 105.1199 0.0000 -22.8205 0.0000
# 4 0.0000 0.0000 0.0000 47.2431 0.0000 -5.4705
# 5 -7.9492 -16.8078 -22.8205 0.0000 26.5665 0.0000
# 6 0.0000 0.0000 0.0000 -5.4705 0.0000 26.2535
#
#
#
# Elastic Compliance Matrix: (Units=1/GPa)
#
#
# Indices 1 2 3 4 5 6 
#
# 1 0.061279 -0.001760 -0.010616 0.000000 0.008103 0.000000
# 2 -0.001760 0.005881 -0.003229 0.000000 0.000421 0.000000
# 3 -0.010616 -0.003229 0.015674 0.000000 0.008245 0.000000
# 4 0.000000 0.000000 0.000000 0.021690 0.000000 0.004520
# 5 0.008103 0.000421 0.008245 0.000000 0.047415 0.000000
# 6 0.000000 0.000000 0.000000 0.004520 0.000000 0.039032
#
#
# Mechanical properties :
#
#
# Convention : Reuss Voigt Hill
#
# Bulk Modulus (GPa) = 19.37038 62.12170 40.74604
# Shear Modulus (GPa) = 20.88648 35.43873 28.16261
#
# Velocity S-wave (km/s) = 3.12703 4.07322 3.63108
# Velocity P-wave (km/s) = 4.70173 7.15575 6.05438
#
# Compressibility (1/GPa) = 0.05162521
#
# Stress axis : x y z
#
# Youngs Moduli (GPa) = 16.31872 170.03994 63.79883
#
# Poissons Ratio (x) = 0.29926 0.67729
# Poissons Ratio (y) = 0.02872 0.20599
# Poissons Ratio (z) = 0.17324 0.54901
#
# Static dielectric constant tensor:
#      x y z
#    x 1.893300 0.000000 0.029420 
#    y 0.000000 1.781510 0.000000 
#    z 0.029420 0.000000 1.801160 
# 
# From -- ./inp_files/121359.got.cif
#   From: 2010.05.17/outbox.cif.g08.bks.cpg/sg12_61_cif.got.tgz:121359.got - 2010.06.03 13:09:07.
