data_PCOD9192627
_publ_section_title
;
Structure prediction by ZEFSAII (Michael W. Deem and Ramdas Pophale) SiO2 
 PCOD9192627
Probable space group: C 2/M
;
_chemical_formula_sum "Si O2"
_cell_formula_units_Z 64
_cell_length_a 6.920776
_cell_length_b 28.115802
_cell_length_c 17.494655
_cell_angle_alpha 90.000000
_cell_angle_beta 51.322244
_cell_angle_gamma 90.000000
_cell_volume 2657.540302
_symmetry_space_group_name_H-M "C 2/M"
_symmetry_group_IT_number 12
_symmetry_cell_setting 'monoclinic'
loop_
_space_group_symop_operation_xyz
x,y,z
-x,y,-z
-x,-y,-z
x,-y,z
1/2+x,1/2+y,z
1/2-x,1/2+y,-z
1/2-x,1/2-y,-z
1/2+x,1/2-y,z
loop_
_atom_site_type_symbol
_atom_site_label
_atom_site_fract_x
_atom_site_fract_y
_atom_site_fract_z
Si Si1 0.416315 0.690918 0.415112
Si Si2 0.882565 0.945722 0.688629
Si Si3 0.686365 0.942106 0.520878
Si Si4 0.807178 0.646503 0.216181
Si Si5 0.272301 0.946031 0.734424
Si Si6 0.021192 0.696309 0.379519
Si Si7 0.304140 0.806082 0.981293
Si Si8 0.404129 0.650492 0.178163
O O1 0.665642 0.666840 0.324735
O O2 0.213339 0.682335 0.398638
O O3 0.483408 0.746959 0.395995
O O4 0.253395 0.677832 0.530117
O O5 0.676690 0.909539 0.769529
O O6 0.041336 0.928774 0.575385
O O7 0.089266 0.946840 0.705552
O O8 0.801565 0.000000 0.696668
O O9 0.500000 0.925687 0.500000
O O10 0.540818 0.931083 0.634436
O O11 0.690852 0.000000 0.518149
O O12 0.606890 0.652274 0.196967
O O13 0.051306 0.673954 0.128423
O O14 0.173281 0.904198 0.811353
O O15 0.275775 0.000000 0.762868
O O16 0.167817 0.680022 0.267927
O O17 0.500000 0.816686 0.000000
O O18 0.250000 0.750000 0.000000
O O19 0.048907 0.829981 0.069873
#
# Coordination Sequence:
#
# PCOD9192627 Si02
#       8
#     8   8   8   8   8   8   8   8
#     4   9  17  28  42  61  85 111 139 175 218 259
#     4   8  13  21  34  55  84 115 144 172 207 255
#     4   7  10  16  28  48  75 108 141 169 197 239
#     4   9  17  27  41  60  84 114 146 177 214 257
#     4   8  13  21  34  55  84 115 144 172 207 255
#     4   9  17  28  42  61  85 111 139 175 218 259
#     4  10  20  34  49  65  87 115 148 184 219 258
#     4   9  17  27  41  60  84 114 146 177 214 257
#
# _framework density 24.082421
#
# number of rings (size 3 to 8) (size 9 to 14) (size 15 to 20)
#    0.000    3.375    0.000    2.250    1.750    0.000 
#    0.000    0.625    0.000    3.750    0.000    0.000 
#    0.000    5.000    0.000    6.250    0.000    6.500 
#
# Total GULP energy -178795.859148 kJ/mol
# GULP energy per Si atom -5587.370598 kJ/mol
# Density = 2.402761 g / cm^3
# Si number density = 24.082421 Si / 1000 Ang^3
#
#
#
# Elastic Constant Matrix: (Units=GPa)
#
#
# Indices 1 2 3 4 5 6 
#
# 1 97.4106 0.2190 47.3089 0.0000 -20.3136 0.0000
# 2 0.2190 149.1607 131.3343 0.0000 -12.2692 0.0000
# 3 47.3089 131.3343 246.1146 0.0000 -17.0647 0.0000
# 4 0.0000 0.0000 0.0000 47.2483 0.0000 -3.8614
# 5 -20.3136 -12.2692 -17.0647 0.0000 43.6226 0.0000
# 6 0.0000 0.0000 0.0000 -3.8614 0.0000 12.9792
#
#
#
# Elastic Compliance Matrix: (Units=1/GPa)
#
#
# Indices 1 2 3 4 5 6 
#
# 1 0.013753 0.004587 -0.004685 0.000000 0.005862 0.000000
# 2 0.004587 0.014214 -0.008266 0.000000 0.002900 0.000000
# 3 -0.004685 -0.008266 0.009315 0.000000 -0.000863 0.000000
# 4 0.000000 0.000000 0.000000 0.021692 0.000000 0.006453
# 5 0.005862 0.002900 -0.000863 0.000000 0.026132 0.000000
# 6 0.000000 0.000000 0.000000 0.006453 0.000000 0.078966
#
#
# Mechanical properties :
#
#
# Convention : Reuss Voigt Hill
#
# Bulk Modulus (GPa) = 48.65063 94.49004 71.57033
# Shear Modulus (GPa) = 26.64526 41.69160 34.16843
#
# Velocity S-wave (km/s) = 3.32990 4.16529 3.77080
# Velocity P-wave (km/s) = 5.91860 7.90279 6.98155
#
# Compressibility (1/GPa) = 0.02055472
#
# Stress axis : x y z
#
# Youngs Moduli (GPa) = 72.70982 70.35447 107.35751
#
# Poissons Ratio (x) = -0.32273 0.50298
# Poissons Ratio (y) = -0.33353 0.88737
# Poissons Ratio (z) = 0.34065 0.58152
#
# Static dielectric constant tensor:
#      x y z
#    x 2.080440 0.000000 0.013790 
#    y 0.000000 1.951510 0.000000 
#    z 0.013790 0.000000 1.875960 
# 
# From -- ./inp_files/359197.got.cif
#   From: 2010.05.17/outbox.cif.g08.bks.cpg/sg12_180_cif.got.tgz:359197.got - 2010.06.03 13:09:07.
