data_PCOD9192739
_publ_section_title
;
Structure prediction by ZEFSAII (Michael W. Deem and Ramdas Pophale) SiO2 
 PCOD9192739
Probable space group: C 2/M
;
_chemical_formula_sum "Si O2"
_cell_formula_units_Z 64
_cell_length_a 20.939994
_cell_length_b 7.432386
_cell_length_c 19.220038
_cell_angle_alpha 90.000000
_cell_angle_beta 76.022225
_cell_angle_gamma 90.000000
_cell_volume 2902.719950
_symmetry_space_group_name_H-M "C 2/M"
_symmetry_group_IT_number 12
_symmetry_cell_setting 'monoclinic'
loop_
_space_group_symop_operation_xyz
x,y,z
-x,y,-z
-x,-y,-z
x,-y,z
1/2+x,1/2+y,z
1/2-x,1/2+y,-z
1/2-x,1/2-y,-z
1/2+x,1/2-y,z
loop_
_atom_site_type_symbol
_atom_site_label
_atom_site_fract_x
_atom_site_fract_y
_atom_site_fract_z
Si Si1 0.671873 0.712890 0.019355
Si Si2 0.825456 0.292394 0.561275
Si Si3 0.396279 0.287760 0.248294
Si Si4 0.823580 0.781010 0.404833
Si Si5 0.039274 0.279690 0.421693
Si Si6 0.031657 0.283152 0.270726
Si Si7 0.183286 0.221115 0.864460
Si Si8 0.333979 0.794155 0.825140
O O1 0.660023 0.500000 0.026902
O O2 0.647036 0.793874 0.097982
O O3 0.750000 0.750000 0.000000
O O4 0.653013 0.776685 0.947067
O O5 0.818782 0.500000 0.584055
O O6 0.846023 0.283567 0.474712
O O7 0.751993 0.217032 0.584981
O O8 0.885216 0.217803 0.590051
O O9 0.382116 0.500000 0.252383
O O10 0.365844 0.217102 0.328487
O O11 0.474338 0.264810 0.232226
O O12 0.359771 0.218088 0.189460
O O13 0.824092 0.000000 0.407934
O O14 0.038847 0.500000 0.423337
O O15 0.012862 0.222696 0.353625
O O16 0.000000 0.219233 0.500000
O O17 0.035163 0.500000 0.270607
O O18 0.104003 0.213977 0.231447
O O19 0.259839 0.281712 0.838223
O O20 0.184882 0.000000 0.866287
O O21 0.327669 0.000000 0.802438
#
# Coordination Sequence:
#
# PCOD9192739 Si02
#       8
#     8   8   8   8   8   8   8   8
#     4   9  16  30  53  80 107 134 167 209 254 300
#     4   9  17  30  49  71  94 124 166 210 251 298
#     4  10  20  34  51  71 101 135 169 205 250 307
#     4   9  18  30  47  71  97 127 161 204 255 299
#     4   9  17  29  48  72  96 127 169 211 251 297
#     4  10  21  35  52  75 104 134 170 215 261 302
#     4   8  16  31  53  77  99 130 170 206 244 297
#     4   9  18  33  54  78 103 133 170 213 255 298
#
# _framework density 22.048287999999999
#
# number of rings (size 3 to 8) (size 9 to 14) (size 15 to 20)
#    0.000    2.875    0.000    1.875    1.750    2.000 
#    0.000    4.375    0.000    6.000    0.000    0.000 
#    0.000    0.000    0.000    0.000    0.000    0.000 
#
# Total GULP energy -178501.326332 kJ/mol
# GULP energy per Si atom -5578.166448 kJ/mol
# Density = 2.199810 g / cm^3
# Si number density = 22.048288 Si / 1000 Ang^3
#
#
#
# Elastic Constant Matrix: (Units=GPa)
#
#
# Indices 1 2 3 4 5 6 
#
# 1 100.1888 -6.5664 47.2162 0.0000 26.7680 0.0000
# 2 -6.5664 68.2847 -10.3137 0.0000 -0.8531 0.0000
# 3 47.2162 -10.3137 93.0730 0.0000 10.9307 0.0000
# 4 0.0000 0.0000 0.0000 11.6631 0.0000 0.0781
# 5 26.7680 -0.8531 10.9307 0.0000 31.2047 0.0000
# 6 0.0000 0.0000 0.0000 0.0781 0.0000 7.7363
#
#
#
# Elastic Compliance Matrix: (Units=1/GPa)
#
#
# Indices 1 2 3 4 5 6 
#
# 1 0.016355 0.000387 -0.006891 0.000000 -0.011605 0.000000
# 2 0.000387 0.014904 0.001508 0.000000 -0.000453 0.000000
# 3 -0.006891 0.001508 0.014296 0.000000 0.000945 0.000000
# 4 0.000000 0.000000 0.000000 0.085747 0.000000 -0.000865
# 5 -0.011605 -0.000453 0.000945 0.000000 0.041658 0.000000
# 6 0.000000 0.000000 0.000000 -0.000865 0.000000 0.129270
#
#
# Mechanical properties :
#
#
# Convention : Reuss Voigt Hill
#
# Bulk Modulus (GPa) = 28.11861 35.80208 31.96035
# Shear Modulus (GPa) = 15.42852 25.53483 20.48168
#
# Velocity S-wave (km/s) = 2.64817 3.40683 3.05117
# Velocity P-wave (km/s) = 4.70439 5.63459 5.19037
#
# Compressibility (1/GPa) = 0.03556363
#
# Stress axis : x y z
#
# Youngs Moduli (GPa) = 61.14496 67.09627 69.94827
#
# Poissons Ratio (x) = -0.02596 0.48201
# Poissons Ratio (y) = -0.02366 -0.10551
# Poissons Ratio (z) = 0.42135 -0.10121
#
# Static dielectric constant tensor:
#      x y z
#    x 1.792310 0.000000 0.001250 
#    y 0.000000 1.905670 0.000000 
#    z 0.001250 0.000000 1.816760 
# 
# From -- ./inp_files/319090.got.cif
#   From: 2010.05.17/outbox.cif.g08.bks.cpg/sg12_160_cif.got.tgz:319090.got - 2010.06.03 13:09:07.
