data_PCOD9192771
_publ_section_title
;
Structure prediction by ZEFSAII (Michael W. Deem and Ramdas Pophale) SiO2 
 PCOD9192771
Probable space group: C 2/M
;
_chemical_formula_sum "Si O2"
_cell_formula_units_Z 64
_cell_length_a 14.387846
_cell_length_b 9.131689
_cell_length_c 29.982431
_cell_angle_alpha 90.000000
_cell_angle_beta 71.503431
_cell_angle_gamma 90.000000
_cell_volume 3735.760454
_symmetry_space_group_name_H-M "C 2/M"
_symmetry_group_IT_number 12
_symmetry_cell_setting 'monoclinic'
loop_
_space_group_symop_operation_xyz
x,y,z
-x,y,-z
-x,-y,-z
x,-y,z
1/2+x,1/2+y,z
1/2-x,1/2+y,-z
1/2-x,1/2-y,-z
1/2+x,1/2-y,z
loop_
_atom_site_type_symbol
_atom_site_label
_atom_site_fract_x
_atom_site_fract_y
_atom_site_fract_z
Si Si1 0.614311 0.825227 0.298206
Si Si2 0.086308 0.324982 0.619036
Si Si3 0.363667 0.673875 0.800339
Si Si4 0.837005 0.674405 0.115871
Si Si5 0.788445 0.824332 0.634780
Si Si6 0.260452 0.826224 0.950874
Si Si7 0.538927 0.174555 0.132831
Si Si8 0.489018 0.324670 0.552630
O O1 0.506336 0.793309 0.334872
O O2 0.625802 0.752517 0.248447
O O3 0.689840 0.757184 0.322323
O O4 0.625792 0.000000 0.293713
O O5 0.089764 0.500000 0.611788
O O6 0.187270 0.279744 0.626955
O O7 0.064431 0.248695 0.575373
O O8 0.377229 0.500000 0.793656
O O9 0.255328 0.700060 0.837405
O O10 0.438668 0.739641 0.825181
O O11 0.840909 0.500000 0.105914
O O12 0.814541 0.759539 0.073795
O O13 0.937926 0.717051 0.124378
O O14 0.880459 0.793412 0.588296
O O15 0.785825 0.000000 0.642947
O O16 0.368847 0.799557 0.913920
O O17 0.246717 0.000000 0.956995
O O18 0.250000 0.750000 0.000000
O O19 0.535275 0.000000 0.142795
O O20 0.500000 0.275134 0.500000
O O21 0.502761 0.500000 0.551687
#
# Coordination Sequence:
#
# PCOD9192771 Si02
#       8
#     8   8   8   8   8   8   8   8
#     4  10  20  34  51  72  99 129 164 203 242 289
#     4   9  19  34  51  71  96 130 167 201 239 287
#     4  10  20  34  53  76 101 129 162 203 249 293
#     4   9  19  36  55  74  99 131 167 204 243 291
#     4   9  18  34  52  70  97 130 164 201 242 290
#     4  10  20  34  53  76 103 133 166 204 245 289
#     4   9  19  36  55  74  99 133 168 202 242 290
#     4   9  18  32  50  73 100 128 159 200 248 292
#
# _framework density 17.131719
#
# number of rings (size 3 to 8) (size 9 to 14) (size 15 to 20)
#    0.000    2.625    0.000    1.125    0.000    4.750 
#    0.000    7.500    0.000    0.000    0.000    0.000 
#    0.000    0.000    0.000    0.000    0.000    0.000 
#
# Total GULP energy -178522.168572 kJ/mol
# GULP energy per Si atom -5578.817768 kJ/mol
# Density = 1.709273 g / cm^3
# Si number density = 17.131719 Si / 1000 Ang^3
#
#
#
# Elastic Constant Matrix: (Units=GPa)
#
#
# Indices 1 2 3 4 5 6 
#
# 1 153.8535 58.0986 77.9711 0.0000 41.1110 0.0000
# 2 58.0986 52.8759 79.6861 0.0000 17.2527 0.0000
# 3 77.9711 79.6861 170.3158 0.0000 38.5654 0.0000
# 4 0.0000 0.0000 0.0000 34.7571 0.0000 8.5507
# 5 41.1110 17.2527 38.5654 0.0000 19.2560 0.0000
# 6 0.0000 0.0000 0.0000 8.5507 0.0000 27.4670
#
#
#
# Elastic Compliance Matrix: (Units=1/GPa)
#
#
# Indices 1 2 3 4 5 6 
#
# 1 0.032590 -0.049054 0.025314 0.000000 -0.076326 0.000000
# 2 -0.049054 0.138214 -0.069319 0.000000 0.119725 0.000000
# 3 0.025314 -0.069319 0.045543 0.000000 -0.083150 0.000000
# 4 0.000000 0.000000 0.000000 0.031157 0.000000 -0.009699
# 5 -0.076326 0.119725 -0.083150 0.000000 0.274146 0.000000
# 6 0.000000 0.000000 0.000000 -0.009699 0.000000 0.039427
#
#
# Mechanical properties :
#
#
# Convention : Reuss Voigt Hill
#
# Bulk Modulus (GPa) = 33.08159 89.83963 61.46061
# Shear Modulus (GPa) = 6.60266 27.04865 16.82566
#
# Velocity S-wave (km/s) = 1.96531 3.97780 3.13730
# Velocity P-wave (km/s) = 4.94995 8.58205 7.00548
#
# Compressibility (1/GPa) = 0.03022830
#
# Stress axis : x y z
#
# Youngs Moduli (GPa) = 30.68461 7.23518 21.95725
#
# Poissons Ratio (x) = 0.35492 -0.55583
# Poissons Ratio (y) = 1.50521 1.52206
# Poissons Ratio (z) = -0.77676 0.50154
#
# Static dielectric constant tensor:
#      x y z
#    x 1.567580 0.000000 -0.012070 
#    y 0.000000 1.570030 0.000000 
#    z -0.012070 0.000000 1.550080 
# 
# From -- ./inp_files/359849.got.cif
#   From: 2010.05.17/outbox.cif.g08.bks.cpg/sg12_180_cif.got.tgz:359849.got - 2010.06.03 13:09:07.
