data_PCOD9192085
_publ_section_title
;
Structure prediction by ZEFSAII (Michael W. Deem and Ramdas Pophale) SiO2 
 PCOD9192085
Probable space group: C 2/M
;
_chemical_formula_sum "Si O2"
_cell_formula_units_Z 56
_cell_length_a 14.453052
_cell_length_b 21.992585
_cell_length_c 7.454677
_cell_angle_alpha 90.000000
_cell_angle_beta 107.074533
_cell_angle_gamma 90.000000
_cell_volume 2265.102536
_symmetry_space_group_name_H-M "C 2/M"
_symmetry_group_IT_number 12
_symmetry_cell_setting 'monoclinic'
loop_
_space_group_symop_operation_xyz
x,y,z
-x,y,-z
-x,-y,-z
x,-y,z
1/2+x,1/2+y,z
1/2-x,1/2+y,-z
1/2-x,1/2-y,-z
1/2+x,1/2-y,z
loop_
_atom_site_type_symbol
_atom_site_label
_atom_site_fract_x
_atom_site_fract_y
_atom_site_fract_z
Si Si1 0.006623 0.215599 0.720422
Si Si2 0.707126 0.271758 0.285860
Si Si3 0.888864 0.933287 0.417443
Si Si4 0.600106 0.399095 0.964494
Si Si5 0.699937 0.115613 0.838474
Si Si6 0.499826 0.140816 0.214896
Si Si7 0.794642 0.363896 0.747413
O O1 0.900194 0.201960 0.742404
O O2 0.000000 0.211341 0.500000
O O3 0.082416 0.169602 0.861696
O O4 0.019787 0.287186 0.768922
O O5 0.750000 0.250000 0.500000
O O6 0.777441 0.316912 0.223916
O O7 0.701691 0.206402 0.190775
O O8 0.884899 0.938359 0.201898
O O9 0.801715 0.886697 0.407742
O O10 0.000000 0.912933 0.500000
O O11 0.876031 0.000000 0.493635
O O12 0.500000 0.413547 0.000000
O O13 0.693410 0.411083 0.143069
O O14 0.586475 0.104921 0.735719
O O15 0.699673 0.105769 0.054420
O O16 0.611401 0.126570 0.323218
O O17 0.500000 0.130317 0.000000
#
# Coordination Sequence:
#
# PCOD9192085 Si02
#       7
#     8   8   8   8   8   8   8
#     4  11  22  32  46  77 120 161 193 234 283 348
#     4  11  22  31  49  82 117 157 192 229 280 351
#     4  10  23  41  63  86 112 149 198 252 304 347
#     4  11  22  35  57  82 116 158 193 242 293 356
#     4  10  20  33  53  77 115 154 199 225 282 346
#     4   9  19  34  53  75 111 153 197 232 276 347
#     4   9  21  36  56  79 111 152 192 240 289 343
#
# _framework density 24.722942
#
# number of rings (size 3 to 8) (size 9 to 14) (size 15 to 20)
#    0.000    1.857    1.429    2.143   14.000    0.286 
#    0.000    0.000    0.000   10.714    0.000    0.000 
#    0.000   21.714    0.000    0.000    0.000    0.000 
#
# Total GULP energy -156001.958005 kJ/mol
# GULP energy per Si atom -5571.498500 kJ/mol
# Density = 2.466667 g / cm^3
# Si number density = 24.722942 Si / 1000 Ang^3
#
#
#
# Elastic Constant Matrix: (Units=GPa)
#
#
# Indices 1 2 3 4 5 6 
#
# 1 221.4250 41.4618 27.5681 0.0000 33.3838 0.0000
# 2 41.4618 36.9646 5.0422 0.0000 16.2810 0.0000
# 3 27.5681 5.0422 72.2452 0.0000 -3.3925 0.0000
# 4 0.0000 0.0000 0.0000 -54.7564 0.0000 -95.6898
# 5 33.3838 16.2810 -3.3925 0.0000 37.2385 0.0000
# 6 0.0000 0.0000 0.0000 -95.6898 0.0000 -145.2667
#
#
#
# Elastic Compliance Matrix: (Units=1/GPa)
#
#
# Indices 1 2 3 4 5 6 
#
# 1 0.006304 -0.005191 -0.002211 0.000000 -0.003583 0.000000
# 2 -0.005191 0.038457 -0.001280 0.000000 -0.012277 0.000000
# 3 -0.002211 -0.001280 0.014958 0.000000 0.003905 0.000000
# 4 0.000000 0.000000 0.000000 0.120829 0.000000 -0.079592
# 5 -0.003583 -0.012277 0.003905 0.000000 0.035790 0.000000
# 6 0.000000 0.000000 0.000000 -0.079592 0.000000 0.045545
#
#
# Mechanical properties :
#
#
# Convention : Reuss Voigt Hill
#
# Bulk Modulus (GPa) = 23.60981 53.19766 38.40374
# Shear Modulus (GPa) = 17.04360 -15.45275 0.79543
#
# Velocity S-wave (km/s) = 2.62846 -2.50279 0.56783
# Velocity P-wave (km/s) = 4.33385 3.63488 3.99966
#
# Compressibility (1/GPa) = 0.04235528
#
# Stress axis : x y z
#
# Youngs Moduli (GPa) = 158.63582 26.00291 66.85259
#
# Poissons Ratio (x) = 0.13498 0.14784
# Poissons Ratio (y) = 0.82345 0.08555
# Poissons Ratio (z) = 0.35081 0.03328
#
# Static dielectric constant tensor:
#      x y z
#    x 2.090390 0.000000 0.095800 
#    y 0.000000 2.058840 0.000000 
#    z 0.095800 0.000000 2.118270 
# 
# From -- ./inp_files/65416.got.cif
#   From: 2010.05.17/outbox.cif.g08.bks.cpg/sg12_33_cif.got.tgz:65416.got - 2010.06.03 13:09:07.
