data_PCOD9192115
_publ_section_title
;
Structure prediction by ZEFSAII (Michael W. Deem and Ramdas Pophale) SiO2 
 PCOD9192115
Probable space group: C 2/M
;
_chemical_formula_sum "Si O2"
_cell_formula_units_Z 56
_cell_length_a 14.379649
_cell_length_b 11.013657
_cell_length_c 26.814666
_cell_angle_alpha 90.000000
_cell_angle_beta 142.433945
_cell_angle_gamma 90.000000
_cell_volume 2589.113466
_symmetry_space_group_name_H-M "C 2/M"
_symmetry_group_IT_number 12
_symmetry_cell_setting 'monoclinic'
loop_
_space_group_symop_operation_xyz
x,y,z
-x,y,-z
-x,-y,-z
x,-y,z
1/2+x,1/2+y,z
1/2-x,1/2+y,-z
1/2-x,1/2-y,-z
1/2+x,1/2-y,z
loop_
_atom_site_type_symbol
_atom_site_label
_atom_site_fract_x
_atom_site_fract_y
_atom_site_fract_z
Si Si1 0.686095 0.364712 0.531162
Si Si2 0.489756 0.141183 0.942336
Si Si3 0.995574 0.287650 0.376330
Si Si4 0.441962 0.856367 0.815453
Si Si5 0.170396 0.137024 0.895146
Si Si6 0.244757 0.217266 0.342300
Si Si7 0.428273 0.365765 0.253680
O O1 0.657569 0.500000 0.536627
O O2 0.853164 0.359844 0.575901
O O3 0.564499 0.322203 0.438652
O O4 0.686904 0.273116 0.578129
O O5 0.398929 0.174700 0.854257
O O6 0.451990 0.000000 0.934491
O O7 0.500000 0.208107 0.000000
O O8 0.671927 0.141683 0.008025
O O9 0.928071 0.235340 0.296195
O O10 0.869651 0.345932 0.359556
O O11 0.573207 0.756643 0.863289
O O12 0.319417 0.824119 0.721076
O O13 0.480605 0.000000 0.829556
O O14 0.187640 0.143524 0.842112
O O15 0.104515 0.000000 0.876431
O O16 0.095374 0.144392 0.297419
O O17 0.412919 0.500000 0.269692
#
# Coordination Sequence:
#
# PCOD9192115 Si02
#       7
#     8   8   8   8   8   8   8
#     4  10  21  37  53  75 106 138 173 215 267 321
#     4   9  18  31  50  78 106 133 173 219 259 306
#     4  10  21  35  54  78 104 137 177 219 263 315
#     4  10  20  33  53  79 104 135 175 217 263 315
#     4   9  18  34  54  74 104 141 173 215 264 311
#     4  10  21  35  53  79 108 137 174 220 268 318
#     4   9  19  34  53  78 105 137 179 219 260 315
#
# _framework density 21.629024999999999
#
# number of rings (size 3 to 8) (size 9 to 14) (size 15 to 20)
#    0.000    2.429    0.000    1.714    2.000    3.429 
#    0.000    0.000    0.000    6.857    0.000    0.000 
#    0.000    0.000    0.000    0.000    0.000    0.000 
#
# Total GULP energy -155926.376067 kJ/mol
# GULP energy per Si atom -5568.799145 kJ/mol
# Density = 2.157980 g / cm^3
# Si number density = 21.629025 Si / 1000 Ang^3
#
#
#
# Elastic Constant Matrix: (Units=GPa)
#
#
# Indices 1 2 3 4 5 6 
#
# 1 102.8751 11.0664 4.8741 0.0000 -2.3967 0.0000
# 2 11.0664 68.2617 12.1429 0.0000 1.8524 0.0000
# 3 4.8741 12.1429 103.7762 0.0000 -9.9284 0.0000
# 4 0.0000 0.0000 0.0000 8.7562 0.0000 -6.9964
# 5 -2.3967 1.8524 -9.9284 0.0000 35.2703 0.0000
# 6 0.0000 0.0000 0.0000 -6.9964 0.0000 13.5935
#
#
#
# Elastic Compliance Matrix: (Units=1/GPa)
#
#
# Indices 1 2 3 4 5 6 
#
# 1 0.009918 -0.001589 -0.000213 0.000000 0.000697 0.000000
# 2 -0.001589 0.015275 -0.001850 0.000000 -0.001431 0.000000
# 3 -0.000213 -0.001850 0.010144 0.000000 0.002938 0.000000
# 4 0.000000 0.000000 0.000000 0.193977 0.000000 0.099837
# 5 0.000697 -0.001431 0.002938 0.000000 0.029302 0.000000
# 6 0.000000 0.000000 0.000000 0.099837 0.000000 0.124949
#
#
# Mechanical properties :
#
#
# Convention : Reuss Voigt Hill
#
# Bulk Modulus (GPa) = 35.67211 36.78666 36.22939
# Shear Modulus (GPa) = 12.49335 27.97930 20.23633
#
# Velocity S-wave (km/s) = 2.40598 3.60057 3.06209
# Velocity P-wave (km/s) = 4.92411 5.85921 5.41189
#
# Compressibility (1/GPa) = 0.02803310
#
# Stress axis : x y z
#
# Youngs Moduli (GPa) = 100.82898 65.46673 98.58394
#
# Poissons Ratio (x) = 0.10402 0.02102
# Poissons Ratio (y) = 0.16020 0.18234
# Poissons Ratio (z) = 0.02150 0.12109
#
# Static dielectric constant tensor:
#      x y z
#    x 1.972620 0.000000 0.057720 
#    y 0.000000 1.720450 0.000000 
#    z 0.057720 0.000000 1.809310 
# 
# From -- ./inp_files/268632.got.cif
#   From: 2010.05.17/outbox.cif.g08.bks.cpg/sg12_135_cif.got.tgz:268632.got - 2010.06.03 13:09:07.
