data_PCOD9192830
_publ_section_title
;
Structure prediction by ZEFSAII (Michael W. Deem and Ramdas Pophale) SiO2 
 PCOD9192830
Probable space group: C 2/M
;
_chemical_formula_sum "Si O2"
_cell_formula_units_Z 56
_cell_length_a 20.232442
_cell_length_b 7.568644
_cell_length_c 17.539012
_cell_angle_alpha 90.000000
_cell_angle_beta 95.610980
_cell_angle_gamma 90.000000
_cell_volume 2672.918170
_symmetry_space_group_name_H-M "C 2/M"
_symmetry_group_IT_number 12
_symmetry_cell_setting 'monoclinic'
loop_
_space_group_symop_operation_xyz
x,y,z
-x,y,-z
-x,-y,-z
x,-y,z
1/2+x,1/2+y,z
1/2-x,1/2+y,-z
1/2-x,1/2-y,-z
1/2+x,1/2-y,z
loop_
_atom_site_type_symbol
_atom_site_label
_atom_site_fract_x
_atom_site_fract_y
_atom_site_fract_z
Si Si1 0.134683 0.212064 0.306842
Si Si2 0.674210 0.209214 0.016297
Si Si3 0.224116 0.288114 0.176349
Si Si4 0.673328 0.711769 0.478653
Si Si5 0.555809 0.715305 0.567643
Si Si6 0.013073 0.216501 0.731851
Si Si7 0.629941 0.293086 0.850961
O O1 0.193224 0.252665 0.254665
O O2 0.149268 0.279528 0.393610
O O3 0.063113 0.275858 0.269018
O O4 0.130514 0.000000 0.311794
O O5 0.674614 0.276863 0.103310
O O6 0.663569 0.000000 0.015413
O O7 0.750000 0.250000 0.000000
O O8 0.629564 0.280226 0.942625
O O9 0.227813 0.500000 0.166963
O O10 0.298998 0.218680 0.170546
O O11 0.665410 0.500000 0.475974
O O12 0.750000 0.750000 0.500000
O O13 0.626065 0.775431 0.541523
O O14 0.500000 0.767752 0.500000
O O15 0.555217 0.500000 0.569801
O O16 0.538792 0.771440 0.651051
O O17 0.065268 0.279091 0.801243
O O18 0.011844 0.000000 0.733447
O O19 0.631830 0.500000 0.831607
#
# Coordination Sequence:
#
# PCOD9192830 Si02
#       7
#     8   8   8   8   8   8   8
#     4  10  20  34  51  75 104 133 168 211 254 295
#     4   9  17  32  53  76 102 132 169 208 249 299
#     4   9  19  33  51  76 103 133 165 200 251 309
#     4  10  21  34  52  77 103 133 169 210 255 301
#     4   9  15  29  53  75  96 130 174 212 246 288
#     4   9  17  31  51  75 101 130 171 215 248 291
#     4   9  18  32  53  79 102 128 169 213 251 297
#
# _framework density 20.950886000000001
#
# number of rings (size 3 to 8) (size 9 to 14) (size 15 to 20)
#    0.000    2.714    1.429    1.286    2.000    3.429 
#    0.000    1.429    0.000    5.571    0.000    0.000 
#    0.000    0.000    0.000    0.000    0.000    0.000 
#
# Total GULP energy -156143.258597 kJ/mol
# GULP energy per Si atom -5576.544950 kJ/mol
# Density = 2.090320 g / cm^3
# Si number density = 20.950886 Si / 1000 Ang^3
#
#
#
# Elastic Constant Matrix: (Units=GPa)
#
#
# Indices 1 2 3 4 5 6 
#
# 1 85.0149 6.6170 3.0138 0.0000 21.7747 0.0000
# 2 6.6170 40.9007 -0.0573 0.0000 2.5341 0.0000
# 3 3.0138 -0.0573 38.6779 0.0000 22.1371 0.0000
# 4 0.0000 0.0000 0.0000 13.1772 0.0000 -2.1628
# 5 21.7747 2.5341 22.1371 0.0000 40.9324 0.0000
# 6 0.0000 0.0000 0.0000 -2.1628 0.0000 13.7708
#
#
#
# Elastic Compliance Matrix: (Units=1/GPa)
#
#
# Indices 1 2 3 4 5 6 
#
# 1 0.014288 -0.001687 0.004598 0.000000 -0.009983 0.000000
# 2 -0.001687 0.024789 0.000772 0.000000 -0.001055 0.000000
# 3 0.004598 0.000772 0.038995 0.000000 -0.023583 0.000000
# 4 0.000000 0.000000 0.000000 0.077897 0.000000 0.012234
# 5 -0.009983 -0.001055 -0.023583 0.000000 0.042561 0.000000
# 6 0.000000 0.000000 0.000000 0.012234 0.000000 0.074539
#
#
# Mechanical properties :
#
#
# Convention : Reuss Voigt Hill
#
# Bulk Modulus (GPa) = 11.70439 20.41562 16.06000
# Shear Modulus (GPa) = 16.99636 23.91075 20.45356
#
# Velocity S-wave (km/s) = 2.85133 3.38194 3.12791
# Velocity P-wave (km/s) = 4.05448 5.00157 4.55272
#
# Compressibility (1/GPa) = 0.08543802
#
# Stress axis : x y z
#
# Youngs Moduli (GPa) = 69.98984 40.34083 25.64427
#
# Poissons Ratio (x) = 0.06804 -0.11791
# Poissons Ratio (y) = 0.11804 -0.01980
# Poissons Ratio (z) = -0.32180 -0.03114
#
# Static dielectric constant tensor:
#      x y z
#    x 1.740190 0.000000 0.016770 
#    y 0.000000 1.725920 0.000000 
#    z 0.016770 0.000000 1.751130 
# 
# From -- ./inp_files/230932.got.cif
#   From: 2010.05.17/outbox.cif.g08.bks.cpg/sg12_116_cif.got.tgz:230932.got - 2010.06.03 13:09:07.
