data_PCOD9192362
_publ_section_title
;
Structure prediction by ZEFSAII (Michael W. Deem and Ramdas Pophale) SiO2 
 PCOD9192362
Probable space group: C 2/M
;
_chemical_formula_sum "Si O2"
_cell_formula_units_Z 48
_cell_length_a 22.798012
_cell_length_b 7.541314
_cell_length_c 19.738508
_cell_angle_alpha 90.000000
_cell_angle_beta 142.905389
_cell_angle_gamma 90.000000
_cell_volume 2046.781071
_symmetry_space_group_name_H-M "C 2/M"
_symmetry_group_IT_number 12
_symmetry_cell_setting 'monoclinic'
loop_
_space_group_symop_operation_xyz
x,y,z
-x,y,-z
-x,-y,-z
x,-y,z
1/2+x,1/2+y,z
1/2-x,1/2+y,-z
1/2-x,1/2-y,-z
1/2+x,1/2-y,z
loop_
_atom_site_type_symbol
_atom_site_label
_atom_site_fract_x
_atom_site_fract_y
_atom_site_fract_z
Si Si1 0.066740 0.213396 0.229435
Si Si2 0.646215 0.710251 0.439954
Si Si3 0.589834 0.218180 0.628887
Si Si4 0.261858 0.794819 0.339712
Si Si5 0.853702 0.296139 0.179089
Si Si6 0.144742 0.710044 0.971552
O O1 0.072742 0.276119 0.313843
O O2 0.161094 0.282423 0.275773
O O3 0.963568 0.257861 0.101746
O O4 0.075725 0.000000 0.241331
O O5 0.634673 0.500000 0.437792
O O6 0.750000 0.750000 0.500000
O O7 0.658891 0.789984 0.526024
O O8 0.500000 0.272390 0.500000
O O9 0.686634 0.280354 0.678924
O O10 0.587359 0.281789 0.703939
O O11 0.590965 0.000000 0.631536
O O12 0.241076 0.000000 0.305936
O O13 0.883466 0.500000 0.199120
O O14 0.857793 0.214983 0.108081
O O15 0.739192 0.291234 0.093386
O O16 0.161952 0.500000 0.985418
#
# Coordination Sequence:
#
# PCOD9192362 Si02
#       6
#     8   8   8   8   8   8
#     4   9  18  31  48  74 105 137 171 212 261 311
#     4   9  17  29  46  71 104 139 173 211 257 305
#     4   9  18  33  56  81 105 137 178 218 258 314
#     4   9  18  32  51  76 107 139 174 217 264 313
#     4   9  19  36  55  78 105 135 173 219 264 308
#     4  10  20  33  55  81 102 134 176 219 266 310
#
# _framework density 23.451457000000001
#
# number of rings (size 3 to 8) (size 9 to 14) (size 15 to 20)
#    0.000    2.833    0.000    2.000    2.333    4.000 
#    0.000    1.667    0.000    6.000    0.000    0.000 
#    0.000    0.000    0.000    0.000    0.000    0.000 
#
# Total GULP energy -133922.946035 kJ/mol
# GULP energy per Si atom -5580.122751 kJ/mol
# Density = 2.339808 g / cm^3
# Si number density = 23.451457 Si / 1000 Ang^3
#
#
#
# Elastic Constant Matrix: (Units=GPa)
#
#
# Indices 1 2 3 4 5 6 
#
# 1 63.7934 6.6508 11.1576 0.0000 2.5799 0.0000
# 2 6.6508 74.1957 -3.7949 0.0000 0.9314 0.0000
# 3 11.1576 -3.7949 89.5844 0.0000 8.9359 0.0000
# 4 0.0000 0.0000 0.0000 17.2181 0.0000 5.1263
# 5 2.5799 0.9314 8.9359 0.0000 40.3903 0.0000
# 6 0.0000 0.0000 0.0000 5.1263 0.0000 3.8366
#
#
#
# Elastic Compliance Matrix: (Units=1/GPa)
#
#
# Indices 1 2 3 4 5 6 
#
# 1 0.016215 -0.001550 -0.002030 0.000000 -0.000551 0.000000
# 2 -0.001550 0.013663 0.000811 0.000000 -0.000396 0.000000
# 3 -0.002030 0.000811 0.011697 0.000000 -0.002477 0.000000
# 4 0.000000 0.000000 0.000000 0.096443 0.000000 -0.128860
# 5 -0.000551 -0.000396 -0.002477 0.000000 0.025351 0.000000
# 6 0.000000 0.000000 0.000000 -0.128860 0.000000 0.432818
#
#
# Mechanical properties :
#
#
# Convention : Reuss Voigt Hill
#
# Bulk Modulus (GPa) = 27.74981 28.40008 28.07494
# Shear Modulus (GPa) = 8.14680 26.52634 17.33657
#
# Velocity S-wave (km/s) = 1.86586 3.36686 2.72187
# Velocity P-wave (km/s) = 4.06208 5.22022 4.67714
#
# Compressibility (1/GPa) = 0.03603628
#
# Stress axis : x y z
#
# Youngs Moduli (GPa) = 61.67274 73.18877 85.49232
#
# Poissons Ratio (x) = 0.11347 0.17357
# Poissons Ratio (y) = 0.09562 -0.06936
# Poissons Ratio (z) = 0.12521 -0.05938
#
# Static dielectric constant tensor:
#      x y z
#    x 1.912220 0.000000 0.016990 
#    y 0.000000 2.041430 0.000000 
#    z 0.016990 0.000000 1.905580 
# 
# From -- ./inp_files/327321.got.cif
#   From: 2010.05.17/outbox.cif.g08.bks.cpg/sg12_164_cif.got.tgz:327321.got - 2010.06.03 13:09:07.
