data_PCOD9192929
_publ_section_title
;
Structure prediction by ZEFSAII (Michael W. Deem and Ramdas Pophale) SiO2 
 PCOD9192929
Probable space group: C 2/M
;
_chemical_formula_sum "Si O2"
_cell_formula_units_Z 64
_cell_length_a 8.409505
_cell_length_b 12.367139
_cell_length_c 34.132506
_cell_angle_alpha 90.000000
_cell_angle_beta 76.535999
_cell_angle_gamma 90.000000
_cell_volume 3452.270246
_symmetry_space_group_name_H-M "C 2/M"
_symmetry_group_IT_number 12
_symmetry_cell_setting 'monoclinic'
loop_
_space_group_symop_operation_xyz
x,y,z
-x,y,-z
-x,-y,-z
x,-y,z
1/2+x,1/2+y,z
1/2-x,1/2+y,-z
1/2-x,1/2-y,-z
1/2+x,1/2-y,z
loop_
_atom_site_type_symbol
_atom_site_label
_atom_site_fract_x
_atom_site_fract_y
_atom_site_fract_z
Si Si1 0.348556 0.621488 0.075253
Si Si2 0.518562 0.212006 0.782488
Si Si3 0.835745 0.876020 0.642397
Si Si4 0.011568 0.623967 0.545765
Si Si5 0.179605 0.122704 0.830248
Si Si6 0.643179 0.376102 0.265936
Si Si7 0.173654 0.787079 0.594074
Si Si8 0.403960 0.804855 0.970022
O O1 0.414506 0.500000 0.064917
O O2 0.318970 0.636476 0.123080
O O3 0.475700 0.711923 0.053313
O O4 0.179152 0.631798 0.060860
O O5 0.360301 0.142860 0.802680
O O6 0.564272 0.290240 0.816000
O O7 0.472855 0.290659 0.749003
O O8 0.676704 0.142471 0.762449
O O9 0.846984 0.857109 0.688179
O O10 0.717825 0.791336 0.627791
O O11 0.014961 0.856668 0.613666
O O12 0.783294 0.000000 0.638975
O O13 0.064080 0.500000 0.549199
O O14 0.832362 0.643313 0.574508
O O15 0.000000 0.642775 0.500000
O O16 0.129471 0.708722 0.560340
O O17 0.126479 0.000000 0.824709
O O18 0.590100 0.500000 0.262524
O O19 0.500000 0.863656 0.000000
O O20 0.250000 0.750000 0.000000
#
# Coordination Sequence:
#
# PCOD9192929 Si02
#       8
#     8   8   8   8   8   8   8   8
#     4  10  20  35  54  75 102 134 166 205 250 293
#     4  10  20  34  53  75 103 133 165 207 249 291
#     4  10  20  34  52  74 101 132 167 206 247 295
#     4  10  20  34  52  74 100 130 165 206 251 299
#     4  10  20  34  53  76 101 132 168 204 247 296
#     4  10  20  34  52  75 102 133 168 205 248 296
#     4  10  20  34  52  74 100 131 167 205 250 298
#     4   9  19  34  52  75 101 129 166 204 242 293
#
# _framework density 18.538526000000001
#
# number of rings (size 3 to 8) (size 9 to 14) (size 15 to 20)
#    0.000    2.125    0.000    3.375    0.000    2.500 
#    0.000    1.875    0.000   28.500    0.000    0.000 
#    0.000    0.000    0.000    0.000    0.000    0.000 
#
# Total GULP energy -178552.107814 kJ/mol
# GULP energy per Si atom -5579.753369 kJ/mol
# Density = 1.849633 g / cm^3
# Si number density = 18.538526 Si / 1000 Ang^3
#
#
#
# Elastic Constant Matrix: (Units=GPa)
#
#
# Indices 1 2 3 4 5 6 
#
# 1 25.4542 -6.5068 -12.8539 0.0000 4.8412 0.0000
# 2 -6.5068 59.5269 29.3993 0.0000 3.5304 0.0000
# 3 -12.8539 29.3993 77.9028 0.0000 12.7586 0.0000
# 4 0.0000 0.0000 0.0000 10.2235 0.0000 -3.4191
# 5 4.8412 3.5304 12.7586 0.0000 23.5157 0.0000
# 6 0.0000 0.0000 0.0000 -3.4191 0.0000 15.5141
#
#
#
# Elastic Compliance Matrix: (Units=1/GPa)
#
#
# Indices 1 2 3 4 5 6 
#
# 1 0.047507 0.001218 0.009890 0.000000 -0.015329 0.000000
# 2 0.001218 0.020712 -0.007754 0.000000 0.000847 0.000000
# 3 0.009890 -0.007754 0.019248 0.000000 -0.011315 0.000000
# 4 0.000000 0.000000 0.000000 0.105597 0.000000 0.023273
# 5 -0.015329 0.000847 -0.011315 0.000000 0.051692 0.000000
# 6 0.000000 0.000000 0.000000 0.023273 0.000000 0.069586
#
#
# Mechanical properties :
#
#
# Convention : Reuss Voigt Hill
#
# Bulk Modulus (GPa) = 10.61879 20.32902 15.47391
# Shear Modulus (GPa) = 14.74811 20.04035 17.39423
#
# Velocity S-wave (km/s) = 2.82359 3.29144 3.06645
# Velocity P-wave (km/s) = 4.04606 5.04325 4.57193
#
# Compressibility (1/GPa) = 0.09417265
#
# Stress axis : x y z
#
# Youngs Moduli (GPa) = 21.04958 48.28216 51.95455
#
# Poissons Ratio (x) = -0.05880 -0.51380
# Poissons Ratio (y) = -0.02563 0.40286
# Poissons Ratio (z) = -0.20817 0.37438
#
# Static dielectric constant tensor:
#      x y z
#    x 1.616440 0.000000 0.020790 
#    y 0.000000 1.613610 0.000000 
#    z 0.020790 0.000000 1.625340 
# 
# From -- ./inp_files/372159.got.cif
#   From: 2010.05.17/outbox.cif.g08.bks.cpg/sg12_187_cif.got.tgz:372159.got - 2010.06.03 13:09:07.
