data_PCOD9192340
_publ_section_title
;
Structure prediction by ZEFSAII (Michael W. Deem and Ramdas Pophale) SiO2 
 PCOD9192340
Probable space group: C 2/M
;
_chemical_formula_sum "Si O2"
_cell_formula_units_Z 48
_cell_length_a 27.071696
_cell_length_b 16.337834
_cell_length_c 13.430892
_cell_angle_alpha 90.000000
_cell_angle_beta 155.367709
_cell_angle_gamma 90.000000
_cell_volume 2475.913004
_symmetry_space_group_name_H-M "C 2/M"
_symmetry_group_IT_number 12
_symmetry_cell_setting 'monoclinic'
loop_
_space_group_symop_operation_xyz
x,y,z
-x,y,-z
-x,-y,-z
x,-y,z
1/2+x,1/2+y,z
1/2-x,1/2+y,-z
1/2-x,1/2-y,-z
1/2+x,1/2-y,z
loop_
_atom_site_type_symbol
_atom_site_label
_atom_site_fract_x
_atom_site_fract_y
_atom_site_fract_z
Si Si1 0.039937 0.680584 0.958561
Si Si2 0.183053 0.592388 0.517725
Si Si3 0.003252 0.906949 0.623461
Si Si4 0.166075 0.810788 0.069115
Si Si5 0.883084 0.904401 0.718691
Si Si6 0.787021 0.848317 0.342749
O O1 0.927018 0.652585 0.689773
O O2 0.086300 0.769354 0.009830
O O3 0.154793 0.625980 0.137464
O O4 0.000000 0.676245 0.000000
O O5 0.139548 0.500000 0.437114
O O6 0.264381 0.612125 0.760683
O O7 0.269354 0.604214 0.581609
O O8 0.000000 0.891857 0.500000
O O9 0.870832 0.900715 0.425781
O O10 0.046761 0.000000 0.720482
O O11 0.085086 0.840840 0.830659
O O12 0.260595 0.736285 0.234494
O O13 0.857758 0.847348 0.577375
O O14 0.889589 0.000000 0.695991
O O15 0.000000 0.891700 0.000000
#
# Coordination Sequence:
#
# PCOD9192340 Si02
#       6
#     8   8   8   8   8   8
#     4  10  22  39  61  88 127 169 201 236 291 361
#     4  11  21  35  56  86 123 163 201 241 291 351
#     4  11  24  44  68  91 116 152 203 262 315 362
#     4  10  23  39  62  89 119 160 199 251 301 364
#     4  10  20  33  54  87 124 163 204 246 289 345
#     4  10  22  39  64  87 123 163 202 252 296 360
#
# _framework density 19.386787999999999
#
# number of rings (size 3 to 8) (size 9 to 14) (size 15 to 20)
#    1.000    0.667    1.667    3.000    0.000    8.333 
#    0.000    0.000    0.000    0.500    0.000    3.500 
#    0.000    0.000    0.000    0.000    0.000    0.000 
#
# Total GULP energy -133659.968916 kJ/mol
# GULP energy per Si atom -5569.165371 kJ/mol
# Density = 1.934266 g / cm^3
# Si number density = 19.386788 Si / 1000 Ang^3
#
#
#
# Elastic Constant Matrix: (Units=GPa)
#
#
# Indices 1 2 3 4 5 6 
#
# 1 71.2227 15.5373 43.3645 0.0000 -10.3809 0.0000
# 2 15.5373 67.8363 34.9958 0.0000 -7.2158 0.0000
# 3 43.3645 34.9958 113.5300 0.0000 5.7583 0.0000
# 4 0.0000 0.0000 0.0000 30.7239 0.0000 -3.9288
# 5 -10.3809 -7.2158 5.7583 0.0000 16.8309 0.0000
# 6 0.0000 0.0000 0.0000 -3.9288 0.0000 19.4144
#
#
#
# Elastic Compliance Matrix: (Units=1/GPa)
#
#
# Indices 1 2 3 4 5 6 
#
# 1 0.022386 0.002004 -0.010087 0.000000 0.018117 0.000000
# 2 0.002004 0.019351 -0.007341 0.000000 0.012044 0.000000
# 3 -0.010087 -0.007341 0.015671 0.000000 -0.014730 0.000000
# 4 0.000000 0.000000 0.000000 0.033413 0.000000 0.006761
# 5 0.018117 0.012044 -0.014730 0.000000 0.080792 0.000000
# 6 0.000000 0.000000 0.000000 0.006761 0.000000 0.052876
#
#
# Mechanical properties :
#
#
# Convention : Reuss Voigt Hill
#
# Bulk Modulus (GPa) = 37.65270 48.93158 43.29214
# Shear Modulus (GPa) = 18.92579 23.97328 21.44953
#
# Velocity S-wave (km/s) = 3.12784 3.52032 3.32987
# Velocity P-wave (km/s) = 5.70163 6.46668 6.09617
#
# Compressibility (1/GPa) = 0.02655852
#
# Stress axis : x y z
#
# Youngs Moduli (GPa) = 44.67174 51.67773 63.81150
#
# Poissons Ratio (x) = -0.10354 0.64367
# Poissons Ratio (y) = -0.08951 0.46844
# Poissons Ratio (z) = 0.45060 0.37937
#
# Static dielectric constant tensor:
#      x y z
#    x 1.665180 0.000000 0.034790 
#    y 0.000000 1.717590 0.000000 
#    z 0.034790 0.000000 1.693960 
# 
# From -- ./inp_files/177413.got.cif
#   From: 2010.05.17/outbox.cif.g08.bks.cpg/sg12_89_cif.got.tgz:177413.got - 2010.06.03 13:09:07.
