data_PCOD9192441
_publ_section_title
;
Structure prediction by ZEFSAII (Michael W. Deem and Ramdas Pophale) SiO2 
 PCOD9192441
Probable space group: C 2/M
;
_chemical_formula_sum "Si O2"
_cell_formula_units_Z 56
_cell_length_a 13.583770
_cell_length_b 24.094482
_cell_length_c 9.790155
_cell_angle_alpha 90.000000
_cell_angle_beta 61.371718
_cell_angle_gamma 90.000000
_cell_volume 2812.526524
_symmetry_space_group_name_H-M "C 2/M"
_symmetry_group_IT_number 12
_symmetry_cell_setting 'monoclinic'
loop_
_space_group_symop_operation_xyz
x,y,z
-x,y,-z
-x,-y,-z
x,-y,z
1/2+x,1/2+y,z
1/2-x,1/2+y,-z
1/2-x,1/2-y,-z
1/2+x,1/2-y,z
loop_
_atom_site_type_symbol
_atom_site_label
_atom_site_fract_x
_atom_site_fract_y
_atom_site_fract_z
Si Si1 0.214084 0.060755 0.513016
Si Si2 0.082551 0.750215 0.681896
Si Si3 0.345995 0.798193 0.820033
Si Si4 0.393402 0.377896 0.655134
Si Si5 0.002128 0.064337 0.155904
Si Si6 0.722053 0.831203 0.409266
Si Si7 0.810713 0.300523 0.136449
O O1 0.148291 0.072242 0.415481
O O2 0.290005 0.113810 0.493428
O O3 0.121978 0.062652 0.695776
O O4 0.266600 0.000000 0.475641
O O5 0.148782 0.808075 0.664820
O O6 0.149412 0.719369 0.517432
O O7 0.101453 0.712959 0.804794
O O8 0.951742 0.743755 0.737737
O O9 0.328266 0.840311 0.707530
O O10 0.236830 0.759850 0.873053
O O11 0.349311 0.825249 0.966866
O O12 0.500000 0.353993 0.500000
O O13 0.428121 0.399253 0.781866
O O14 0.291188 0.335647 0.735054
O O15 0.042985 0.000000 0.127386
O O16 0.000000 0.084306 0.000000
#
# Coordination Sequence:
#
# PCOD9192441 Si02
#       7
#     8   8   8   8   8   8   8
#     4  10  20  36  55  81 114 148 189 237 280 333
#     4  10  20  37  57  79 116 147 185 228 282 333
#     4  10  22  35  54  80 118 145 180 236 279 336
#     4  10  20  33  56  79 111 150 185 229 278 336
#     4   9  19  33  51  80 112 144 183 228 285 338
#     4  10  21  35  57  88 109 147 194 224 279 345
#     4  10  21  36  52  85 109 146 192 218 283 348
#
# _framework density 19.910923
#
# number of rings (size 3 to 8) (size 9 to 14) (size 15 to 20)
#    0.000    2.143    1.429    1.286    6.000    1.714 
#    0.000    0.000    0.000    1.714    0.000    1.000 
#    0.000    0.000    0.000    0.000    0.000    0.000 
#
# Total GULP energy -156086.969470 kJ/mol
# GULP energy per Si atom -5574.534624 kJ/mol
# Density = 1.986560 g / cm^3
# Si number density = 19.910923 Si / 1000 Ang^3
#
#
#
# Elastic Constant Matrix: (Units=GPa)
#
#
# Indices 1 2 3 4 5 6 
#
# 1 65.3513 8.1307 22.3090 0.0000 20.0454 0.0000
# 2 8.1307 64.4207 14.3932 0.0000 8.4940 0.0000
# 3 22.3090 14.3932 97.1301 0.0000 34.3026 0.0000
# 4 0.0000 0.0000 0.0000 18.1313 0.0000 3.3436
# 5 20.0454 8.4940 34.3026 0.0000 33.5883 0.0000
# 6 0.0000 0.0000 0.0000 3.3436 0.0000 18.0901
#
#
#
# Elastic Compliance Matrix: (Units=1/GPa)
#
#
# Indices 1 2 3 4 5 6 
#
# 1 0.018798 -0.000881 -0.000475 0.000000 -0.010510 0.000000
# 2 -0.000881 0.016237 -0.001469 0.000000 -0.002080 0.000000
# 3 -0.000475 -0.001469 0.016253 0.000000 -0.015944 0.000000
# 4 0.000000 0.000000 0.000000 0.057099 0.000000 -0.010554
# 5 -0.010510 -0.002080 -0.015944 0.000000 0.052854 0.000000
# 6 0.000000 0.000000 0.000000 -0.010554 0.000000 0.057230
#
#
# Mechanical properties :
#
#
# Convention : Reuss Voigt Hill
#
# Bulk Modulus (GPa) = 21.91175 35.17421 28.54298
# Shear Modulus (GPa) = 20.89151 26.09989 23.49570
#
# Velocity S-wave (km/s) = 3.24272 3.62447 3.43890
# Velocity P-wave (km/s) = 5.00491 5.93463 5.48949
#
# Compressibility (1/GPa) = 0.04563761
#
# Stress axis : x y z
#
# Youngs Moduli (GPa) = 53.19837 61.58918 61.52733
#
# Poissons Ratio (x) = 0.05423 0.02923
# Poissons Ratio (y) = 0.04684 0.09039
# Poissons Ratio (z) = 0.02527 0.09048
#
# Static dielectric constant tensor:
#      x y z
#    x 1.730580 0.000000 0.023390 
#    y 0.000000 1.717400 0.000000 
#    z 0.023390 0.000000 1.815940 
# 
# From -- ./inp_files/65298.got.cif
#   From: 2010.05.17/outbox.cif.g08.bks.cpg/sg12_33_cif.got.tgz:65298.got - 2010.06.03 13:09:07.
