data_PCOD9192787
_publ_section_title
;
Structure prediction by ZEFSAII (Michael W. Deem and Ramdas Pophale) SiO2 
 PCOD9192787
Probable space group: C 2/M
;
_chemical_formula_sum "Si O2"
_cell_formula_units_Z 56
_cell_length_a 19.260425
_cell_length_b 8.879325
_cell_length_c 26.391679
_cell_angle_alpha 90.000000
_cell_angle_beta 139.610895
_cell_angle_gamma 90.000000
_cell_volume 2924.631428
_symmetry_space_group_name_H-M "C 2/M"
_symmetry_group_IT_number 12
_symmetry_cell_setting 'monoclinic'
loop_
_space_group_symop_operation_xyz
x,y,z
-x,y,-z
-x,-y,-z
x,-y,z
1/2+x,1/2+y,z
1/2-x,1/2+y,-z
1/2-x,1/2-y,-z
1/2+x,1/2-y,z
loop_
_atom_site_type_symbol
_atom_site_label
_atom_site_fract_x
_atom_site_fract_y
_atom_site_fract_z
Si Si1 0.165522 0.821468 0.822048
Si Si2 0.558490 0.678192 0.480835
Si Si3 0.460927 0.819369 0.749012
Si Si4 0.787465 0.321899 0.573398
Si Si5 0.167443 0.820956 0.230073
Si Si6 0.602920 0.177750 0.681001
Si Si7 0.116756 0.819036 0.085149
O O1 0.124596 0.769772 0.743820
O O2 0.285980 0.757308 0.891039
O O3 0.079279 0.749780 0.812173
O O4 0.165878 0.000000 0.826811
O O5 0.500000 0.720307 0.500000
O O6 0.539508 0.500000 0.460916
O O7 0.685314 0.700754 0.553335
O O8 0.504968 0.772053 0.406163
O O9 0.392326 0.766935 0.661385
O O10 0.395536 0.767731 0.761968
O O11 0.466769 0.000000 0.750475
O O12 0.800947 0.500000 0.572221
O O13 0.750000 0.250000 0.500000
O O14 0.295402 0.793186 0.299309
O O15 0.128347 0.782498 0.151338
O O16 0.151161 0.000000 0.228696
O O17 0.602290 0.000000 0.692845
O O18 0.129188 0.000000 0.087806
O O19 0.000000 0.776704 0.000000
#
# Coordination Sequence:
#
# PCOD9192787 Si02
#       7
#     8   8   8   8   8   8   8
#     4  11  22  36  57  83 111 143 181 224 270 324
#     4  10  20  34  51  73 102 137 182 234 285 331
#     4  11  22  37  56  79 110 147 188 230 276 330
#     4  10  22  36  51  73 102 140 183 230 280 327
#     4   9  19  35  56  83 112 143 180 223 272 324
#     4  10  20  35  54  77 106 142 187 232 276 331
#     4   9  19  39  65  90 117 146 177 218 268 324
#
# _framework density 19.147711000000001
#
# number of rings (size 3 to 8) (size 9 to 14) (size 15 to 20)
#    0.000    2.000    0.000    4.714    0.000    8.571 
#    0.000    0.714    0.000    0.000    0.000    0.000 
#    0.000    0.000    0.000    0.000    0.000    0.000 
#
# Total GULP energy -156375.980676 kJ/mol
# GULP energy per Si atom -5584.856453 kJ/mol
# Density = 1.910413 g / cm^3
# Si number density = 19.147711 Si / 1000 Ang^3
#
#
#
# Elastic Constant Matrix: (Units=GPa)
#
#
# Indices 1 2 3 4 5 6 
#
# 1 90.5721 34.8814 19.4718 0.0000 20.3591 0.0000
# 2 34.8814 47.8873 26.2387 0.0000 14.8401 0.0000
# 3 19.4718 26.2387 88.0556 0.0000 25.3979 0.0000
# 4 0.0000 0.0000 0.0000 23.5915 0.0000 2.6876
# 5 20.3591 14.8401 25.3979 0.0000 24.7700 0.0000
# 6 0.0000 0.0000 0.0000 2.6876 0.0000 32.9369
#
#
#
# Elastic Compliance Matrix: (Units=1/GPa)
#
#
# Indices 1 2 3 4 5 6 
#
# 1 0.016777 -0.010388 0.002226 0.000000 -0.009848 0.000000
# 2 -0.010388 0.033432 -0.006177 0.000000 -0.005157 0.000000
# 3 0.002226 -0.006177 0.017274 0.000000 -0.015840 0.000000
# 4 0.000000 0.000000 0.000000 0.042786 0.000000 -0.003491
# 5 -0.009848 -0.005157 -0.015840 0.000000 0.067798 0.000000
# 6 0.000000 0.000000 0.000000 -0.003491 0.000000 0.030646
#
#
# Mechanical properties :
#
#
# Convention : Reuss Voigt Hill
#
# Bulk Modulus (GPa) = 25.77070 43.07765 34.42417
# Shear Modulus (GPa) = 19.97400 25.98791 22.98095
#
# Velocity S-wave (km/s) = 3.23329 3.68806 3.46814
# Velocity P-wave (km/s) = 5.23708 6.37825 5.83563
#
# Compressibility (1/GPa) = 0.03880376
#
# Stress axis : x y z
#
# Youngs Moduli (GPa) = 59.60636 29.91132 57.89114
#
# Poissons Ratio (x) = 0.31072 -0.12887
# Poissons Ratio (y) = 0.61920 0.35762
# Poissons Ratio (z) = -0.13269 0.18477
#
# Static dielectric constant tensor:
#      x y z
#    x 1.687690 0.000000 0.010980 
#    y 0.000000 1.640060 0.000000 
#    z 0.010980 0.000000 1.654390 
# 
# From -- ./inp_files/342261.got.cif
#   From: 2010.05.17/outbox.cif.g08.bks.cpg/sg12_172_cif.got.tgz:342261.got - 2010.06.03 13:09:07.
