data_PCOD9192872
_publ_section_title
;
Structure prediction by ZEFSAII (Michael W. Deem and Ramdas Pophale) SiO2 
 PCOD9192872
Probable space group: C 2/M
;
_chemical_formula_sum "Si O2"
_cell_formula_units_Z 56
_cell_length_a 33.785501
_cell_length_b 9.106190
_cell_length_c 19.129041
_cell_angle_alpha 90.000000
_cell_angle_beta 36.703400
_cell_angle_gamma 90.000000
_cell_volume 3517.415763
_symmetry_space_group_name_H-M "C 2/M"
_symmetry_group_IT_number 12
_symmetry_cell_setting 'monoclinic'
loop_
_space_group_symop_operation_xyz
x,y,z
-x,y,-z
-x,-y,-z
x,-y,z
1/2+x,1/2+y,z
1/2-x,1/2+y,-z
1/2-x,1/2-y,-z
1/2+x,1/2-y,z
loop_
_atom_site_type_symbol
_atom_site_label
_atom_site_fract_x
_atom_site_fract_y
_atom_site_fract_z
Si Si1 0.759186 0.675981 0.752495
Si Si2 0.108205 0.174419 0.010773
Si Si3 0.144922 0.825201 0.664084
Si Si4 0.164583 0.825028 0.074403
Si Si5 0.774911 0.675834 0.570379
Si Si6 0.298342 0.673930 0.831372
Si Si7 0.510026 0.824801 0.904051
O O1 0.764141 0.500000 0.750815
O O2 0.776555 0.719854 0.649073
O O3 0.804366 0.747134 0.748569
O O4 0.681957 0.712180 0.878041
O O5 0.110067 0.200461 0.091971
O O6 0.052170 0.264050 0.051094
O O7 0.098436 0.000000 0.012744
O O8 0.173371 0.759610 0.551778
O O9 0.202058 0.795840 0.641049
O O10 0.076964 0.749882 0.782192
O O11 0.136586 0.000000 0.670547
O O12 0.152227 0.793600 0.173668
O O13 0.181749 0.000000 0.045273
O O14 0.227685 0.730507 0.960944
O O15 0.786020 0.500000 0.549886
O O16 0.297070 0.500000 0.822506
O O17 0.514753 0.000000 0.890171
O O18 0.500000 0.789354 0.000000
#
# Coordination Sequence:
#
# PCOD9192872 Si02
#       7
#     8   8   8   8   8   8   8
#     4   9  17  29  45  67  96 126 152 183 227 273
#     4   9  17  30  47  66  91 124 159 189 222 270
#     4  10  20  34  52  70  89 119 156 190 227 270
#     4   8  15  27  40  58  88 122 152 185 227 271
#     4   9  18  33  51  70  93 120 151 189 229 268
#     4   9  15  23  39  63  90 119 151 187 224 266
#     4  11  23  35  47  67  95 123 152 189 229 268
#
# _framework density 15.920779
#
# number of rings (size 3 to 8) (size 9 to 14) (size 15 to 20)
#    0.000    2.714    0.000    3.000    0.000    6.286 
#    0.000    0.000    0.000    0.000    0.000    1.000 
#    0.000    8.000    0.000    0.000    0.000    0.000 
#
# Total GULP energy -155955.816448 kJ/mol
# GULP energy per Si atom -5569.850587 kJ/mol
# Density = 1.588454 g / cm^3
# Si number density = 15.920779 Si / 1000 Ang^3
#
#
#
# Elastic Constant Matrix: (Units=GPa)
#
#
# Indices 1 2 3 4 5 6 
#
# 1 139.9147 56.5381 66.0862 -0.0009 33.1132 0.0011
# 2 56.5381 40.4693 40.5797 -0.0063 9.5800 0.0058
# 3 66.0862 40.5797 76.3394 -0.0059 18.1962 0.0030
# 4 -0.0009 -0.0063 -0.0059 18.5080 0.0020 2.2268
# 5 33.1132 9.5800 18.1962 0.0020 28.4255 -0.0004
# 6 0.0011 0.0058 0.0030 2.2268 -0.0004 27.9138
#
#
#
# Elastic Compliance Matrix: (Units=1/GPa)
#
#
# Indices 1 2 3 4 5 6 
#
# 1 0.021840 -0.024818 -0.001939 -0.000007 -0.015836 0.000005
# 2 -0.024818 0.081119 -0.025973 0.000018 0.018199 -0.000014
# 3 -0.001939 -0.025973 0.030634 0.000002 -0.008597 0.000002
# 4 -0.000007 0.000018 0.000002 0.054554 -0.000003 -0.004352
# 5 -0.015836 0.018199 -0.008597 -0.000003 0.052997 -0.000001
# 6 0.000005 -0.000014 0.000002 -0.004352 -0.000001 0.036172
#
#
# Mechanical properties :
#
#
# Convention : Reuss Voigt Hill
#
# Bulk Modulus (GPa) = 35.54777 64.79238 50.17008
# Shear Modulus (GPa) = 12.75008 21.20409 16.97708
#
# Velocity S-wave (km/s) = 2.83299 3.65341 3.26904
# Velocity P-wave (km/s) = 5.75130 7.65386 6.76975
#
# Compressibility (1/GPa) = 0.02813116
#
# Stress axis : x y z
#
# Youngs Moduli (GPa) = 45.78793 12.32758 32.64356
#
# Poissons Ratio (x) = 0.30595 0.06330
# Poissons Ratio (y) = 1.13638 0.84786
# Poissons Ratio (z) = 0.08879 0.32019
#
# Static dielectric constant tensor:
#      x y z
#    x 1.562650 0.000000 0.026750 
#    y 0.000000 1.529050 0.000000 
#    z 0.026750 0.000000 1.507660 
# 
# From -- ./inp_files/287867.got.cif
#   From: 2010.05.17/outbox.cif.g08.bks.cpg/sg12_144_cif.got.tgz:287867.got - 2010.06.03 13:09:07.
