data_PCOD9192955
_publ_section_title
;
Structure prediction by ZEFSAII (Michael W. Deem and Ramdas Pophale) SiO2 
 PCOD9192955
Probable space group: C 2/M
;
_chemical_formula_sum "Si O2"
_cell_formula_units_Z 48
_cell_length_a 23.164620
_cell_length_b 8.867440
_cell_length_c 14.217479
_cell_angle_alpha 90.000000
_cell_angle_beta 77.345841
_cell_angle_gamma 90.000000
_cell_volume 2849.488091
_symmetry_space_group_name_H-M "C 2/M"
_symmetry_group_IT_number 12
_symmetry_cell_setting 'monoclinic'
loop_
_space_group_symop_operation_xyz
x,y,z
-x,y,-z
-x,-y,-z
x,-y,z
1/2+x,1/2+y,z
1/2-x,1/2+y,-z
1/2-x,1/2-y,-z
1/2+x,1/2-y,z
loop_
_atom_site_type_symbol
_atom_site_label
_atom_site_fract_x
_atom_site_fract_y
_atom_site_fract_z
Si Si1 0.892990 0.679142 0.686343
Si Si2 0.170692 0.179931 0.945671
Si Si3 0.485173 0.681677 0.279196
Si Si4 0.551496 0.819923 0.906036
Si Si5 0.931715 0.826851 0.488894
Si Si6 0.705029 0.679944 0.148158
O O1 0.893631 0.500000 0.695920
O O2 0.896658 0.726307 0.575473
O O3 0.836463 0.749184 0.757917
O O4 0.951684 0.748026 0.714577
O O5 0.112872 0.256584 0.923932
O O6 0.230151 0.246814 0.878675
O O7 0.168477 0.000000 0.933107
O O8 0.176017 0.209768 0.055807
O O9 0.490814 0.500000 0.277446
O O10 0.464911 0.741983 0.186253
O O11 0.438135 0.721860 0.378416
O O12 0.555022 0.000000 0.892189
O O13 0.500000 0.787838 0.000000
O O14 0.000000 0.826952 0.500000
O O15 0.910651 0.000000 0.501438
O O16 0.709463 0.500000 0.157973
#
# Coordination Sequence:
#
# PCOD9192955 Si02
#       6
#     8   8   8   8   8   8
#     4  11  20  30  50  79 107 134 169 211 254 303
#     4  10  21  36  54  76 102 134 172 211 253 300
#     4  10  20  34  52  74 103 138 173 211 255 302
#     4  11  23  36  52  76 106 138 171 207 249 302
#     4   8  16  31  49  71 100 133 169 209 254 301
#     4  10  20  35  55  76 102 135 170 211 254 298
#
# _framework density 16.845130000000001
#
# number of rings (size 3 to 8) (size 9 to 14) (size 15 to 20)
#    0.000    2.000    0.000    5.500    0.000    9.667 
#    0.000    0.000    0.000    1.000    0.000    0.000 
#    0.000    0.000    0.000    0.000    0.000    0.000 
#
# Total GULP energy -133975.575864 kJ/mol
# GULP energy per Si atom -5582.315661 kJ/mol
# Density = 1.680679 g / cm^3
# Si number density = 16.845130 Si / 1000 Ang^3
#
#
#
# Elastic Constant Matrix: (Units=GPa)
#
#
# Indices 1 2 3 4 5 6 
#
# 1 82.2478 45.6053 64.8515 0.0000 -9.2509 0.0000
# 2 45.6053 84.4067 72.0745 0.0000 -12.5558 0.0000
# 3 64.8515 72.0745 141.4119 0.0000 -17.2083 0.0000
# 4 0.0000 0.0000 0.0000 26.9995 0.0000 -2.0501
# 5 -9.2509 -12.5558 -17.2083 0.0000 27.3972 0.0000
# 6 0.0000 0.0000 0.0000 -2.0501 0.0000 29.0345
#
#
#
# Elastic Compliance Matrix: (Units=1/GPa)
#
#
# Indices 1 2 3 4 5 6 
#
# 1 0.020327 -0.005329 -0.006570 0.000000 0.000295 0.000000
# 2 -0.005329 0.022626 -0.008711 0.000000 0.003098 0.000000
# 3 -0.006570 -0.008711 0.014908 0.000000 0.003153 0.000000
# 4 0.000000 0.000000 0.000000 0.037237 0.000000 0.002629
# 5 0.000295 0.003098 0.003153 0.000000 0.040000 0.000000
# 6 0.000000 0.000000 0.000000 0.002629 0.000000 0.034627
#
#
# Mechanical properties :
#
#
# Convention : Reuss Voigt Hill
#
# Bulk Modulus (GPa) = 60.09257 74.79211 67.44234
# Shear Modulus (GPa) = 23.09556 25.05524 24.07540
#
# Velocity S-wave (km/s) = 3.70679 3.86085 3.78460
# Velocity P-wave (km/s) = 7.35332 8.02316 7.69553
#
# Compressibility (1/GPa) = 0.01664099
#
# Stress axis : x y z
#
# Youngs Moduli (GPa) = 49.19670 44.19748 67.07746
#
# Poissons Ratio (x) = 0.23551 0.44070
# Poissons Ratio (y) = 0.26215 0.58432
# Poissons Ratio (z) = 0.32322 0.38501
#
# Static dielectric constant tensor:
#      x y z
#    x 1.531610 0.000000 -0.002680 
#    y 0.000000 1.557300 0.000000 
#    z -0.002680 0.000000 1.579450 
# 
# From -- ./inp_files/172039.got.cif
#   From: 2010.05.17/outbox.cif.g08.bks.cpg/sg12_87_cif.got.tgz:172039.got - 2010.06.03 13:09:07.
