data_PCOD9192603
_publ_section_title
;
Structure prediction by ZEFSAII (Michael W. Deem and Ramdas Pophale) SiO2 
 PCOD9192603
Probable space group: C 2/M
;
_chemical_formula_sum "Si O2"
_cell_formula_units_Z 58
_cell_length_a 28.265517
_cell_length_b 20.141670
_cell_length_c 9.070357
_cell_angle_alpha 90.000000
_cell_angle_beta 142.397194
_cell_angle_gamma 90.000000
_cell_volume 3150.921481
_symmetry_space_group_name_H-M "C 2/M"
_symmetry_group_IT_number 12
_symmetry_cell_setting 'monoclinic'
loop_
_space_group_symop_operation_xyz
x,y,z
-x,y,-z
-x,-y,-z
x,-y,z
1/2+x,1/2+y,z
1/2-x,1/2+y,-z
1/2-x,1/2-y,-z
1/2+x,1/2-y,z
loop_
_atom_site_type_symbol
_atom_site_label
_atom_site_fract_x
_atom_site_fract_y
_atom_site_fract_z
Si Si1 0.266095 0.144669 0.424836
Si Si2 0.831600 0.786054 0.230143
Si Si3 0.054202 0.216514 0.992650
Si Si4 0.425164 0.921622 0.711009
Si Si5 0.388334 0.381433 0.107558
Si Si6 0.790417 0.794183 0.442272
Si Si7 0.530803 0.179959 0.410887
Si Si8 0.500000 0.500000 0.500000
O O1 0.347878 0.114423 0.579844
O O2 0.261213 0.155964 0.589271
O O3 0.256539 0.220120 0.337651
O O4 0.192413 0.104281 0.179708
O O5 0.861872 0.835305 0.179353
O O6 0.819354 0.821095 0.358144
O O7 0.895686 0.729053 0.406894
O O8 0.750000 0.750000 0.000000
O O9 0.059276 0.160378 0.879424
O O10 0.029347 0.283021 0.846651
O O11 0.137471 0.220379 0.273063
O O12 0.000000 0.203242 0.000000
O O13 0.445202 0.888750 0.604027
O O14 0.411643 0.000000 0.668726
O O15 0.500000 0.910241 0.000000
O O16 0.438454 0.442051 0.290246
O O17 0.500000 0.173827 0.500000
#
# Coordination Sequence:
#
# PCOD9192603 Si02
#       8
#     8   8   8   8   8   8   8   2
#     4  10  20  39  61  92 122 160 206 260 324 375
#     4  12  21  37  62  98 127 158 208 267 331 373
#     4  11  20  36  65  96 126 157 213 271 330 375
#     4  11  24  41  62  86 123 172 212 255 319 391
#     4  11  24  41  63  91 126 176 212 260 318 382
#     4  10  20  33  65  96 124 153 197 276 324 378
#     4  12  22  36  61  93 125 162 204 267 321 379
#     4  12  28  44  62  88 134 188 226 248 316 404
#
# _framework density 18.407314
#
# number of rings (size 3 to 8) (size 9 to 14) (size 15 to 20)
#    0.000    0.966    5.517    2.069    0.966    1.379 
#    0.000    0.345    1.517    0.000    0.000    0.000 
#    0.000    0.000    0.000    0.000    0.000    0.000 
#
# Total GULP energy -161559.530360 kJ/mol
# GULP energy per Si atom -5571.018288 kJ/mol
# Density = 1.836542 g / cm^3
# Si number density = 18.407314 Si / 1000 Ang^3
#
#
#
# Elastic Constant Matrix: (Units=GPa)
#
#
# Indices 1 2 3 4 5 6 
#
# 1 169.4119 52.4755 42.5196 0.0000 -29.9821 0.0000
# 2 52.4755 87.5742 44.9340 0.0000 -9.6459 0.0000
# 3 42.5196 44.9340 80.3627 0.0000 -4.8399 0.0000
# 4 0.0000 0.0000 0.0000 29.2961 0.0000 6.9836
# 5 -29.9821 -9.6459 -4.8399 0.0000 34.5138 0.0000
# 6 0.0000 0.0000 0.0000 6.9836 0.0000 10.3706
#
#
#
# Elastic Compliance Matrix: (Units=1/GPa)
#
#
# Indices 1 2 3 4 5 6 
#
# 1 0.008608 -0.003263 -0.002354 0.000000 0.006236 0.000000
# 2 -0.003263 0.017619 -0.008067 0.000000 0.000958 0.000000
# 3 -0.002354 -0.008067 0.018094 0.000000 -0.001763 0.000000
# 4 0.000000 0.000000 0.000000 0.040662 0.000000 -0.027382
# 5 0.006236 0.000958 -0.001763 0.000000 0.034411 0.000000
# 6 0.000000 0.000000 0.000000 -0.027382 0.000000 0.114866
#
#
# Mechanical properties :
#
#
# Convention : Reuss Voigt Hill
#
# Bulk Modulus (GPa) = 58.99252 68.57854 63.78553
# Shear Modulus (GPa) = 18.70699 27.99741 23.35220
#
# Velocity S-wave (km/s) = 3.19137 3.90422 3.56566
# Velocity P-wave (km/s) = 6.76002 7.59348 7.18884
#
# Compressibility (1/GPa) = 0.01695130
#
# Stress axis : x y z
#
# Youngs Moduli (GPa) = 116.17077 56.75680 55.26748
#
# Poissons Ratio (x) = 0.18521 0.13012
# Poissons Ratio (y) = 0.37909 0.44586
# Poissons Ratio (z) = 0.27351 0.45787
#
# Static dielectric constant tensor:
#      x y z
#    x 1.697320 0.000000 -0.002730 
#    y 0.000000 1.602730 0.000000 
#    z -0.002730 0.000000 1.680820 
# 
# From -- ./inp_files/113213.got.cif
#   From: 2010.05.17/outbox.cif.g08.bks.cpg/sg12_57_cif.got.tgz:113213.got - 2010.06.03 13:09:07.
