data_PCOD9192612
_publ_section_title
;
Structure prediction by ZEFSAII (Michael W. Deem and Ramdas Pophale) SiO2 
 PCOD9192612
Probable space group: C 2/M
;
_chemical_formula_sum "Si O2"
_cell_formula_units_Z 52
_cell_length_a 18.485315
_cell_length_b 29.029766
_cell_length_c 5.050498
_cell_angle_alpha 90.000000
_cell_angle_beta 75.669440
_cell_angle_gamma 90.000000
_cell_volume 2625.888683
_symmetry_space_group_name_H-M "C 2/M"
_symmetry_group_IT_number 12
_symmetry_cell_setting 'monoclinic'
loop_
_space_group_symop_operation_xyz
x,y,z
-x,y,-z
-x,-y,-z
x,-y,z
1/2+x,1/2+y,z
1/2-x,1/2+y,-z
1/2-x,1/2-y,-z
1/2+x,1/2-y,z
loop_
_atom_site_type_symbol
_atom_site_label
_atom_site_fract_x
_atom_site_fract_y
_atom_site_fract_z
Si Si1 0.325596 0.620003 0.688417
Si Si2 0.000000 0.333932 0.000000
Si Si3 0.162077 0.644785 0.792219
Si Si4 0.948118 0.947463 0.804908
Si Si5 0.650240 0.317920 0.841467
Si Si6 0.943770 0.752966 0.361986
Si Si7 0.187520 0.296790 0.267947
O O1 0.235098 0.613027 0.773956
O O2 0.374645 0.578774 0.765128
O O3 0.346837 0.641003 0.381392
O O4 0.344947 0.660040 0.877463
O O5 0.075291 0.364548 0.944048
O O6 0.019202 0.295795 0.756335
O O7 0.166937 0.660427 0.482427
O O8 0.177059 0.688003 0.975223
O O9 0.000000 0.948424 0.500000
O O10 0.928467 0.000000 0.901686
O O11 0.000000 0.928122 0.000000
O O12 0.581968 0.284378 0.853928
O O13 0.726468 0.288602 0.749518
O O14 0.869402 0.741928 0.594718
O O15 0.000000 0.778918 0.500000
#
# Coordination Sequence:
#
# PCOD9192612 Si02
#       7
#     8   4   8   8   8   8   8
#     4  10  21  38  52  77 101 131 163 207 252 311
#     4  10  20  34  46  70  97 134 177 218 242 290
#     4   9  18  32  53  68  96 129 170 210 255 286
#     4  10  21  38  61  84 107 133 160 198 250 310
#     4  10  22  33  50  68  99 131 169 207 256 291
#     4  11  21  31  45  65  94 130 179 217 253 285
#     4   9  18  34  46  64  88 130 169 215 253 292
#
# _framework density 19.802817999999998
#
# number of rings (size 3 to 8) (size 9 to 14) (size 15 to 20)
#    0.000    2.154    1.538    1.385    2.154    1.846 
#    0.000    6.154    0.000    0.000    0.000    0.538 
#    0.000    0.000    0.000   23.846    0.000    0.000 
#
# Total GULP energy -144923.797213 kJ/mol
# GULP energy per Si atom -5573.992201 kJ/mol
# Density = 1.975775 g / cm^3
# Si number density = 19.802818 Si / 1000 Ang^3
#
#
#
# Elastic Constant Matrix: (Units=GPa)
#
#
# Indices 1 2 3 4 5 6 
#
# 1 151.0175 39.6254 -2.6170 0.0000 -8.5161 0.0000
# 2 39.6254 37.8216 1.3044 0.0000 -5.6283 0.0000
# 3 -2.6170 1.3044 58.6457 0.0000 6.2115 0.0000
# 4 0.0000 0.0000 0.0000 12.6250 0.0000 7.9310
# 5 -8.5161 -5.6283 6.2115 0.0000 30.4934 0.0000
# 6 0.0000 0.0000 0.0000 7.9310 0.0000 20.9899
#
#
#
# Elastic Compliance Matrix: (Units=1/GPa)
#
#
# Indices 1 2 3 4 5 6 
#
# 1 0.009169 -0.009522 0.000548 0.000000 0.000692 0.000000
# 2 -0.009522 0.037153 -0.001733 0.000000 0.004551 0.000000
# 3 0.000548 -0.001733 0.017510 0.000000 -0.003734 0.000000
# 4 0.000000 0.000000 0.000000 0.103861 0.000000 -0.039244
# 5 0.000692 0.004551 -0.003734 0.000000 0.034588 0.000000
# 6 0.000000 0.000000 0.000000 -0.039244 0.000000 0.062470
#
#
# Mechanical properties :
#
#
# Convention : Reuss Voigt Hill
#
# Bulk Modulus (GPa) = 23.57570 36.01226 29.79398
# Shear Modulus (GPa) = 16.64976 26.76646 21.70811
#
# Velocity S-wave (km/s) = 2.90276 3.68047 3.31450
# Velocity P-wave (km/s) = 4.81308 6.02379 5.45215
#
# Compressibility (1/GPa) = 0.04241656
#
# Stress axis : x y z
#
# Youngs Moduli (GPa) = 109.06675 26.91569 57.11023
#
# Poissons Ratio (x) = 0.25629 -0.03128
# Poissons Ratio (y) = 1.03853 0.09899
# Poissons Ratio (z) = -0.05973 0.04665
#
# Static dielectric constant tensor:
#      x y z
#    x 1.779860 0.000000 -0.014810 
#    y 0.000000 1.680000 0.000000 
#    z -0.014810 0.000000 1.757220 
# 
# From -- ./inp_files/17385.got.cif
#   From: 2010.05.17/outbox.cif.g08.bks.cpg/sg12_9_cif.got.tgz:17385.got - 2010.06.03 13:09:07.
