data_PCOD9192428
_publ_section_title
;
Structure prediction by ZEFSAII (Michael W. Deem and Ramdas Pophale) SiO2 
 PCOD9192428
Probable space group: C 2/M
;
_chemical_formula_sum "Si O2"
_cell_formula_units_Z 64
_cell_length_a 18.533890
_cell_length_b 19.739437
_cell_length_c 20.596198
_cell_angle_alpha 90.000000
_cell_angle_beta 19.822243
_cell_angle_gamma 90.000000
_cell_volume 2555.172558
_symmetry_space_group_name_H-M "C 2/M"
_symmetry_group_IT_number 12
_symmetry_cell_setting 'monoclinic'
loop_
_space_group_symop_operation_xyz
x,y,z
-x,y,-z
-x,-y,-z
x,-y,z
1/2+x,1/2+y,z
1/2-x,1/2+y,-z
1/2-x,1/2-y,-z
1/2+x,1/2-y,z
loop_
_atom_site_type_symbol
_atom_site_label
_atom_site_fract_x
_atom_site_fract_y
_atom_site_fract_z
Si Si1 0.796957 0.425213 0.218238
Si Si2 0.082212 0.253423 0.700824
Si Si3 0.652602 0.921625 0.544885
Si Si4 0.735954 0.863780 0.990934
Si Si5 0.269598 0.919162 0.670684
Si Si6 0.845731 0.794116 0.578589
Si Si7 0.313288 0.578040 0.058619
Si Si8 0.535978 0.609599 0.321231
O O1 0.818187 0.500000 0.231455
O O2 0.757161 0.360810 0.299234
O O3 0.601647 0.429052 0.331487
O O4 0.000000 0.412960 0.000000
O O5 0.250000 0.250000 0.500000
O O6 0.187876 0.240727 0.681247
O O7 0.901125 0.198428 0.844807
O O8 0.978291 0.327103 0.803346
O O9 0.745060 0.915322 0.394841
O O10 0.416876 0.888820 0.732520
O O11 0.831592 0.905690 0.448253
O O12 0.604002 0.000000 0.600355
O O13 0.761613 0.895228 0.898225
O O14 0.803124 0.916464 0.988716
O O15 0.500000 0.894285 0.500000
O O16 0.268987 0.000000 0.687253
O O17 0.039731 0.892188 0.889696
O O18 0.000000 0.763119 0.500000
O O19 0.981640 0.819177 0.401486
O O20 0.311794 0.500000 0.081894
#
# Coordination Sequence:
#
# PCOD9192428 Si02
#       8
#     8   8   8   8   8   8   8   8
#     4  10  22  38  59  95 142 183 221 268 336 423
#     4  11  23  43  67  91 122 166 229 284 336 390
#     4  10  20  33  55  88 126 168 210 258 314 390
#     4  11  23  38  67  96 124 169 221 278 336 391
#     4   9  18  34  55  81 118 165 207 253 316 387
#     4  10  22  40  64  90 125 169 218 268 334 395
#     4  10  21  36  57  92 131 164 208 264 331 411
#     4  11  20  36  61  92 127 170 219 271 327 403
#
# _framework density 25.047232000000001
#
# number of rings (size 3 to 8) (size 9 to 14) (size 15 to 20)
#    0.000    1.750    2.500    1.875    0.000    3.750 
#    0.000    6.250    0.000    1.500    0.000    0.000 
#    0.000    0.000    0.000    0.000    0.000    0.000 
#
# Total GULP energy -178276.055320 kJ/mol
# GULP energy per Si atom -5571.126729 kJ/mol
# Density = 2.499022 g / cm^3
# Si number density = 25.047232 Si / 1000 Ang^3
#
#
#
# Elastic Constant Matrix: (Units=GPa)
#
#
# Indices 1 2 3 4 5 6 
#
# 1 131.0574 7.7805 41.9807 -0.0018 -14.5871 -0.0016
# 2 7.7805 50.5037 8.0132 -0.0009 1.7172 0.0027
# 3 41.9807 8.0132 162.7159 -0.0618 -7.5833 0.0358
# 4 -0.0018 -0.0009 -0.0618 9.8131 -0.0033 -4.3619
# 5 -14.5871 1.7172 -7.5833 -0.0033 51.3289 0.0073
# 6 -0.0016 0.0027 0.0358 -4.3619 0.0073 19.0174
#
#
#
# Elastic Compliance Matrix: (Units=1/GPa)
#
#
# Indices 1 2 3 4 5 6 
#
# 1 0.008597 -0.001071 -0.002064 -0.000010 0.002174 0.000002
# 2 -0.001071 0.020124 -0.000766 -0.000004 -0.001091 -0.000002
# 3 -0.002064 -0.000766 0.006736 0.000041 0.000434 -0.000004
# 4 -0.000010 -0.000004 0.000041 0.113473 0.000007 0.026026
# 5 0.002174 -0.001091 0.000434 0.000007 0.020201 -0.000007
# 6 0.000002 -0.000002 -0.000004 0.026026 -0.000007 0.058553
#
#
# Mechanical properties :
#
#
# Convention : Reuss Voigt Hill
#
# Bulk Modulus (GPa) = 36.15812 51.09175 43.62494
# Shear Modulus (GPa) = 20.43289 35.13206 27.78247
#
# Velocity S-wave (km/s) = 2.85927 3.74924 3.33408
# Velocity P-wave (km/s) = 5.03666 6.25978 5.68123
#
# Compressibility (1/GPa) = 0.02765630
#
# Stress axis : x y z
#
# Youngs Moduli (GPa) = 116.32058 49.69177 148.45299
#
# Poissons Ratio (x) = 0.05321 0.30640
# Poissons Ratio (y) = 0.12456 0.11365
# Poissons Ratio (z) = 0.24008 0.03804
#
# Static dielectric constant tensor:
#      x y z
#    x 2.048770 -0.000100 -0.039120 
#    y -0.000100 2.051010 0.000190 
#    z -0.039120 0.000190 2.128690 
# 
# From -- ./inp_files/318569.got.cif
#   From: 2010.05.17/outbox.cif.g08.bks.cpg/sg12_160_cif.got.tgz:318569.got - 2010.06.03 13:09:07.
