data_PCOD9192853
_publ_section_title
;
Structure prediction by ZEFSAII (Michael W. Deem and Ramdas Pophale) SiO2 
 PCOD9192853
Probable space group: C 2/M
;
_chemical_formula_sum "Si O2"
_cell_formula_units_Z 56
_cell_length_a 10.790979
_cell_length_b 20.719633
_cell_length_c 18.669630
_cell_angle_alpha 90.000000
_cell_angle_beta 129.671416
_cell_angle_gamma 90.000000
_cell_volume 3212.997101
_symmetry_space_group_name_H-M "C 2/M"
_symmetry_group_IT_number 12
_symmetry_cell_setting 'monoclinic'
loop_
_space_group_symop_operation_xyz
x,y,z
-x,y,-z
-x,-y,-z
x,-y,z
1/2+x,1/2+y,z
1/2-x,1/2+y,-z
1/2-x,1/2-y,-z
1/2+x,1/2-y,z
loop_
_atom_site_type_symbol
_atom_site_label
_atom_site_fract_x
_atom_site_fract_y
_atom_site_fract_z
Si Si1 0.402610 0.716090 0.021309
Si Si2 0.543403 0.633363 0.833999
Si Si3 0.708665 0.926860 0.720016
Si Si4 0.849957 0.361515 0.152610
Si Si5 0.615006 0.205593 0.610740
Si Si6 0.128294 0.425373 0.984338
Si Si7 0.516364 0.259793 0.290180
O O1 0.504173 0.687692 0.124092
O O2 0.500000 0.758633 0.000000
O O3 0.250000 0.750000 0.000000
O O4 0.324245 0.661628 0.941193
O O5 0.400439 0.582266 0.779614
O O6 0.708035 0.604970 0.924299
O O7 0.559568 0.673468 0.767174
O O8 0.669066 0.910314 0.788362
O O9 0.634267 0.868473 0.645749
O O10 0.659764 0.000000 0.684547
O O11 0.944169 0.299371 0.217132
O O12 0.926441 0.390803 0.108980
O O13 0.500000 0.208433 0.500000
O O14 0.536614 0.244698 0.648227
O O15 0.792529 0.231764 0.654127
O O16 0.159020 0.500000 0.977904
O O17 0.000000 0.421740 0.000000
#
# Coordination Sequence:
#
# PCOD9192853 Si02
#       7
#     8   8   8   8   8   8   8
#     4  11  20  30  47  73 112 145 178 218 251 301
#     4  10  20  34  51  77 106 144 185 213 262 308
#     4  10  20  36  58  78 105 139 183 225 264 318
#     4  10  20  34  51  77 106 144 185 213 262 308
#     4  10  22  39  59  85 110 133 169 221 287 344
#     4  10  22  34  46  71 110 150 186 220 250 291
#     4  10  21  35  58  82 110 138 172 219 277 330
#
# _framework density 17.429210999999999
#
# number of rings (size 3 to 8) (size 9 to 14) (size 15 to 20)
#    0.000    1.857    2.857    1.286    2.000    2.571 
#    0.000    2.143    0.000    0.000    0.000    0.000 
#    0.000   12.000    0.000    0.000    0.000    0.000 
#
# Total GULP energy -156095.559406 kJ/mol
# GULP energy per Si atom -5574.841407 kJ/mol
# Density = 1.738954 g / cm^3
# Si number density = 17.429211 Si / 1000 Ang^3
#
#
#
# Elastic Constant Matrix: (Units=GPa)
#
#
# Indices 1 2 3 4 5 6 
#
# 1 87.5330 26.6358 35.4480 0.0000 -17.1733 0.0000
# 2 26.6358 65.9896 23.6170 0.0000 -9.3195 0.0000
# 3 35.4480 23.6170 103.2489 0.0000 -12.0394 0.0000
# 4 0.0000 0.0000 0.0000 11.3126 0.0000 -1.4652
# 5 -17.1733 -9.3195 -12.0394 0.0000 26.3842 0.0000
# 6 0.0000 0.0000 0.0000 -1.4652 0.0000 24.7164
#
#
#
# Elastic Compliance Matrix: (Units=1/GPa)
#
#
# Indices 1 2 3 4 5 6 
#
# 1 0.015460 -0.003966 -0.003581 0.000000 0.007028 0.000000
# 2 -0.003966 0.018006 -0.002447 0.000000 0.002662 0.000000
# 3 -0.003581 -0.002447 0.011726 0.000000 0.002155 0.000000
# 4 0.000000 0.000000 0.000000 0.089081 0.000000 0.005281
# 5 0.007028 0.002662 0.002155 0.000000 0.044400 0.000000
# 6 0.000000 0.000000 0.000000 0.005281 0.000000 0.040772
#
#
# Mechanical properties :
#
#
# Convention : Reuss Voigt Hill
#
# Bulk Modulus (GPa) = 39.67538 47.57479 43.62508
# Shear Modulus (GPa) = 20.17475 23.88736 22.03105
#
# Velocity S-wave (km/s) = 3.40593 3.70609 3.55918
# Velocity P-wave (km/s) = 6.18711 6.75787 6.47878
#
# Compressibility (1/GPa) = 0.02520455
#
# Stress axis : x y z
#
# Youngs Moduli (GPa) = 64.68217 55.53581 85.28185
#
# Poissons Ratio (x) = 0.22026 0.30541
# Poissons Ratio (y) = 0.25654 0.20866
# Poissons Ratio (z) = 0.23164 0.13588
#
# Static dielectric constant tensor:
#      x y z
#    x 1.665860 0.000000 -0.008390 
#    y 0.000000 1.629900 0.000000 
#    z -0.008390 0.000000 1.577770 
# 
# From -- ./inp_files/264861.got.cif
#   From: 2010.05.17/outbox.cif.g08.bks.cpg/sg12_133_cif.got.tgz:264861.got - 2010.06.03 13:09:07.
