data_PCOD9192871
_publ_section_title
;
Structure prediction by ZEFSAII (Michael W. Deem and Ramdas Pophale) SiO2 
 PCOD9192871
Probable space group: C 2/M
;
_chemical_formula_sum "Si O2"
_cell_formula_units_Z 64
_cell_length_a 22.153511
_cell_length_b 29.555607
_cell_length_c 18.512633
_cell_angle_alpha 90.000000
_cell_angle_beta 162.099816
_cell_angle_gamma 90.000000
_cell_volume 3725.611165
_symmetry_space_group_name_H-M "C 2/M"
_symmetry_group_IT_number 12
_symmetry_cell_setting 'monoclinic'
loop_
_space_group_symop_operation_xyz
x,y,z
-x,y,-z
-x,-y,-z
x,-y,z
1/2+x,1/2+y,z
1/2-x,1/2+y,-z
1/2-x,1/2-y,-z
1/2+x,1/2-y,z
loop_
_atom_site_type_symbol
_atom_site_label
_atom_site_fract_x
_atom_site_fract_y
_atom_site_fract_z
Si Si1 0.518328 0.238105 0.871381
Si Si2 0.632565 0.946373 0.988085
Si Si3 0.747067 0.884813 0.472951
Si Si4 0.767729 0.678720 0.680095
Si Si5 0.175013 0.692010 0.489217
Si Si6 0.224552 0.417340 0.244637
Si Si7 0.025670 0.740302 0.612153
Si Si8 0.492746 0.552254 0.303155
O O1 0.464007 0.205366 0.877347
O O2 0.383863 0.282220 0.730893
O O3 0.441633 0.215111 0.710388
O O4 0.745575 0.248074 0.120026
O O5 0.760710 0.932267 0.204117
O O6 0.773233 0.938622 0.079999
O O7 0.584136 0.000000 0.937691
O O8 0.443305 0.914139 0.767437
O O9 0.788232 0.846526 0.458841
O O10 0.707907 0.859356 0.502690
O O11 0.931424 0.917619 0.676027
O O12 0.776334 0.636972 0.745411
O O13 0.607689 0.715416 0.522003
O O14 0.052594 0.702766 0.421361
O O15 0.364837 0.437390 0.465750
O O16 0.000000 0.433281 0.000000
O O17 0.000000 0.726955 0.500000
O O18 0.512462 0.500000 0.308169
#
# Coordination Sequence:
#
# PCOD9192871 Si02
#       8
#     8   8   8   8   8   8   8   8
#     4   9  19  37  54  68 102 133 170 223 260 308
#     4  11  22  34  49  71 101 138 173 216 262 303
#     4  10  20  34  52  68  93 128 171 218 251 296
#     4   9  21  32  44  71  95 130 179 214 249 290
#     4   9  20  36  53  75  96 132 176 212 266 315
#     4  11  20  31  46  67 100 142 175 220 250 292
#     4  11  23  33  53  77 102 136 167 216 272 313
#     4  10  21  34  47  68  96 131 176 214 259 309
#
# _framework density 17.178388999999999
#
# number of rings (size 3 to 8) (size 9 to 14) (size 15 to 20)
#    0.000    2.000    2.500    2.250    1.750   10.000 
#    0.000    0.000    0.000    0.000    0.000    0.000 
#    0.000    2.000    0.000    8.500    0.000    0.750 
#
# Total GULP energy -178474.583615 kJ/mol
# GULP energy per Si atom -5577.330738 kJ/mol
# Density = 1.713929 g / cm^3
# Si number density = 17.178389 Si / 1000 Ang^3
#
#
#
# Elastic Constant Matrix: (Units=GPa)
#
#
# Indices 1 2 3 4 5 6 
#
# 1 107.3320 58.7797 34.0991 -0.0020 23.2006 0.0000
# 2 58.7797 65.2121 6.9270 -0.0099 8.6875 -0.0024
# 3 34.0991 6.9270 35.2357 0.0004 18.2251 0.0007
# 4 -0.0020 -0.0099 0.0004 96.9522 0.0034 20.0183
# 5 23.2006 8.6875 18.2251 0.0034 22.5724 0.0013
# 6 0.0000 -0.0024 0.0007 20.0183 0.0013 39.1230
#
#
#
# Elastic Compliance Matrix: (Units=1/GPa)
#
#
# Indices 1 2 3 4 5 6 
#
# 1 0.031540 -0.025447 -0.023727 -0.000002 -0.003467 0.000000
# 2 -0.025447 0.036694 0.019212 0.000003 -0.003479 0.000000
# 3 -0.023727 0.019212 0.066581 0.000003 -0.036765 0.000000
# 4 -0.000002 0.000003 0.000003 0.011533 -0.000003 -0.005901
# 5 -0.003467 -0.003479 -0.036765 -0.000003 0.078888 -0.000001
# 6 0.000000 0.000000 0.000000 -0.005901 -0.000001 0.028580
#
#
# Mechanical properties :
#
#
# Convention : Reuss Voigt Hill
#
# Bulk Modulus (GPa) = 13.35268 45.26571 29.30919
# Shear Modulus (GPa) = 14.76219 38.92778 26.84498
#
# Velocity S-wave (km/s) = 2.93464 4.76551 3.95741
# Velocity P-wave (km/s) = 4.39006 7.52912 6.16281
#
# Compressibility (1/GPa) = 0.07489135
#
# Stress axis : x y z
#
# Youngs Moduli (GPa) = 31.70572 27.25230 15.01934
#
# Poissons Ratio (x) = 0.69348 0.35636
# Poissons Ratio (y) = 0.80681 -0.28855
# Poissons Ratio (z) = 0.75228 -0.52357
#
# Static dielectric constant tensor:
#      x y z
#    x 1.625980 0.000000 0.018450 
#    y 0.000000 1.601180 0.000000 
#    z 0.018450 0.000000 1.604380 
# 
# From -- ./inp_files/286783.got.cif
#   From: 2010.05.17/outbox.cif.g08.bks.cpg/sg12_144_cif.got.tgz:286783.got - 2010.06.03 13:09:07.
