data_PCOD9192195
_publ_section_title
;
Structure prediction by ZEFSAII (Michael W. Deem and Ramdas Pophale) SiO2 
 PCOD9192195
Probable space group: C 2/M
;
_chemical_formula_sum "Si O2"
_cell_formula_units_Z 48
_cell_length_a 14.508759
_cell_length_b 14.386256
_cell_length_c 11.593445
_cell_angle_alpha 90.000000
_cell_angle_beta 104.518043
_cell_angle_gamma 90.000000
_cell_volume 2342.592540
_symmetry_space_group_name_H-M "C 2/M"
_symmetry_group_IT_number 12
_symmetry_cell_setting 'monoclinic'
loop_
_space_group_symop_operation_xyz
x,y,z
-x,y,-z
-x,-y,-z
x,-y,z
1/2+x,1/2+y,z
1/2-x,1/2+y,-z
1/2-x,1/2-y,-z
1/2+x,1/2-y,z
loop_
_atom_site_type_symbol
_atom_site_label
_atom_site_fract_x
_atom_site_fract_y
_atom_site_fract_z
Si Si1 0.626365 0.895074 0.239064
Si Si2 0.230052 0.106939 0.507925
Si Si3 0.656453 0.231141 0.041670
Si Si4 0.567130 0.397880 0.134506
Si Si5 0.111406 0.728340 0.560384
Si Si6 0.464202 0.749823 0.222079
O O1 0.716205 0.893260 0.351827
O O2 0.548182 0.824389 0.264968
O O3 0.589006 0.000000 0.223484
O O4 0.654434 0.858369 0.121850
O O5 0.144543 0.180390 0.498641
O O6 0.310369 0.150429 0.447970
O O7 0.205218 0.000000 0.471688
O O8 0.576565 0.226622 0.917481
O O9 0.750000 0.250000 0.000000
O O10 0.641033 0.318800 0.121560
O O11 0.605143 0.500000 0.171191
O O12 0.506852 0.353397 0.219333
O O13 0.500000 0.404854 0.000000
O O14 0.110002 0.745837 0.697526
O O15 0.000000 0.706434 0.500000
#
# Coordination Sequence:
#
# PCOD9192195 Si02
#       6
#     8   8   8   8   8   8
#     4  10  20  37  59  83 114 151 195 243 294 354
#     4  10  23  41  63  91 119 155 205 250 295 361
#     4  10  20  33  53  82 117 149 189 240 295 353
#     4   8  16  32  53  76 103 140 186 230 279 342
#     4  11  22  40  65  87 121 162 200 249 302 350
#     4  10  20  35  57  84 112 153 196 240 294 354
#
# _framework density 20.490119
#
# number of rings (size 3 to 8) (size 9 to 14) (size 15 to 20)
#    0.000    2.167    1.667    2.500    0.000    4.000 
#    0.000    3.333    0.000    0.000    0.000    0.000 
#    0.000    0.000    0.000    0.000    0.000    0.000 
#
# Total GULP energy -133883.206452 kJ/mol
# GULP energy per Si atom -5578.466936 kJ/mol
# Density = 2.044348 g / cm^3
# Si number density = 20.490119 Si / 1000 Ang^3
#
#
#
# Elastic Constant Matrix: (Units=GPa)
#
#
# Indices 1 2 3 4 5 6 
#
# 1 50.8592 2.7991 14.0346 0.0000 -22.5998 0.0000
# 2 2.7991 105.7012 18.6682 0.0000 -14.0072 0.0000
# 3 14.0346 18.6682 94.2139 0.0000 -25.5635 0.0000
# 4 0.0000 0.0000 0.0000 17.6781 0.0000 2.3449
# 5 -22.5998 -14.0072 -25.5635 0.0000 36.8209 0.0000
# 6 0.0000 0.0000 0.0000 2.3449 0.0000 13.0389
#
#
#
# Elastic Compliance Matrix: (Units=1/GPa)
#
#
# Indices 1 2 3 4 5 6 
#
# 1 0.027296 0.001540 0.000411 0.000000 0.017625 0.000000
# 2 0.001540 0.010155 -0.001154 0.000000 0.004007 0.000000
# 3 0.000411 -0.001154 0.013222 0.000000 0.008992 0.000000
# 4 0.000000 0.000000 0.000000 0.057949 0.000000 -0.010421
# 5 0.017625 0.004007 0.008992 0.000000 0.045743 0.000000
# 6 0.000000 0.000000 0.000000 -0.010421 0.000000 0.078568
#
#
# Mechanical properties :
#
#
# Convention : Reuss Voigt Hill
#
# Bulk Modulus (GPa) = 19.13313 35.75311 27.44312
# Shear Modulus (GPa) = 20.09960 27.85906 23.97933
#
# Velocity S-wave (km/s) = 3.13540 3.69132 3.42466
# Velocity P-wave (km/s) = 4.73979 5.97115 5.39074
#
# Compressibility (1/GPa) = 0.05226536
#
# Stress axis : x y z
#
# Youngs Moduli (GPa) = 36.63586 98.47658 75.63375
#
# Poissons Ratio (x) = -0.15167 -0.03108
# Poissons Ratio (y) = -0.05643 0.08731
# Poissons Ratio (z) = -0.01505 0.11368
#
# Static dielectric constant tensor:
#      x y z
#    x 1.780910 0.000000 0.075870 
#    y 0.000000 1.727980 0.000000 
#    z 0.075870 0.000000 1.811260 
# 
# From -- ./inp_files/142999.got.cif
#   From: 2010.05.17/outbox.cif.g08.bks.cpg/sg12_72_cif.got.tgz:142999.got - 2010.06.03 13:09:07.
