data_PCOD9192357
_publ_section_title
;
Structure prediction by ZEFSAII (Michael W. Deem and Ramdas Pophale) SiO2 
 PCOD9192357
Probable space group: C 2/M
;
_chemical_formula_sum "Si O2"
_cell_formula_units_Z 56
_cell_length_a 20.792703
_cell_length_b 18.214202
_cell_length_c 22.534184
_cell_angle_alpha 90.000000
_cell_angle_beta 18.909412
_cell_angle_gamma 90.000000
_cell_volume 2765.703082
_symmetry_space_group_name_H-M "C 2/M"
_symmetry_group_IT_number 12
_symmetry_cell_setting 'monoclinic'
loop_
_space_group_symop_operation_xyz
x,y,z
-x,y,-z
-x,-y,-z
x,-y,z
1/2+x,1/2+y,z
1/2-x,1/2+y,-z
1/2-x,1/2-y,-z
1/2+x,1/2-y,z
loop_
_atom_site_type_symbol
_atom_site_label
_atom_site_fract_x
_atom_site_fract_y
_atom_site_fract_z
Si Si1 0.946863 0.641986 0.667867
Si Si2 0.493542 0.823619 0.193335
Si Si3 0.787711 0.415365 0.462530
Si Si4 0.315860 0.371572 0.205255
Si Si5 0.436508 0.673789 0.798598
Si Si6 0.392773 0.583050 0.956430
Si Si7 0.638911 0.732694 0.428415
O O1 0.863847 0.602917 0.680534
O O2 0.762331 0.635694 0.873999
O O3 0.122732 0.604806 0.551094
O O4 0.013607 0.722848 0.588185
O O5 0.451667 0.894153 0.270517
O O6 0.499965 0.753459 0.232480
O O7 0.313024 0.813303 0.305956
O O8 0.710142 0.823790 0.974395
O O9 0.733017 0.500000 0.508181
O O10 0.602039 0.361723 0.612792
O O11 0.244277 0.297945 0.299463
O O12 0.500000 0.358562 0.000000
O O13 0.409163 0.418904 0.176306
O O14 0.432179 0.619543 0.859232
O O15 0.313574 0.500000 0.021912
O O16 0.500000 0.695251 0.500000
#
# Coordination Sequence:
#
# PCOD9192357 Si02
#       7
#     8   8   8   8   8   8   8
#     4  10  20  33  55  79 121 158 197 238 284 337
#     4  11  23  40  63  85 119 155 199 242 300 344
#     4  12  24  38  59  91 123 157 196 240 293 354
#     4   9  19  33  53  80 116 159 202 241 276 339
#     4  11  23  37  59  86 121 158 203 242 289 343
#     4  11  20  34  52  80 122 168 205 238 282 337
#     4  10  20  38  59  85 113 148 199 248 296 346
#
# _framework density 20.248014999999999
#
# number of rings (size 3 to 8) (size 9 to 14) (size 15 to 20)
#    0.000    1.429    4.286    1.286    0.000    3.714 
#    2.571    0.714    0.000   12.857    0.000    1.000 
#    0.000    0.000    0.000    0.000    0.000    0.000 
#
# Total GULP energy -156305.148609 kJ/mol
# GULP energy per Si atom -5582.326736 kJ/mol
# Density = 2.020193 g / cm^3
# Si number density = 20.248015 Si / 1000 Ang^3
#
#
#
# Elastic Constant Matrix: (Units=GPa)
#
#
# Indices 1 2 3 4 5 6 
#
# 1 75.3867 21.5579 19.8436 -0.0148 -26.6154 -0.0169
# 2 21.5579 45.3859 16.6490 0.0083 -13.5492 0.0016
# 3 19.8436 16.6490 69.0956 -0.1427 -28.1290 -0.0894
# 4 -0.0148 0.0083 -0.1427 1.0280 0.0020 -18.4898
# 5 -26.6154 -13.5492 -28.1290 0.0020 38.5643 -0.0029
# 6 -0.0169 0.0016 -0.0894 -18.4898 -0.0029 -8.4580
#
#
#
# Elastic Compliance Matrix: (Units=1/GPa)
#
#
# Indices 1 2 3 4 5 6 
#
# 1 0.018763 -0.005743 0.000634 -0.000012 0.011394 -0.000022
# 2 -0.005743 0.026958 -0.003704 0.000004 0.002806 0.000046
# 3 0.000634 -0.003704 0.021095 -0.000030 0.014523 -0.000165
# 4 -0.000012 0.000004 -0.000030 0.024127 -0.000034 -0.052742
# 5 0.011394 0.002806 0.014523 -0.000034 0.045373 -0.000117
# 6 -0.000022 0.000046 -0.000165 -0.052742 -0.000117 -0.002931
#
#
# Mechanical properties :
#
#
# Convention : Reuss Voigt Hill
#
# Bulk Modulus (GPa) = 20.32966 33.99660 27.16313
# Shear Modulus (GPa) = 29.86707 15.01469 22.44088
#
# Velocity S-wave (km/s) = 3.84482 2.72608 3.33273
# Velocity P-wave (km/s) = 5.45640 5.17061 5.31543
#
# Compressibility (1/GPa) = 0.04918922
#
# Stress axis : x y z
#
# Youngs Moduli (GPa) = 53.29595 37.09520 47.40407
#
# Poissons Ratio (x) = 0.21305 -0.03004
# Poissons Ratio (y) = 0.30610 0.17557
# Poissons Ratio (z) = -0.03377 0.13739
#
# Static dielectric constant tensor:
#      x y z
#    x 1.763080 -0.000010 -0.023220 
#    y -0.000010 1.686980 0.000050 
#    z -0.023220 0.000050 1.805320 
# 
# From -- ./inp_files/347768.got.cif
#   From: 2010.05.17/outbox.cif.g08.bks.cpg/sg12_174_cif.got.tgz:347768.got - 2010.06.03 13:09:07.
