data_PCOD9192431
_publ_section_title
;
Structure prediction by ZEFSAII (Michael W. Deem and Ramdas Pophale) SiO2 
 PCOD9192431
Probable space group: C 2/M
;
_chemical_formula_sum "Si O2"
_cell_formula_units_Z 50
_cell_length_a 21.139674
_cell_length_b 13.457134
_cell_length_c 8.281933
_cell_angle_alpha 90.000000
_cell_angle_beta 81.134758
_cell_angle_gamma 90.000000
_cell_volume 2327.893206
_symmetry_space_group_name_H-M "C 2/M"
_symmetry_group_IT_number 12
_symmetry_cell_setting 'monoclinic'
loop_
_space_group_symop_operation_xyz
x,y,z
-x,y,-z
-x,-y,-z
x,-y,z
1/2+x,1/2+y,z
1/2-x,1/2+y,-z
1/2-x,1/2-y,-z
1/2+x,1/2-y,z
loop_
_atom_site_type_symbol
_atom_site_label
_atom_site_fract_x
_atom_site_fract_y
_atom_site_fract_z
Si Si1 0.033913 0.612351 0.314725
Si Si2 0.679020 0.879559 0.293054
Si Si3 0.500000 0.500000 0.500000
Si Si4 0.556420 0.242792 0.874895
Si Si5 0.116518 0.108710 0.602886
Si Si6 0.248774 0.879855 0.410857
Si Si7 0.175880 0.379569 0.938935
O O1 0.041011 0.500000 0.246851
O O2 0.105000 0.653592 0.317965
O O3 0.000000 0.607041 0.500000
O O4 0.986484 0.672555 0.220585
O O5 0.716400 0.845932 0.437785
O O6 0.677941 0.000000 0.305588
O O7 0.705276 0.856183 0.103665
O O8 0.553210 0.584910 0.526867
O O9 0.597955 0.317216 0.751327
O O10 0.607228 0.174806 0.950647
O O11 0.500000 0.295946 0.000000
O O12 0.173962 0.140773 0.464755
O O13 0.136507 0.000000 0.665941
O O14 0.281722 0.846907 0.231572
O O15 0.254771 0.000000 0.402730
O O16 0.167482 0.500000 0.934257
#
# Coordination Sequence:
#
# PCOD9192431 Si02
#       7
#     8   8   2   8   8   8   8
#     4  10  20  33  55  89 125 167 207 241 299 374
#     4   9  17  32  55  86 126 163 198 245 300 371
#     4   8  20  48  70  88 106 152 210 282 326 356
#     4  12  23  36  60  89 128 170 204 254 312 365
#     4   9  22  43  67  85 116 153 213 273 319 365
#     4   9  18  38  63  87 122 163 204 261 314 366
#     4  10  20  35  59  95 133 169 205 238 305 389
#
# _framework density 21.478646999999999
#
# number of rings (size 3 to 8) (size 9 to 14) (size 15 to 20)
#    0.480    1.760    1.600    1.440    1.120    4.160 
#    0.000    2.400    3.520    0.000    0.000    0.000 
#    0.000    0.000    0.000    0.000    0.000    0.000 
#
# Total GULP energy -139248.264760 kJ/mol
# GULP energy per Si atom -5569.930590 kJ/mol
# Density = 2.142976 g / cm^3
# Si number density = 21.478647 Si / 1000 Ang^3
#
#
#
# Elastic Constant Matrix: (Units=GPa)
#
#
# Indices 1 2 3 4 5 6 
#
# 1 66.5466 26.5613 62.6274 0.0000 3.0713 0.0000
# 2 26.5613 57.3486 14.6572 0.0000 -4.4730 0.0000
# 3 62.6274 14.6572 142.1601 0.0000 -18.4122 0.0000
# 4 0.0000 0.0000 0.0000 14.3185 0.0000 3.5843
# 5 3.0713 -4.4730 -18.4122 0.0000 39.3379 0.0000
# 6 0.0000 0.0000 0.0000 3.5843 0.0000 3.0143
#
#
#
# Elastic Compliance Matrix: (Units=1/GPa)
#
#
# Indices 1 2 3 4 5 6 
#
# 1 0.036053 -0.013527 -0.016023 0.000000 -0.011853 0.000000
# 2 -0.013527 0.023042 0.004322 0.000000 0.005699 0.000000
# 3 -0.016023 0.004322 0.014769 0.000000 0.008655 0.000000
# 4 0.000000 0.000000 0.000000 0.099439 0.000000 -0.118244
# 5 -0.011853 0.005699 0.008655 0.000000 0.031045 0.000000
# 6 0.000000 0.000000 0.000000 -0.118244 0.000000 0.472353
#
#
# Mechanical properties :
#
#
# Convention : Reuss Voigt Hill
#
# Bulk Modulus (GPa) = 42.72357 52.63855 47.68106
# Shear Modulus (GPa) = 6.80308 22.14811 14.47559
#
# Velocity S-wave (km/s) = 1.78164 3.21467 2.59888
# Velocity P-wave (km/s) = 4.91596 6.19188 5.59044
#
# Compressibility (1/GPa) = 0.02340628
#
# Stress axis : x y z
#
# Youngs Moduli (GPa) = 27.73698 43.39821 67.71115
#
# Poissons Ratio (x) = 0.58706 1.08495
# Poissons Ratio (y) = 0.37521 -0.29263
# Poissons Ratio (z) = 0.44444 -0.18756
#
# Static dielectric constant tensor:
#      x y z
#    x 1.752270 0.000000 -0.008240 
#    y 0.000000 1.854730 0.000000 
#    z -0.008240 0.000000 1.830450 
# 
# From -- ./inp_files/85805.got.cif
#   From: 2010.05.17/outbox.cif.g08.bks.cpg/sg12_43_cif.got.tgz:85805.got - 2010.06.03 13:09:07.
