data_PCOD9192384
_publ_section_title
;
Structure prediction by ZEFSAII (Michael W. Deem and Ramdas Pophale) SiO2 
 PCOD9192384
Probable space group: C 2/M
;
_chemical_formula_sum "Si O2"
_cell_formula_units_Z 56
_cell_length_a 20.524672
_cell_length_b 9.467940
_cell_length_c 24.035908
_cell_angle_alpha 90.000000
_cell_angle_beta 140.419437
_cell_angle_gamma 90.000000
_cell_volume 2976.065649
_symmetry_space_group_name_H-M "C 2/M"
_symmetry_group_IT_number 12
_symmetry_cell_setting 'monoclinic'
loop_
_space_group_symop_operation_xyz
x,y,z
-x,y,-z
-x,-y,-z
x,-y,z
1/2+x,1/2+y,z
1/2-x,1/2+y,-z
1/2-x,1/2-y,-z
1/2+x,1/2-y,z
loop_
_atom_site_type_symbol
_atom_site_label
_atom_site_fract_x
_atom_site_fract_y
_atom_site_fract_z
Si Si1 0.121725 0.341660 0.581012
Si Si2 0.335822 0.667300 0.021557
Si Si3 0.893619 0.658661 0.632865
Si Si4 0.210961 0.166068 0.225558
Si Si5 0.055539 0.836580 0.225166
Si Si6 0.620129 0.167650 0.063796
Si Si7 0.847815 0.157378 0.503674
O O1 0.156524 0.500000 0.587045
O O2 0.175278 0.314497 0.675166
O O3 0.155718 0.229900 0.558214
O O4 0.000000 0.340573 0.500000
O O5 0.311553 0.500000 0.998374
O O6 0.442753 0.675535 0.125286
O O7 0.250000 0.750000 0.000000
O O8 0.353026 0.745368 0.974042
O O9 0.935208 0.500000 0.656449
O O10 0.930581 0.737657 0.712465
O O11 0.911089 0.748631 0.588770
O O12 0.770325 0.648786 0.555561
O O13 0.135560 0.195897 0.228250
O O14 0.182990 0.265855 0.156270
O O15 0.196555 0.000000 0.201133
O O16 0.073246 0.000000 0.253524
O O17 0.639579 0.000000 0.069446
O O18 0.500000 0.185086 0.000000
O O19 0.890177 0.000000 0.528907
#
# Coordination Sequence:
#
# PCOD9192384 Si02
#       7
#     8   8   8   8   8   8   8
#     4  10  21  38  59  83 115 154 196 244 299 356
#     4  11  24  43  65  90 124 161 201 250 311 374
#     4  10  20  33  55  84 112 145 189 239 288 343
#     4  10  20  37  62  89 118 155 201 251 303 361
#     4  10  20  36  61  88 115 151 195 245 299 359
#     4  11  23  39  64  96 127 160 206 258 305 366
#     4  10  20  34  54  80 112 149 189 236 289 342
#
# _framework density 18.816787999999999
#
# number of rings (size 3 to 8) (size 9 to 14) (size 15 to 20)
#    0.000    1.714    2.857    1.714    0.000    4.286 
#    2.571    0.000    0.000    0.000    0.000    0.000 
#    0.000    0.000    0.000    0.000    0.000    0.000 
#
# Total GULP energy -156301.066243 kJ/mol
# GULP energy per Si atom -5582.180937 kJ/mol
# Density = 1.877396 g / cm^3
# Si number density = 18.816788 Si / 1000 Ang^3
#
#
#
# Elastic Constant Matrix: (Units=GPa)
#
#
# Indices 1 2 3 4 5 6 
#
# 1 54.4837 53.4916 34.5665 0.0000 -5.2780 0.0000
# 2 53.4916 167.2631 86.5935 0.0000 -30.1803 0.0000
# 3 34.5665 86.5935 122.0719 0.0000 -15.1895 0.0000
# 4 0.0000 0.0000 0.0000 18.9113 0.0000 3.9069
# 5 -5.2780 -30.1803 -15.1895 0.0000 33.3020 0.0000
# 6 0.0000 0.0000 0.0000 3.9069 0.0000 18.2893
#
#
#
# Elastic Compliance Matrix: (Units=1/GPa)
#
#
# Indices 1 2 3 4 5 6 
#
# 1 0.027708 -0.008375 -0.002441 0.000000 -0.004312 0.000000
# 2 -0.008375 0.013187 -0.006002 0.000000 0.007886 0.000000
# 3 -0.002441 -0.006002 0.013163 0.000000 0.000178 0.000000
# 4 0.000000 0.000000 0.000000 0.055320 0.000000 -0.011817
# 5 -0.004312 0.007886 0.000178 0.000000 0.036573 0.000000
# 6 0.000000 0.000000 0.000000 -0.011817 0.000000 0.057201
#
#
# Mechanical properties :
#
#
# Convention : Reuss Voigt Hill
#
# Bulk Modulus (GPa) = 48.96869 77.01355 62.99112
# Shear Modulus (GPa) = 20.52584 25.37833 22.95208
#
# Velocity S-wave (km/s) = 3.30635 3.67646 3.49630
# Velocity P-wave (km/s) = 6.37623 7.68367 7.06028
#
# Compressibility (1/GPa) = 0.02042121
#
# Stress axis : x y z
#
# Youngs Moduli (GPa) = 36.09044 75.83160 75.97278
#
# Poissons Ratio (x) = 0.63512 0.18548
# Poissons Ratio (y) = 0.30227 0.45596
# Poissons Ratio (z) = 0.08811 0.45511
#
# Static dielectric constant tensor:
#      x y z
#    x 1.646200 0.000000 0.021500 
#    y 0.000000 1.656730 0.000000 
#    z 0.021500 0.000000 1.635530 
# 
# From -- ./inp_files/348627.got.cif
#   From: 2010.05.17/outbox.cif.g08.bks.cpg/sg12_175_cif.got.tgz:348627.got - 2010.06.03 13:09:07.
