data_PCOD9192807
_publ_section_title
;
Structure prediction by ZEFSAII (Michael W. Deem and Ramdas Pophale) SiO2 
 PCOD9192807
Probable space group: C 2/M
;
_chemical_formula_sum "Si O2"
_cell_formula_units_Z 48
_cell_length_a 20.032587
_cell_length_b 7.458811
_cell_length_c 14.452569
_cell_angle_alpha 90.000000
_cell_angle_beta 104.076644
_cell_angle_gamma 90.000000
_cell_volume 2094.645581
_symmetry_space_group_name_H-M "C 2/M"
_symmetry_group_IT_number 12
_symmetry_cell_setting 'monoclinic'
loop_
_space_group_symop_operation_xyz
x,y,z
-x,y,-z
-x,-y,-z
x,-y,z
1/2+x,1/2+y,z
1/2-x,1/2+y,-z
1/2-x,1/2-y,-z
1/2+x,1/2-y,z
loop_
_atom_site_type_symbol
_atom_site_label
_atom_site_fract_x
_atom_site_fract_y
_atom_site_fract_z
Si Si1 0.399276 0.717289 0.099860
Si Si2 0.644572 0.282401 0.419291
Si Si3 0.024709 0.203181 0.254135
Si Si4 0.269051 0.719160 0.161337
Si Si5 0.112278 0.291266 0.109076
Si Si6 0.710213 0.288298 0.627402
O O1 0.401491 0.500000 0.101445
O O2 0.453258 0.783885 0.194879
O O3 0.322534 0.776753 0.101181
O O4 0.418705 0.775439 0.003605
O O5 0.641863 0.500000 0.419588
O O6 0.574404 0.216073 0.348810
O O7 0.662711 0.216679 0.528491
O O8 0.710760 0.235049 0.378960
O O9 0.070498 0.197891 0.176081
O O10 0.009017 0.000000 0.279436
O O11 0.268027 0.500000 0.159723
O O12 0.190394 0.778546 0.126492
O O13 0.296342 0.779779 0.270949
O O14 0.114948 0.500000 0.136588
O O15 0.696405 0.500000 0.627345
#
# Coordination Sequence:
#
# PCOD9192807 Si02
#       6
#     8   8   8   8   8   8
#     4  10  21  36  51  69 101 137 165 199 247 297
#     4   9  17  29  49  76 100 124 160 201 240 288
#     4  10  20  34  51  74 102 132 164 200 245 295
#     4   9  18  33  52  74  99 130 164 202 247 291
#     4  11  21  34  53  75  97 127 171 212 244 284
#     4   9  16  30  51  74  99 126 159 200 244 287
#
# _framework density 22.915569000000001
#
# number of rings (size 3 to 8) (size 9 to 14) (size 15 to 20)
#    0.000    2.333    1.667    1.500    0.000    2.667 
#    0.000    2.500    0.000    5.000    0.000    0.000 
#    0.000    8.000    0.000    0.000    0.000    0.000 
#
# Total GULP energy -134050.273209 kJ/mol
# GULP energy per Si atom -5585.428050 kJ/mol
# Density = 2.286341 g / cm^3
# Si number density = 22.915569 Si / 1000 Ang^3
#
#
#
# Elastic Constant Matrix: (Units=GPa)
#
#
# Indices 1 2 3 4 5 6 
#
# 1 58.0206 -5.8983 -6.5698 0.0000 14.4781 0.0000
# 2 -5.8983 72.7942 -7.2217 0.0000 -0.6717 0.0000
# 3 -6.5698 -7.2217 82.3775 0.0000 15.6992 0.0000
# 4 0.0000 0.0000 0.0000 5.6224 0.0000 1.6721
# 5 14.4781 -0.6717 15.6992 0.0000 37.4908 0.0000
# 6 0.0000 0.0000 0.0000 1.6721 0.0000 9.5362
#
#
#
# Elastic Compliance Matrix: (Units=1/GPa)
#
#
# Indices 1 2 3 4 5 6 
#
# 1 0.020127 0.001896 0.003528 0.000000 -0.009216 0.000000
# 2 0.001896 0.014039 0.001601 0.000000 -0.001151 0.000000
# 3 0.003528 0.001601 0.013927 0.000000 -0.007165 0.000000
# 4 0.000000 0.000000 0.000000 0.187646 0.000000 -0.032903
# 5 -0.009216 -0.001151 -0.007165 0.000000 0.033212 0.000000
# 6 0.000000 0.000000 0.000000 -0.032903 0.000000 0.110632
#
#
# Mechanical properties :
#
#
# Convention : Reuss Voigt Hill
#
# Bulk Modulus (GPa) = 16.09204 19.31251 17.70228
# Shear Modulus (GPa) = 12.94506 26.05536 19.50021
#
# Velocity S-wave (km/s) = 2.37935 3.37562 2.92028
# Velocity P-wave (km/s) = 3.81915 4.86201 4.37179
#
# Compressibility (1/GPa) = 0.06214252
#
# Stress axis : x y z
#
# Youngs Moduli (GPa) = 49.68418 71.22908 71.80553
#
# Poissons Ratio (x) = -0.13503 -0.25331
# Poissons Ratio (y) = -0.09419 -0.11498
# Poissons Ratio (z) = -0.17527 -0.11406
#
# Static dielectric constant tensor:
#      x y z
#    x 1.822150 0.000000 0.045990 
#    y 0.000000 1.845260 0.000000 
#    z 0.045990 0.000000 1.860580 
# 
# From -- ./inp_files/229899.got.cif
#   From: 2010.05.17/outbox.cif.g08.bks.cpg/sg12_115_cif.got.tgz:229899.got - 2010.06.03 13:09:07.
