data_PCOD9192375
_publ_section_title
;
Structure prediction by ZEFSAII (Michael W. Deem and Ramdas Pophale) SiO2 
 PCOD9192375
Probable space group: C 2/M
;
_chemical_formula_sum "Si O2"
_cell_formula_units_Z 56
_cell_length_a 8.562731
_cell_length_b 26.262682
_cell_length_c 17.741690
_cell_angle_alpha 90.000000
_cell_angle_beta 139.927426
_cell_angle_gamma 90.000000
_cell_volume 2568.435134
_symmetry_space_group_name_H-M "C 2/M"
_symmetry_group_IT_number 12
_symmetry_cell_setting 'monoclinic'
loop_
_space_group_symop_operation_xyz
x,y,z
-x,y,-z
-x,-y,-z
x,-y,z
1/2+x,1/2+y,z
1/2-x,1/2+y,-z
1/2-x,1/2-y,-z
1/2+x,1/2-y,z
loop_
_atom_site_type_symbol
_atom_site_label
_atom_site_fract_x
_atom_site_fract_y
_atom_site_fract_z
Si Si1 0.801401 0.632714 0.506073
Si Si2 0.950895 0.180985 0.722676
Si Si3 0.434532 0.788815 0.299381
Si Si4 0.732857 0.863933 0.880587
Si Si5 0.885403 0.054588 0.353864
Si Si6 0.627454 0.900337 0.123187
Si Si7 0.422341 0.057621 0.293015
O O1 0.746964 0.651343 0.401456
O O2 0.552399 0.602653 0.431430
O O3 0.856292 0.682560 0.576069
O O4 0.999758 0.590465 0.605719
O O5 0.811495 0.200088 0.745122
O O6 0.027203 0.229983 0.702274
O O7 0.181146 0.145091 0.823468
O O8 0.414275 0.819129 0.213930
O O9 0.582455 0.881749 0.897308
O O10 0.753192 0.909078 0.825224
O O11 0.000000 0.846758 0.000000
O O12 0.779841 0.060379 0.230592
O O13 0.662427 0.055128 0.329165
O O14 0.015140 0.000000 0.409435
O O15 0.500000 0.918784 0.000000
O O16 0.341815 0.000000 0.279263
#
# Coordination Sequence:
#
# PCOD9192375 Si02
#       7
#     8   8   8   8   8   8   8
#     4  10  20  33  55  83 116 150 186 230 278 332
#     4  11  23  39  59  84 115 149 189 234 284 339
#     4  11  23  39  59  84 115 149 189 234 284 339
#     4  10  21  38  60  85 115 150 190 235 284 336
#     4   9  18  33  56  86 118 153 192 234 281 334
#     4  10  21  38  60  85 115 150 190 235 284 336
#     4   9  18  33  56  86 118 153 192 234 281 334
#
# _framework density 21.803159999999998
#
# number of rings (size 3 to 8) (size 9 to 14) (size 15 to 20)
#    0.000    2.000    0.000    3.429    0.000    5.714 
#    0.000    2.857    0.000   43.714    0.000    0.000 
#    0.000    0.000    0.000    0.000    0.000    0.000 
#
# Total GULP energy -156386.623550 kJ/mol
# GULP energy per Si atom -5585.236555 kJ/mol
# Density = 2.175353 g / cm^3
# Si number density = 21.803160 Si / 1000 Ang^3
#
#
#
# Elastic Constant Matrix: (Units=GPa)
#
#
# Indices 1 2 3 4 5 6 
#
# 1 56.4536 16.2279 7.9555 0.0001 -10.5983 0.0000
# 2 16.2279 91.5824 0.6535 0.0001 -9.4450 0.0000
# 3 7.9555 0.6535 92.4499 0.0019 -20.9958 0.0007
# 4 0.0001 0.0001 0.0019 12.0081 0.0006 5.3091
# 5 -10.5983 -9.4450 -20.9958 0.0006 30.3915 0.0002
# 6 0.0000 0.0000 0.0007 5.3091 0.0002 21.6572
#
#
#
# Elastic Compliance Matrix: (Units=1/GPa)
#
#
# Indices 1 2 3 4 5 6 
#
# 1 0.019669 -0.002895 -0.000378 0.000000 0.005698 0.000000
# 2 -0.002895 0.011763 0.000910 0.000000 0.003275 0.000000
# 3 -0.000378 0.000910 0.012901 -0.000003 0.009064 0.000000
# 4 0.000000 0.000000 -0.000003 0.093400 -0.000004 -0.022896
# 5 0.005698 0.003275 0.009064 -0.000004 0.042170 0.000000
# 6 0.000000 0.000000 0.000000 -0.022896 0.000000 0.051787
#
#
# Mechanical properties :
#
#
# Convention : Reuss Voigt Hill
#
# Bulk Modulus (GPa) = 25.24809 32.23997 28.74403
# Shear Modulus (GPa) = 20.03047 27.18795 23.60921
#
# Velocity S-wave (km/s) = 3.03429 3.53508 3.29421
# Velocity P-wave (km/s) = 4.88682 5.61082 5.26129
#
# Compressibility (1/GPa) = 0.03960695
#
# Stress axis : x y z
#
# Youngs Moduli (GPa) = 50.84187 85.01010 77.51248
#
# Poissons Ratio (x) = 0.24609 0.02930
# Poissons Ratio (y) = 0.14718 -0.07051
# Poissons Ratio (z) = 0.01922 -0.07733
#
# Static dielectric constant tensor:
#      x y z
#    x 1.832220 0.000000 -0.006650 
#    y 0.000000 1.779750 0.000000 
#    z -0.006650 0.000000 1.793920 
# 
# From -- ./inp_files/259862.got.cif
#   From: 2010.05.17/outbox.cif.g08.bks.cpg/sg12_130_cif.got.tgz:259862.got - 2010.06.03 13:09:07.
