data_PCOD9192966
_publ_section_title
;
Structure prediction by ZEFSAII (Michael W. Deem and Ramdas Pophale) SiO2 
 PCOD9192966
Probable space group: C 2/M
;
_chemical_formula_sum "Si O2"
_cell_formula_units_Z 56
_cell_length_a 17.372897
_cell_length_b 13.761225
_cell_length_c 16.700424
_cell_angle_alpha 90.000000
_cell_angle_beta 132.593612
_cell_angle_gamma 90.000000
_cell_volume 2939.249526
_symmetry_space_group_name_H-M "C 2/M"
_symmetry_group_IT_number 12
_symmetry_cell_setting 'monoclinic'
loop_
_space_group_symop_operation_xyz
x,y,z
-x,y,-z
-x,-y,-z
x,-y,z
1/2+x,1/2+y,z
1/2-x,1/2+y,-z
1/2-x,1/2-y,-z
1/2+x,1/2-y,z
loop_
_atom_site_type_symbol
_atom_site_label
_atom_site_fract_x
_atom_site_fract_y
_atom_site_fract_z
Si Si1 0.830329 0.304195 0.255972
Si Si2 0.887100 0.111757 0.381698
Si Si3 0.099499 0.209151 0.126380
Si Si4 0.163457 0.610548 0.280748
Si Si5 0.895469 0.110189 0.703406
Si Si6 0.534595 0.801170 0.331167
Si Si7 0.850063 0.611869 0.446360
O O1 0.859893 0.192240 0.296731
O O2 0.707017 0.314666 0.155141
O O3 0.851064 0.360628 0.353888
O O4 0.913788 0.333542 0.247957
O O5 0.789309 0.121846 0.374511
O O6 0.000000 0.128327 0.500000
O O7 0.885082 0.000000 0.351233
O O8 0.122502 0.311163 0.187828
O O9 0.082760 0.133973 0.187789
O O10 0.000000 0.213450 0.000000
O O11 0.142508 0.500000 0.241799
O O12 0.105934 0.634869 0.322581
O O13 0.949911 0.191490 0.688100
O O14 0.769744 0.121891 0.608576
O O15 0.923394 0.000000 0.702560
O O16 0.578256 0.818638 0.450640
O O17 0.882482 0.500000 0.479799
#
# Coordination Sequence:
#
# PCOD9192966 Si02
#       7
#     8   8   8   8   8   8   8
#     4  10  21  34  50  77 105 133 176 218 254 303
#     4   9  17  31  50  71 100 137 174 209 244 292
#     4   9  19  38  60  75  94 132 178 221 261 302
#     4   9  19  34  52  79 109 136 171 211 256 309
#     4   9  20  36  53  77 105 135 173 212 251 301
#     4  11  20  32  52  77 110 141 164 203 259 314
#     4  10  20  34  52  74 105 144 178 204 239 298
#
# _framework density 19.052481
#
# number of rings (size 3 to 8) (size 9 to 14) (size 15 to 20)
#    0.000    2.429    0.000    3.000    0.000    4.000 
#    0.000    7.857    0.000    1.714    0.000    0.000 
#    0.000    0.000    0.000    0.000    0.000    0.000 
#
# Total GULP energy -156280.522141 kJ/mol
# GULP energy per Si atom -5581.447219 kJ/mol
# Density = 1.900912 g / cm^3
# Si number density = 19.052481 Si / 1000 Ang^3
#
#
#
# Elastic Constant Matrix: (Units=GPa)
#
#
# Indices 1 2 3 4 5 6 
#
# 1 113.0092 17.8857 33.3197 0.0000 27.1549 0.0000
# 2 17.8857 63.6003 20.9780 0.0000 1.7118 0.0000
# 3 33.3197 20.9780 99.5024 0.0000 24.7920 0.0000
# 4 0.0000 0.0000 0.0000 3.5446 0.0000 -3.3925
# 5 27.1549 1.7118 24.7920 0.0000 13.5192 0.0000
# 6 0.0000 0.0000 0.0000 -3.3925 0.0000 -17.8844
#
#
#
# Elastic Compliance Matrix: (Units=1/GPa)
#
#
# Indices 1 2 3 4 5 6 
#
# 1 0.021477 -0.007429 0.009001 0.000000 -0.058705 0.000000
# 2 -0.007429 0.019962 -0.008855 0.000000 0.028633 0.000000
# 3 0.009001 -0.008855 0.024174 0.000000 -0.061290 0.000000
# 4 0.000000 0.000000 0.000000 0.238771 0.000000 -0.045292
# 5 -0.058705 0.028633 -0.061290 0.000000 0.300656 0.000000
# 6 0.000000 0.000000 0.000000 -0.045292 0.000000 -0.047323
#
#
# Mechanical properties :
#
#
# Convention : Reuss Voigt Hill
#
# Bulk Modulus (GPa) = 19.58945 46.71985 33.15465
# Shear Modulus (GPa) = 8.48468 13.43110 10.95789
#
# Velocity S-wave (km/s) = 2.11258 2.65798 2.40081
# Velocity P-wave (km/s) = 4.03173 5.83049 5.01246
#
# Compressibility (1/GPa) = 0.05104789
#
# Stress axis : x y z
#
# Youngs Moduli (GPa) = 46.56183 50.09400 41.36729
#
# Poissons Ratio (x) = 0.37213 -0.37236
# Poissons Ratio (y) = 0.34589 0.36632
# Poissons Ratio (z) = -0.41912 0.44359
#
# Static dielectric constant tensor:
#      x y z
#    x 1.711140 0.000000 0.018600 
#    y 0.000000 1.689220 0.000000 
#    z 0.018600 0.000000 1.621860 
# 
# From -- ./inp_files/277889.got.cif
#   From: 2010.05.17/outbox.cif.g08.bks.cpg/sg12_139_cif.got.tgz:277889.got - 2010.06.03 13:09:07.
