data_PCOD9192372
_publ_section_title
;
Structure prediction by ZEFSAII (Michael W. Deem and Ramdas Pophale) SiO2 
 PCOD9192372
Probable space group: C 2/M
;
_chemical_formula_sum "Si O2"
_cell_formula_units_Z 56
_cell_length_a 7.669892
_cell_length_b 31.204465
_cell_length_c 12.132034
_cell_angle_alpha 90.000000
_cell_angle_beta 74.045926
_cell_angle_gamma 90.000000
_cell_volume 2791.778217
_symmetry_space_group_name_H-M "C 2/M"
_symmetry_group_IT_number 12
_symmetry_cell_setting 'monoclinic'
loop_
_space_group_symop_operation_xyz
x,y,z
-x,y,-z
-x,-y,-z
x,-y,z
1/2+x,1/2+y,z
1/2-x,1/2+y,-z
1/2-x,1/2-y,-z
1/2+x,1/2-y,z
loop_
_atom_site_type_symbol
_atom_site_label
_atom_site_fract_x
_atom_site_fract_y
_atom_site_fract_z
Si Si1 0.488724 0.093155 0.135016
Si Si2 0.595531 0.500000 0.863773
Si Si3 0.593335 0.593897 0.864687
Si Si4 0.487409 0.000000 0.134435
Si Si5 0.021363 0.815614 0.767715
Si Si6 0.637257 0.175806 0.726087
Si Si7 0.929809 0.265623 0.907917
Si Si8 0.800309 0.799750 0.483974
O O1 0.692358 0.095668 0.147712
O O2 0.406668 0.046207 0.175514
O O3 0.381725 0.129854 0.215692
O O4 0.500000 0.098092 0.000000
O O5 0.551292 0.546704 0.820638
O O6 0.810270 0.500000 0.851002
O O7 0.500000 0.500000 0.000000
O O8 0.530725 0.636402 0.812486
O O9 0.500000 0.594908 0.000000
O O10 0.500000 0.000000 0.000000
O O11 0.174557 0.811718 0.647430
O O12 0.824024 0.805641 0.746823
O O13 0.034589 0.778452 0.857221
O O14 0.468513 0.204642 0.796578
O O15 0.663191 0.176361 0.590310
O O16 0.750000 0.250000 0.000000
O O17 0.000000 0.293386 0.000000
O O18 0.750000 0.750000 0.500000
O O19 0.000000 0.806772 0.500000
#
# Coordination Sequence:
#
# PCOD9192372 Si02
#       8
#     8   4   8   4   8   8   8   8
#     4  10  20  33  56  82 115 143 178 220 274 329
#     4   8  16  32  50  77 112 141 177 216 265 330
#     4  10  20  33  55  83 112 146 178 221 275 328
#     4   8  16  32  50  79 110 145 173 212 267 332
#     4  11  23  38  55  79 109 144 187 228 269 322
#     4  11  23  38  54  78 110 145 186 228 266 322
#     4  12  24  35  53  79 113 144 174 218 278 327
#     4  10  22  40  58  74 101 146 192 231 267 312
#
# _framework density 20.058900999999999
#
# number of rings (size 3 to 8) (size 9 to 14) (size 15 to 20)
#    0.000    1.714    2.857    1.714    4.000    2.286 
#    0.000    0.000    0.000    0.857    0.000    6.000 
#    0.000    0.000    0.000    0.000    0.000    0.000 
#
# Total GULP energy -156016.028393 kJ/mol
# GULP energy per Si atom -5572.001014 kJ/mol
# Density = 2.001325 g / cm^3
# Si number density = 20.058901 Si / 1000 Ang^3
#
#
#
# Elastic Constant Matrix: (Units=GPa)
#
#
# Indices 1 2 3 4 5 6 
#
# 1 41.3811 -0.0052 20.6196 0.0000 -4.0714 0.0000
# 2 -0.0052 172.4373 73.1252 0.0000 -6.0104 0.0000
# 3 20.6196 73.1252 148.8566 0.0000 -18.1184 0.0000
# 4 0.0000 0.0000 0.0000 7.5626 0.0000 1.7040
# 5 -4.0714 -6.0104 -18.1184 0.0000 22.4461 0.0000
# 6 0.0000 0.0000 0.0000 1.7040 0.0000 17.5822
#
#
#
# Elastic Compliance Matrix: (Units=1/GPa)
#
#
# Indices 1 2 3 4 5 6 
#
# 1 0.026537 0.001933 -0.004410 0.000000 0.001771 0.000000
# 2 0.001933 0.007488 -0.004058 0.000000 -0.000920 0.000000
# 3 -0.004410 -0.004058 0.010083 0.000000 0.006253 0.000000
# 4 0.000000 0.000000 0.000000 0.135182 0.000000 -0.013101
# 5 0.001771 -0.000920 0.006253 0.000000 0.049673 0.000000
# 6 0.000000 0.000000 0.000000 -0.013101 0.000000 0.058146
#
#
# Mechanical properties :
#
#
# Convention : Reuss Voigt Hill
#
# Bulk Modulus (GPa) = 32.21833 61.12826 46.67329
# Shear Modulus (GPa) = 16.10170 27.44720 21.77445
#
# Velocity S-wave (km/s) = 2.83631 3.70311 3.29831
# Velocity P-wave (km/s) = 5.17908 6.98746 6.15010
#
# Compressibility (1/GPa) = 0.03103823
#
# Stress axis : x y z
#
# Youngs Moduli (GPa) = 37.68255 133.54425 99.17334
#
# Poissons Ratio (x) = -0.25808 0.43733
# Poissons Ratio (y) = -0.07282 0.40247
# Poissons Ratio (z) = 0.16617 0.54195
#
# Static dielectric constant tensor:
#      x y z
#    x 1.862590 0.000000 -0.011030 
#    y 0.000000 1.730310 0.000000 
#    z -0.011030 0.000000 1.645830 
# 
# From -- ./inp_files/125636.got.cif
#   From: 2010.05.17/outbox.cif.g08.bks.cpg/sg12_63_cif.got.tgz:125636.got - 2010.06.03 13:09:07.
