data_PCOD9192005
_publ_section_title
;
Structure prediction by ZEFSAII (Michael W. Deem and Ramdas Pophale) SiO2 
 PCOD9192005
Probable space group: C 2/M
;
_chemical_formula_sum "Si O2"
_cell_formula_units_Z 48
_cell_length_a 19.425521
_cell_length_b 7.543800
_cell_length_c 23.203034
_cell_angle_alpha 90.000000
_cell_angle_beta 139.025343
_cell_angle_gamma 90.000000
_cell_volume 2229.612827
_symmetry_space_group_name_H-M "C 2/M"
_symmetry_group_IT_number 12
_symmetry_cell_setting 'monoclinic'
loop_
_space_group_symop_operation_xyz
x,y,z
-x,y,-z
-x,-y,-z
x,-y,z
1/2+x,1/2+y,z
1/2-x,1/2+y,-z
1/2-x,1/2-y,-z
1/2+x,1/2-y,z
loop_
_atom_site_type_symbol
_atom_site_label
_atom_site_fract_x
_atom_site_fract_y
_atom_site_fract_z
Si Si1 0.569763 0.217036 0.749610
Si Si2 0.865173 0.287195 0.550230
Si Si3 0.468569 0.288808 0.917243
Si Si4 0.768308 0.282633 0.246882
Si Si5 0.376188 0.202984 0.430498
Si Si6 0.373039 0.209809 0.086639
O O1 0.460195 0.275394 0.651073
O O2 0.664680 0.270297 0.766912
O O3 0.587652 0.280452 0.826348
O O4 0.569252 0.000000 0.750620
O O5 0.881858 0.500000 0.556258
O O6 0.750000 0.250000 0.500000
O O7 0.864423 0.211481 0.485233
O O8 0.457708 0.500000 0.916537
O O9 0.351975 0.223009 0.829042
O O10 0.554598 0.262840 0.921731
O O11 0.500000 0.217762 0.000000
O O12 0.771781 0.500000 0.248998
O O13 0.823502 0.219771 0.340404
O O14 0.500000 0.193316 0.500000
O O15 0.334653 0.000000 0.408301
O O16 0.382401 0.000000 0.096054
O O17 0.250000 0.250000 0.000000
#
# Coordination Sequence:
#
# PCOD9192005 Si02
#       6
#     8   8   8   8   8   8
#     4   9  18  34  54  78 109 145 181 221 276 330
#     4  10  20  33  52  79 111 145 180 222 272 323
#     4  10  21  37  58  84 111 141 180 228 281 334
#     4   9  16  29  52  78 105 137 179 226 266 314
#     4   9  15  27  49  78 104 134 181 226 258 302
#     4  11  23  39  59  82 111 147 185 228 278 334
#
# _framework density 21.528400999999999
#
# number of rings (size 3 to 8) (size 9 to 14) (size 15 to 20)
#    0.000    2.333    1.667    1.500    2.333    3.000 
#    0.000    0.833    0.000    1.500    0.000    0.000 
#    0.000    0.000    0.000    0.000    0.000    0.000 
#
# Total GULP energy -133936.441964 kJ/mol
# GULP energy per Si atom -5580.685082 kJ/mol
# Density = 2.147940 g / cm^3
# Si number density = 21.528401 Si / 1000 Ang^3
#
#
#
# Elastic Constant Matrix: (Units=GPa)
#
#
# Indices 1 2 3 4 5 6 
#
# 1 189.5820 -8.6925 122.8042 0.0000 -12.4421 0.0000
# 2 -8.6925 52.0490 6.4599 0.0000 -3.0897 0.0001
# 3 122.8042 6.4599 217.3803 0.0000 -17.0541 0.0000
# 4 0.0000 0.0000 0.0000 -2.1568 0.0000 8.0438
# 5 -12.4421 -3.0897 -17.0541 0.0000 44.4959 0.0000
# 6 0.0000 0.0001 0.0000 8.0438 0.0000 -1.9010
#
#
#
# Elastic Compliance Matrix: (Units=1/GPa)
#
#
# Indices 1 2 3 4 5 6 
#
# 1 0.008547 0.002068 -0.004837 0.000000 0.000680 0.000000
# 2 0.002068 0.019842 -0.001654 0.000000 0.001322 0.000000
# 3 -0.004837 -0.001654 0.007492 0.000000 0.001404 0.000000
# 4 0.000000 0.000000 0.000000 0.031368 0.000000 0.132730
# 5 0.000680 0.001322 0.001404 0.000000 0.023294 0.000000
# 6 0.000000 0.000000 0.000000 0.132730 0.000000 0.035589
#
#
# Mechanical properties :
#
#
# Convention : Reuss Voigt Hill
#
# Bulk Modulus (GPa) = 36.98871 77.79495 57.39183
# Shear Modulus (GPa) = 34.72481 30.65027 32.68754
#
# Velocity S-wave (km/s) = 4.02055 3.77731 3.90082
# Velocity P-wave (km/s) = 6.22669 7.43226 6.85603
#
# Compressibility (1/GPa) = 0.02703528
#
# Stress axis : x y z
#
# Youngs Moduli (GPa) = 116.99696 50.39861 133.47691
#
# Poissons Ratio (x) = -0.10423 0.64559
# Poissons Ratio (y) = -0.24196 0.22080
# Poissons Ratio (z) = 0.56588 0.08337
#
# Static dielectric constant tensor:
#      x y z
#    x 1.668830 0.000000 -0.029740 
#    y 0.000000 1.829250 0.000000 
#    z -0.029740 0.000000 1.768310 
# 
# From -- ./inp_files/320323.got.cif
#   From: 2010.05.17/outbox.cif.g08.bks.cpg/sg12_161_cif.got.tgz:320323.got - 2010.06.03 13:09:07.
