data_PCOD9192827
_publ_section_title
;
Structure prediction by ZEFSAII (Michael W. Deem and Ramdas Pophale) SiO2 
 PCOD9192827
Probable space group: C 2/M
;
_chemical_formula_sum "Si O2"
_cell_formula_units_Z 64
_cell_length_a 28.499864
_cell_length_b 8.171493
_cell_length_c 13.235692
_cell_angle_alpha 90.000000
_cell_angle_beta 86.324454
_cell_angle_gamma 90.000000
_cell_volume 3076.072872
_symmetry_space_group_name_H-M "C 2/M"
_symmetry_group_IT_number 12
_symmetry_cell_setting 'monoclinic'
loop_
_space_group_symop_operation_xyz
x,y,z
-x,y,-z
-x,-y,-z
x,-y,z
1/2+x,1/2+y,z
1/2-x,1/2+y,-z
1/2-x,1/2-y,-z
1/2+x,1/2-y,z
loop_
_atom_site_type_symbol
_atom_site_label
_atom_site_fract_x
_atom_site_fract_y
_atom_site_fract_z
Si Si1 0.052150 0.302426 0.526997
Si Si2 0.904789 0.198949 0.268355
Si Si3 0.373298 0.191597 0.645336
Si Si4 0.934762 0.692176 0.838980
Si Si5 0.691369 0.308160 0.803875
Si Si6 0.975416 0.188549 0.100610
Si Si7 0.652371 0.191527 0.020077
Si Si8 0.704778 0.313443 0.206674
O O1 0.051225 0.500000 0.516704
O O2 0.067158 0.259076 0.638290
O O3 0.094729 0.241021 0.449553
O O4 0.000000 0.244627 0.500000
O O5 0.850411 0.247265 0.265152
O O6 0.931115 0.261289 0.163594
O O7 0.906670 0.000000 0.266584
O O8 0.406223 0.202726 0.739558
O O9 0.325154 0.273172 0.688953
O O10 0.363460 0.000000 0.627240
O O11 0.946488 0.500000 0.851444
O O12 0.898973 0.746353 0.932701
O O13 0.981240 0.799185 0.827730
O O14 0.700005 0.500000 0.785770
O O15 0.740297 0.216065 0.785719
O O16 0.672227 0.284599 0.920818
O O17 0.964527 0.000000 0.076953
O O18 0.000000 0.268906 0.000000
O O19 0.685943 0.209629 0.113712
O O20 0.649452 0.000000 0.995104
O O21 0.695529 0.500000 0.179346
#
# Coordination Sequence:
#
# PCOD9192827 Si02
#       8
#     8   8   8   8   8   8   8   8
#     4  10  21  39  64  89 114 146 183 228 281 336
#     4  10  23  39  56  82 114 148 187 234 284 336
#     4   9  19  37  58  82 111 141 179 227 277 328
#     4   9  18  32  52  78 107 139 178 224 271 323
#     4  11  22  38  57  78 111 152 192 235 283 332
#     4  10  20  34  51  74 108 147 183 219 266 325
#     4  10  20  35  55  82 116 152 191 232 276 330
#     4  11  22  36  57  85 114 147 189 233 280 332
#
# _framework density 20.80575
#
# number of rings (size 3 to 8) (size 9 to 14) (size 15 to 20)
#    0.000    2.000    0.000    4.500    0.000    7.000 
#    0.000    0.625    0.000    0.000    0.000    0.000 
#    0.000    0.000    0.000    0.000    0.000    0.000 
#
# Total GULP energy -178635.934886 kJ/mol
# GULP energy per Si atom -5582.372965 kJ/mol
# Density = 2.075840 g / cm^3
# Si number density = 20.805750 Si / 1000 Ang^3
#
#
#
# Elastic Constant Matrix: (Units=GPa)
#
#
# Indices 1 2 3 4 5 6 
#
# 1 103.8266 -1.0840 28.2745 0.0000 -3.3761 0.0000
# 2 -1.0840 21.7626 -3.7879 0.0000 -3.9207 0.0000
# 3 28.2745 -3.7879 87.7070 0.0000 -11.5686 0.0000
# 4 0.0000 0.0000 0.0000 22.5725 0.0000 1.9213
# 5 -3.3761 -3.9207 -11.5686 0.0000 27.4412 0.0000
# 6 0.0000 0.0000 0.0000 1.9213 0.0000 24.1937
#
#
#
# Elastic Compliance Matrix: (Units=1/GPa)
#
#
# Indices 1 2 3 4 5 6 
#
# 1 0.010559 -0.000100 -0.003430 0.000000 -0.000161 0.000000
# 2 -0.000100 0.047974 0.003184 0.000000 0.008184 0.000000
# 3 -0.003430 0.003184 0.013394 0.000000 0.005679 0.000000
# 4 0.000000 0.000000 0.000000 0.044603 0.000000 -0.003542
# 5 -0.000161 0.008184 0.005679 0.000000 0.039985 0.000000
# 6 0.000000 0.000000 0.000000 -0.003542 0.000000 0.041614
#
#
# Mechanical properties :
#
#
# Convention : Reuss Voigt Hill
#
# Bulk Modulus (GPa) = 14.03802 28.90016 21.46909
# Shear Modulus (GPa) = 22.46517 27.50104 24.98311
#
# Velocity S-wave (km/s) = 3.28953 3.63960 3.46899
# Velocity P-wave (km/s) = 4.60324 5.61987 5.13677
#
# Compressibility (1/GPa) = 0.07123513
#
# Stress axis : x y z
#
# Youngs Moduli (GPa) = 94.70491 20.84465 74.66132
#
# Poissons Ratio (x) = 0.00208 0.25605
# Poissons Ratio (y) = 0.00947 -0.23770
# Poissons Ratio (z) = 0.32479 -0.06636
#
# Static dielectric constant tensor:
#      x y z
#    x 1.764130 0.000000 0.000120 
#    y 0.000000 1.733050 0.000000 
#    z 0.000120 0.000000 1.768180 
# 
# From -- ./inp_files/187567.got.cif
#   From: 2010.05.17/outbox.cif.g08.bks.cpg/sg12_94_cif.got.tgz:187567.got - 2010.06.03 13:09:07.
