data_PCOD9192344
_publ_section_title
;
Structure prediction by ZEFSAII (Michael W. Deem and Ramdas Pophale) SiO2 
 PCOD9192344
Probable space group: C 2/M
;
_chemical_formula_sum "Si O2"
_cell_formula_units_Z 56
_cell_length_a 32.609708
_cell_length_b 13.660972
_cell_length_c 14.758132
_cell_angle_alpha 90.000000
_cell_angle_beta 25.751501
_cell_angle_gamma 90.000000
_cell_volume 2856.396875
_symmetry_space_group_name_H-M "C 2/M"
_symmetry_group_IT_number 12
_symmetry_cell_setting 'monoclinic'
loop_
_space_group_symop_operation_xyz
x,y,z
-x,y,-z
-x,-y,-z
x,-y,z
1/2+x,1/2+y,z
1/2-x,1/2+y,-z
1/2-x,1/2-y,-z
1/2+x,1/2-y,z
loop_
_atom_site_type_symbol
_atom_site_label
_atom_site_fract_x
_atom_site_fract_y
_atom_site_fract_z
Si Si1 0.162913 0.720718 0.386831
Si Si2 0.604388 0.890034 0.830882
Si Si3 0.106752 0.385705 0.316339
Si Si4 0.547479 0.777432 0.123098
Si Si5 0.949528 0.889288 0.011877
Si Si6 0.800244 0.615760 0.061006
Si Si7 0.266352 0.112646 0.584635
O O1 0.151569 0.670440 0.311742
O O2 0.205308 0.828855 0.282950
O O3 0.230336 0.670280 0.327582
O O4 0.060352 0.702898 0.635773
O O5 0.666897 0.844910 0.626508
O O6 0.641546 0.000000 0.776307
O O7 0.500000 0.899389 0.000000
O O8 0.591826 0.830225 0.946869
O O9 0.095469 0.500000 0.364360
O O10 0.000000 0.352106 0.500000
O O11 0.177734 0.380047 0.089949
O O12 0.540511 0.666249 0.102623
O O13 0.614520 0.819052 0.067387
O O14 0.837783 0.890456 0.248944
O O15 0.985528 0.000000 0.931902
O O16 0.000000 0.844032 0.000000
O O17 0.804032 0.500000 0.079525
O O18 0.297570 0.000000 0.540129
#
# Coordination Sequence:
#
# PCOD9192344 Si02
#       7
#     8   8   8   8   8   8   8
#     4  12  23  39  67  98 126 170 216 267 319 392
#     4  10  20  33  54  89 125 156 202 266 320 369
#     4  10  21  40  69 100 131 165 211 270 329 385
#     4  12  23  38  64  92 125 170 216 263 320 387
#     4  10  23  42  61  85 125 171 217 266 318 381
#     4  11  25  44  64  97 136 170 211 268 333 389
#     4  10  21  38  61  92 123 162 216 266 318 378
#
# _framework density 19.605118999999998
#
# number of rings (size 3 to 8) (size 9 to 14) (size 15 to 20)
#    0.000    1.286    4.286    1.714    0.000    3.429 
#    0.000    1.429    0.000    0.429    0.000    0.000 
#    0.000    0.000    0.000    0.000    0.000    0.000 
#
# Total GULP energy -156065.946339 kJ/mol
# GULP energy per Si atom -5573.783798 kJ/mol
# Density = 1.956050 g / cm^3
# Si number density = 19.605119 Si / 1000 Ang^3
#
#
#
# Elastic Constant Matrix: (Units=GPa)
#
#
# Indices 1 2 3 4 5 6 
#
# 1 95.6620 36.3540 35.8335 0.0000 2.1852 0.0000
# 2 36.3540 89.8183 21.8014 0.0000 12.7589 0.0000
# 3 35.8335 21.8014 52.4474 0.0000 11.7609 0.0000
# 4 0.0000 0.0000 0.0000 -16.5579 0.0000 -94.2345
# 5 2.1852 12.7589 11.7609 0.0000 26.6396 0.0000
# 6 0.0000 0.0000 0.0000 -94.2345 0.0000 -197.6772
#
#
#
# Elastic Compliance Matrix: (Units=1/GPa)
#
#
# Indices 1 2 3 4 5 6 
#
# 1 0.015933 -0.004764 -0.010126 0.000000 0.005446 0.000000
# 2 -0.004764 0.014216 -0.001349 0.000000 -0.005823 0.000000
# 3 -0.010126 -0.001349 0.029095 0.000000 -0.011369 0.000000
# 4 0.000000 0.000000 0.000000 0.035255 0.000000 -0.016806
# 5 0.005446 -0.005823 -0.011369 0.000000 0.044899 0.000000
# 6 0.000000 0.000000 0.000000 -0.016806 0.000000 0.002953
#
#
# Mechanical properties :
#
#
# Convention : Reuss Voigt Hill
#
# Bulk Modulus (GPa) = 37.36136 47.32285 42.34210
# Shear Modulus (GPa) = 27.21044 -27.92316 -0.35636
#
# Velocity S-wave (km/s) = 3.72953 -3.77806 -0.42681
# Velocity P-wave (km/s) = 6.13548 2.27130 4.62617
#
# Compressibility (1/GPa) = 0.02676562
#
# Stress axis : x y z
#
# Youngs Moduli (GPa) = 62.76318 70.34097 34.36982
#
# Poissons Ratio (x) = 0.33514 0.34804
# Poissons Ratio (y) = 0.29903 0.04635
# Poissons Ratio (z) = 0.63557 0.09486
#
# Static dielectric constant tensor:
#      x y z
#    x 1.681170 0.000000 -0.075090 
#    y 0.000000 1.765670 0.000000 
#    z -0.075090 0.000000 1.392470 
# 
# From -- ./inp_files/189626.got.cif
#   From: 2010.05.17/outbox.cif.g08.bks.cpg/sg12_95_cif.got.tgz:189626.got - 2010.06.03 13:09:07.
