data_PCOD9192586
_publ_section_title
;
Structure prediction by ZEFSAII (Michael W. Deem and Ramdas Pophale) SiO2 
 PCOD9192586
Probable space group: C 2/M
;
_chemical_formula_sum "Si O2"
_cell_formula_units_Z 38
_cell_length_a 7.706351
_cell_length_b 23.328468
_cell_length_c 13.171191
_cell_angle_alpha 90.000000
_cell_angle_beta 133.928236
_cell_angle_gamma 90.000000
_cell_volume 1705.370643
_symmetry_space_group_name_H-M "C 2/M"
_symmetry_group_IT_number 12
_symmetry_cell_setting 'monoclinic'
loop_
_space_group_symop_operation_xyz
x,y,z
-x,y,-z
-x,-y,-z
x,-y,z
1/2+x,1/2+y,z
1/2-x,1/2+y,-z
1/2-x,1/2-y,-z
1/2+x,1/2-y,z
loop_
_atom_site_type_symbol
_atom_site_label
_atom_site_fract_x
_atom_site_fract_y
_atom_site_fract_z
Si Si1 0.572297 0.337450 0.656258
Si Si2 0.000000 0.500000 0.000000
Si Si3 0.067164 0.388846 0.416338
Si Si4 0.000000 0.184118 0.000000
Si Si5 0.770329 0.220912 0.708946
Si Si6 0.436913 0.902343 0.140979
O O1 0.352656 0.376848 0.526916
O O2 0.682647 0.283149 0.641218
O O3 0.451766 0.305921 0.702510
O O4 0.804025 0.374265 0.777090
O O5 0.909466 0.450682 0.045828
O O6 0.968929 0.419285 0.274635
O O7 0.000000 0.414612 0.500000
O O8 0.940727 0.326066 0.365907
O O9 0.903408 0.222755 0.870118
O O10 0.782632 0.142852 0.948875
#
# Coordination Sequence:
#
# PCOD9192586 Si02
#       6
#     8   2   8   4   8   8
#     4  11  21  36  60  94 132 170 208 250 304 367
#     4  12  28  48  68  92 114 156 212 264 334 374
#     4   9  20  39  63  95 133 168 205 249 304 367
#     4  10  22  40  60  92 128 168 210 248 308 370
#     4  10  20  33  59  95 138 177 204 242 295 375
#     4  11  24  43  66  90 122 162 212 268 310 366
#
# _framework density 22.282544999999999
#
# number of rings (size 3 to 8) (size 9 to 14) (size 15 to 20)
#    0.000    1.684    0.000    5.053    0.000    8.000 
#    0.000    2.632    0.000    0.000    0.000    0.000 
#    0.000    0.000    0.000    0.000    0.000    0.000 
#
# Total GULP energy -105874.108882 kJ/mol
# GULP energy per Si atom -5572.321520 kJ/mol
# Density = 2.223183 g / cm^3
# Si number density = 22.282545 Si / 1000 Ang^3
#
#
#
# Elastic Constant Matrix: (Units=GPa)
#
#
# Indices 1 2 3 4 5 6 
#
# 1 138.7716 13.0818 31.1553 0.0000 1.8426 0.0000
# 2 13.0818 38.4617 14.3301 0.0000 -4.7381 0.0000
# 3 31.1553 14.3301 114.5809 0.0000 -1.1022 0.0000
# 4 0.0000 0.0000 0.0000 -12.2226 0.0000 -10.0035
# 5 1.8426 -4.7381 -1.1022 0.0000 59.2012 0.0000
# 6 0.0000 0.0000 0.0000 -10.0035 0.0000 2.8640
#
#
#
# Elastic Compliance Matrix: (Units=1/GPa)
#
#
# Indices 1 2 3 4 5 6 
#
# 1 0.007824 -0.002015 -0.001880 0.000000 -0.000440 0.000000
# 2 -0.002015 0.028058 -0.002940 0.000000 0.002254 0.000000
# 3 -0.001880 -0.002940 0.009606 0.000000 0.000002 0.000000
# 4 0.000000 0.000000 0.000000 -0.021203 0.000000 -0.074059
# 5 -0.000440 0.002254 0.000002 0.000000 0.017086 0.000000
# 6 0.000000 0.000000 0.000000 -0.074059 0.000000 0.090488
#
#
# Mechanical properties :
#
#
# Convention : Reuss Voigt Hill
#
# Bulk Modulus (GPa) = 31.42683 45.43874 38.43278
# Shear Modulus (GPa) = 32.02392 25.51832 28.77112
#
# Velocity S-wave (km/s) = 3.79512 3.38777 3.59722
# Velocity P-wave (km/s) = 5.77394 5.97821 5.87696
#
# Compressibility (1/GPa) = 0.03181995
#
# Stress axis : x y z
#
# Youngs Moduli (GPa) = 127.81424 35.64034 104.09962
#
# Poissons Ratio (x) = 0.07181 0.19566
# Poissons Ratio (y) = 0.25754 0.30600
# Poissons Ratio (z) = 0.24024 0.10477
#
# Static dielectric constant tensor:
#      x y z
#    x 1.904660 0.000000 -0.039850 
#    y 0.000000 1.718080 0.000000 
#    z -0.039850 0.000000 1.900330 
# 
# From -- ./inp_files/198689.got.cif
#   From: 2010.05.17/outbox.cif.g08.bks.cpg/sg12_100_cif.got.tgz:198689.got - 2010.06.03 13:09:07.
