data_PCOD9192182
_publ_section_title
;
Structure prediction by ZEFSAII (Michael W. Deem and Ramdas Pophale) SiO2 
 PCOD9192182
Probable space group: C 2/M
;
_chemical_formula_sum "Si O2"
_cell_formula_units_Z 56
_cell_length_a 30.807416
_cell_length_b 8.921614
_cell_length_c 19.999446
_cell_angle_alpha 90.000000
_cell_angle_beta 144.500308
_cell_angle_gamma 90.000000
_cell_volume 3192.033432
_symmetry_space_group_name_H-M "C 2/M"
_symmetry_group_IT_number 12
_symmetry_cell_setting 'monoclinic'
loop_
_space_group_symop_operation_xyz
x,y,z
-x,y,-z
-x,-y,-z
x,-y,z
1/2+x,1/2+y,z
1/2-x,1/2+y,-z
1/2-x,1/2-y,-z
1/2+x,1/2-y,z
loop_
_atom_site_type_symbol
_atom_site_label
_atom_site_fract_x
_atom_site_fract_y
_atom_site_fract_z
Si Si1 0.822274 0.320317 0.624923
Si Si2 0.441093 0.820064 0.985156
Si Si3 0.850499 0.178527 0.402278
Si Si4 0.581597 0.827974 0.637762
Si Si5 0.490208 0.678345 0.328958
Si Si6 0.985215 0.679129 0.779542
Si Si7 0.696138 0.678561 0.254494
O O1 0.815608 0.500000 0.620648
O O2 0.750000 0.250000 0.500000
O O3 0.897516 0.284621 0.678721
O O4 0.828258 0.252956 0.706270
O O5 0.364188 0.735109 0.874882
O O6 0.429025 0.000000 0.966306
O O7 0.500000 0.781940 0.000000
O O8 0.475205 0.784972 0.100456
O O9 0.866777 0.232803 0.347162
O O10 0.925490 0.213844 0.538914
O O11 0.778600 0.262449 0.340557
O O12 0.839006 0.000000 0.390154
O O13 0.500000 0.827582 0.500000
O O14 0.566973 0.756559 0.691634
O O15 0.606966 0.000000 0.673889
O O16 0.481375 0.500000 0.321831
O O17 0.483168 0.736690 0.244967
O O18 0.991451 0.500000 0.777095
O O19 0.696120 0.500000 0.259921
#
# Coordination Sequence:
#
# PCOD9192182 Si02
#       7
#     8   8   8   8   8   8   8
#     4  11  22  37  54  78 110 145 180 221 274 329
#     4  10  20  40  61  76 100 142 189 232 277 325
#     4  10  20  35  55  80 112 149 184 222 270 325
#     4   9  17  31  53  80 111 144 179 221 268 323
#     4  10  20  33  53  82 114 145 180 221 268 324
#     4  10  21  36  56  77 104 142 183 225 272 324
#     4  12  24  36  54  81 110 143 183 229 274 325
#
# _framework density 17.543676000000001
#
# number of rings (size 3 to 8) (size 9 to 14) (size 15 to 20)
#    0.000    1.714    1.429    3.857    0.000    7.714 
#    0.000    0.000    0.000    0.857    0.000    0.000 
#    0.000    0.000    0.000    0.000    0.000    0.000 
#
# Total GULP energy -156389.845690 kJ/mol
# GULP energy per Si atom -5585.351632 kJ/mol
# Density = 1.750375 g / cm^3
# Si number density = 17.543676 Si / 1000 Ang^3
#
#
#
# Elastic Constant Matrix: (Units=GPa)
#
#
# Indices 1 2 3 4 5 6 
#
# 1 64.9085 17.2990 1.1436 0.0000 -29.6921 0.0000
# 2 17.2990 44.9002 14.8173 0.0000 -12.3669 0.0000
# 3 1.1436 14.8173 48.9657 0.0000 -19.3828 0.0000
# 4 0.0000 0.0000 0.0000 26.2162 0.0000 -4.0404
# 5 -29.6921 -12.3669 -19.3828 0.0000 26.0507 0.0000
# 6 0.0000 0.0000 0.0000 -4.0404 0.0000 33.1735
#
#
#
# Elastic Compliance Matrix: (Units=1/GPa)
#
#
# Indices 1 2 3 4 5 6 
#
# 1 0.058085 -0.010071 0.036861 0.000000 0.088849 0.000000
# 2 -0.010071 0.027982 -0.010656 0.000000 -0.006124 0.000000
# 3 0.036861 -0.010656 0.053035 0.000000 0.076415 0.000000
# 4 0.000000 0.000000 0.000000 0.038874 0.000000 0.004735
# 5 0.088849 -0.006124 0.076415 0.000000 0.193604 0.000000
# 6 0.000000 0.000000 0.000000 0.004735 0.000000 0.030721
#
#
# Mechanical properties :
#
#
# Convention : Reuss Voigt Hill
#
# Bulk Modulus (GPa) = 5.83538 25.03268 15.43403
# Shear Modulus (GPa) = 11.70535 25.45571 18.58053
#
# Velocity S-wave (km/s) = 2.58585 3.81332 3.25791
# Velocity P-wave (km/s) = 3.49984 5.80416 4.79256
#
# Compressibility (1/GPa) = 0.17136841
#
# Stress axis : x y z
#
# Youngs Moduli (GPa) = 17.21629 35.73768 18.85561
#
# Poissons Ratio (x) = 0.35992 -0.69504
# Poissons Ratio (y) = 0.17339 0.20093
# Poissons Ratio (z) = -0.63462 0.38083
#
# Static dielectric constant tensor:
#      x y z
#    x 1.585150 0.000000 -0.010720 
#    y 0.000000 1.580820 0.000000 
#    z -0.010720 0.000000 1.594560 
# 
# From -- ./inp_files/288229.got.cif
#   From: 2010.05.17/outbox.cif.g08.bks.cpg/sg12_145_cif.got.tgz:288229.got - 2010.06.03 13:09:07.
