data_PCOD9192653
_publ_section_title
;
Structure prediction by ZEFSAII (Michael W. Deem and Ramdas Pophale) SiO2 
 PCOD9192653
Probable space group: C 2/M
;
_chemical_formula_sum "Si O2"
_cell_formula_units_Z 64
_cell_length_a 8.938845
_cell_length_b 22.259050
_cell_length_c 24.361858
_cell_angle_alpha 90.000000
_cell_angle_beta 132.845957
_cell_angle_gamma 90.000000
_cell_volume 3553.953997
_symmetry_space_group_name_H-M "C 2/M"
_symmetry_group_IT_number 12
_symmetry_cell_setting 'monoclinic'
loop_
_space_group_symop_operation_xyz
x,y,z
-x,y,-z
-x,-y,-z
x,-y,z
1/2+x,1/2+y,z
1/2-x,1/2+y,-z
1/2-x,1/2-y,-z
1/2+x,1/2-y,z
loop_
_atom_site_type_symbol
_atom_site_label
_atom_site_fract_x
_atom_site_fract_y
_atom_site_fract_z
Si Si1 0.139728 0.070876 0.083382
Si Si2 0.493192 0.429997 0.722411
Si Si3 0.432629 0.870393 0.822414
Si Si4 0.520338 0.725253 0.445930
Si Si5 0.624199 0.690491 0.353340
Si Si6 0.145666 0.704174 0.088953
Si Si7 0.437943 0.631760 0.821314
Si Si8 0.611648 0.213544 0.779066
O O1 0.373887 0.086528 0.131419
O O2 0.078087 0.098699 0.125396
O O3 0.111100 0.000000 0.078703
O O4 0.000000 0.096016 0.000000
O O5 0.462622 0.500000 0.701757
O O6 0.725005 0.408165 0.768993
O O7 0.359953 0.379178 0.658596
O O8 0.452997 0.415887 0.776266
O O9 0.444276 0.833333 0.882247
O O10 0.454431 0.825270 0.775922
O O11 0.500000 0.691663 0.500000
O O12 0.750000 0.750000 0.500000
O O13 0.512475 0.693673 0.384719
O O14 0.343392 0.775924 0.406021
O O15 0.487558 0.728794 0.275401
O O16 0.358806 0.671840 0.127668
O O17 0.216923 0.766368 0.134032
O O18 0.000000 0.708556 0.000000
O O19 0.235562 0.673347 0.766344
#
# Coordination Sequence:
#
# PCOD9192653 Si02
#       8
#     8   8   8   8   8   8   8   8
#     4  10  20  34  50  66  92 143 200 247 295 342
#     4  11  22  36  56  83 113 153 193 234 276 331
#     4  10  21  35  51  73 109 142 195 243 299 336
#     4   9  20  36  61  95 121 144 171 216 275 331
#     4  11  19  35  61  86 120 143 183 225 272 336
#     4  11  22  33  49  76 114 146 186 239 307 362
#     4  10  21  35  51  73 109 140 194 243 296 334
#     4  11  21  34  56  84 107 147 186 237 298 336
#
# _framework density 18.008111
#
# number of rings (size 3 to 8) (size 9 to 14) (size 15 to 20)
#    0.000    1.625    2.500    3.750    0.000    4.000 
#    0.000    0.000    0.000    9.750    0.000    0.000 
#    0.000    0.000    0.000    0.000    0.000    0.000 
#
# Total GULP energy -178469.864490 kJ/mol
# GULP energy per Si atom -5577.183265 kJ/mol
# Density = 1.796712 g / cm^3
# Si number density = 18.008111 Si / 1000 Ang^3
#
#
#
# Elastic Constant Matrix: (Units=GPa)
#
#
# Indices 1 2 3 4 5 6 
#
# 1 110.5701 30.9037 25.4995 0.0000 -16.0512 0.0000
# 2 30.9037 100.9192 26.6294 0.0000 -10.3762 0.0000
# 3 25.4995 26.6294 71.8725 -0.0001 -6.7236 0.0000
# 4 0.0000 0.0000 -0.0001 8.2686 0.0000 4.8816
# 5 -16.0512 -10.3762 -6.7236 0.0000 17.6658 0.0000
# 6 0.0000 0.0000 0.0000 4.8816 0.0000 10.4464
#
#
#
# Elastic Compliance Matrix: (Units=1/GPa)
#
#
# Indices 1 2 3 4 5 6 
#
# 1 0.011371 -0.001969 -0.002537 0.000000 0.008210 0.000000
# 2 -0.001969 0.011782 -0.003305 0.000000 0.003874 0.000000
# 3 -0.002537 -0.003305 0.016218 0.000000 0.001927 0.000000
# 4 0.000000 0.000000 0.000000 0.167017 0.000000 -0.078047
# 5 0.008210 0.003874 0.001927 0.000000 0.067075 0.000000
# 6 0.000000 0.000000 0.000000 -0.078047 0.000000 0.132199
#
#
# Mechanical properties :
#
#
# Convention : Reuss Voigt Hill
#
# Bulk Modulus (GPa) = 42.10294 49.93631 46.01963
# Shear Modulus (GPa) = 11.64962 20.63143 16.14053
#
# Velocity S-wave (km/s) = 2.54620 3.38845 2.99706
# Velocity P-wave (km/s) = 5.66347 6.56498 6.13082
#
# Compressibility (1/GPa) = 0.02375131
#
# Stress axis : x y z
#
# Youngs Moduli (GPa) = 87.94204 84.87527 61.65924
#
# Poissons Ratio (x) = 0.16708 0.15643
# Poissons Ratio (y) = 0.17312 0.20375
# Poissons Ratio (z) = 0.22310 0.28047
#
# Static dielectric constant tensor:
#      x y z
#    x 1.648800 0.000000 -0.012730 
#    y 0.000000 1.617270 0.000000 
#    z -0.012730 0.000000 1.654650 
# 
# From -- ./inp_files/333752.got.cif
#   From: 2010.05.17/outbox.cif.g08.bks.cpg/sg12_167_cif.got.tgz:333752.got - 2010.06.03 13:09:07.
