data_PCOD9192086
_publ_section_title
;
Structure prediction by ZEFSAII (Michael W. Deem and Ramdas Pophale) SiO2 
 PCOD9192086
Probable space group: C 2/M
;
_chemical_formula_sum "Si O2"
_cell_formula_units_Z 56
_cell_length_a 19.256163
_cell_length_b 9.334406
_cell_length_c 19.427489
_cell_angle_alpha 90.000000
_cell_angle_beta 112.751249
_cell_angle_gamma 90.000000
_cell_volume 3220.288026
_symmetry_space_group_name_H-M "C 2/M"
_symmetry_group_IT_number 12
_symmetry_cell_setting 'monoclinic'
loop_
_space_group_symop_operation_xyz
x,y,z
-x,y,-z
-x,-y,-z
x,-y,z
1/2+x,1/2+y,z
1/2-x,1/2+y,-z
1/2-x,1/2-y,-z
1/2+x,1/2-y,z
loop_
_atom_site_type_symbol
_atom_site_label
_atom_site_fract_x
_atom_site_fract_y
_atom_site_fract_z
Si Si1 0.488688 0.166456 0.704415
Si Si2 0.917338 0.170044 0.997215
Si Si3 0.101039 0.167731 0.845231
Si Si4 0.562852 0.162630 0.582824
Si Si5 0.188621 0.167919 0.564714
Si Si6 0.841969 0.830538 0.607096
Si Si7 0.768151 0.328562 0.934892
O O1 0.546453 0.233567 0.780564
O O2 0.525946 0.174988 0.643119
O O3 0.411887 0.255252 0.670191
O O4 0.473596 0.000000 0.713734
O O5 0.913878 0.189681 0.078772
O O6 0.905858 0.000000 0.979509
O O7 0.846641 0.259490 0.940073
O O8 0.000000 0.209324 0.000000
O O9 0.189841 0.194660 0.864006
O O10 0.086216 0.000000 0.825090
O O11 0.500000 0.182220 0.500000
O O12 0.627566 0.276897 0.594930
O O13 0.592901 0.000000 0.586004
O O14 0.155866 0.192980 0.474994
O O15 0.264341 0.258594 0.600382
O O16 0.204500 0.000000 0.577189
O O17 0.842045 0.000000 0.619243
O O18 0.776285 0.500000 0.947611
O O19 0.750000 0.250000 0.000000
#
# Coordination Sequence:
#
# PCOD9192086 Si02
#       7
#     8   8   8   8   8   8   8
#     4  11  22  35  54  78 105 141 181 220 266 318
#     4   9  18  34  57  84 111 141 177 215 257 308
#     4   9  19  35  53  76 108 143 176 216 266 314
#     4  10  20  35  53  74 103 136 175 224 268 311
#     4  10  20  33  53  78 101 129 173 222 268 320
#     4  10  20  34  53  75 103 137 171 215 270 321
#     4   9  17  31  53  79 107 140 176 213 255 305
#
# _framework density 17.389748999999998
#
# number of rings (size 3 to 8) (size 9 to 14) (size 15 to 20)
#    0.000    2.286    1.429    2.571    0.000    5.714 
#    0.000    1.429    0.000    5.143    0.000    0.000 
#    0.000    0.000    0.000    0.000    0.000    0.000 
#
# Total GULP energy -156128.665006 kJ/mol
# GULP energy per Si atom -5576.023750 kJ/mol
# Density = 1.735017 g / cm^3
# Si number density = 17.389749 Si / 1000 Ang^3
#
#
#
# Elastic Constant Matrix: (Units=GPa)
#
#
# Indices 1 2 3 4 5 6 
#
# 1 92.0155 58.6811 30.8389 0.0000 28.8691 0.0000
# 2 58.6811 101.1436 58.2221 0.0000 32.9422 0.0000
# 3 30.8389 58.2221 66.4920 0.0000 28.7163 0.0000
# 4 0.0000 0.0000 0.0000 28.4026 0.0000 7.5454
# 5 28.8691 32.9422 28.7163 0.0000 27.3444 0.0000
# 6 0.0000 0.0000 0.0000 7.5454 0.0000 35.5516
#
#
#
# Elastic Compliance Matrix: (Units=1/GPa)
#
#
# Indices 1 2 3 4 5 6 
#
# 1 0.020209 -0.010331 0.006427 0.000000 -0.015640 0.000000
# 2 -0.010331 0.026976 -0.017393 0.000000 -0.003326 0.000000
# 3 0.006427 -0.017393 0.038739 0.000000 -0.026515 0.000000
# 4 0.000000 0.000000 0.000000 0.037312 0.000000 -0.007919
# 5 -0.015640 -0.003326 -0.026515 0.000000 0.084935 0.000000
# 6 0.000000 0.000000 0.000000 -0.007919 0.000000 0.029809
#
#
# Mechanical properties :
#
#
# Convention : Reuss Voigt Hill
#
# Bulk Modulus (GPa) = 23.07783 61.68169 42.37976
# Shear Modulus (GPa) = 16.94830 25.72033 21.33431
#
# Velocity S-wave (km/s) = 3.12527 3.85002 3.50642
# Velocity P-wave (km/s) = 5.13058 7.43711 6.38880
#
# Compressibility (1/GPa) = 0.04333162
#
# Stress axis : x y z
#
# Youngs Moduli (GPa) = 49.48401 37.07034 25.81358
#
# Poissons Ratio (x) = 0.38296 -0.16592
# Poissons Ratio (y) = 0.51119 0.44897
# Poissons Ratio (z) = -0.31806 0.64476
#
# Static dielectric constant tensor:
#      x y z
#    x 19.490210 0.000000 -32.306800 
#    y 0.000000 1.582580 0.000000 
#    z -32.306800 0.000000 59.906680 
# 
# From -- ./inp_files/313805.got.cif
#   From: 2010.05.17/outbox.cif.g08.bks.cpg/sg12_157_cif.got.tgz:313805.got - 2010.06.03 13:09:07.
