data_PCOD9192609
_publ_section_title
;
Structure prediction by ZEFSAII (Michael W. Deem and Ramdas Pophale) SiO2 
 PCOD9192609
Probable space group: C 2/M
;
_chemical_formula_sum "Si O2"
_cell_formula_units_Z 36
_cell_length_a 15.676310
_cell_length_b 28.593313
_cell_length_c 4.961521
_cell_angle_alpha 90.000000
_cell_angle_beta 91.712280
_cell_angle_gamma 90.000000
_cell_volume 2222.947420
_symmetry_space_group_name_H-M "C 2/M"
_symmetry_group_IT_number 12
_symmetry_cell_setting 'monoclinic'
loop_
_space_group_symop_operation_xyz
x,y,z
-x,y,-z
-x,-y,-z
x,-y,z
1/2+x,1/2+y,z
1/2-x,1/2+y,-z
1/2-x,1/2-y,-z
1/2+x,1/2-y,z
loop_
_atom_site_type_symbol
_atom_site_label
_atom_site_fract_x
_atom_site_fract_y
_atom_site_fract_z
Si Si1 0.403549 0.898534 0.871676
Si Si2 0.908856 0.248798 0.136803
Si Si3 0.063456 0.500000 0.256344
Si Si4 0.318431 0.711781 0.606051
Si Si5 0.336685 0.847312 0.348975
O O1 0.385021 0.863122 0.624593
O O2 0.388541 0.950761 0.757828
O O3 0.500000 0.894850 0.000000
O O4 0.345168 0.886153 0.119983
O O5 0.846990 0.227209 0.904387
O O6 0.895656 0.216999 0.401773
O O7 0.000000 0.250374 0.000000
O O8 0.000000 0.500000 0.500000
O O9 0.000000 0.500000 0.000000
O O10 0.381383 0.800972 0.226031
O O11 0.261777 0.665191 0.601292
O O12 0.250000 0.750000 0.500000
#
# Coordination Sequence:
#
# PCOD9192609 Si02
#       5
#     8   8   4   8   8
#     4  11  21  32  48  69  93 126 164 198 227 269
#     4  11  21  33  48  67  91 124 161 195 227 272
#     4  10  20  34  46  64  96 128 155 194 241 270
#     4  10  20  34  46  64  94 123 151 194 243 271
#     4  11  20  32  49  69  91 124 163 198 229 271
#
# _framework density 16.194716
#
# number of rings (size 3 to 8) (size 9 to 14) (size 15 to 20)
#    0.000    1.333    0.000   11.333    0.000    3.556 
#    0.000    0.000    0.000    0.000    0.000    0.000 
#    0.000    0.000    0.000   70.000    0.000    0.000 
#
# Total GULP energy -100399.499732 kJ/mol
# GULP energy per Si atom -5577.749985 kJ/mol
# Density = 1.615786 g / cm^3
# Si number density = 16.194716 Si / 1000 Ang^3
#
#
#
# Elastic Constant Matrix: (Units=GPa)
#
#
# Indices 1 2 3 4 5 6 
#
# 1 59.2123 31.2942 22.7908 0.0000 -12.1985 0.0000
# 2 31.2942 70.0480 35.9776 0.0000 -1.5390 0.0000
# 3 22.7908 35.9776 124.8063 0.0000 -1.5659 0.0000
# 4 0.0000 0.0000 0.0000 27.6599 0.0000 -5.5275
# 5 -12.1985 -1.5390 -1.5659 0.0000 37.4890 0.0000
# 6 0.0000 0.0000 0.0000 -5.5275 0.0000 19.2866
#
#
#
# Elastic Compliance Matrix: (Units=1/GPa)
#
#
# Indices 1 2 3 4 5 6 
#
# 1 0.024214 -0.009897 -0.001476 0.000000 0.007411 0.000000
# 2 -0.009897 0.020811 -0.004224 0.000000 -0.002542 0.000000
# 3 -0.001476 -0.004224 0.009496 0.000000 -0.000257 0.000000
# 4 0.000000 0.000000 0.000000 0.038350 0.000000 0.010991
# 5 0.007411 -0.002542 -0.000257 0.000000 0.028971 0.000000
# 6 0.000000 0.000000 0.000000 0.010991 0.000000 0.054999
#
#
# Mechanical properties :
#
#
# Convention : Reuss Voigt Hill
#
# Bulk Modulus (GPa) = 42.86647 48.24354 45.55500
# Shear Modulus (GPa) = 23.16860 27.82071 25.49465
#
# Velocity S-wave (km/s) = 3.78647 4.14924 3.97200
# Velocity P-wave (km/s) = 6.75598 7.26700 7.01614
#
# Compressibility (1/GPa) = 0.02332826
#
# Stress axis : x y z
#
# Youngs Moduli (GPa) = 41.29901 48.05192 105.30470
#
# Poissons Ratio (x) = 0.47556 0.15540
# Poissons Ratio (y) = 0.40873 0.44478
# Poissons Ratio (z) = 0.06095 0.20296
#
# Static dielectric constant tensor:
#      x y z
#    x 1.582510 0.000000 -0.028040 
#    y 0.000000 1.609210 0.000000 
#    z -0.028040 0.000000 1.556140 
# 
# From -- ./inp_files/15594.got.cif
#   From: 2010.05.17/outbox.cif.g08.bks.cpg/sg12_8_cif.got.tgz:15594.got - 2010.06.03 13:09:07.
