data_PCOD9192379
_publ_section_title
;
Structure prediction by ZEFSAII (Michael W. Deem and Ramdas Pophale) SiO2 
 PCOD9192379
Probable space group: C 2/M
;
_chemical_formula_sum "Si O2"
_cell_formula_units_Z 64
_cell_length_a 21.051625
_cell_length_b 8.905579
_cell_length_c 25.439521
_cell_angle_alpha 90.000000
_cell_angle_beta 129.242973
_cell_angle_gamma 90.000000
_cell_volume 3693.698536
_symmetry_space_group_name_H-M "C 2/M"
_symmetry_group_IT_number 12
_symmetry_cell_setting 'monoclinic'
loop_
_space_group_symop_operation_xyz
x,y,z
-x,y,-z
-x,-y,-z
x,-y,z
1/2+x,1/2+y,z
1/2-x,1/2+y,-z
1/2-x,1/2-y,-z
1/2+x,1/2-y,z
loop_
_atom_site_type_symbol
_atom_site_label
_atom_site_fract_x
_atom_site_fract_y
_atom_site_fract_z
Si Si1 0.517839 0.680906 0.423835
Si Si2 0.367103 0.319755 0.422055
Si Si3 0.029256 0.180161 0.214079
Si Si4 0.774656 0.680437 0.202108
Si Si5 0.284298 0.319218 0.712957
Si Si6 0.735933 0.821162 0.074865
Si Si7 0.032413 0.320549 0.709527
Si Si8 0.380114 0.821053 0.080946
O O1 0.518651 0.500000 0.417666
O O2 0.593631 0.723077 0.501307
O O3 0.435551 0.719569 0.413821
O O4 0.514489 0.760759 0.366313
O O5 0.359632 0.500000 0.417688
O O6 0.281686 0.246610 0.361957
O O7 0.122775 0.224699 0.251221
O O8 0.000665 0.244590 0.255103
O O9 0.966365 0.244845 0.138211
O O10 0.024023 0.000000 0.211931
O O11 0.766449 0.500000 0.193399
O O12 0.741472 0.727795 0.241613
O O13 0.729130 0.758078 0.129763
O O14 0.871273 0.717048 0.247747
O O15 0.279263 0.500000 0.708488
O O16 0.813900 0.742898 0.087861
O O17 0.749205 0.000000 0.082448
O O18 0.658488 0.789981 0.996518
O O19 0.025579 0.500000 0.710141
O O20 0.386186 0.000000 0.091196
#
# Coordination Sequence:
#
# PCOD9192379 Si02
#       8
#     8   8   8   8   8   8   8   8
#     4   9  18  33  54  83 114 141 178 224 271 322
#     4   9  18  33  55  82 111 144 179 222 272 321
#     4  11  23  38  57  79 109 148 184 221 270 327
#     4  10  20  35  55  81 112 141 179 228 271 317
#     4  10  22  39  56  79 111 146 183 223 270 325
#     4  10  20  33  55  84 110 140 180 224 272 320
#     4  11  21  34  56  84 111 141 181 228 272 317
#     4  10  20  35  54  80 112 143 179 224 270 320
#
# _framework density 17.326806999999999
#
# number of rings (size 3 to 8) (size 9 to 14) (size 15 to 20)
#    0.000    2.000    2.500    2.250    0.000    4.000 
#    0.000    2.500    0.000    3.750    0.000    0.000 
#    0.000    0.000    0.000    0.000    0.000    0.000 
#
# Total GULP energy -178633.049994 kJ/mol
# GULP energy per Si atom -5582.282812 kJ/mol
# Density = 1.728737 g / cm^3
# Si number density = 17.326807 Si / 1000 Ang^3
#
#
#
# Elastic Constant Matrix: (Units=GPa)
#
#
# Indices 1 2 3 4 5 6 
#
# 1 103.9226 43.0859 72.9749 0.0000 12.8416 0.0000
# 2 43.0859 38.6515 54.0788 0.0000 6.2754 0.0000
# 3 72.9749 54.0788 157.2884 0.0000 12.1473 0.0000
# 4 0.0000 0.0000 0.0000 35.9651 0.0000 0.1088
# 5 12.8416 6.2754 12.1473 0.0000 27.7677 0.0000
# 6 0.0000 0.0000 0.0000 0.1088 0.0000 21.9649
#
#
#
# Elastic Compliance Matrix: (Units=1/GPa)
#
#
# Indices 1 2 3 4 5 6 
#
# 1 0.018920 -0.016578 -0.002786 0.000000 -0.003784 0.000000
# 2 -0.016578 0.064793 -0.014538 0.000000 -0.000616 0.000000
# 3 -0.002786 -0.014538 0.012725 0.000000 -0.000993 0.000000
# 4 0.000000 0.000000 0.000000 0.027805 0.000000 -0.000138
# 5 -0.003784 -0.000616 -0.000993 0.000000 0.038337 0.000000
# 6 0.000000 0.000000 0.000000 -0.000138 0.000000 0.045528
#
#
# Mechanical properties :
#
#
# Convention : Reuss Voigt Hill
#
# Bulk Modulus (GPa) = 34.92319 71.12686 53.02503
# Shear Modulus (GPa) = 17.51584 25.78774 21.65179
#
# Velocity S-wave (km/s) = 3.18293 3.86205 3.53882
# Velocity P-wave (km/s) = 5.80581 7.81195 6.88237
#
# Compressibility (1/GPa) = 0.02863427
#
# Stress axis : x y z
#
# Youngs Moduli (GPa) = 52.85549 15.43377 78.58358
#
# Poissons Ratio (x) = 0.25586 0.21891
# Poissons Ratio (y) = 0.87624 1.14245
# Poissons Ratio (z) = 0.14724 0.22438
#
# Static dielectric constant tensor:
#      x y z
#    x 1.564190 0.000000 -0.000190 
#    y 0.000000 1.578050 0.000000 
#    z -0.000190 0.000000 1.590680 
# 
# From -- ./inp_files/345963.got.cif
#   From: 2010.05.17/outbox.cif.g08.bks.cpg/sg12_173_cif.got.tgz:345963.got - 2010.06.03 13:09:07.
