data_PCOD9192665
_publ_section_title
;
Structure prediction by ZEFSAII (Michael W. Deem and Ramdas Pophale) SiO2 
 PCOD9192665
Probable space group: C 2/M
;
_chemical_formula_sum "Si O2"
_cell_formula_units_Z 44
_cell_length_a 5.265014
_cell_length_b 35.452910
_cell_length_c 17.125635
_cell_angle_alpha 90.000000
_cell_angle_beta 54.620306
_cell_angle_gamma 90.000000
_cell_volume 2606.352468
_symmetry_space_group_name_H-M "C 2/M"
_symmetry_group_IT_number 12
_symmetry_cell_setting 'monoclinic'
loop_
_space_group_symop_operation_xyz
x,y,z
-x,y,-z
-x,-y,-z
x,-y,z
1/2+x,1/2+y,z
1/2-x,1/2+y,-z
1/2-x,1/2-y,-z
1/2+x,1/2-y,z
loop_
_atom_site_type_symbol
_atom_site_label
_atom_site_fract_x
_atom_site_fract_y
_atom_site_fract_z
Si Si1 0.785406 0.728510 0.616476
Si Si2 0.000000 0.895974 0.500000
Si Si3 0.087347 0.643267 0.391749
Si Si4 0.614275 0.457224 0.368655
Si Si5 0.372054 0.455649 0.936905
Si Si6 0.321724 0.429348 0.270404
O O1 0.454432 0.744425 0.648336
O O2 0.795550 0.685323 0.642175
O O3 0.000000 0.729211 0.500000
O O4 0.250102 0.868125 0.417185
O O5 0.902526 0.926505 0.451677
O O6 0.302130 0.611779 0.314140
O O7 0.000000 0.639782 0.500000
O O8 0.553372 0.500000 0.403295
O O9 0.533427 0.453303 0.292099
O O10 0.970652 0.446026 0.325462
O O11 0.448297 0.500000 0.908177
O O12 0.530952 0.431228 0.841156
O O13 0.500000 0.446490 0.000000
O O14 0.000000 0.451723 0.000000
#
# Coordination Sequence:
#
# PCOD9192665 Si02
#       6
#     8   4   8   8   8   8
#     4   9  19  30  48  70  94 130 167 198 235 286
#     4  10  21  32  44  68  98 142 170 202 242 282
#     4  10  20  34  50  70 107 133 166 201 248 294
#     4  11  21  33  48  67  97 132 174 209 238 290
#     4  10  20  35  54  73  96 125 164 214 259 296
#     4  11  22  35  53  75  97 133 168 210 259 296
#
# _framework density 16.881831999999999
#
# number of rings (size 3 to 8) (size 9 to 14) (size 15 to 20)
#    0.000    1.818    1.818    3.000    6.364    1.455 
#    0.000    2.727    0.000    0.000    0.000    0.000 
#    0.000    4.364    0.000    0.000    0.000    0.000 
#
# Total GULP energy -122581.621928 kJ/mol
# GULP energy per Si atom -5571.891906 kJ/mol
# Density = 1.684341 g / cm^3
# Si number density = 16.881832 Si / 1000 Ang^3
#
#
#
# Elastic Constant Matrix: (Units=GPa)
#
#
# Indices 1 2 3 4 5 6 
#
# 1 89.5226 40.8321 17.1814 0.0000 15.1331 0.0000
# 2 40.8321 137.3929 35.4459 0.0000 8.2959 0.0000
# 3 17.1814 35.4459 71.9960 0.0000 16.8128 0.0000
# 4 0.0000 0.0000 0.0000 13.3955 0.0000 4.5393
# 5 15.1331 8.2959 16.8128 0.0000 21.1703 0.0000
# 6 0.0000 0.0000 0.0000 4.5393 0.0000 12.6182
#
#
#
# Elastic Compliance Matrix: (Units=1/GPa)
#
#
# Indices 1 2 3 4 5 6 
#
# 1 0.014385 -0.003881 0.000643 0.000000 -0.009273 0.000000
# 2 -0.003881 0.009385 -0.004276 0.000000 0.002493 0.000000
# 3 0.000643 -0.004276 0.019100 0.000000 -0.013953 0.000000
# 4 0.000000 0.000000 0.000000 0.085015 0.000000 -0.030584
# 5 -0.009273 0.002493 -0.013953 0.000000 0.063968 0.000000
# 6 0.000000 0.000000 0.000000 -0.030584 0.000000 0.090253
#
#
# Mechanical properties :
#
#
# Convention : Reuss Voigt Hill
#
# Bulk Modulus (GPa) = 35.91846 53.98114 44.94980
# Shear Modulus (GPa) = 16.31781 23.13360 19.72571
#
# Velocity S-wave (km/s) = 3.11238 3.70581 3.42198
# Velocity P-wave (km/s) = 5.85136 7.09619 6.50363
#
# Compressibility (1/GPa) = 0.02784084
#
# Stress axis : x y z
#
# Youngs Moduli (GPa) = 69.51914 106.55848 52.35678
#
# Poissons Ratio (x) = 0.41356 -0.03368
# Poissons Ratio (y) = 0.26981 0.22389
# Poissons Ratio (z) = -0.04472 0.45567
#
# Static dielectric constant tensor:
#      x y z
#    x 1.697530 0.000000 -0.000630 
#    y 0.000000 1.566820 0.000000 
#    z -0.000630 0.000000 1.576890 
# 
# From -- ./inp_files/192663.got.cif
#   From: 2010.05.17/outbox.cif.g08.bks.cpg/sg12_97_cif.got.tgz:192663.got - 2010.06.03 13:09:07.
