data_PCOD9192970
_publ_section_title
;
Structure prediction by ZEFSAII (Michael W. Deem and Ramdas Pophale) SiO2 
 PCOD9192970
Probable space group: C 2/M
;
_chemical_formula_sum "Si O2"
_cell_formula_units_Z 64
_cell_length_a 14.774477
_cell_length_b 9.461779
_cell_length_c 26.930786
_cell_angle_alpha 90.000000
_cell_angle_beta 116.072609
_cell_angle_gamma 90.000000
_cell_volume 3381.623621
_symmetry_space_group_name_H-M "C 2/M"
_symmetry_group_IT_number 12
_symmetry_cell_setting 'monoclinic'
loop_
_space_group_symop_operation_xyz
x,y,z
-x,y,-z
-x,-y,-z
x,-y,z
1/2+x,1/2+y,z
1/2-x,1/2+y,-z
1/2-x,1/2-y,-z
1/2+x,1/2-y,z
loop_
_atom_site_type_symbol
_atom_site_label
_atom_site_fract_x
_atom_site_fract_y
_atom_site_fract_z
Si Si1 0.673685 0.832273 0.415103
Si Si2 0.346791 0.334690 0.040948
Si Si3 0.102513 0.832117 0.495084
Si Si4 0.956198 0.831764 0.692962
Si Si5 0.761807 0.836230 0.124807
Si Si6 0.180596 0.168491 0.748828
Si Si7 0.068251 0.830086 0.094412
Si Si8 0.875293 0.833025 0.779380
O O1 0.794492 0.810992 0.448667
O O2 0.620933 0.759276 0.450107
O O3 0.626033 0.757350 0.356015
O O4 0.655309 0.000000 0.410570
O O5 0.336623 0.500000 0.024992
O O6 0.341088 0.325342 0.099546
O O7 0.456984 0.284662 0.050684
O O8 0.250000 0.250000 0.000000
O O9 0.000000 0.796708 0.500000
O O10 0.097349 0.000000 0.481173
O O11 0.946674 0.809129 0.749744
O O12 0.069313 0.791889 0.704381
O O13 0.942417 0.000000 0.680742
O O14 0.807845 0.800418 0.189423
O O15 0.663775 0.740936 0.091590
O O16 0.729032 0.000000 0.118983
O O17 0.271968 0.249651 0.745798
O O18 0.191591 0.000000 0.745405
O O19 0.081336 0.793438 0.156182
O O20 0.072908 0.000000 0.090607
O O21 0.854017 0.000000 0.776683
#
# Coordination Sequence:
#
# PCOD9192970 Si02
#       8
#     8   8   8   8   8   8   8   8
#     4  10  21  35  53  80 108 133 169 214 253 293
#     4  10  21  35  51  72  99 130 165 206 253 305
#     4   9  19  38  60  77  99 136 176 211 252 301
#     4  10  20  34  52  74 106 142 168 199 248 303
#     4   9  18  34  54  74  97 128 167 208 248 295
#     4   9  18  33  53  75  99 132 171 205 244 298
#     4   9  18  34  54  74  98 130 167 207 251 299
#     4   9  18  33  53  76 101 132 170 208 248 296
#
# _framework density 18.925820000000002
#
# number of rings (size 3 to 8) (size 9 to 14) (size 15 to 20)
#    0.000    2.625    0.000    1.125    0.000    7.250 
#    0.000    6.250    0.000    7.500    0.000    0.000 
#    0.000    0.000    0.000    0.000    0.000    0.000 
#
# Total GULP energy -178488.372523 kJ/mol
# GULP energy per Si atom -5577.761641 kJ/mol
# Density = 1.888274 g / cm^3
# Si number density = 18.925820 Si / 1000 Ang^3
#
#
#
# Elastic Constant Matrix: (Units=GPa)
#
#
# Indices 1 2 3 4 5 6 
#
# 1 101.5206 31.6552 16.8571 0.0000 19.8337 0.0000
# 2 31.6552 24.8180 18.7485 0.0000 10.7218 0.0000
# 3 16.8571 18.7485 41.0244 0.0000 11.8961 0.0000
# 4 0.0000 0.0000 0.0000 28.5759 0.0000 1.4156
# 5 19.8337 10.7218 11.8961 0.0000 18.9794 0.0000
# 6 0.0000 0.0000 0.0000 1.4156 0.0000 27.9748
#
#
#
# Elastic Compliance Matrix: (Units=1/GPa)
#
#
# Indices 1 2 3 4 5 6 
#
# 1 0.017991 -0.023486 0.006044 0.000000 -0.009321 0.000000
# 2 -0.023486 0.099858 -0.032685 0.000000 -0.011382 0.000000
# 3 0.006044 -0.032685 0.040705 0.000000 -0.013365 0.000000
# 4 0.000000 0.000000 0.000000 0.035082 0.000000 -0.001775
# 5 -0.009321 -0.011382 -0.013365 0.000000 0.077236 0.000000
# 6 0.000000 0.000000 0.000000 -0.001775 0.000000 0.035836
#
#
# Mechanical properties :
#
#
# Convention : Reuss Voigt Hill
#
# Bulk Modulus (GPa) = 17.15281 33.54273 25.34777
# Shear Modulus (GPa) = 11.72619 21.77951 16.75285
#
# Velocity S-wave (km/s) = 2.49185 3.39600 2.97843
# Velocity P-wave (km/s) = 4.16677 5.75663 5.02498
#
# Compressibility (1/GPa) = 0.05829947
#
# Stress axis : x y z
#
# Youngs Moduli (GPa) = 55.58374 10.01424 24.56690
#
# Poissons Ratio (x) = 0.23519 -0.14847
# Poissons Ratio (y) = 1.30543 0.80297
# Poissons Ratio (z) = -0.33593 0.32732
#
# Static dielectric constant tensor:
#      x y z
#    x 1.639940 0.000000 -0.010760 
#    y 0.000000 1.626850 0.000000 
#    z -0.010760 0.000000 1.680670 
# 
# From -- ./inp_files/338919.got.cif
#   From: 2010.05.17/outbox.cif.g08.bks.cpg/sg12_170_cif.got.tgz:338919.got - 2010.06.03 13:09:07.
