data_PCOD9192457
_publ_section_title
;
Structure prediction by ZEFSAII (Michael W. Deem and Ramdas Pophale) SiO2 
 PCOD9192457
Probable space group: C 2/M
;
_chemical_formula_sum "Si O2"
_cell_formula_units_Z 50
_cell_length_a 18.231821
_cell_length_b 7.769089
_cell_length_c 14.069031
_cell_angle_alpha 90.000000
_cell_angle_beta 85.796818
_cell_angle_gamma 90.000000
_cell_volume 1987.443005
_symmetry_space_group_name_H-M "C 2/M"
_symmetry_group_IT_number 12
_symmetry_cell_setting 'monoclinic'
loop_
_space_group_symop_operation_xyz
x,y,z
-x,y,-z
-x,-y,-z
x,-y,z
1/2+x,1/2+y,z
1/2-x,1/2+y,-z
1/2-x,1/2-y,-z
1/2+x,1/2-y,z
loop_
_atom_site_type_symbol
_atom_site_label
_atom_site_fract_x
_atom_site_fract_y
_atom_site_fract_z
Si Si1 0.127679 0.711987 0.956253
Si Si2 0.665851 0.805898 0.151265
Si Si3 0.500000 0.500000 0.000000
Si Si4 0.648247 0.201890 0.743191
Si Si5 0.289874 0.802678 0.652537
Si Si6 0.071699 0.189601 0.450390
Si Si7 0.020397 0.809513 0.237202
O O1 0.112042 0.500000 0.962298
O O2 0.167859 0.738496 0.851557
O O3 0.173646 0.764536 0.045302
O O4 0.059547 0.843852 0.964090
O O5 0.691628 0.715888 0.246334
O O6 0.576504 0.807329 0.173979
O O7 0.694542 0.000000 0.147687
O O8 0.702295 0.287851 0.661863
O O9 0.563448 0.255438 0.745743
O O10 0.653116 0.000000 0.725430
O O11 0.342735 0.741447 0.563435
O O12 0.312075 0.000000 0.659727
O O13 0.000000 0.285500 0.500000
O O14 0.050418 0.183398 0.341433
O O15 0.072034 0.000000 0.495398
O O16 0.025828 0.000000 0.190981
#
# Coordination Sequence:
#
# PCOD9192457 Si02
#       7
#     8   8   2   8   8   8   8
#     4  10  23  37  52  81 119 159 204 251 292 339
#     4   9  19  37  55  78 112 152 194 245 290 331
#     4  12  22  32  56  82 108 156 198 250 296 338
#     4  11  23  38  54  79 119 159 190 239 293 339
#     4  10  21  37  60  85 114 149 192 237 290 349
#     4   9  19  39  64  88 113 144 182 229 287 352
#     4  10  20  33  56  85 112 144 189 236 280 343
#
# _framework density 25.157955000000001
#
# number of rings (size 3 to 8) (size 9 to 14) (size 15 to 20)
#    0.000    2.080    0.000    2.640    5.600    4.800 
#    0.000    0.800    0.000    0.000    0.000    0.000 
#    0.000    0.000    0.000    0.000    0.000    0.000 
#
# Total GULP energy -139170.809253 kJ/mol
# GULP energy per Si atom -5566.832370 kJ/mol
# Density = 2.510069 g / cm^3
# Si number density = 25.157955 Si / 1000 Ang^3
#
#
#
# Elastic Constant Matrix: (Units=GPa)
#
#
# Indices 1 2 3 4 5 6 
#
# 1 72.7495 4.1915 39.3963 0.0000 -44.9637 0.0000
# 2 4.1915 92.2209 13.4904 0.0000 -16.2026 0.0000
# 3 39.3963 13.4904 85.1957 0.0000 -32.3421 0.0000
# 4 0.0000 0.0000 0.0000 5.5494 0.0000 -4.8306
# 5 -44.9637 -16.2026 -32.3421 0.0000 62.8525 0.0000
# 6 0.0000 0.0000 0.0000 -4.8306 0.0000 21.1130
#
#
#
# Elastic Compliance Matrix: (Units=1/GPa)
#
#
# Indices 1 2 3 4 5 6 
#
# 1 0.027872 0.002741 -0.006817 0.000000 0.017138 0.000000
# 2 0.002741 0.011678 -0.001528 0.000000 0.004185 0.000000
# 3 -0.006817 -0.001528 0.016319 0.000000 0.003127 0.000000
# 4 0.000000 0.000000 0.000000 0.225012 0.000000 0.051482
# 5 0.017138 0.004185 0.003127 0.000000 0.030858 0.000000
# 6 0.000000 0.000000 0.000000 0.051482 0.000000 0.059143
#
#
# Mechanical properties :
#
#
# Convention : Reuss Voigt Hill
#
# Bulk Modulus (GPa) = 22.39054 40.48030 31.43542
# Shear Modulus (GPa) = 12.59526 30.77553 21.68540
#
# Velocity S-wave (km/s) = 2.23994 3.50135 2.93912
# Velocity P-wave (km/s) = 3.95083 5.69836 4.90308
#
# Compressibility (1/GPa) = 0.04466172
#
# Stress axis : x y z
#
# Youngs Moduli (GPa) = 35.87892 85.63281 61.27916
#
# Poissons Ratio (x) = -0.23475 0.41771
# Poissons Ratio (y) = -0.09836 0.09363
# Poissons Ratio (z) = 0.24457 0.13085
#
# Static dielectric constant tensor:
#      x y z
#    x 2.193040 0.000000 0.136630 
#    y 0.000000 1.971190 0.000000 
#    z 0.136630 0.000000 2.202580 
# 
# From -- ./inp_files/274202.got.cif
#   From: 2010.05.17/outbox.cif.g08.bks.cpg/sg12_138_cif.got.tgz:274202.got - 2010.06.03 13:09:07.
