data_PCOD9192425
_publ_section_title
;
Structure prediction by ZEFSAII (Michael W. Deem and Ramdas Pophale) SiO2 
 PCOD9192425
Probable space group: C 2/M
;
_chemical_formula_sum "Si O2"
_cell_formula_units_Z 48
_cell_length_a 8.856450
_cell_length_b 18.299500
_cell_length_c 14.948077
_cell_angle_alpha 90.000000
_cell_angle_beta 92.600052
_cell_angle_gamma 90.000000
_cell_volume 2420.120002
_symmetry_space_group_name_H-M "C 2/M"
_symmetry_group_IT_number 12
_symmetry_cell_setting 'monoclinic'
loop_
_space_group_symop_operation_xyz
x,y,z
-x,y,-z
-x,-y,-z
x,-y,z
1/2+x,1/2+y,z
1/2-x,1/2+y,-z
1/2-x,1/2-y,-z
1/2+x,1/2-y,z
loop_
_atom_site_type_symbol
_atom_site_label
_atom_site_fract_x
_atom_site_fract_y
_atom_site_fract_z
Si Si1 0.572053 0.209849 0.787786
Si Si2 0.630793 0.083613 0.143555
Si Si3 0.348554 0.313547 0.050419
Si Si4 0.165085 0.917437 0.674576
Si Si5 0.875035 0.175362 0.695779
Si Si6 0.180495 0.170670 0.499376
O O1 0.497663 0.143533 0.840406
O O2 0.596443 0.276564 0.856268
O O3 0.735823 0.184822 0.758598
O O4 0.464491 0.245787 0.707269
O O5 0.741902 0.118246 0.072117
O O6 0.719095 0.082324 0.240666
O O7 0.585120 0.000000 0.121704
O O8 0.500000 0.332126 0.000000
O O9 0.250000 0.250000 0.000000
O O10 0.223905 0.874418 0.588448
O O11 0.011942 0.881319 0.707795
O O12 0.133852 0.000000 0.644940
O O13 0.795386 0.147203 0.602000
O O14 0.250000 0.250000 0.500000
O O15 0.000000 0.175881 0.500000
#
# Coordination Sequence:
#
# PCOD9192425 Si02
#       6
#     8   8   8   8   8   8
#     4  12  21  40  64  94 126 162 211 257 316 376
#     4  11  24  43  65  93 132 166 203 259 324 372
#     4  12  23  41  69  94 118 160 207 260 315 383
#     4  10  22  40  59  88 130 171 206 260 318 361
#     4  11  20  34  63  88 120 169 214 253 296 375
#     4  10  20  33  55  88 119 159 213 257 293 354
#
# _framework density 19.833727
#
# number of rings (size 3 to 8) (size 9 to 14) (size 15 to 20)
#    0.000    1.000    5.000    3.000    0.000    4.000 
#    0.000    1.667    0.000    2.500    0.000    0.000 
#    0.000    0.000    0.000    0.000    0.000    0.000 
#
# Total GULP energy -133759.182792 kJ/mol
# GULP energy per Si atom -5573.299283 kJ/mol
# Density = 1.978858 g / cm^3
# Si number density = 19.833727 Si / 1000 Ang^3
#
#
#
# Elastic Constant Matrix: (Units=GPa)
#
#
# Indices 1 2 3 4 5 6 
#
# 1 41.9295 24.3999 6.2409 0.0000 -23.4543 0.0000
# 2 24.3999 121.6287 16.8905 0.0000 -20.2376 0.0000
# 3 6.2409 16.8905 72.2164 0.0000 -11.7471 0.0000
# 4 0.0000 0.0000 0.0000 17.1432 0.0000 -10.9961
# 5 -23.4543 -20.2376 -11.7471 0.0000 36.6432 0.0000
# 6 0.0000 0.0000 0.0000 -10.9961 0.0000 24.9238
#
#
#
# Elastic Compliance Matrix: (Units=1/GPa)
#
#
# Indices 1 2 3 4 5 6 
#
# 1 0.038989 -0.004169 0.001362 0.000000 0.023090 0.000000
# 2 -0.004169 0.009631 -0.001541 0.000000 0.002157 0.000000
# 3 0.001362 -0.001541 0.014869 0.000000 0.004787 0.000000
# 4 0.000000 0.000000 0.000000 0.081354 0.000000 0.035893
# 5 0.023090 0.002157 0.004787 0.000000 0.044795 0.000000
# 6 0.000000 0.000000 0.000000 0.035893 0.000000 0.055958
#
#
# Mechanical properties :
#
#
# Convention : Reuss Voigt Hill
#
# Bulk Modulus (GPa) = 18.25118 36.75968 27.50543
# Shear Modulus (GPa) = 18.34482 28.29159 23.31820
#
# Velocity S-wave (km/s) = 3.04457 3.78092 3.43255
# Velocity P-wave (km/s) = 4.64556 6.13471 5.44132
#
# Compressibility (1/GPa) = 0.05479099
#
# Stress axis : x y z
#
# Youngs Moduli (GPa) = 25.64854 103.83218 67.25497
#
# Poissons Ratio (x) = 0.43285 -0.09157
# Poissons Ratio (y) = 0.10692 0.10367
# Poissons Ratio (z) = -0.03492 0.16006
#
# Static dielectric constant tensor:
#      x y z
#    x 1.687200 0.000000 0.038930 
#    y 0.000000 1.698330 0.000000 
#    z 0.038930 0.000000 1.826980 
# 
# From -- ./inp_files/195918.got.cif
#   From: 2010.05.17/outbox.cif.g08.bks.cpg/sg12_98_cif.got.tgz:195918.got - 2010.06.03 13:09:07.
