data_PCOD9192481
_publ_section_title
;
Structure prediction by ZEFSAII (Michael W. Deem and Ramdas Pophale) SiO2 
 PCOD9192481
Probable space group: C 2/M
;
_chemical_formula_sum "Si O2"
_cell_formula_units_Z 56
_cell_length_a 17.652021
_cell_length_b 14.078279
_cell_length_c 15.543060
_cell_angle_alpha 90.000000
_cell_angle_beta 133.926317
_cell_angle_gamma 90.000000
_cell_volume 2781.975286
_symmetry_space_group_name_H-M "C 2/M"
_symmetry_group_IT_number 12
_symmetry_cell_setting 'monoclinic'
loop_
_space_group_symop_operation_xyz
x,y,z
-x,y,-z
-x,-y,-z
x,-y,z
1/2+x,1/2+y,z
1/2-x,1/2+y,-z
1/2-x,1/2-y,-z
1/2+x,1/2-y,z
loop_
_atom_site_type_symbol
_atom_site_label
_atom_site_fract_x
_atom_site_fract_y
_atom_site_fract_z
Si Si1 0.537054 0.111871 0.439349
Si Si2 0.318708 0.719058 0.835132
Si Si3 0.348186 0.885844 0.176622
Si Si4 0.248573 0.639044 0.514309
Si Si5 0.557645 0.607436 0.215417
Si Si6 0.159780 0.606442 0.258192
Si Si7 0.435261 0.788767 0.093697
O O1 0.500000 0.155847 0.500000
O O2 0.463815 0.143550 0.303495
O O3 0.658756 0.120938 0.514357
O O4 0.514439 0.000000 0.426409
O O5 0.232225 0.660103 0.819411
O O6 0.379799 0.648144 0.818710
O O7 0.282734 0.809775 0.749848
O O8 0.393646 0.764494 0.966496
O O9 0.347446 0.840702 0.081607
O O10 0.336865 0.000000 0.164531
O O11 0.250000 0.750000 0.500000
O O12 0.359171 0.607744 0.640648
O O13 0.210150 0.599741 0.392779
O O14 0.519964 0.500000 0.171244
O O15 0.469182 0.686985 0.160222
O O16 0.161103 0.500000 0.221368
O O17 0.039760 0.645273 0.171729
#
# Coordination Sequence:
#
# PCOD9192481 Si02
#       7
#     8   8   8   8   8   8   8
#     4  10  20  33  56  88 116 146 192 244 295 351
#     4  11  24  39  59  89 122 158 206 248 298 358
#     4  11  22  40  62  86 120 158 200 253 303 350
#     4  12  20  37  61  91 123 156 195 248 305 358
#     4  11  22  38  62  90 123 159 198 248 305 359
#     4  11  22  39  62  88 122 159 202 252 301 357
#     4  11  23  40  60  89 121 158 206 249 297 359
#
# _framework density 20.129581999999999
#
# number of rings (size 3 to 8) (size 9 to 14) (size 15 to 20)
#    0.000    1.000    4.286    5.143    0.000    4.571 
#    0.000    0.714    0.000    0.000    0.000    3.000 
#    0.000    0.000    0.000    0.000    0.000    0.000 
#
# Total GULP energy -156294.574660 kJ/mol
# GULP energy per Si atom -5581.949095 kJ/mol
# Density = 2.008377 g / cm^3
# Si number density = 20.129582 Si / 1000 Ang^3
#
#
#
# Elastic Constant Matrix: (Units=GPa)
#
#
# Indices 1 2 3 4 5 6 
#
# 1 66.2183 37.8201 12.1905 0.0000 -11.5188 0.0000
# 2 37.8201 155.5970 14.2940 0.0000 -13.2433 0.0000
# 3 12.1905 14.2940 80.7689 0.0000 -18.1021 0.0000
# 4 0.0000 0.0000 0.0000 -0.3877 0.0000 -50.2366
# 5 -11.5188 -13.2433 -18.1021 0.0000 16.5361 0.0000
# 6 0.0000 0.0000 0.0000 -50.2366 0.0000 -156.1980
#
#
#
# Elastic Compliance Matrix: (Units=1/GPa)
#
#
# Indices 1 2 3 4 5 6 
#
# 1 0.019029 -0.003753 0.000118 0.000000 0.010379 0.000000
# 2 -0.003753 0.007637 0.000000 0.000000 0.003502 0.000000
# 3 0.000118 0.000000 0.016407 0.000000 0.018043 0.000000
# 4 0.000000 0.000000 0.000000 0.063414 0.000000 -0.020395
# 5 0.010379 0.003502 0.018043 0.000000 0.090260 0.000000
# 6 0.000000 0.000000 0.000000 -0.020395 0.000000 0.000157
#
#
# Mechanical properties :
#
#
# Convention : Reuss Voigt Hill
#
# Bulk Modulus (GPa) = 27.93031 47.91037 37.92034
# Shear Modulus (GPa) = 23.13666 -12.12461 5.50602
#
# Velocity S-wave (km/s) = 3.39394 -2.45690 1.65567
# Velocity P-wave (km/s) = 5.40960 3.97545 4.74700
#
# Compressibility (1/GPa) = 0.03580340
#
# Stress axis : x y z
#
# Youngs Moduli (GPa) = 52.55255 130.94006 60.94955
#
# Poissons Ratio (x) = 0.49137 -0.00721
# Poissons Ratio (y) = 0.19721 0.00002
# Poissons Ratio (z) = -0.00622 0.00004
#
# Static dielectric constant tensor:
#      x y z
#    x 1.667000 0.000000 -0.051410 
#    y 0.000000 1.708460 0.000000 
#    z -0.051410 0.000000 1.751090 
# 
# From -- ./inp_files/225387.got.cif
#   From: 2010.05.17/outbox.cif.g08.bks.cpg/sg12_113_cif.got.tgz:225387.got - 2010.06.03 13:09:07.
