data_PCOD9192580
_publ_section_title
;
Structure prediction by ZEFSAII (Michael W. Deem and Ramdas Pophale) SiO2 
 PCOD9192580
Probable space group: C 2/M
;
_chemical_formula_sum "Si O2"
_cell_formula_units_Z 56
_cell_length_a 25.806159
_cell_length_b 13.814842
_cell_length_c 21.926708
_cell_angle_alpha 90.000000
_cell_angle_beta 159.798462
_cell_angle_gamma 90.000000
_cell_volume 2699.409184
_symmetry_space_group_name_H-M "C 2/M"
_symmetry_group_IT_number 12
_symmetry_cell_setting 'monoclinic'
loop_
_space_group_symop_operation_xyz
x,y,z
-x,y,-z
-x,-y,-z
x,-y,z
1/2+x,1/2+y,z
1/2-x,1/2+y,-z
1/2-x,1/2-y,-z
1/2+x,1/2-y,z
loop_
_atom_site_type_symbol
_atom_site_label
_atom_site_fract_x
_atom_site_fract_y
_atom_site_fract_z
Si Si1 0.292457 0.890634 0.538772
Si Si2 0.518105 0.393545 0.851643
Si Si3 0.146289 0.612182 0.252874
Si Si4 0.170372 0.388833 0.662494
Si Si5 0.614367 0.764725 0.033110
Si Si6 0.221217 0.271503 0.897974
Si Si7 0.631273 0.784439 0.499171
O O1 0.110690 0.884412 0.341174
O O2 0.361228 0.879250 0.681232
O O3 0.339919 0.817291 0.538627
O O4 0.328271 0.000000 0.557411
O O5 0.509154 0.500000 0.867398
O O6 0.491036 0.313172 0.872798
O O7 0.684467 0.369844 0.011415
O O8 0.175729 0.500000 0.270559
O O9 0.279380 0.686897 0.383988
O O10 0.985312 0.649741 0.050947
O O11 0.218193 0.500000 0.728603
O O12 0.272648 0.303439 0.804468
O O13 0.172513 0.368075 0.592835
O O14 0.000000 0.378909 0.500000
O O15 0.700433 0.796624 0.066315
O O16 0.046985 0.272453 0.692562
O O17 0.250000 0.250000 0.000000
#
# Coordination Sequence:
#
# PCOD9192580 Si02
#       7
#     8   8   8   8   8   8   8
#     4  10  20  36  61  93 127 164 202 254 320 382
#     4   9  18  34  57  86 123 162 197 242 314 375
#     4  11  24  42  63  88 124 167 213 262 311 365
#     4  11  23  42  66  96 129 160 198 249 315 386
#     4  10  21  40  60  84 127 167 202 249 313 360
#     4  10  20  33  59  88 123 162 204 249 304 364
#     4  12  21  38  64  93 129 161 209 255 314 368
#
# _framework density 20.745280999999999
#
# number of rings (size 3 to 8) (size 9 to 14) (size 15 to 20)
#    0.857    0.714    2.857    3.000    0.000    1.714 
#    0.000    3.571    0.000    0.857    0.000    0.000 
#    0.000    0.000    0.000    0.000    0.000    0.000 
#
# Total GULP energy -156012.884310 kJ/mol
# GULP energy per Si atom -5571.888725 kJ/mol
# Density = 2.069806 g / cm^3
# Si number density = 20.745281 Si / 1000 Ang^3
#
#
#
# Elastic Constant Matrix: (Units=GPa)
#
#
# Indices 1 2 3 4 5 6 
#
# 1 70.4702 18.3524 18.5128 0.0008 -3.2101 0.0001
# 2 18.3524 112.3177 35.6050 0.0019 8.4356 0.0007
# 3 18.5128 35.6050 111.2571 0.0018 15.7435 0.0007
# 4 0.0008 0.0019 0.0018 29.7428 0.0009 -0.1670
# 5 -3.2101 8.4356 15.7435 0.0009 30.0997 0.0002
# 6 0.0001 0.0007 0.0007 -0.1670 0.0002 20.9714
#
#
#
# Elastic Compliance Matrix: (Units=1/GPa)
#
#
# Indices 1 2 3 4 5 6 
#
# 1 0.015515 -0.002028 -0.002427 0.000000 0.003492 0.000000
# 2 -0.002028 0.010214 -0.002695 0.000000 -0.001669 0.000000
# 3 -0.002427 -0.002695 0.010998 0.000000 -0.005256 0.000000
# 4 0.000000 0.000000 0.000000 0.033623 -0.000001 0.000268
# 5 0.003492 -0.001669 -0.005256 -0.000001 0.036812 0.000000
# 6 0.000000 0.000000 0.000000 0.000268 0.000000 0.047686
#
#
# Mechanical properties :
#
#
# Convention : Reuss Voigt Hill
#
# Bulk Modulus (GPa) = 44.58777 48.77615 46.68196
# Shear Modulus (GPa) = 28.30845 30.93443 29.62144
#
# Velocity S-wave (km/s) = 3.69802 3.86574 3.78281
# Velocity P-wave (km/s) = 6.30662 6.59456 6.45219
#
# Compressibility (1/GPa) = 0.02242767
#
# Stress axis : x y z
#
# Youngs Moduli (GPa) = 64.45295 97.90050 90.92317
#
# Poissons Ratio (x) = 0.19855 0.22065
# Poissons Ratio (y) = 0.13072 0.24506
# Poissons Ratio (z) = 0.15642 0.26386
#
# Static dielectric constant tensor:
#      x y z
#    x 1.781810 0.000000 -0.009830 
#    y 0.000000 1.768580 0.000000 
#    z -0.009830 0.000000 1.778510 
# 
# From -- ./inp_files/352080.got.cif
#   From: 2010.05.17/outbox.cif.g08.bks.cpg/sg12_177_cif.got.tgz:352080.got - 2010.06.03 13:09:07.
