data_PCOD9192983
_publ_section_title
;
Structure prediction by ZEFSAII (Michael W. Deem and Ramdas Pophale) SiO2 
 PCOD9192983
Probable space group: C 2/M
;
_chemical_formula_sum "Si O2"
_cell_formula_units_Z 64
_cell_length_a 33.189035
_cell_length_b 8.791058
_cell_length_c 26.842071
_cell_angle_alpha 90.000000
_cell_angle_beta 152.027243
_cell_angle_gamma 90.000000
_cell_volume 3673.436124
_symmetry_space_group_name_H-M "C 2/M"
_symmetry_group_IT_number 12
_symmetry_cell_setting 'monoclinic'
loop_
_space_group_symop_operation_xyz
x,y,z
-x,y,-z
-x,-y,-z
x,-y,z
1/2+x,1/2+y,z
1/2-x,1/2+y,-z
1/2-x,1/2-y,-z
1/2+x,1/2-y,z
loop_
_atom_site_type_symbol
_atom_site_label
_atom_site_fract_x
_atom_site_fract_y
_atom_site_fract_z
Si Si1 0.926988 0.816902 0.458608
Si Si2 0.017951 0.316850 0.275195
Si Si3 0.179496 0.317520 0.959937
Si Si4 0.269174 0.817884 0.779733
Si Si5 0.696296 0.683695 0.287632
Si Si6 0.391977 0.816825 0.524877
Si Si7 0.146901 0.182308 0.030008
Si Si8 0.050327 0.182901 0.205680
O O1 0.831804 0.776214 0.335156
O O2 0.935937 0.748967 0.523451
O O3 0.000000 0.765456 0.500000
O O4 0.930933 0.000000 0.466460
O O5 0.022942 0.500000 0.278689
O O6 0.063757 0.264703 0.375784
O O7 0.060390 0.251223 0.271637
O O8 0.917009 0.275187 0.163356
O O9 0.185544 0.500000 0.967604
O O10 0.250000 0.250000 0.000000
O O11 0.188154 0.252323 0.025166
O O12 0.312368 0.756170 0.776338
O O13 0.310257 0.746025 0.873543
O O14 0.275740 0.000000 0.788866
O O15 0.692881 0.500000 0.279088
O O16 0.791129 0.724751 0.411551
O O17 0.622688 0.732409 0.245650
O O18 0.397158 0.000000 0.528786
O O19 0.153948 0.000000 0.036181
O O20 0.045565 0.223355 0.917458
O O21 0.054445 0.000000 0.213866
#
# Coordination Sequence:
#
# PCOD9192983 Si02
#       8
#     8   8   8   8   8   8   8   8
#     4   9  19  35  52  72  99 129 162 202 246 292
#     4   9  19  34  51  74 103 131 162 204 249 292
#     4  10  20  35  53  74 102 133 167 206 247 293
#     4  10  20  34  52  75 101 129 165 206 249 296
#     4   9  18  34  53  73 100 132 166 203 243 292
#     4   9  18  33  52  74 100 130 163 200 244 293
#     4  10  20  35  53  73 100 133 168 205 247 293
#     4   9  19  34  52  74  99 131 169 204 241 291
#
# _framework density 17.42238
#
# number of rings (size 3 to 8) (size 9 to 14) (size 15 to 20)
#    0.000    2.625    0.000    1.125    0.000    4.750 
#    0.000    5.000    0.000    0.000    0.000    0.000 
#    0.000    0.000    0.000    0.000    0.000    0.000 
#
# Total GULP energy -178514.212445 kJ/mol
# GULP energy per Si atom -5578.569139 kJ/mol
# Density = 1.738273 g / cm^3
# Si number density = 17.422380 Si / 1000 Ang^3
#
#
#
# Elastic Constant Matrix: (Units=GPa)
#
#
# Indices 1 2 3 4 5 6 
#
# 1 211.3520 46.7916 102.6826 0.0000 -8.1927 0.0000
# 2 46.7916 23.6490 34.5519 0.0000 -6.2953 0.0000
# 3 102.6826 34.5519 101.8906 0.0000 -34.3862 0.0000
# 4 0.0000 0.0000 0.0000 22.6293 0.0000 -5.8298
# 5 -8.1927 -6.2953 -34.3862 0.0000 33.6765 0.0000
# 6 0.0000 0.0000 0.0000 -5.8298 0.0000 34.7903
#
#
#
# Elastic Compliance Matrix: (Units=1/GPa)
#
#
# Indices 1 2 3 4 5 6 
#
# 1 0.013650 -0.007114 -0.016282 0.000000 -0.014635 0.000000
# 2 -0.007114 0.097799 -0.031140 0.000000 -0.015245 0.000000
# 3 -0.016282 -0.031140 0.051086 0.000000 0.042380 0.000000
# 4 0.000000 0.000000 0.000000 0.046184 0.000000 0.007739
# 5 -0.014635 -0.015245 0.042380 0.000000 0.066558 0.000000
# 6 0.000000 0.000000 0.000000 0.007739 0.000000 0.030040
#
#
# Mechanical properties :
#
#
# Convention : Reuss Voigt Hill
#
# Bulk Modulus (GPa) = 18.70500 78.32707 48.51604
# Shear Modulus (GPa) = 11.56843 28.41025 19.98934
#
# Velocity S-wave (km/s) = 2.57961 4.04254 3.39091
# Velocity P-wave (km/s) = 4.43080 8.17587 6.57560
#
# Compressibility (1/GPa) = 0.05346163
#
# Stress axis : x y z
#
# Youngs Moduli (GPa) = 73.26182 10.22505 19.57482
#
# Poissons Ratio (x) = 0.07274 0.31873
# Poissons Ratio (y) = 0.52116 0.60957
# Poissons Ratio (z) = 1.19288 0.31841
#
# Static dielectric constant tensor:
#      x y z
#    x 1.563040 0.000000 0.011960 
#    y 0.000000 1.586820 0.000000 
#    z 0.011960 0.000000 1.584760 
# 
# From -- ./inp_files/353485.got.cif
#   From: 2010.05.17/outbox.cif.g08.bks.cpg/sg12_177_cif.got.tgz:353485.got - 2010.06.03 13:09:07.
