data_PCOD9192477
_publ_section_title
;
Structure prediction by ZEFSAII (Michael W. Deem and Ramdas Pophale) SiO2 
 PCOD9192477
Probable space group: C 2/M
;
_chemical_formula_sum "Si O2"
_cell_formula_units_Z 56
_cell_length_a 31.100043
_cell_length_b 11.123715
_cell_length_c 10.145476
_cell_angle_alpha 90.000000
_cell_angle_beta 57.669922
_cell_angle_gamma 90.000000
_cell_volume 2965.721179
_symmetry_space_group_name_H-M "C 2/M"
_symmetry_group_IT_number 12
_symmetry_cell_setting 'monoclinic'
loop_
_space_group_symop_operation_xyz
x,y,z
-x,y,-z
-x,-y,-z
x,-y,z
1/2+x,1/2+y,z
1/2-x,1/2+y,-z
1/2-x,1/2-y,-z
1/2+x,1/2-y,z
loop_
_atom_site_type_symbol
_atom_site_label
_atom_site_fract_x
_atom_site_fract_y
_atom_site_fract_z
Si Si1 0.558668 0.500000 0.241598
Si Si2 0.845779 0.636228 0.766803
Si Si3 0.756657 0.866555 0.651682
Si Si4 0.372665 0.287073 0.955728
Si Si5 0.132483 0.210635 0.528921
Si Si6 0.562479 0.500000 0.549363
Si Si7 0.238435 0.866400 0.861416
Si Si8 0.147156 0.638623 0.747283
O O1 0.582751 0.382686 0.133741
O O2 0.573216 0.500000 0.373781
O O3 0.497916 0.500000 0.333815
O O4 0.858949 0.500000 0.711800
O O5 0.875774 0.681769 0.843661
O O6 0.856728 0.721599 0.625776
O O7 0.784375 0.639029 0.891283
O O8 0.815050 0.855360 0.512123
O O9 0.747541 0.749573 0.755904
O O10 0.709149 0.861228 0.629148
O O11 0.751537 0.000000 0.724650
O O12 0.320070 0.355381 0.001986
O O13 0.366221 0.225399 0.108371
O O14 0.121998 0.307939 0.658424
O O15 0.088820 0.115133 0.572388
O O16 0.244595 0.000000 0.787715
O O17 0.133115 0.500000 0.796175
#
# Coordination Sequence:
#
# PCOD9192477 Si02
#       8
#     4   8   8   8   8   4   8   8
#     4  11  24  43  67  91 119 153 213 277 318 350
#     4  10  20  33  56  87 119 162 203 244 298 378
#     4   9  18  33  54  85 126 168 204 239 296 371
#     4  11  20  38  59  85 121 162 195 255 313 361
#     4  11  20  38  60  87 122 165 206 254 300 358
#     4  11  24  43  67  93 115 157 215 273 312 355
#     4   9  18  31  51  84 122 159 204 244 303 375
#     4  10  22  37  58  92 130 165 196 240 304 382
#
# _framework density 18.882421999999998
#
# number of rings (size 3 to 8) (size 9 to 14) (size 15 to 20)
#    0.000    1.857    2.857    1.714    0.000    1.714 
#    1.286    4.286    0.000    5.143    0.000    0.000 
#    0.000    0.000    0.000    0.000    0.000    0.000 
#
# Total GULP energy -156082.314592 kJ/mol
# GULP energy per Si atom -5574.368378 kJ/mol
# Density = 1.883945 g / cm^3
# Si number density = 18.882422 Si / 1000 Ang^3
#
#
#
# Elastic Constant Matrix: (Units=GPa)
#
#
# Indices 1 2 3 4 5 6 
#
# 1 72.4201 37.6499 32.7736 0.0000 -6.6664 0.0000
# 2 37.6499 115.9319 15.3047 0.0000 -14.8297 0.0000
# 3 32.7736 15.3047 56.6103 0.0000 -3.6043 0.0000
# 4 0.0000 0.0000 0.0000 25.9532 0.0000 1.3823
# 5 -6.6664 -14.8297 -3.6043 0.0000 20.6032 0.0000
# 6 0.0000 0.0000 0.0000 1.3823 0.0000 23.5308
#
#
#
# Elastic Compliance Matrix: (Units=1/GPa)
#
#
# Indices 1 2 3 4 5 6 
#
# 1 0.021750 -0.005455 -0.011042 0.000000 0.001179 0.000000
# 2 -0.005455 0.011136 0.000551 0.000000 0.006347 0.000000
# 3 -0.011042 0.000551 0.023973 0.000000 0.001018 0.000000
# 4 0.000000 0.000000 0.000000 0.038652 0.000000 -0.002270
# 5 0.001179 0.006347 0.001018 0.000000 0.053664 0.000000
# 6 0.000000 0.000000 0.000000 -0.002270 0.000000 0.042631
#
#
# Mechanical properties :
#
#
# Convention : Reuss Voigt Hill
#
# Bulk Modulus (GPa) = 40.05066 46.26874 43.15970
# Shear Modulus (GPa) = 21.54992 24.63305 23.09148
#
# Velocity S-wave (km/s) = 3.38193 3.61577 3.50081
# Velocity P-wave (km/s) = 6.04206 6.47986 6.26479
#
# Compressibility (1/GPa) = 0.02496838
#
# Stress axis : x y z
#
# Youngs Moduli (GPa) = 45.97756 89.79567 41.71382
#
# Poissons Ratio (x) = 0.48982 0.46060
# Poissons Ratio (y) = 0.25080 -0.02300
# Poissons Ratio (z) = 0.50768 -0.04951
#
# Static dielectric constant tensor:
#      x y z
#    x 1.648090 0.000000 -0.003790 
#    y 0.000000 1.685620 0.000000 
#    z -0.003790 0.000000 1.669040 
# 
# From -- ./inp_files/110368.got.cif
#   From: 2010.05.17/outbox.cif.g08.bks.cpg/sg12_56_cif.got.tgz:110368.got - 2010.06.03 13:09:07.
