data_PCOD9192220
_publ_section_title
;
Structure prediction by ZEFSAII (Michael W. Deem and Ramdas Pophale) SiO2 
 PCOD9192220
Probable space group: C 2/M
;
_chemical_formula_sum "Si O2"
_cell_formula_units_Z 48
_cell_length_a 27.189344
_cell_length_b 15.753440
_cell_length_c 12.174267
_cell_angle_alpha 90.000000
_cell_angle_beta 151.512769
_cell_angle_gamma 90.000000
_cell_volume 2487.147541
_symmetry_space_group_name_H-M "C 2/M"
_symmetry_group_IT_number 12
_symmetry_cell_setting 'monoclinic'
loop_
_space_group_symop_operation_xyz
x,y,z
-x,y,-z
-x,-y,-z
x,-y,z
1/2+x,1/2+y,z
1/2-x,1/2+y,-z
1/2-x,1/2-y,-z
1/2+x,1/2-y,z
loop_
_atom_site_type_symbol
_atom_site_label
_atom_site_fract_x
_atom_site_fract_y
_atom_site_fract_z
Si Si1 0.185603 0.208482 0.630774
Si Si2 0.872875 0.812078 0.077512
Si Si3 0.005393 0.762112 0.888747
Si Si4 0.329430 0.404847 0.200025
Si Si5 0.374978 0.904382 0.926923
Si Si6 0.588501 0.128953 0.757467
O O1 0.256594 0.283265 0.818370
O O2 0.105846 0.242675 0.386177
O O3 0.135843 0.161319 0.638174
O O4 0.262764 0.138645 0.727964
O O5 0.874458 0.886255 0.168577
O O6 0.915566 0.729479 0.225900
O O7 0.930030 0.816801 0.073343
O O8 0.059663 0.669504 0.003353
O O9 0.000000 0.798708 0.000000
O O10 0.351234 0.500000 0.278921
O O11 0.204712 0.392671 0.947687
O O12 0.422537 0.909390 0.142889
O O13 0.370845 0.000000 0.872840
O O14 0.500000 0.104011 0.500000
#
# Coordination Sequence:
#
# PCOD9192220 Si02
#       6
#     8   8   8   8   8   8
#     4   9  18  37  59  78 116 153 184 223 285 349
#     4   9  21  32  54  83 113 147 186 227 273 343
#     4  10  22  38  60  82 104 151 205 241 270 329
#     4  10  20  33  53  84 118 145 176 225 287 341
#     4   9  20  35  55  87 114 142 184 235 290 333
#     4   9  17  30  54  79 113 147 176 213 271 348
#
# _framework density 19.299216999999999
#
# number of rings (size 3 to 8) (size 9 to 14) (size 15 to 20)
#    0.000    3.333    0.000    4.000    9.333    4.333 
#    0.000    2.500    0.000    6.500    0.000    0.000 
#    0.000    0.000    0.000    0.000    0.000    0.000 
#
# Total GULP energy -133746.267716 kJ/mol
# GULP energy per Si atom -5572.761155 kJ/mol
# Density = 1.925529 g / cm^3
# Si number density = 19.299217 Si / 1000 Ang^3
#
#
#
# Elastic Constant Matrix: (Units=GPa)
#
#
# Indices 1 2 3 4 5 6 
#
# 1 100.9635 15.3124 22.3179 0.0000 -12.2186 0.0000
# 2 15.3124 30.2021 4.4235 0.0000 4.3700 0.0000
# 3 22.3179 4.4235 45.0531 0.0000 -5.0916 0.0000
# 4 0.0000 0.0000 0.0000 1.8583 0.0000 -0.7660
# 5 -12.2186 4.3700 -5.0916 0.0000 11.8323 0.0000
# 6 0.0000 0.0000 0.0000 -0.7660 0.0000 -10.9344
#
#
#
# Elastic Compliance Matrix: (Units=1/GPa)
#
#
# Indices 1 2 3 4 5 6 
#
# 1 0.014141 -0.008852 -0.004327 0.000000 0.016010 0.000000
# 2 -0.008852 0.041694 -0.002609 0.000000 -0.025662 0.000000
# 3 -0.004327 -0.002609 0.025436 0.000000 0.007441 0.000000
# 4 0.000000 0.000000 0.000000 0.523014 0.000000 -0.036641
# 5 0.016010 -0.025662 0.007441 0.000000 0.113727 0.000000
# 6 0.000000 0.000000 0.000000 -0.036641 0.000000 -0.088888
#
#
# Mechanical properties :
#
#
# Convention : Reuss Voigt Hill
#
# Bulk Modulus (GPa) = 20.12235 28.92516 24.52375
# Shear Modulus (GPa) = 7.38263 9.49558 8.43910
#
# Velocity S-wave (km/s) = 1.95797 2.22056 2.09339
# Velocity P-wave (km/s) = 3.94470 4.64702 4.31019
#
# Compressibility (1/GPa) = 0.04969598
#
# Stress axis : x y z
#
# Youngs Moduli (GPa) = 70.71591 23.98447 39.31378
#
# Poissons Ratio (x) = 0.21232 0.17009
# Poissons Ratio (y) = 0.62601 0.10256
# Poissons Ratio (z) = 0.30595 0.06257
#
# Static dielectric constant tensor:
#      x y z
#    x 1.710050 0.000000 0.045130 
#    y 0.000000 1.707630 0.000000 
#    z 0.045130 0.000000 1.686880 
# 
# From -- ./inp_files/184218.got.cif
#   From: 2010.05.17/outbox.cif.g08.bks.cpg/sg12_93_cif.got.tgz:184218.got - 2010.06.03 13:09:07.
