data_PCOD9192533
_publ_section_title
;
Structure prediction by ZEFSAII (Michael W. Deem and Ramdas Pophale) SiO2 
 PCOD9192533
Probable space group: C 2/M
;
_chemical_formula_sum "Si O2"
_cell_formula_units_Z 48
_cell_length_a 18.664812
_cell_length_b 9.977065
_cell_length_c 12.983766
_cell_angle_alpha 90.000000
_cell_angle_beta 74.244232
_cell_angle_gamma 90.000000
_cell_volume 2326.994239
_symmetry_space_group_name_H-M "C 2/M"
_symmetry_group_IT_number 12
_symmetry_cell_setting 'monoclinic'
loop_
_space_group_symop_operation_xyz
x,y,z
-x,y,-z
-x,-y,-z
x,-y,z
1/2+x,1/2+y,z
1/2-x,1/2+y,-z
1/2-x,1/2-y,-z
1/2+x,1/2-y,z
loop_
_atom_site_type_symbol
_atom_site_label
_atom_site_fract_x
_atom_site_fract_y
_atom_site_fract_z
Si Si1 0.923109 0.794050 0.067215
Si Si2 0.358171 0.343174 0.438496
Si Si3 0.894848 0.352668 0.882887
Si Si4 0.509742 0.340513 0.745682
Si Si5 0.249357 0.657672 0.656462
Si Si6 0.741497 0.645289 0.846415
O O1 0.935199 0.787705 0.184435
O O2 0.842706 0.857213 0.080394
O O3 0.918672 0.668198 0.991937
O O4 0.000000 0.861333 0.000000
O O5 0.343636 0.500000 0.413156
O O6 0.444378 0.318736 0.377172
O O7 0.328708 0.331660 0.566366
O O8 0.308753 0.239682 0.391899
O O9 0.918641 0.500000 0.838865
O O10 0.806229 0.343466 0.905095
O O11 0.935108 0.241304 0.797348
O O12 0.498303 0.500000 0.762610
O O13 0.230745 0.500000 0.671754
O O14 0.249511 0.732667 0.764747
O O15 0.753915 0.500000 0.788564
#
# Coordination Sequence:
#
# PCOD9192533 Si02
#       6
#     8   8   8   8   8   8
#     4  10  21  37  60  84 107 144 195 239 278 335
#     4   9  18  36  58  85 118 151 188 231 283 339
#     4  10  24  40  56  82 118 155 189 236 290 338
#     4  10  20  37  62  86 112 151 194 235 279 337
#     4  10  20  33  57  90 118 147 187 236 285 334
#     4  11  22  40  60  81 117 157 190 230 287 347
#
# _framework density 20.627468
#
# number of rings (size 3 to 8) (size 9 to 14) (size 15 to 20)
#    0.000    2.000    1.667    1.500    0.000   11.667 
#    0.000    0.833    0.000    5.000    0.000    0.000 
#    0.000    0.000    0.000    0.000    0.000    0.000 
#
# Total GULP energy -133644.152806 kJ/mol
# GULP energy per Si atom -5568.506367 kJ/mol
# Density = 2.058052 g / cm^3
# Si number density = 20.627468 Si / 1000 Ang^3
#
#
#
# Elastic Constant Matrix: (Units=GPa)
#
#
# Indices 1 2 3 4 5 6 
#
# 1 113.8767 36.0477 23.6390 0.0000 -25.3045 0.0000
# 2 36.0477 116.9851 42.1466 0.0000 -11.5275 0.0000
# 3 23.6390 42.1466 61.9607 0.0000 -27.0990 0.0000
# 4 0.0000 0.0000 0.0000 17.6576 0.0000 0.2593
# 5 -25.3045 -11.5275 -27.0990 0.0000 32.6434 0.0000
# 6 0.0000 0.0000 0.0000 0.2593 0.0000 14.7520
#
#
#
# Elastic Compliance Matrix: (Units=1/GPa)
#
#
# Indices 1 2 3 4 5 6 
#
# 1 0.011513 -0.003338 0.001987 0.000000 0.009396 0.000000
# 2 -0.003338 0.012593 -0.010172 0.000000 -0.006585 0.000000
# 3 0.001987 -0.010172 0.033604 0.000000 0.025844 0.000000
# 4 0.000000 0.000000 0.000000 0.056647 0.000000 -0.000996
# 5 0.009396 -0.006585 0.025844 0.000000 0.057047 0.000000
# 6 0.000000 0.000000 0.000000 -0.000996 0.000000 0.067805
#
#
# Mechanical properties :
#
#
# Convention : Reuss Voigt Hill
#
# Bulk Modulus (GPa) = 28.84833 55.16547 42.00690
# Shear Modulus (GPa) = 18.26092 25.74323 22.00207
#
# Velocity S-wave (km/s) = 2.97858 3.53655 3.26949
# Velocity P-wave (km/s) = 5.08380 6.59378 5.88740
#
# Compressibility (1/GPa) = 0.03466405
#
# Stress axis : x y z
#
# Youngs Moduli (GPa) = 86.85568 79.41235 29.75870
#
# Poissons Ratio (x) = 0.26506 -0.05914
# Poissons Ratio (y) = 0.28991 0.30271
# Poissons Ratio (z) = -0.17261 0.80780
#
# Static dielectric constant tensor:
#      x y z
#    x 1.751290 0.000000 -0.024390 
#    y 0.000000 1.733930 0.000000 
#    z -0.024390 0.000000 1.764350 
# 
# From -- ./inp_files/229857.got.cif
#   From: 2010.05.17/outbox.cif.g08.bks.cpg/sg12_115_cif.got.tgz:229857.got - 2010.06.03 13:09:07.
