data_PCOD9192459
_publ_section_title
;
Structure prediction by ZEFSAII (Michael W. Deem and Ramdas Pophale) SiO2 
 PCOD9192459
Probable space group: C 2/M
;
_chemical_formula_sum "Si O2"
_cell_formula_units_Z 58
_cell_length_a 24.744238
_cell_length_b 9.301331
_cell_length_c 29.342155
_cell_angle_alpha 90.000000
_cell_angle_beta 29.602066
_cell_angle_gamma 90.000000
_cell_volume 3335.912070
_symmetry_space_group_name_H-M "C 2/M"
_symmetry_group_IT_number 12
_symmetry_cell_setting 'monoclinic'
loop_
_space_group_symop_operation_xyz
x,y,z
-x,y,-z
-x,-y,-z
x,-y,z
1/2+x,1/2+y,z
1/2-x,1/2+y,-z
1/2-x,1/2-y,-z
1/2+x,1/2-y,z
loop_
_atom_site_type_symbol
_atom_site_label
_atom_site_fract_x
_atom_site_fract_y
_atom_site_fract_z
Si Si1 0.346551 0.168487 0.216378
Si Si2 0.581849 0.831782 0.091725
Si Si3 0.711615 0.327981 0.573629
Si Si4 0.750823 0.327387 0.109935
Si Si5 0.500000 0.000000 0.500000
Si Si6 0.965106 0.828031 0.780707
Si Si7 0.371221 0.671320 0.103899
Si Si8 0.702565 0.158671 0.392143
O O1 0.468972 0.183658 0.146553
O O2 0.339550 0.257886 0.175063
O O3 0.264158 0.232360 0.314068
O O4 0.326610 0.000000 0.222584
O O5 0.571452 0.742543 0.145273
O O6 0.595848 0.000000 0.092874
O O7 0.679709 0.789358 0.986255
O O8 0.713256 0.500000 0.564973
O O9 0.750000 0.250000 0.500000
O O10 0.587690 0.284204 0.677501
O O11 0.786112 0.297186 0.563496
O O12 0.762990 0.500000 0.107929
O O13 0.624748 0.293550 0.191841
O O14 0.801120 0.243248 0.115312
O O15 0.418677 0.876885 0.536547
O O16 0.964294 0.000000 0.787065
O O17 0.354692 0.500000 0.117311
O O18 0.500000 0.698961 0.000000
O O19 0.760729 0.000000 0.346381
#
# Coordination Sequence:
#
# PCOD9192459 Si02
#       8
#     8   8   8   8   2   8   8   8
#     4  11  21  35  60  88 114 154 195 238 292 349
#     4  10  20  33  56  85 117 153 192 235 286 343
#     4  10  21  38  60  85 114 149 189 241 298 353
#     4  10  21  38  55  81 121 157 191 241 294 346
#     4   8  20  40  70  88 114 152 194 250 310 352
#     4  10  21  37  58  84 114 152 193 236 292 350
#     4  11  23  37  55  81 114 157 204 243 285 342
#     4   9  19  40  63  86 114 147 194 244 296 360
#
# _framework density 17.38655
#
# number of rings (size 3 to 8) (size 9 to 14) (size 15 to 20)
#    0.414    1.517    2.759    1.241    0.000    3.310 
#    2.483    0.345    0.000    0.000    0.000    0.000 
#    0.000    0.000    0.000    0.000    0.000    0.000 
#
# Total GULP energy -161503.229849 kJ/mol
# GULP energy per Si atom -5569.076891 kJ/mol
# Density = 1.734698 g / cm^3
# Si number density = 17.386550 Si / 1000 Ang^3
#
#
#
# Elastic Constant Matrix: (Units=GPa)
#
#
# Indices 1 2 3 4 5 6 
#
# 1 137.8153 56.9501 70.1661 0.0001 1.8650 -0.0007
# 2 56.9501 46.7899 34.0428 0.0011 8.5430 -0.0024
# 3 70.1661 34.0428 67.6620 0.0003 5.3142 -0.0009
# 4 0.0001 0.0011 0.0003 23.8915 0.0002 10.2614
# 5 1.8650 8.5430 5.3142 0.0002 32.4059 -0.0001
# 6 -0.0007 -0.0024 -0.0009 10.2614 -0.0001 32.5634
#
#
#
# Elastic Compliance Matrix: (Units=1/GPa)
#
#
# Indices 1 2 3 4 5 6 
#
# 1 0.021180 -0.016535 -0.014072 0.000002 0.005448 -0.000002
# 2 -0.016535 0.047892 -0.006111 -0.000004 -0.010672 0.000004
# 3 -0.014072 -0.006111 0.032678 0.000000 -0.002938 0.000000
# 4 0.000002 -0.000004 0.000000 0.048408 0.000001 -0.015254
# 5 0.005448 -0.010672 -0.002938 0.000001 0.033840 -0.000001
# 6 -0.000002 0.000004 0.000000 -0.015254 -0.000001 0.035516
#
#
# Mechanical properties :
#
#
# Convention : Reuss Voigt Hill
#
# Bulk Modulus (GPa) = 35.31888 63.84277 49.58083
# Shear Modulus (GPa) = 16.53503 23.84605 20.19054
#
# Velocity S-wave (km/s) = 3.08721 3.70743 3.41144
# Velocity P-wave (km/s) = 5.75029 7.42469 6.64048
#
# Compressibility (1/GPa) = 0.02831347
#
# Stress axis : x y z
#
# Youngs Moduli (GPa) = 47.21448 20.88020 30.60190
#
# Poissons Ratio (x) = 0.34526 0.43064
# Poissons Ratio (y) = 0.78070 0.18700
# Poissons Ratio (z) = 0.66442 0.12759
#
# Static dielectric constant tensor:
#      x y z
#    x 1.584210 0.000000 -0.017800 
#    y 0.000000 1.585610 0.000000 
#    z -0.017800 0.000000 1.573860 
# 
# From -- ./inp_files/383558.got.cif
#   From: 2010.05.17/outbox.cif.g08.bks.cpg/sg12_192_cif.got.tgz:383558.got - 2010.06.03 13:09:07.
