data_PCOD9192903
_publ_section_title
;
Structure prediction by ZEFSAII (Michael W. Deem and Ramdas Pophale) SiO2 
 PCOD9192903
Probable space group: C 2/M
;
_chemical_formula_sum "Si O2"
_cell_formula_units_Z 40
_cell_length_a 15.212396
_cell_length_b 7.610466
_cell_length_c 20.420738
_cell_angle_alpha 90.000000
_cell_angle_beta 56.994404
_cell_angle_gamma 90.000000
_cell_volume 1982.641347
_symmetry_space_group_name_H-M "C 2/M"
_symmetry_group_IT_number 12
_symmetry_cell_setting 'monoclinic'
loop_
_space_group_symop_operation_xyz
x,y,z
-x,y,-z
-x,-y,-z
x,-y,z
1/2+x,1/2+y,z
1/2-x,1/2+y,-z
1/2-x,1/2-y,-z
1/2+x,1/2-y,z
loop_
_atom_site_type_symbol
_atom_site_label
_atom_site_fract_x
_atom_site_fract_y
_atom_site_fract_z
Si Si1 0.789452 0.788663 0.910876
Si Si2 0.665254 0.713287 0.619559
Si Si3 0.098240 0.791527 0.502998
Si Si4 0.908787 0.712611 0.086750
Si Si5 0.022384 0.792027 0.796045
O O1 0.701629 0.724766 0.896499
O O2 0.904782 0.717975 0.848925
O O3 0.793761 0.000000 0.904133
O O4 0.750000 0.750000 0.000000
O O5 0.664750 0.500000 0.618485
O O6 0.787197 0.765931 0.575694
O O7 0.616273 0.776352 0.570066
O O8 0.595650 0.777535 0.708471
O O9 0.000000 0.721563 0.500000
O O10 0.079796 0.000000 0.517070
O O11 0.910158 0.500000 0.085099
O O12 0.928494 0.769260 0.152437
O O13 0.000000 0.772478 0.000000
O O14 0.012504 0.000000 0.787291
#
# Coordination Sequence:
#
# PCOD9192903 Si02
#       5
#     8   8   8   8   8
#     4  10  20  34  52  73 100 135 174 216 262 305
#     4   9  19  35  52  77 110 137 170 213 258 308
#     4   9  18  34  58  82 104 136 173 208 254 313
#     4  10  20  34  52  75 101 133 176 223 263 302
#     4  10  21  35  52  75 105 141 175 214 261 311
#
# _framework density 20.175107000000001
#
# number of rings (size 3 to 8) (size 9 to 14) (size 15 to 20)
#    0.000    2.400    2.000    0.000    0.000    4.000 
#    0.000    4.000    0.000    0.000    0.000    0.000 
#    0.000    0.000    0.000    0.000    0.000    0.000 
#
# Total GULP energy -111601.422004 kJ/mol
# GULP energy per Si atom -5580.071100 kJ/mol
# Density = 2.012919 g / cm^3
# Si number density = 20.175107 Si / 1000 Ang^3
#
#
#
# Elastic Constant Matrix: (Units=GPa)
#
#
# Indices 1 2 3 4 5 6 
#
# 1 204.1992 -1.7955 107.0314 0.0000 -20.7737 0.0001
# 2 -1.7955 37.2323 -7.6817 0.0000 -0.4438 0.0001
# 3 107.0314 -7.6817 194.6555 0.0000 -8.5660 0.0000
# 4 0.0000 0.0000 0.0000 19.4189 0.0000 -2.1626
# 5 -20.7737 -0.4438 -8.5660 0.0000 18.5005 0.0000
# 6 0.0001 0.0001 0.0000 -2.1626 0.0000 5.6558
#
#
#
# Elastic Compliance Matrix: (Units=1/GPa)
#
#
# Indices 1 2 3 4 5 6 
#
# 1 0.007632 -0.000359 -0.003914 0.000000 0.006749 0.000000
# 2 -0.000359 0.027120 0.001305 0.000000 0.000852 -0.000001
# 3 -0.003914 0.001305 0.007297 0.000000 -0.000984 0.000000
# 4 0.000000 0.000000 0.000000 0.053786 0.000000 0.020566
# 5 0.006749 0.000852 -0.000984 0.000000 0.061196 0.000000
# 6 0.000000 -0.000001 0.000000 0.020566 0.000000 0.184672
#
#
# Mechanical properties :
#
#
# Convention : Reuss Voigt Hill
#
# Bulk Modulus (GPa) = 27.68940 70.13283 48.91111
# Shear Modulus (GPa) = 13.90136 31.28390 22.59263
#
# Velocity S-wave (km/s) = 2.62780 3.94206 3.35001
# Velocity P-wave (km/s) = 4.79181 7.45368 6.26573
#
# Compressibility (1/GPa) = 0.03611491
#
# Stress axis : x y z
#
# Youngs Moduli (GPa) = 131.02826 36.87250 137.03590
#
# Poissons Ratio (x) = 0.01324 0.53630
# Poissons Ratio (y) = 0.04703 -0.17885
# Poissons Ratio (z) = 0.51279 -0.04812
#
# Static dielectric constant tensor:
#      x y z
#    x 1.702010 0.000000 -0.013400 
#    y 0.000000 1.786750 0.000000 
#    z -0.013400 0.000000 1.691760 
# 
# From -- ./inp_files/203018.got.cif
#   From: 2010.05.17/outbox.cif.g08.bks.cpg/sg12_102_cif.got.tgz:203018.got - 2010.06.03 13:09:07.
