data_PCOD9192923
_publ_section_title
;
Structure prediction by ZEFSAII (Michael W. Deem and Ramdas Pophale) SiO2 
 PCOD9192923
Probable space group: C 2/M
;
_chemical_formula_sum "Si O2"
_cell_formula_units_Z 56
_cell_length_a 20.284594
_cell_length_b 7.787275
_cell_length_c 31.539901
_cell_angle_alpha 90.000000
_cell_angle_beta 36.253400
_cell_angle_gamma 90.000000
_cell_volume 2946.200292
_symmetry_space_group_name_H-M "C 2/M"
_symmetry_group_IT_number 12
_symmetry_cell_setting 'monoclinic'
loop_
_space_group_symop_operation_xyz
x,y,z
-x,y,-z
-x,-y,-z
x,-y,z
1/2+x,1/2+y,z
1/2-x,1/2+y,-z
1/2-x,1/2-y,-z
1/2+x,1/2-y,z
loop_
_atom_site_type_symbol
_atom_site_label
_atom_site_fract_x
_atom_site_fract_y
_atom_site_fract_z
Si Si1 0.020594 0.289070 0.347944
Si Si2 0.321807 0.204200 0.504526
Si Si3 0.122261 0.705004 0.058874
Si Si4 0.225770 0.792989 0.776896
Si Si5 0.928283 0.706857 0.220572
Si Si6 0.380795 0.203399 0.338815
Si Si7 0.469672 0.703047 0.061674
O O1 0.019442 0.500000 0.348263
O O2 0.147915 0.231276 0.283842
O O3 0.945356 0.235459 0.427412
O O4 0.957702 0.230122 0.337607
O O5 0.250000 0.250000 0.500000
O O6 0.248496 0.273371 0.581160
O O7 0.325265 0.000000 0.507444
O O8 0.111772 0.500000 0.062294
O O9 0.071307 0.776366 0.041741
O O10 0.041333 0.767811 0.138763
O O11 0.250000 0.750000 0.000000
O O12 0.171518 0.750317 0.759775
O O13 0.139619 0.726434 0.857422
O O14 0.228253 0.000000 0.779029
O O15 0.934411 0.500000 0.219946
O O16 0.909411 0.774701 0.277723
O O17 0.401797 0.000000 0.326671
O O18 0.448785 0.500000 0.066635
O O19 0.500000 0.776708 0.000000
#
# Coordination Sequence:
#
# PCOD9192923 Si02
#       7
#     8   8   8   8   8   8   8
#     4   8  15  28  47  69  90 118 156 194 231 273
#     4   9  16  28  46  68  95 124 157 197 239 280
#     4  10  20  34  52  73  99 130 163 200 243 290
#     4   9  17  31  50  69  93 125 158 193 233 282
#     4   9  19  34  50  69  96 128 156 191 241 288
#     4   9  17  31  50  70  93 122 159 198 236 281
#     4   9  18  32  51  74  98 126 162 202 243 289
#
# _framework density 19.007534
#
# number of rings (size 3 to 8) (size 9 to 14) (size 15 to 20)
#    0.000    3.000    0.000    1.714    0.000    2.571 
#    0.000    8.571    0.000    4.286    0.000    0.000 
#    0.000    0.000    0.000    0.000    0.000    0.000 
#
# Total GULP energy -155989.487995 kJ/mol
# GULP energy per Si atom -5571.053143 kJ/mol
# Density = 1.896427 g / cm^3
# Si number density = 19.007534 Si / 1000 Ang^3
#
#
#
# Elastic Constant Matrix: (Units=GPa)
#
#
# Indices 1 2 3 4 5 6 
#
# 1 95.5838 -5.0790 110.2650 0.0018 0.5639 0.0229
# 2 -5.0790 20.7018 -4.1310 0.0074 2.5235 0.0025
# 3 110.2650 -4.1310 166.6145 0.0006 -1.3077 -0.0011
# 4 0.0018 0.0074 0.0006 16.8239 -0.0009 -1.3514
# 5 0.5639 2.5235 -1.3077 -0.0009 38.1692 0.0007
# 6 0.0229 0.0025 -0.0011 -1.3514 0.0007 20.0628
#
#
#
# Elastic Compliance Matrix: (Units=1/GPa)
#
#
# Indices 1 2 3 4 5 6 
#
# 1 0.044911 0.005359 -0.029605 -0.000011 -0.002032 -0.000054
# 2 0.005359 0.049571 -0.002344 -0.000023 -0.003437 -0.000014
# 3 -0.029605 -0.002344 0.025548 0.000006 0.001468 0.000036
# 4 -0.000011 -0.000023 0.000006 0.059763 0.000003 0.004025
# 5 -0.002032 -0.003437 0.001468 0.000003 0.026507 0.000002
# 6 -0.000054 -0.000014 0.000036 0.004025 0.000002 0.050115
#
#
# Mechanical properties :
#
#
# Convention : Reuss Voigt Hill
#
# Bulk Modulus (GPa) = 14.95923 53.89002 34.42463
# Shear Modulus (GPa) = 15.06575 27.13417 21.09996
#
# Velocity S-wave (km/s) = 2.81840 3.78239 3.33541
# Velocity P-wave (km/s) = 4.29866 6.89121 5.74314
#
# Compressibility (1/GPa) = 0.06684835
#
# Stress axis : x y z
#
# Youngs Moduli (GPa) = 22.26612 20.17316 39.14207
#
# Poissons Ratio (x) = -0.10810 1.15881
# Poissons Ratio (y) = -0.11932 0.09176
# Poissons Ratio (z) = 0.65919 0.04729
#
# Static dielectric constant tensor:
#      x y z
#    x 1.624930 0.000000 0.011190 
#    y 0.000000 1.707550 0.000010 
#    z 0.011190 0.000010 1.700930 
# 
# From -- ./inp_files/377678.got.cif
#   From: 2010.05.17/outbox.cif.g08.bks.cpg/sg12_189_cif.got.tgz:377678.got - 2010.06.03 13:09:07.
