data_PCOD9192639
_publ_section_title
;
Structure prediction by ZEFSAII (Michael W. Deem and Ramdas Pophale) SiO2 
 PCOD9192639
Probable space group: C 2/M
;
_chemical_formula_sum "Si O2"
_cell_formula_units_Z 56
_cell_length_a 22.099494
_cell_length_b 7.684369
_cell_length_c 14.805501
_cell_angle_alpha 90.000000
_cell_angle_beta 79.608504
_cell_angle_gamma 90.000000
_cell_volume 2473.041464
_symmetry_space_group_name_H-M "C 2/M"
_symmetry_group_IT_number 12
_symmetry_cell_setting 'monoclinic'
loop_
_space_group_symop_operation_xyz
x,y,z
-x,y,-z
-x,-y,-z
x,-y,z
1/2+x,1/2+y,z
1/2-x,1/2+y,-z
1/2-x,1/2-y,-z
1/2+x,1/2-y,z
loop_
_atom_site_type_symbol
_atom_site_label
_atom_site_fract_x
_atom_site_fract_y
_atom_site_fract_z
Si Si1 0.181270 0.293165 0.552678
Si Si2 0.731370 0.212558 0.724780
Si Si3 0.950179 0.794659 0.940382
Si Si4 0.002163 0.299094 0.400742
Si Si5 0.961740 0.296272 0.226375
Si Si6 0.635069 0.702863 0.376295
Si Si7 0.361527 0.790117 0.109454
O O1 0.171625 0.500000 0.555093
O O2 0.250000 0.250000 0.500000
O O3 0.184933 0.234432 0.655812
O O4 0.139337 0.218419 0.484527
O O5 0.800282 0.270484 0.681760
O O6 0.702833 0.264762 0.828382
O O7 0.732927 0.000000 0.720945
O O8 0.971766 0.716667 0.840121
O O9 0.959055 0.000000 0.929529
O O10 0.884350 0.764513 0.004456
O O11 0.000000 0.723369 0.000000
O O12 0.981134 0.500000 0.416076
O O13 0.965926 0.221148 0.325741
O O14 0.074509 0.297303 0.358724
O O15 0.000000 0.214448 0.500000
O O16 0.946326 0.500000 0.240642
O O17 0.912904 0.223949 0.167693
O O18 0.629671 0.500000 0.354415
O O19 0.362814 0.000000 0.109000
#
# Coordination Sequence:
#
# PCOD9192639 Si02
#       7
#     8   8   8   8   8   8   8
#     4   9  16  28  47  69  97 131 169 209 252 297
#     4   8  16  29  49  74  99 129 165 206 253 299
#     4   9  17  30  48  73 105 133 157 197 255 307
#     4  10  22  37  54  75  99 133 177 218 251 293
#     4   9  18  32  52  75  98 130 171 207 247 300
#     4  10  20  34  49  70 101 137 174 209 253 306
#     4   9  16  29  52  78 101 127 163 207 249 300
#
# _framework density 22.644179999999999
#
# number of rings (size 3 to 8) (size 9 to 14) (size 15 to 20)
#    0.000    2.857    0.000    2.143    2.000    2.571 
#    0.000    4.286    0.000    0.857    0.000    0.000 
#    0.000    0.000    0.000    0.000    0.000    0.000 
#
# Total GULP energy -156114.254872 kJ/mol
# GULP energy per Si atom -5575.509103 kJ/mol
# Density = 2.259264 g / cm^3
# Si number density = 22.644180 Si / 1000 Ang^3
#
#
#
# Elastic Constant Matrix: (Units=GPa)
#
#
# Indices 1 2 3 4 5 6 
#
# 1 58.0187 -0.7927 9.0077 0.0000 -13.2986 0.0000
# 2 -0.7927 50.7853 -2.7243 0.0000 1.0406 0.0000
# 3 9.0077 -2.7243 87.8208 0.0000 -20.1146 0.0000
# 4 0.0000 0.0000 0.0000 5.2147 0.0000 -0.2034
# 5 -13.2986 1.0406 -20.1146 0.0000 32.4935 0.0000
# 6 0.0000 0.0000 0.0000 -0.2034 0.0000 10.9624
#
#
#
# Elastic Compliance Matrix: (Units=1/GPa)
#
#
# Indices 1 2 3 4 5 6 
#
# 1 0.019024 0.000130 -0.000192 0.000000 0.007663 0.000000
# 2 0.000130 0.019727 0.000543 0.000000 -0.000242 0.000000
# 3 -0.000192 0.000543 0.013285 0.000000 0.008128 0.000000
# 4 0.000000 0.000000 0.000000 0.191906 0.000000 0.003561
# 5 0.007663 -0.000242 0.008128 0.000000 0.038951 0.000000
# 6 0.000000 0.000000 0.000000 0.003561 0.000000 0.091287
#
#
# Mechanical properties :
#
#
# Convention : Reuss Voigt Hill
#
# Bulk Modulus (GPa) = 18.86904 23.06736 20.96820
# Shear Modulus (GPa) = 12.79153 22.47640 17.63397
#
# Velocity S-wave (km/s) = 2.37933 3.15396 2.79362
# Velocity P-wave (km/s) = 3.98738 4.84482 4.43686
#
# Compressibility (1/GPa) = 0.05299686
#
# Stress axis : x y z
#
# Youngs Moduli (GPa) = 52.56565 50.69234 75.27294
#
# Poissons Ratio (x) = -0.00657 0.01446
# Poissons Ratio (y) = -0.00681 -0.04088
# Poissons Ratio (z) = 0.01010 -0.02753
#
# Static dielectric constant tensor:
#      x y z
#    x 1.867500 0.000000 -0.040790 
#    y 0.000000 1.848060 0.000000 
#    z -0.040790 0.000000 1.900730 
# 
# From -- ./inp_files/243035.got.cif
#   From: 2010.05.17/outbox.cif.g08.bks.cpg/sg12_122_cif.got.tgz:243035.got - 2010.06.03 13:09:07.
