data_PCOD9192479
_publ_section_title
;
Structure prediction by ZEFSAII (Michael W. Deem and Ramdas Pophale) SiO2 
 PCOD9192479
Probable space group: C 2/M
;
_chemical_formula_sum "Si O2"
_cell_formula_units_Z 40
_cell_length_a 27.684238
_cell_length_b 18.804420
_cell_length_c 9.503014
_cell_angle_alpha 90.000000
_cell_angle_beta 26.591667
_cell_angle_gamma 90.000000
_cell_volume 2214.481918
_symmetry_space_group_name_H-M "C 2/M"
_symmetry_group_IT_number 12
_symmetry_cell_setting 'monoclinic'
loop_
_space_group_symop_operation_xyz
x,y,z
-x,y,-z
-x,-y,-z
x,-y,z
1/2+x,1/2+y,z
1/2-x,1/2+y,-z
1/2-x,1/2-y,-z
1/2+x,1/2-y,z
loop_
_atom_site_type_symbol
_atom_site_label
_atom_site_fract_x
_atom_site_fract_y
_atom_site_fract_z
Si Si1 0.613201 0.650995 0.768792
Si Si2 0.938038 0.305214 0.963812
Si Si3 0.295158 0.189667 0.073315
Si Si4 0.312007 0.161865 0.716335
Si Si5 0.283261 0.081833 0.519108
O O1 0.697737 0.659880 0.421510
O O2 0.671541 0.602608 0.733078
O O3 0.500000 0.625826 0.000000
O O4 0.594769 0.728947 0.886148
O O5 0.065499 0.315397 0.638332
O O6 0.898055 0.310090 0.907115
O O7 0.872855 0.365811 0.217872
O O8 0.264783 0.270982 0.116099
O O9 0.306978 0.148515 0.896001
O O10 0.279790 0.099945 0.693384
O O11 0.309815 0.000000 0.425265
#
# Coordination Sequence:
#
# PCOD9192479 Si02
#       5
#     8   8   8   8   8
#     4  11  19  38  61  85 110 148 196 243 277 329
#     4  11  19  37  59  88 112 146 192 240 281 334
#     4  10  20  33  56  88 115 140 185 242 285 326
#     4  11  20  34  56  88 115 146 185 236 292 331
#     4  11  23  38  58  83 119 155 189 230 283 346
#
# _framework density 18.062916000000001
#
# number of rings (size 3 to 8) (size 9 to 14) (size 15 to 20)
#    0.000    1.200    6.000    2.400    0.000    2.000 
#    0.000    5.000    0.000    7.200    0.000    0.000 
#    0.000    0.000    0.000    0.000    0.000    0.000 
#
# Total GULP energy -111675.048297 kJ/mol
# GULP energy per Si atom -5583.752415 kJ/mol
# Density = 1.802180 g / cm^3
# Si number density = 18.062916 Si / 1000 Ang^3
#
#
#
# Elastic Constant Matrix: (Units=GPa)
#
#
# Indices 1 2 3 4 5 6 
#
# 1 143.1559 29.8889 31.4670 0.0000 19.6409 0.0000
# 2 29.8889 43.3785 14.8441 0.0000 -1.1950 0.0000
# 3 31.4670 14.8441 40.9138 0.0000 12.0992 0.0000
# 4 0.0000 0.0000 0.0000 6.3629 0.0000 6.4796
# 5 19.6409 -1.1950 12.0992 0.0000 24.7516 0.0000
# 6 0.0000 0.0000 0.0000 6.4796 0.0000 13.1997
#
#
#
# Elastic Compliance Matrix: (Units=1/GPa)
#
#
# Indices 1 2 3 4 5 6 
#
# 1 0.009842 -0.005713 -0.003631 0.000000 -0.006311 0.000000
# 2 -0.005713 0.030699 -0.009963 0.000000 0.010886 0.000000
# 3 -0.003631 -0.009963 0.035232 0.000000 -0.014822 0.000000
# 4 0.000000 0.000000 0.000000 0.314250 0.000000 -0.154262
# 5 -0.006311 0.010886 -0.014822 0.000000 0.053181 0.000000
# 6 0.000000 0.000000 0.000000 -0.154262 0.000000 0.151485
#
#
# Mechanical properties :
#
#
# Convention : Reuss Voigt Hill
#
# Bulk Modulus (GPa) = 26.91116 42.20536 34.55826
# Shear Modulus (GPa) = 7.74369 18.94605 13.34487
#
# Velocity S-wave (km/s) = 2.07277 3.24217 2.72103
# Velocity P-wave (km/s) = 4.54526 6.11817 5.38941
#
# Compressibility (1/GPa) = 0.03715931
#
# Stress axis : x y z
#
# Youngs Moduli (GPa) = 101.60482 32.57486 28.38328
#
# Poissons Ratio (x) = 0.18610 0.10305
# Poissons Ratio (y) = 0.58046 0.28279
# Poissons Ratio (z) = 0.36888 0.32455
#
# Static dielectric constant tensor:
#      x y z
#    x 1.657440 0.000000 0.009480 
#    y 0.000000 1.585040 0.000000 
#    z 0.009480 0.000000 1.614180 
# 
# From -- ./inp_files/59213.got.cif
#   From: 2010.05.17/outbox.cif.g08.bks.cpg/sg12_30_cif.got.tgz:59213.got - 2010.06.03 13:09:07.
