data_PCOD9192267
_publ_section_title
;
Structure prediction by ZEFSAII (Michael W. Deem and Ramdas Pophale) SiO2 
 PCOD9192267
Probable space group: C 2/M
;
_chemical_formula_sum "Si O2"
_cell_formula_units_Z 64
_cell_length_a 19.334205
_cell_length_b 23.065627
_cell_length_c 9.094849
_cell_angle_alpha 90.000000
_cell_angle_beta 60.285017
_cell_angle_gamma 90.000000
_cell_volume 3522.555627
_symmetry_space_group_name_H-M "C 2/M"
_symmetry_group_IT_number 12
_symmetry_cell_setting 'monoclinic'
loop_
_space_group_symop_operation_xyz
x,y,z
-x,y,-z
-x,-y,-z
x,-y,z
1/2+x,1/2+y,z
1/2-x,1/2+y,-z
1/2-x,1/2-y,-z
1/2+x,1/2-y,z
loop_
_atom_site_type_symbol
_atom_site_label
_atom_site_fract_x
_atom_site_fract_y
_atom_site_fract_z
Si Si1 0.602160 0.372327 0.512776
Si Si2 0.415101 0.932729 0.436799
Si Si3 0.504767 0.841435 0.169575
Si Si4 0.357866 0.853764 0.756553
Si Si5 0.553385 0.569143 0.256562
Si Si6 0.080107 0.264086 0.512527
Si Si7 0.208338 0.066954 0.903845
Si Si8 0.234421 0.934722 0.533822
O O1 0.530729 0.399798 0.686177
O O2 0.585806 0.401424 0.371771
O O3 0.596059 0.303394 0.513300
O O4 0.687372 0.390951 0.482527
O O5 0.475951 0.903408 0.261547
O O6 0.407435 0.898632 0.599501
O O7 0.328464 0.926499 0.451820
O O8 0.429870 0.000000 0.447592
O O9 0.591809 0.835231 0.153406
O O10 0.443766 0.796218 0.311566
O O11 0.500000 0.837272 0.000000
O O12 0.352995 0.798660 0.650965
O O13 0.275972 0.886854 0.878167
O O14 0.541113 0.500000 0.288570
O O15 0.622746 0.577666 0.065062
O O16 0.000000 0.270447 0.500000
O O17 0.203114 0.069925 0.733471
O O18 0.232593 0.000000 0.914809
O O19 0.218778 0.000000 0.496022
#
# Coordination Sequence:
#
# PCOD9192267 Si02
#       8
#     8   8   8   8   8   8   8   8
#     4  11  19  34  55  76 104 142 184 216 268 319
#     4   9  18  34  55  79 107 143 180 213 263 328
#     4  10  21  35  53  79 110 135 176 229 272 310
#     4   9  18  35  59  74 103 147 182 213 264 318
#     4  10  20  33  54  81 110 137 176 224 272 326
#     4   9  18  37  56  73 100 147 184 222 254 316
#     4   9  19  36  54  80 112 139 172 220 268 318
#     4   9  18  33  53  77 109 139 172 219 266 315
#
# _framework density 18.168627999999998
#
# number of rings (size 3 to 8) (size 9 to 14) (size 15 to 20)
#    0.000    2.500    1.250    3.750    0.000    3.250 
#    2.250    9.375    0.000    0.000    0.000    0.000 
#    0.000    0.000    0.000    0.000    0.000    0.000 
#
# Total GULP energy -178355.955834 kJ/mol
# GULP energy per Si atom -5573.623620 kJ/mol
# Density = 1.812727 g / cm^3
# Si number density = 18.168628 Si / 1000 Ang^3
#
#
#
# Elastic Constant Matrix: (Units=GPa)
#
#
# Indices 1 2 3 4 5 6 
#
# 1 43.6288 25.5463 11.9732 0.0000 10.5244 0.0000
# 2 25.5463 114.3214 14.1157 0.0000 1.0827 0.0000
# 3 11.9732 14.1157 45.1707 0.0000 3.5295 0.0000
# 4 0.0000 0.0000 0.0000 -1.2995 0.0000 -5.9634
# 5 10.5244 1.0827 3.5295 0.0000 23.3624 0.0000
# 6 0.0000 0.0000 0.0000 -5.9634 0.0000 51.8104
#
#
#
# Elastic Compliance Matrix: (Units=1/GPa)
#
#
# Indices 1 2 3 4 5 6 
#
# 1 0.031111 -0.006174 -0.005307 0.000000 -0.012927 0.000000
# 2 -0.006174 0.010324 -0.001791 0.000000 0.002574 0.000000
# 3 -0.005307 -0.001791 0.024197 0.000000 -0.001182 0.000000
# 4 0.000000 0.000000 0.000000 -0.503561 0.000000 -0.057960
# 5 -0.012927 0.002574 -0.001182 0.000000 0.048686 0.000000
# 6 0.000000 0.000000 0.000000 -0.057960 0.000000 0.012630
#
#
# Mechanical properties :
#
#
# Convention : Reuss Voigt Hill
#
# Bulk Modulus (GPa) = 25.58352 34.04347 29.81350
# Shear Modulus (GPa) = -14.83501 24.87372 5.01936
#
# Velocity S-wave (km/s) = -2.86058 3.70408 1.66393
# Velocity P-wave (km/s) = 1.78918 6.08866 4.48737
#
# Compressibility (1/GPa) = 0.03908766
#
# Stress axis : x y z
#
# Youngs Moduli (GPa) = 32.14333 96.86442 41.32773
#
# Poissons Ratio (x) = 0.59807 0.21932
# Poissons Ratio (y) = 0.19846 0.07400
# Poissons Ratio (z) = 0.17058 0.17345
#
# Static dielectric constant tensor:
#      x y z
#    x 1.636220 0.000000 -0.012640 
#    y 0.000000 1.628910 0.000000 
#    z -0.012640 0.000000 1.623560 
# 
# From -- ./inp_files/89588.got.cif
#   From: 2010.05.17/outbox.cif.g08.bks.cpg/sg12_45_cif.got.tgz:89588.got - 2010.06.03 13:09:07.
