data_PCOD9192054
_publ_section_title
;
Structure prediction by ZEFSAII (Michael W. Deem and Ramdas Pophale) SiO2 
 PCOD9192054
Probable space group: C 2/M
;
_chemical_formula_sum "Si O2"
_cell_formula_units_Z 40
_cell_length_a 28.699317
_cell_length_b 7.540018
_cell_length_c 26.083134
_cell_angle_alpha 90.000000
_cell_angle_beta 19.962425
_cell_angle_gamma 90.000000
_cell_volume 1926.957264
_symmetry_space_group_name_H-M "C 2/M"
_symmetry_group_IT_number 12
_symmetry_cell_setting 'monoclinic'
loop_
_space_group_symop_operation_xyz
x,y,z
-x,y,-z
-x,-y,-z
x,-y,z
1/2+x,1/2+y,z
1/2-x,1/2+y,-z
1/2-x,1/2-y,-z
1/2+x,1/2-y,z
loop_
_atom_site_type_symbol
_atom_site_label
_atom_site_fract_x
_atom_site_fract_y
_atom_site_fract_z
Si Si1 0.198815 0.500000 0.339289
Si Si2 0.999572 0.216558 0.817930
Si Si3 0.807664 0.298457 0.865078
Si Si4 0.782707 0.294016 0.328357
Si Si5 0.376490 0.000000 0.697344
Si Si6 0.409569 0.298052 0.382678
O O1 0.265179 0.671565 0.297235
O O2 0.203614 0.500000 0.272985
O O3 0.037559 0.500000 0.520059
O O4 0.070635 0.279176 0.796228
O O5 0.086033 0.278516 0.679019
O O6 0.998220 0.000000 0.819655
O O7 0.843421 0.275794 0.973235
O O8 0.807337 0.500000 0.887444
O O9 0.839110 0.333617 0.772432
O O10 0.933527 0.202522 0.760849
O O11 0.750004 0.500000 0.351712
O O12 0.680235 0.219000 0.478729
O O13 0.362132 0.500000 0.427033
#
# Coordination Sequence:
#
# PCOD9192054 Si02
#       6
#     4   8   8   8   4   8
#     4  11  20  41  65  83 119 147 193 257 288 330
#     4  10  20  34  54  81 118 158 185 230 290 344
#     4   9  18  35  55  82 109 146 197 231 283 348
#     4  11  22  37  57  86 116 151 195 237 284 346
#     4   9  20  37  65  87 103 155 201 235 304 340
#     4  10  20  33  52  82 117 153 192 233 280 339
#
# _framework density 20.758115
#
# number of rings (size 3 to 8) (size 9 to 14) (size 15 to 20)
#    0.600    1.400    3.000    1.200    0.000    1.600 
#    0.000    5.000    0.000    1.200    0.000    0.000 
#    0.000    0.000    0.000    0.000    0.000    0.000 
#
# Total GULP energy -111605.770784 kJ/mol
# GULP energy per Si atom -5580.288539 kJ/mol
# Density = 2.071087 g / cm^3
# Si number density = 20.758115 Si / 1000 Ang^3
#
#
#
# Elastic Constant Matrix: (Units=GPa)
#
#
# Indices 1 2 3 4 5 6 
#
# 1 130.3205 28.5972 -1.9956 0.0095 -8.6202 0.0004
# 2 28.5972 81.6116 1.7079 -0.0040 -6.1809 0.0029
# 3 -1.9956 1.7079 55.0124 -0.0019 -16.0128 0.0009
# 4 0.0095 -0.0040 -0.0019 17.1396 0.0007 -11.1150
# 5 -8.6202 -6.1809 -16.0128 0.0007 29.7977 0.0007
# 6 0.0004 0.0029 0.0009 -11.1150 0.0007 14.9212
#
#
#
# Elastic Compliance Matrix: (Units=1/GPa)
#
#
# Indices 1 2 3 4 5 6 
#
# 1 0.008469 -0.002804 0.001112 -0.000010 0.002466 -0.000007
# 2 -0.002804 0.013386 0.000065 0.000006 0.002000 0.000002
# 3 0.001112 0.000065 0.021709 0.000000 0.012001 -0.000002
# 4 -0.000010 0.000006 0.000000 0.112868 -0.000006 0.084077
# 5 0.002466 0.002000 0.012001 -0.000006 0.041137 -0.000008
# 6 -0.000007 0.000002 -0.000002 0.084077 -0.000008 0.129649
#
#
# Mechanical properties :
#
#
# Convention : Reuss Voigt Hill
#
# Bulk Modulus (GPa) = 24.80773 35.95149 30.37961
# Shear Modulus (GPa) = 14.53869 28.28070 21.40970
#
# Velocity S-wave (km/s) = 2.64935 3.69506 3.21501
# Velocity P-wave (km/s) = 4.61904 5.96335 5.33372
#
# Compressibility (1/GPa) = 0.04031001
#
# Stress axis : x y z
#
# Youngs Moduli (GPa) = 118.07990 74.70567 46.06299
#
# Poissons Ratio (x) = 0.20948 -0.05122
# Poissons Ratio (y) = 0.33110 -0.00299
# Poissons Ratio (z) = -0.13131 -0.00485
#
# Static dielectric constant tensor:
#      x y z
#    x 1.726170 0.000010 0.010910 
#    y 0.000010 2.028600 -0.000080 
#    z 0.010910 -0.000080 1.770090 
# 
# From -- ./inp_files/107541.got.cif
#   From: 2010.05.17/outbox.cif.g08.bks.cpg/sg12_54_cif.got.tgz:107541.got - 2010.06.03 13:09:07.
