data_PCOD9192497
_publ_section_title
;
Structure prediction by ZEFSAII (Michael W. Deem and Ramdas Pophale) SiO2 
 PCOD9192497
Probable space group: C 2/M
;
_chemical_formula_sum "Si O2"
_cell_formula_units_Z 56
_cell_length_a 17.211244
_cell_length_b 14.620335
_cell_length_c 14.411620
_cell_angle_alpha 90.000000
_cell_angle_beta 125.889871
_cell_angle_gamma 90.000000
_cell_volume 2937.956077
_symmetry_space_group_name_H-M "C 2/M"
_symmetry_group_IT_number 12
_symmetry_cell_setting 'monoclinic'
loop_
_space_group_symop_operation_xyz
x,y,z
-x,y,-z
-x,-y,-z
x,-y,z
1/2+x,1/2+y,z
1/2-x,1/2+y,-z
1/2-x,1/2-y,-z
1/2+x,1/2-y,z
loop_
_atom_site_type_symbol
_atom_site_label
_atom_site_fract_x
_atom_site_fract_y
_atom_site_fract_z
Si Si1 0.216500 0.708136 0.701787
Si Si2 0.736271 0.354814 0.464435
Si Si3 0.907049 0.398789 0.703433
Si Si4 0.480682 0.605419 0.733162
Si Si5 0.460570 0.110168 0.371517
Si Si6 0.066638 0.759921 0.135267
Si Si7 0.903417 0.107982 0.370713
O O1 0.223711 0.646204 0.612784
O O2 0.142001 0.655298 0.713752
O O3 0.324838 0.711015 0.813585
O O4 0.171858 0.810853 0.656770
O O5 0.750000 0.250000 0.500000
O O6 0.801747 0.404341 0.584901
O O7 0.625851 0.383200 0.386136
O O8 0.941081 0.500000 0.750276
O O9 0.916957 0.333353 0.796733
O O10 0.969438 0.360366 0.661508
O O11 0.490851 0.500000 0.768796
O O12 0.478464 0.670422 0.820920
O O13 0.559569 0.623846 0.709133
O O14 0.500000 0.140079 0.500000
O O15 0.456661 0.000000 0.369365
O O16 0.000000 0.751150 0.000000
O O17 0.000000 0.117249 0.500000
O O18 0.871934 0.000000 0.357152
#
# Coordination Sequence:
#
# PCOD9192497 Si02
#       7
#     8   8   8   8   8   8   8
#     4  11  21  34  61  83 119 153 185 241 288 348
#     4  11  19  33  54  92 121 154 184 227 296 355
#     4  11  22  38  60  85 120 155 190 238 293 352
#     4  10  21  38  61  86 121 155 191 240 290 350
#     4  10  20  33  56  92 125 149 176 224 296 368
#     4  11  26  44  59  81 111 157 215 252 284 325
#     4  10  21  34  55  92 127 152 178 222 294 369
#
# _framework density 19.060870000000001
#
# number of rings (size 3 to 8) (size 9 to 14) (size 15 to 20)
#    0.000    1.429    4.286    2.571    0.000    3.429 
#    0.000    2.857    0.000    3.429    0.000    0.000 
#    0.000    0.000    0.000    0.000    0.000    0.000 
#
# Total GULP energy -156278.568755 kJ/mol
# GULP energy per Si atom -5581.377456 kJ/mol
# Density = 1.901749 g / cm^3
# Si number density = 19.060870 Si / 1000 Ang^3
#
#
#
# Elastic Constant Matrix: (Units=GPa)
#
#
# Indices 1 2 3 4 5 6 
#
# 1 71.3242 7.0365 33.4156 0.0000 -0.1664 0.0000
# 2 7.0365 54.9456 25.8205 0.0000 -7.0732 0.0000
# 3 33.4156 25.8205 129.8725 0.0000 -1.3106 0.0000
# 4 0.0000 0.0000 0.0000 -7.3915 0.0000 8.8566
# 5 -0.1664 -7.0732 -1.3106 0.0000 13.8103 0.0000
# 6 0.0000 0.0000 0.0000 8.8566 0.0000 0.7221
#
#
#
# Elastic Compliance Matrix: (Units=1/GPa)
#
#
# Indices 1 2 3 4 5 6 
#
# 1 0.015944 -0.000164 -0.004073 0.000000 -0.000278 0.000000
# 2 -0.000164 0.021531 -0.004131 0.000000 0.010634 0.000000
# 3 -0.004073 -0.004131 0.009556 0.000000 -0.001258 0.000000
# 4 0.000000 0.000000 0.000000 -0.008620 0.000000 0.105717
# 5 -0.000278 0.010634 -0.001258 0.000000 0.077733 0.000000
# 6 0.000000 0.000000 0.000000 0.105717 0.000000 0.088228
#
#
# Mechanical properties :
#
#
# Convention : Reuss Voigt Hill
#
# Bulk Modulus (GPa) = 33.00747 43.18748 38.09748
# Shear Modulus (GPa) = 21.62567 14.08619 17.85593
#
# Velocity S-wave (km/s) = 3.37197 2.72142 3.06401
# Velocity P-wave (km/s) = 5.70217 5.70804 5.70511
#
# Compressibility (1/GPa) = 0.03029617
#
# Stress axis : x y z
#
# Youngs Moduli (GPa) = 62.71952 46.44457 104.64244
#
# Poissons Ratio (x) = 0.00761 0.42616
# Poissons Ratio (y) = 0.01028 0.43230
# Poissons Ratio (z) = 0.25543 0.19187
#
# Static dielectric constant tensor:
#      x y z
#    x 1.735500 0.000000 -0.034510 
#    y 0.000000 1.780630 0.000000 
#    z -0.034510 0.000000 1.654860 
# 
# From -- ./inp_files/225377.got.cif
#   From: 2010.05.17/outbox.cif.g08.bks.cpg/sg12_113_cif.got.tgz:225377.got - 2010.06.03 13:09:07.
