data_PCOD9192184
_publ_section_title
;
Structure prediction by ZEFSAII (Michael W. Deem and Ramdas Pophale) SiO2 
 PCOD9192184
Probable space group: C 2/M
;
_chemical_formula_sum "Si O2"
_cell_formula_units_Z 58
_cell_length_a 19.538457
_cell_length_b 7.379626
_cell_length_c 17.414726
_cell_angle_alpha 90.000000
_cell_angle_beta 114.642677
_cell_angle_gamma 90.000000
_cell_volume 2282.284007
_symmetry_space_group_name_H-M "C 2/M"
_symmetry_group_IT_number 12
_symmetry_cell_setting 'monoclinic'
loop_
_space_group_symop_operation_xyz
x,y,z
-x,y,-z
-x,-y,-z
x,-y,z
1/2+x,1/2+y,z
1/2-x,1/2+y,-z
1/2-x,1/2-y,-z
1/2+x,1/2-y,z
loop_
_atom_site_type_symbol
_atom_site_label
_atom_site_fract_x
_atom_site_fract_y
_atom_site_fract_z
Si Si1 0.547742 0.716182 0.778203
Si Si2 0.291011 0.205566 0.862348
Si Si3 0.603533 0.703551 0.962262
Si Si4 0.386675 0.719403 0.767156
Si Si5 0.152887 0.221607 0.696882
Si Si6 0.418071 0.721390 0.489475
Si Si7 0.824416 0.784470 0.583565
Si Si8 0.000000 0.500000 0.000000
O O1 0.538165 0.500000 0.763297
O O2 0.608439 0.747125 0.874160
O O3 0.468101 0.779100 0.774248
O O4 0.580577 0.780014 0.713107
O O5 0.362412 0.203950 0.837394
O O6 0.225315 0.285148 0.778325
O O7 0.269605 0.000000 0.871179
O O8 0.319429 0.293265 0.953627
O O9 0.571566 0.500000 0.951239
O O10 0.547804 0.843484 0.975434
O O11 0.386122 0.500000 0.774849
O O12 0.329428 0.781244 0.673054
O O13 0.141524 0.278107 0.603896
O O14 0.155712 0.000000 0.697170
O O15 0.500000 0.778684 0.500000
O O16 0.418749 0.500000 0.491600
O O17 0.392205 0.782631 0.561101
O O18 0.750000 0.750000 0.500000
O O19 0.833255 0.000000 0.594243
#
# Coordination Sequence:
#
# PCOD9192184 Si02
#       8
#     8   8   8   8   8   8   8   2
#     4   9  19  36  58  85 116 157 204 256 310 363
#     4  11  22  37  58  87 123 162 205 256 312 379
#     4  11  23  39  63  92 127 168 207 259 311 368
#     4  10  20  35  56  81 114 152 199 255 310 367
#     4   9  18  33  55  83 118 159 206 256 312 371
#     4   9  16  29  53  84 115 150 201 257 304 363
#     4  10  20  33  53  82 114 151 193 243 306 369
#     4  12  22  40  64  94 128 160 210 254 308 370
#
# _framework density 25.413139000000001
#
# number of rings (size 3 to 8) (size 9 to 14) (size 15 to 20)
#    0.000    2.069    0.690    3.103    0.000    6.621 
#    0.000    0.000    3.034    0.414    0.000    0.000 
#    0.000    0.000    0.000    0.000    0.000    0.000 
#
# Total GULP energy -161990.844618 kJ/mol
# GULP energy per Si atom -5585.891194 kJ/mol
# Density = 2.535530 g / cm^3
# Si number density = 25.413139 Si / 1000 Ang^3
#
#
#
# Elastic Constant Matrix: (Units=GPa)
#
#
# Indices 1 2 3 4 5 6 
#
# 1 50.8712 -14.7191 -4.5099 0.0000 1.7189 0.0000
# 2 -14.7191 111.4974 -0.9407 0.0000 -6.4179 0.0000
# 3 -4.5099 -0.9407 114.3519 0.0000 -1.5821 0.0000
# 4 0.0000 0.0000 0.0000 11.2644 0.0000 5.6966
# 5 1.7189 -6.4179 -1.5821 0.0000 34.9494 0.0000
# 6 0.0000 0.0000 0.0000 5.6966 0.0000 3.6807
#
#
#
# Elastic Compliance Matrix: (Units=1/GPa)
#
#
# Indices 1 2 3 4 5 6 
#
# 1 0.020525 0.002689 0.000825 0.000000 -0.000478 0.000000
# 2 0.002689 0.009418 0.000206 0.000000 0.001607 0.000000
# 3 0.000825 0.000206 0.008785 0.000000 0.000395 0.000000
# 4 0.000000 0.000000 0.000000 0.408501 0.000000 -0.632224
# 5 -0.000478 0.001607 0.000395 0.000000 0.028949 0.000000
# 6 0.000000 0.000000 0.000000 -0.632224 0.000000 1.250157
#
#
# Mechanical properties :
#
#
# Convention : Reuss Voigt Hill
#
# Bulk Modulus (GPa) = 21.66057 26.26458 23.96258
# Shear Modulus (GPa) = 2.88303 29.77159 16.32731
#
# Velocity S-wave (km/s) = 1.06627 3.42644 2.53746
# Velocity P-wave (km/s) = 3.17140 5.10014 4.24672
#
# Compressibility (1/GPa) = 0.04616683
#
# Stress axis : x y z
#
# Youngs Moduli (GPa) = 48.72150 106.17966 113.83525
#
# Poissons Ratio (x) = -0.28551 -0.09391
# Poissons Ratio (y) = -0.13101 -0.02342
# Poissons Ratio (z) = -0.04019 -0.02185
#
# Static dielectric constant tensor:
#      x y z
#    x 2.001040 0.000000 0.035700 
#    y 0.000000 2.022070 0.000000 
#    z 0.035700 0.000000 2.331930 
# 
# From -- ./inp_files/282251.got.cif
#   From: 2010.05.17/outbox.cif.g08.bks.cpg/sg12_142_cif.got.tgz:282251.got - 2010.06.03 13:09:07.
