data_PCOD9192486
_publ_section_title
;
Structure prediction by ZEFSAII (Michael W. Deem and Ramdas Pophale) SiO2 
 PCOD9192486
Probable space group: C 2/M
;
_chemical_formula_sum "Si O2"
_cell_formula_units_Z 56
_cell_length_a 19.163970
_cell_length_b 14.480018
_cell_length_c 17.662164
_cell_angle_alpha 90.000000
_cell_angle_beta 148.889123
_cell_angle_gamma 90.000000
_cell_volume 2532.406909
_symmetry_space_group_name_H-M "C 2/M"
_symmetry_group_IT_number 12
_symmetry_cell_setting 'monoclinic'
loop_
_space_group_symop_operation_xyz
x,y,z
-x,y,-z
-x,-y,-z
x,-y,z
1/2+x,1/2+y,z
1/2-x,1/2+y,-z
1/2-x,1/2-y,-z
1/2+x,1/2-y,z
loop_
_atom_site_type_symbol
_atom_site_label
_atom_site_fract_x
_atom_site_fract_y
_atom_site_fract_z
Si Si1 0.404272 0.000000 0.983666
Si Si2 0.603340 0.187387 0.946020
Si Si3 0.664889 0.500000 0.646855
Si Si4 0.316253 0.903041 0.218065
Si Si5 0.583432 0.273061 0.770350
Si Si6 0.772625 0.395088 0.358917
Si Si7 0.604700 0.309543 0.526704
Si Si8 0.023813 0.865066 0.936965
O O1 0.252759 0.000000 0.805924
O O2 0.500000 0.000000 0.000000
O O3 0.434015 0.913110 0.063773
O O4 0.544239 0.234889 0.815890
O O5 0.555090 0.256397 0.966668
O O6 0.765649 0.186443 0.085841
O O7 0.500000 0.500000 0.500000
O O8 0.692355 0.400034 0.631985
O O9 0.397769 0.817690 0.263868
O O10 0.294884 0.896710 0.288174
O O11 0.382077 0.000000 0.260791
O O12 0.167438 0.901594 0.042259
O O13 0.479195 0.334292 0.627076
O O14 0.818823 0.500000 0.426171
O O15 0.826347 0.290567 0.426152
O O16 0.613685 0.390460 0.231499
O O17 0.500000 0.295923 0.500000
O O18 0.000000 0.897951 0.000000
#
# Coordination Sequence:
#
# PCOD9192486 Si02
#       8
#     4   8   4   8   8   8   8   8
#     4  12  26  40  70 104 131 169 233 291 342 386
#     4  10  22  39  59  90 122 162 208 269 334 389
#     4  10  24  40  68  94 126 177 227 281 322 388
#     4   9  17  30  54  83 114 150 195 250 312 370
#     4  10  21  38  60  86 123 164 204 266 333 387
#     4  10  20  33  56  89 119 155 200 253 313 385
#     4  11  21  38  61  90 124 164 217 265 323 388
#     4   9  18  33  57  79 115 153 199 249 306 381
#
# _framework density 22.113351000000002
#
# number of rings (size 3 to 8) (size 9 to 14) (size 15 to 20)
#    0.000    2.000    1.429    2.571    7.000    2.571 
#    0.000    0.714    3.143    0.000    0.000    0.000 
#    0.000    0.000    0.000    0.000    0.000    0.000 
#
# Total GULP energy -155929.561222 kJ/mol
# GULP energy per Si atom -5568.912901 kJ/mol
# Density = 2.206302 g / cm^3
# Si number density = 22.113351 Si / 1000 Ang^3
#
#
#
# Elastic Constant Matrix: (Units=GPa)
#
#
# Indices 1 2 3 4 5 6 
#
# 1 49.9701 16.2616 13.3425 0.0000 -5.8595 0.0000
# 2 16.2616 146.1035 5.0471 0.0000 7.9791 0.0000
# 3 13.3425 5.0471 72.4689 -0.0001 3.3199 -0.0001
# 4 0.0000 0.0000 -0.0001 76.5387 0.0000 23.0063
# 5 -5.8595 7.9791 3.3199 0.0000 26.9971 0.0000
# 6 0.0000 0.0000 -0.0001 23.0063 0.0000 20.6308
#
#
#
# Elastic Compliance Matrix: (Units=1/GPa)
#
#
# Indices 1 2 3 4 5 6 
#
# 1 0.022783 -0.002730 -0.004292 0.000000 0.006280 0.000000
# 2 -0.002730 0.007295 0.000121 0.000000 -0.002764 0.000000
# 3 -0.004292 0.000121 0.014708 0.000000 -0.002776 0.000000
# 4 0.000000 0.000000 0.000000 0.019653 0.000000 -0.021916
# 5 0.006280 -0.002764 -0.002776 0.000000 0.039562 0.000000
# 6 0.000000 0.000000 0.000000 -0.021916 0.000000 0.072910
#
#
# Mechanical properties :
#
#
# Convention : Reuss Voigt Hill
#
# Bulk Modulus (GPa) = 32.27547 37.53834 34.90691
# Shear Modulus (GPa) = 24.87045 40.42607 32.64826
#
# Velocity S-wave (km/s) = 3.35726 4.28030 3.84657
# Velocity P-wave (km/s) = 5.44568 6.43741 5.96220
#
# Compressibility (1/GPa) = 0.03098328
#
# Stress axis : x y z
#
# Youngs Moduli (GPa) = 43.89247 137.07809 67.99022
#
# Poissons Ratio (x) = 0.37429 0.29183
# Poissons Ratio (y) = 0.11985 -0.00824
# Poissons Ratio (z) = 0.18839 -0.01662
#
# Static dielectric constant tensor:
#      x y z
#    x 1.793920 0.000000 0.012990 
#    y 0.000000 1.848920 0.000000 
#    z 0.012990 0.000000 1.913640 
# 
# From -- ./inp_files/284621.got.cif
#   From: 2010.05.17/outbox.cif.g08.bks.cpg/sg12_143_cif.got.tgz:284621.got - 2010.06.03 13:09:07.
