data_PCOD9192528
_publ_section_title
;
Structure prediction by ZEFSAII (Michael W. Deem and Ramdas Pophale) SiO2 
 PCOD9192528
Probable space group: C 2/M
;
_chemical_formula_sum "Si O2"
_cell_formula_units_Z 64
_cell_length_a 16.041640
_cell_length_b 23.934239
_cell_length_c 7.616683
_cell_angle_alpha 90.000000
_cell_angle_beta 115.109942
_cell_angle_gamma 90.000000
_cell_volume 2648.014825
_symmetry_space_group_name_H-M "C 2/M"
_symmetry_group_IT_number 12
_symmetry_cell_setting 'monoclinic'
loop_
_space_group_symop_operation_xyz
x,y,z
-x,y,-z
-x,-y,-z
x,-y,z
1/2+x,1/2+y,z
1/2-x,1/2+y,-z
1/2-x,1/2-y,-z
1/2+x,1/2-y,z
loop_
_atom_site_type_symbol
_atom_site_label
_atom_site_fract_x
_atom_site_fract_y
_atom_site_fract_z
Si Si1 0.449836 0.362162 0.297609
Si Si2 0.082539 0.433826 0.371780
Si Si3 0.846876 0.142710 0.620212
Si Si4 0.712843 0.121133 0.213929
Si Si5 0.559751 0.755608 0.778953
Si Si6 0.635227 0.243228 0.232737
Si Si7 0.614546 0.120779 0.769484
Si Si8 0.109672 0.937252 0.048780
O O1 0.500000 0.394005 0.500000
O O2 0.543242 0.347419 0.271454
O O3 0.417497 0.299389 0.313891
O O4 0.387802 0.399411 0.121189
O O5 0.070434 0.500000 0.383609
O O6 0.149120 0.419984 0.270516
O O7 0.123903 0.406761 0.586945
O O8 0.983559 0.404469 0.252748
O O9 0.811863 0.121165 0.399867
O O10 0.808904 0.203163 0.645692
O O11 0.834493 0.093884 0.749648
O O12 0.681119 0.184126 0.232872
O O13 0.689429 0.110825 0.989302
O O14 0.451827 0.767932 0.716866
O O15 0.603672 0.812227 0.746231
O O16 0.599232 0.740406 0.006249
O O17 0.142501 0.000000 0.049777
O O18 0.000000 0.940665 0.000000
#
# Coordination Sequence:
#
# PCOD9192528 Si02
#       8
#     8   8   8   8   8   8   8   8
#     4  10  20  33  57  89 113 153 194 247 293 348
#     4  11  24  41  62  87 117 162 206 243 292 347
#     4  10  20  36  57  83 119 153 192 241 300 353
#     4  11  22  37  59  88 120 158 195 244 304 358
#     4   9  16  30  57  85 115 148 200 245 290 340
#     4   9  16  32  56  84 115 152 194 240 297 350
#     4  10  21  38  60  90 118 155 200 253 289 350
#     4   9  18  36  57  77 105 146 194 237 279 345
#
# _framework density 24.169051
#
# number of rings (size 3 to 8) (size 9 to 14) (size 15 to 20)
#    0.000    2.125    2.500    1.500    1.750    2.250 
#    2.250    0.000    0.000    3.750    0.000    0.000 
#    0.000    0.000    0.000    0.000    0.000    0.000 
#
# Total GULP energy -178749.006162 kJ/mol
# GULP energy per Si atom -5585.906443 kJ/mol
# Density = 2.411404 g / cm^3
# Si number density = 24.169051 Si / 1000 Ang^3
#
#
#
# Elastic Constant Matrix: (Units=GPa)
#
#
# Indices 1 2 3 4 5 6 
#
# 1 44.8969 7.7977 16.1366 0.0000 14.6973 0.0000
# 2 7.7977 148.1728 63.1101 0.0000 -3.5236 0.0000
# 3 16.1366 63.1101 169.6284 0.0000 -3.2021 0.0000
# 4 0.0000 0.0000 0.0000 26.2430 0.0000 -7.1880
# 5 14.6973 -3.5236 -3.2021 0.0000 29.8050 0.0000
# 6 0.0000 0.0000 0.0000 -7.1880 0.0000 9.2140
#
#
#
# Elastic Compliance Matrix: (Units=1/GPa)
#
#
# Indices 1 2 3 4 5 6 
#
# 1 0.027992 -0.000668 -0.002682 0.000000 -0.014170 0.000000
# 2 -0.000668 0.008047 -0.002912 0.000000 0.000968 0.000000
# 3 -0.002682 -0.002912 0.007267 0.000000 0.001759 0.000000
# 4 0.000000 0.000000 0.000000 0.048460 0.000000 0.037804
# 5 -0.014170 0.000968 0.001759 0.000000 0.040842 0.000000
# 6 0.000000 0.000000 0.000000 0.037804 0.000000 0.138022
#
#
# Mechanical properties :
#
#
# Convention : Reuss Voigt Hill
#
# Bulk Modulus (GPa) = 32.48596 59.64300 46.06448
# Shear Modulus (GPa) = 17.04070 31.42931 24.23500
#
# Velocity S-wave (km/s) = 2.65818 3.61001 3.17002
# Velocity P-wave (km/s) = 4.78451 6.48901 5.70082
#
# Compressibility (1/GPa) = 0.03078253
#
# Stress axis : x y z
#
# Youngs Moduli (GPa) = 35.72463 124.26336 137.60708
#
# Poissons Ratio (x) = 0.08298 0.36905
# Poissons Ratio (y) = 0.02386 0.40075
# Poissons Ratio (z) = 0.09581 0.36189
#
# Static dielectric constant tensor:
#      x y z
#    x 2.124030 0.000000 0.009960 
#    y 0.000000 1.879300 0.000000 
#    z 0.009960 0.000000 1.959050 
# 
# From -- ./inp_files/90679.got.cif
#   From: 2010.05.17/outbox.cif.g08.bks.cpg/sg12_46_cif.got.tgz:90679.got - 2010.06.03 13:09:07.
