data_PCOD9192320
_publ_section_title
;
Structure prediction by ZEFSAII (Michael W. Deem and Ramdas Pophale) SiO2 
 PCOD9192320
Probable space group: C 2/M
;
_chemical_formula_sum "Si O2"
_cell_formula_units_Z 56
_cell_length_a 24.725460
_cell_length_b 16.064063
_cell_length_c 18.559935
_cell_angle_alpha 90.000000
_cell_angle_beta 161.297160
_cell_angle_gamma 90.000000
_cell_volume 2363.855570
_symmetry_space_group_name_H-M "C 2/M"
_symmetry_group_IT_number 12
_symmetry_cell_setting 'monoclinic'
loop_
_space_group_symop_operation_xyz
x,y,z
-x,y,-z
-x,-y,-z
x,-y,z
1/2+x,1/2+y,z
1/2-x,1/2+y,-z
1/2-x,1/2-y,-z
1/2+x,1/2-y,z
loop_
_atom_site_type_symbol
_atom_site_label
_atom_site_fract_x
_atom_site_fract_y
_atom_site_fract_z
Si Si1 0.341111 0.854954 0.421054
Si Si2 0.711612 0.150221 0.947757
Si Si3 0.795640 0.667512 0.746605
Si Si4 0.081271 0.088228 0.201725
Si Si5 0.234954 0.158951 0.141444
Si Si6 0.312072 0.841257 0.605944
Si Si7 0.217654 0.349321 0.112541
O O1 0.512744 0.864589 0.681808
O O2 0.290951 0.757793 0.359472
O O3 0.184257 0.900769 0.259113
O O4 0.349415 0.880112 0.348228
O O5 0.786428 0.121305 0.965121
O O6 0.764871 0.114137 0.093191
O O7 0.750000 0.250000 0.000000
O O8 0.753238 0.637431 0.612799
O O9 0.745889 0.621344 0.758938
O O10 0.000000 0.675521 0.000000
O O11 0.224602 0.095124 0.442426
O O12 0.992566 0.000000 0.094163
O O13 0.947694 0.158995 0.051065
O O14 0.288384 0.254869 0.199322
O O15 0.250000 0.750000 0.500000
O O16 0.513706 0.845166 0.853853
#
# Coordination Sequence:
#
# PCOD9192320 Si02
#       7
#     8   8   8   8   8   8   8
#     4  11  19  35  55  82 115 152 187 231 284 343
#     4  10  20  33  54  85 118 147 189 239 288 335
#     4   9  17  27  54  89 113 138 179 234 291 344
#     4  12  24  36  57  86 115 153 201 241 282 340
#     4  10  21  34  53  82 120 151 184 230 284 348
#     4  11  16  31  57  81 110 144 184 239 296 336
#     4   9  16  31  53  84 109 140 185 228 285 341
#
# _framework density 23.690111000000002
#
# number of rings (size 3 to 8) (size 9 to 14) (size 15 to 20)
#    0.000    1.714    4.286    2.571    2.000    1.143 
#    0.000    0.714    0.000    5.571    0.000    1.000 
#    0.000    0.000    0.000    0.000    0.000    0.000 
#
# Total GULP energy -156069.757603 kJ/mol
# GULP energy per Si atom -5573.919914 kJ/mol
# Density = 2.363619 g / cm^3
# Si number density = 23.690111 Si / 1000 Ang^3
#
#
#
# Elastic Constant Matrix: (Units=GPa)
#
#
# Indices 1 2 3 4 5 6 
#
# 1 247.3119 5.6590 25.4050 0.0035 -41.3949 0.0030
# 2 5.6590 20.2013 1.9828 0.0035 -3.7310 0.0034
# 3 25.4050 1.9828 43.8496 0.0024 -9.4912 0.0030
# 4 0.0035 0.0035 0.0024 1.2304 0.0009 -2.8992
# 5 -41.3949 -3.7310 -9.4912 0.0009 44.3664 0.0005
# 6 0.0030 0.0034 0.0030 -2.8992 0.0005 -0.7156
#
#
#
# Elastic Compliance Matrix: (Units=1/GPa)
#
#
# Indices 1 2 3 4 5 6 
#
# 1 0.004951 -0.000426 -0.001947 0.000002 0.004167 0.000006
# 2 -0.000426 0.050404 -0.001259 0.000038 0.003572 0.000076
# 3 -0.001947 -0.001259 0.024719 0.000016 0.003365 0.000025
# 4 0.000002 0.000038 0.000016 0.077067 0.000011 -0.312217
# 5 0.004167 0.003572 0.003365 0.000011 0.027448 0.000025
# 6 0.000006 0.000076 0.000025 -0.312217 0.000025 -0.132499
#
#
# Mechanical properties :
#
#
# Convention : Reuss Voigt Hill
#
# Bulk Modulus (GPa) = 13.73460 41.93960 27.83710
# Shear Modulus (GPa) = 59.79166 27.53063 43.66114
#
# Velocity S-wave (km/s) = 5.02930 3.41268 4.29769
# Velocity P-wave (km/s) = 6.28771 5.76805 6.03348
#
# Compressibility (1/GPa) = 0.07280883
#
# Stress axis : x y z
#
# Youngs Moduli (GPa) = 201.99308 19.83954 40.45522
#
# Poissons Ratio (x) = 0.00845 0.07877
# Poissons Ratio (y) = 0.08608 0.05094
# Poissons Ratio (z) = 0.39330 0.02498
#
# Static dielectric constant tensor:
#      x y z
#    x 2.031230 -0.000020 -0.031310 
#    y -0.000020 1.936650 0.000010 
#    z -0.031310 0.000010 1.937310 
# 
# From -- ./inp_files/328558.got.cif
#   From: 2010.05.17/outbox.cif.g08.bks.cpg/sg12_165_cif.got.tgz:328558.got - 2010.06.03 13:09:07.
