data_PCOD9192989
_publ_section_title
;
Structure prediction by ZEFSAII (Michael W. Deem and Ramdas Pophale) SiO2 
 PCOD9192989
Probable space group: C 2/M
;
_chemical_formula_sum "Si O2"
_cell_formula_units_Z 48
_cell_length_a 8.685626
_cell_length_b 11.129713
_cell_length_c 26.595236
_cell_angle_alpha 90.000000
_cell_angle_beta 108.032726
_cell_angle_gamma 90.000000
_cell_volume 2444.638161
_symmetry_space_group_name_H-M "C 2/M"
_symmetry_group_IT_number 12
_symmetry_cell_setting 'monoclinic'
loop_
_space_group_symop_operation_xyz
x,y,z
-x,y,-z
-x,-y,-z
x,-y,z
1/2+x,1/2+y,z
1/2-x,1/2+y,-z
1/2-x,1/2-y,-z
1/2+x,1/2-y,z
loop_
_atom_site_type_symbol
_atom_site_label
_atom_site_fract_x
_atom_site_fract_y
_atom_site_fract_z
Si Si1 0.806409 0.367885 0.476525
Si Si2 0.896053 0.863977 0.943301
Si Si3 0.407485 0.362267 0.311943
Si Si4 0.776851 0.634983 0.354533
Si Si5 0.332511 0.868000 0.805606
Si Si6 0.110901 0.796867 0.872946
O O1 0.746880 0.500000 0.489026
O O2 0.750000 0.250000 0.500000
O O3 0.761621 0.358942 0.413315
O O4 0.000000 0.370086 0.500000
O O5 0.735401 0.791277 0.913959
O O6 0.010431 0.864187 0.905708
O O7 0.851635 0.000000 0.952531
O O8 0.000000 0.811499 0.000000
O O9 0.382218 0.500000 0.329415
O O10 0.594866 0.357459 0.314668
O O11 0.375680 0.250028 0.345524
O O12 0.285583 0.345582 0.253168
O O13 0.842813 0.500000 0.349131
O O14 0.222285 0.865872 0.844527
O O15 0.476052 0.774487 0.827448
O O16 0.405597 0.000000 0.806521
#
# Coordination Sequence:
#
# PCOD9192989 Si02
#       6
#     8   8   8   8   8   8
#     4  10  21  36  55  80 109 141 179 221 265 315
#     4  10  20  34  52  75 102 132 168 208 251 303
#     4  10  21  36  55  79 106 139 178 219 264 316
#     4  10  21  37  55  79 110 141 177 221 266 315
#     4  10  20  35  53  75 103 133 170 213 256 306
#     4  10  20  34  53  75 101 134 168 207 257 304
#
# _framework density 19.634806999999999
#
# number of rings (size 3 to 8) (size 9 to 14) (size 15 to 20)
#    0.000    2.000    0.000    3.500    0.000    1.667 
#    0.000    4.167    0.000    8.000    0.000    0.000 
#    0.000    0.000    0.000    0.000    0.000    0.000 
#
# Total GULP energy -133839.121308 kJ/mol
# GULP energy per Si atom -5576.630055 kJ/mol
# Density = 1.959012 g / cm^3
# Si number density = 19.634807 Si / 1000 Ang^3
#
#
#
# Elastic Constant Matrix: (Units=GPa)
#
#
# Indices 1 2 3 4 5 6 
#
# 1 43.6074 23.9286 -8.3307 0.0000 10.7093 0.0000
# 2 23.9286 115.4237 15.5233 0.0000 -8.6596 0.0000
# 3 -8.3307 15.5233 48.0846 0.0000 13.0114 0.0000
# 4 0.0000 0.0000 0.0000 1.5360 0.0000 -8.6613
# 5 10.7093 -8.6596 13.0114 0.0000 30.5162 0.0000
# 6 0.0000 0.0000 0.0000 -8.6613 0.0000 9.4849
#
#
#
# Elastic Compliance Matrix: (Units=1/GPa)
#
#
# Indices 1 2 3 4 5 6 
#
# 1 0.039022 -0.012271 0.017374 0.000000 -0.024584 0.000000
# 2 -0.012271 0.013448 -0.009795 0.000000 0.012299 0.000000
# 3 0.017374 -0.009795 0.033202 0.000000 -0.023033 0.000000
# 4 0.000000 0.000000 0.000000 -0.156908 0.000000 -0.143282
# 5 -0.024584 0.012299 -0.023033 0.000000 0.054708 0.000000
# 6 0.000000 0.000000 0.000000 -0.143282 0.000000 -0.025409
#
#
# Mechanical properties :
#
#
# Convention : Reuss Voigt Hill
#
# Bulk Modulus (GPa) = 13.10824 29.92867 21.51846
# Shear Modulus (GPa) = -701.64953 20.04040 -340.80457
#
# Velocity S-wave (km/s) = -18.92421 3.19824 -13.18895
# Velocity P-wave (km/s) = 21.69816 5.37718 14.86432
#
# Compressibility (1/GPa) = 0.07628790
#
# Stress axis : x y z
#
# Youngs Moduli (GPa) = 25.62664 74.36237 30.11898
#
# Poissons Ratio (x) = 0.91248 -0.52330
# Poissons Ratio (y) = 0.31446 0.29502
# Poissons Ratio (z) = -0.44525 0.72840
#
# Static dielectric constant tensor:
#      x y z
#    x 1.653710 0.000000 0.004820 
#    y 0.000000 1.702950 0.000000 
#    z 0.004820 0.000000 1.688810 
# 
# From -- ./inp_files/331988.got.cif
#   From: 2010.05.17/outbox.cif.g08.bks.cpg/sg12_166_cif.got.tgz:331988.got - 2010.06.03 13:09:07.
