data_PCOD9192849
_publ_section_title
;
Structure prediction by ZEFSAII (Michael W. Deem and Ramdas Pophale) SiO2 
 PCOD9192849
Probable space group: C 2/M
;
_chemical_formula_sum "Si O2"
_cell_formula_units_Z 56
_cell_length_a 15.487638
_cell_length_b 7.775683
_cell_length_c 20.389246
_cell_angle_alpha 90.000000
_cell_angle_beta 61.680105
_cell_angle_gamma 90.000000
_cell_volume 2161.532948
_symmetry_space_group_name_H-M "C 2/M"
_symmetry_group_IT_number 12
_symmetry_cell_setting 'monoclinic'
loop_
_space_group_symop_operation_xyz
x,y,z
-x,y,-z
-x,-y,-z
x,-y,z
1/2+x,1/2+y,z
1/2-x,1/2+y,-z
1/2-x,1/2-y,-z
1/2+x,1/2-y,z
loop_
_atom_site_type_symbol
_atom_site_label
_atom_site_fract_x
_atom_site_fract_y
_atom_site_fract_z
Si Si1 0.319272 0.709657 0.174128
Si Si2 0.030299 0.794070 0.061150
Si Si3 0.360513 0.791369 0.673991
Si Si4 0.125984 0.697682 0.617941
Si Si5 0.975637 0.812006 0.757308
Si Si6 0.350655 0.790460 0.531637
Si Si7 0.307705 0.809710 0.902792
O O1 0.317205 0.500000 0.171984
O O2 0.433581 0.759829 0.138250
O O3 0.246959 0.760596 0.259218
O O4 0.268780 0.770420 0.122852
O O5 0.139218 0.750471 0.048823
O O6 0.028547 0.000000 0.058707
O O7 0.000000 0.728763 0.000000
O O8 0.431804 0.706029 0.700373
O O9 0.388576 0.746854 0.589860
O O10 0.365521 0.000000 0.677170
O O11 0.093181 0.500000 0.634915
O O12 0.087642 0.787491 0.697486
O O13 0.242364 0.712430 0.573303
O O14 0.100033 0.764407 0.554127
O O15 0.907802 0.687599 0.823064
O O16 0.958886 0.000000 0.792676
O O17 0.344724 0.000000 0.530302
O O18 0.270861 0.000000 0.928890
#
# Coordination Sequence:
#
# PCOD9192849 Si02
#       7
#     8   8   8   8   8   8   8
#     4   8  17  35  57  81 115 155 189 230 286 343
#     4  10  21  37  59  90 122 155 193 230 279 347
#     4   9  18  35  56  77 104 142 187 230 283 336
#     4  10  20  34  51  76 110 144 186 232 279 336
#     4  11  22  36  55  79 107 142 185 231 288 342
#     4   9  19  34  53  77 106 146 187 231 284 334
#     4  10  21  39  60  84 114 151 194 240 292 342
#
# _framework density 25.907539
#
# number of rings (size 3 to 8) (size 9 to 14) (size 15 to 20)
#    0.000    2.429    0.000    3.000    2.000    2.571 
#    0.000    6.429    0.000    0.000    0.000    0.000 
#    0.000    0.000    0.000    0.000    0.000    0.000 
#
# Total GULP energy -156222.020713 kJ/mol
# GULP energy per Si atom -5579.357883 kJ/mol
# Density = 2.584857 g / cm^3
# Si number density = 25.907539 Si / 1000 Ang^3
#
#
#
# Elastic Constant Matrix: (Units=GPa)
#
#
# Indices 1 2 3 4 5 6 
#
# 1 140.1874 -12.5971 -8.5438 -0.0001 10.4361 0.0000
# 2 -12.5971 34.6383 2.9598 0.0000 1.7158 0.0001
# 3 -8.5438 2.9598 59.6779 -0.0001 12.8651 0.0000
# 4 -0.0001 0.0000 -0.0001 -83.2413 0.0000 -2.0475
# 5 10.4361 1.7158 12.8651 0.0000 49.2024 0.0000
# 6 0.0000 0.0001 0.0000 -2.0475 0.0000 21.5527
#
#
#
# Elastic Compliance Matrix: (Units=1/GPa)
#
#
# Indices 1 2 3 4 5 6 
#
# 1 0.007621 0.002755 0.001403 0.000000 -0.002079 0.000000
# 2 0.002755 0.030009 -0.000787 0.000000 -0.001425 0.000000
# 3 0.001403 -0.000787 0.018073 0.000000 -0.004996 0.000000
# 4 0.000000 0.000000 0.000000 -0.011985 0.000000 -0.001139
# 5 -0.002079 -0.001425 -0.004996 0.000000 0.022121 0.000000
# 6 0.000000 0.000000 0.000000 -0.001139 0.000000 0.046290
#
#
# Mechanical properties :
#
#
# Convention : Reuss Voigt Hill
#
# Bulk Modulus (GPa) = 16.01401 22.01574 19.01487
# Shear Modulus (GPa) = 39.61858 14.34840 26.98349
#
# Velocity S-wave (km/s) = 3.91478 2.35591 3.23078
# Velocity P-wave (km/s) = 5.16029 3.98957 4.61223
#
# Compressibility (1/GPa) = 0.06244533
#
# Stress axis : x y z
#
# Youngs Moduli (GPa) = 131.21420 33.32285 55.32984
#
# Poissons Ratio (x) = -0.09180 -0.07761
# Poissons Ratio (y) = -0.36146 0.04353
# Poissons Ratio (z) = -0.18405 0.02622
#
# Static dielectric constant tensor:
#      x y z
#    x 2.153810 0.000000 0.019970 
#    y 0.000000 2.032930 0.000000 
#    z 0.019970 0.000000 2.138540 
# 
# From -- ./inp_files/313734.got.cif
#   From: 2010.05.17/outbox.cif.g08.bks.cpg/sg12_157_cif.got.tgz:313734.got - 2010.06.03 13:09:07.
