data_PCOD9192647
_publ_section_title
;
Structure prediction by ZEFSAII (Michael W. Deem and Ramdas Pophale) SiO2 
 PCOD9192647
Probable space group: C 2/M
;
_chemical_formula_sum "Si O2"
_cell_formula_units_Z 40
_cell_length_a 21.131689
_cell_length_b 8.331369
_cell_length_c 11.036251
_cell_angle_alpha 90.000000
_cell_angle_beta 124.605666
_cell_angle_gamma 90.000000
_cell_volume 1599.242451
_symmetry_space_group_name_H-M "C 2/M"
_symmetry_group_IT_number 12
_symmetry_cell_setting 'monoclinic'
loop_
_space_group_symop_operation_xyz
x,y,z
-x,y,-z
-x,-y,-z
x,-y,z
1/2+x,1/2+y,z
1/2-x,1/2+y,-z
1/2-x,1/2-y,-z
1/2+x,1/2-y,z
loop_
_atom_site_type_symbol
_atom_site_label
_atom_site_fract_x
_atom_site_fract_y
_atom_site_fract_z
Si Si1 0.555495 0.000000 0.442513
Si Si2 0.133780 0.809461 0.620571
Si Si3 0.778825 0.193476 0.898642
Si Si4 0.065731 0.832837 0.175170
Si Si5 0.576940 0.317914 0.822215
Si Si6 0.438859 0.000000 0.822652
O O1 0.500000 0.000000 0.500000
O O2 0.606029 0.836876 0.506493
O O3 0.519723 0.000000 0.266285
O O4 0.224053 0.784721 0.745939
O O5 0.091747 0.761214 0.702971
O O6 0.117394 0.000000 0.575246
O O7 0.768615 0.000000 0.870805
O O8 0.750000 0.250000 0.000000
O O9 0.868192 0.245188 0.010543
O O10 0.010159 0.829818 0.231545
O O11 0.107438 0.664448 0.219646
O O12 0.110341 0.000000 0.217453
O O13 0.000000 0.837991 0.000000
O O14 0.606269 0.500000 0.844742
O O15 0.500000 0.000000 0.000000
#
# Coordination Sequence:
#
# PCOD9192647 Si02
#       6
#     4   8   8   8   8   4
#     4  12  24  36  56  82 110 150 181 221 285 332
#     4  10  20  34  49  74 114 145 180 222 270 332
#     4   9  15  27  46  72 109 147 182 218 265 327
#     4   9  17  32  52  74 105 133 175 226 267 315
#     4   8  15  27  48  77 109 146 176 218 271 316
#     4  10  22  38  54  78 106 140 186 225 267 328
#
# _framework density 25.011844
#
# number of rings (size 3 to 8) (size 9 to 14) (size 15 to 20)
#    0.000    2.600    1.000    3.000    0.000    1.200 
#    3.600    0.000    0.000    0.000    0.000    5.600 
#    0.000    0.000    0.000    0.000    0.000    0.000 
#
# Total GULP energy -111376.457558 kJ/mol
# GULP energy per Si atom -5568.822878 kJ/mol
# Density = 2.495492 g / cm^3
# Si number density = 25.011844 Si / 1000 Ang^3
#
#
#
# Elastic Constant Matrix: (Units=GPa)
#
#
# Indices 1 2 3 4 5 6 
#
# 1 67.7889 15.7765 23.0115 0.0000 -8.7800 0.0000
# 2 15.7765 229.5250 48.2400 0.0000 9.3136 0.0000
# 3 23.0115 48.2400 130.1321 0.0000 -4.6994 0.0000
# 4 0.0000 0.0000 0.0000 35.0357 0.0000 6.0374
# 5 -8.7800 9.3136 -4.6994 0.0000 26.9389 0.0000
# 6 0.0000 0.0000 0.0000 6.0374 0.0000 -0.1405
#
#
#
# Elastic Compliance Matrix: (Units=1/GPa)
#
#
# Indices 1 2 3 4 5 6 
#
# 1 0.016441 -0.000836 -0.002409 0.000000 0.005227 0.000000
# 2 -0.000836 0.004872 -0.001740 0.000000 -0.002260 0.000000
# 3 -0.002409 -0.001740 0.008804 0.000000 0.001352 0.000000
# 4 0.000000 0.000000 0.000000 0.003396 0.000000 0.145924
# 5 0.005227 -0.002260 0.001352 0.000000 0.039842 0.000000
# 6 0.000000 0.000000 0.000000 0.145924 0.000000 -0.846808
#
#
# Mechanical properties :
#
#
# Convention : Reuss Voigt Hill
#
# Bulk Modulus (GPa) = 49.63244 66.83358 58.23301
# Shear Modulus (GPa) = -6.60704 35.06135 14.22715
#
# Velocity S-wave (km/s) = -1.62705 3.74811 2.38758
# Velocity P-wave (km/s) = 4.04437 6.74610 5.56178
#
# Compressibility (1/GPa) = 0.02014811
#
# Stress axis : x y z
#
# Youngs Moduli (GPa) = 60.82399 205.26971 113.58261
#
# Poissons Ratio (x) = 0.17160 0.27358
# Poissons Ratio (y) = 0.05085 0.19760
# Poissons Ratio (z) = 0.14650 0.35711
#
# Static dielectric constant tensor:
#      x y z
#    x 2.045630 0.000000 -0.027660 
#    y 0.000000 2.085050 0.000000 
#    z -0.027660 0.000000 2.056220 
# 
# From -- ./inp_files/171430.got.cif
#   From: 2010.05.17/outbox.cif.g08.bks.cpg/sg12_86_cif.got.tgz:171430.got - 2010.06.03 13:09:07.
