data_PCOD9192566
_publ_section_title
;
Structure prediction by ZEFSAII (Michael W. Deem and Ramdas Pophale) SiO2 
 PCOD9192566
Probable space group: C 2/M
;
_chemical_formula_sum "Si O2"
_cell_formula_units_Z 34
_cell_length_a 14.824225
_cell_length_b 14.470671
_cell_length_c 11.434928
_cell_angle_alpha 90.000000
_cell_angle_beta 144.867000
_cell_angle_gamma 90.000000
_cell_volume 1411.632352
_symmetry_space_group_name_H-M "C 2/M"
_symmetry_group_IT_number 12
_symmetry_cell_setting 'monoclinic'
loop_
_space_group_symop_operation_xyz
x,y,z
-x,y,-z
-x,-y,-z
x,-y,z
1/2+x,1/2+y,z
1/2-x,1/2+y,-z
1/2-x,1/2-y,-z
1/2+x,1/2-y,z
loop_
_atom_site_type_symbol
_atom_site_label
_atom_site_fract_x
_atom_site_fract_y
_atom_site_fract_z
Si Si1 0.111219 0.164717 0.465182
Si Si2 0.470312 0.147173 0.843580
Si Si3 0.939801 0.637136 0.312187
Si Si4 0.923853 0.150556 0.041221
Si Si5 0.000000 0.000000 0.500000
O O1 0.294101 0.186913 0.648855
O O2 0.007826 0.256444 0.381516
O O3 0.103913 0.082423 0.549653
O O4 0.036636 0.124629 0.267230
O O5 0.504190 0.100711 0.754944
O O6 0.500000 0.099897 0.000000
O O7 0.581022 0.237471 0.966902
O O8 0.753522 0.623895 0.121195
O O9 0.000000 0.600263 0.500000
O O10 0.000000 0.119436 0.000000
#
# Coordination Sequence:
#
# PCOD9192566 Si02
#       5
#     8   8   8   8   2
#     4  11  22  38  54  83 123 160 206 229 293 362
#     4  10  20  33  58  89 119 149 192 258 307 341
#     4  11  19  34  63  90 121 148 191 261 311 347
#     4  10  20  34  63  93 113 148 195 262 313 336
#     4  12  28  36  60  76 128 180 196 222 280 372
#
# _framework density 24.085591000000001
#
# number of rings (size 3 to 8) (size 9 to 14) (size 15 to 20)
#    0.000    1.412    1.176    9.882    3.294    0.000 
#    0.000    1.176    0.000    0.000    0.000    3.294 
#    0.000    0.000    0.000    0.000    0.000    0.000 
#
# Total GULP energy -94669.512430 kJ/mol
# GULP energy per Si atom -5568.794849 kJ/mol
# Density = 2.403077 g / cm^3
# Si number density = 24.085591 Si / 1000 Ang^3
#
#
#
# Elastic Constant Matrix: (Units=GPa)
#
#
# Indices 1 2 3 4 5 6 
#
# 1 156.7848 2.4362 66.6182 0.0000 -12.8113 0.0000
# 2 2.4362 99.2257 -15.0317 0.0000 7.0954 0.0000
# 3 66.6182 -15.0317 161.7150 0.0000 -2.5735 0.0000
# 4 0.0000 0.0000 0.0000 -9.5633 0.0000 -5.8126
# 5 -12.8113 7.0954 -2.5735 0.0000 39.7928 0.0000
# 6 0.0000 0.0000 0.0000 -5.8126 0.0000 -8.8754
#
#
#
# Elastic Compliance Matrix: (Units=1/GPa)
#
#
# Indices 1 2 3 4 5 6 
#
# 1 0.008020 -0.000884 -0.003346 0.000000 0.002523 0.000000
# 2 -0.000884 0.010445 0.001302 0.000000 -0.002063 0.000000
# 3 -0.003346 0.001302 0.007670 0.000000 -0.000813 0.000000
# 4 0.000000 0.000000 0.000000 -0.173715 0.000000 0.113768
# 5 0.002523 -0.002063 -0.000813 0.000000 0.026258 0.000000
# 6 0.000000 0.000000 0.000000 0.113768 0.000000 -0.187180
#
#
# Mechanical properties :
#
#
# Convention : Reuss Voigt Hill
#
# Bulk Modulus (GPa) = 49.31213 58.41898 53.86555
# Shear Modulus (GPa) = -16.89833 28.51767 5.80967
#
# Velocity S-wave (km/s) = -2.65164 3.44468 1.55478
# Velocity P-wave (km/s) = 3.33815 6.33471 5.06319
#
# Compressibility (1/GPa) = 0.02027899
#
# Stress axis : x y z
#
# Youngs Moduli (GPa) = 124.69299 95.74400 130.37655
#
# Poissons Ratio (x) = 0.08465 0.43620
# Poissons Ratio (y) = 0.11025 -0.16978
# Poissons Ratio (z) = 0.41719 -0.12468
#
# Static dielectric constant tensor:
#      x y z
#    x 2.037430 0.000000 -0.042660 
#    y 0.000000 1.881900 0.000000 
#    z -0.042660 0.000000 1.898060 
# 
# From -- ./inp_files/147416.got.cif
#   From: 2010.05.17/outbox.cif.g08.bks.cpg/sg12_74_cif.got.tgz:147416.got - 2010.06.03 13:09:07.
