data_PCOD9192621
_publ_section_title
;
Structure prediction by ZEFSAII (Michael W. Deem and Ramdas Pophale) SiO2 
 PCOD9192621
Probable space group: C 2/M
;
_chemical_formula_sum "Si O2"
_cell_formula_units_Z 64
_cell_length_a 12.111503
_cell_length_b 24.752148
_cell_length_c 25.357357
_cell_angle_alpha 90.000000
_cell_angle_beta 152.371524
_cell_angle_gamma 90.000000
_cell_volume 3525.219187
_symmetry_space_group_name_H-M "C 2/M"
_symmetry_group_IT_number 12
_symmetry_cell_setting 'monoclinic'
loop_
_space_group_symop_operation_xyz
x,y,z
-x,y,-z
-x,-y,-z
x,-y,z
1/2+x,1/2+y,z
1/2-x,1/2+y,-z
1/2-x,1/2-y,-z
1/2+x,1/2-y,z
loop_
_atom_site_type_symbol
_atom_site_label
_atom_site_fract_x
_atom_site_fract_y
_atom_site_fract_z
Si Si1 0.220425 0.658101 0.384474
Si Si2 0.484719 0.215863 0.602902
Si Si3 0.406201 0.141618 0.878644
Si Si4 0.708652 0.063123 0.456313
Si Si5 0.812830 0.617944 0.354759
Si Si6 0.843918 0.178178 0.129914
Si Si7 0.985170 0.935171 0.677623
Si Si8 0.056143 0.290605 0.208288
O O1 0.500000 0.676508 0.500000
O O2 0.056974 0.685656 0.359828
O O3 0.230935 0.597430 0.412364
O O4 0.091969 0.673848 0.275922
O O5 0.250000 0.250000 0.500000
O O6 0.516749 0.170776 0.570911
O O7 0.701645 0.256598 0.694420
O O8 0.228746 0.177494 0.839358
O O9 0.467546 0.169389 0.850083
O O10 0.247257 0.088178 0.801884
O O11 0.648251 0.144148 0.014908
O O12 0.460507 0.076005 0.381782
O O13 0.906280 0.079252 0.584375
O O14 0.729917 0.000000 0.455187
O O15 0.588933 0.645119 0.229819
O O16 0.705359 0.591122 0.361926
O O17 0.865211 0.241483 0.125125
O O18 0.975995 0.000000 0.678875
#
# Coordination Sequence:
#
# PCOD9192621 Si02
#       8
#     8   8   8   8   8   8   8   8
#     4  11  21  34  49  78 111 144 190 219 267 331
#     4  10  20  34  48  76 110 147 179 220 271 328
#     4  10  20  36  58  80 110 142 187 229 277 333
#     4  10  21  37  55  78 112 148 184 230 277 329
#     4   9  19  34  56  79 112 141 182 226 280 338
#     4   9  20  37  54  83 110 141 179 228 280 332
#     4  10  20  36  57  84 112 145 185 236 291 330
#     4  11  20  35  54  77 112 148 185 220 270 334
#
# _framework density 18.154897999999999
#
# number of rings (size 3 to 8) (size 9 to 14) (size 15 to 20)
#    0.000    2.000    1.250    2.625    1.750    1.250 
#    6.750    6.250    0.000    0.000    0.000    0.875 
#    0.000    0.000    0.000    0.000    0.000    0.000 
#
# Total GULP energy -178177.786450 kJ/mol
# GULP energy per Si atom -5568.055827 kJ/mol
# Density = 1.811358 g / cm^3
# Si number density = 18.154898 Si / 1000 Ang^3
#
#
#
# Elastic Constant Matrix: (Units=GPa)
#
#
# Indices 1 2 3 4 5 6 
#
# 1 65.2130 32.2957 30.7306 -0.0005 -11.8825 -0.0006
# 2 32.2957 80.5175 43.4110 -0.0033 -8.5022 -0.0012
# 3 30.7306 43.4110 66.6971 0.0136 -5.1733 -0.0022
# 4 -0.0005 -0.0033 0.0136 23.3907 0.0007 -0.6896
# 5 -11.8825 -8.5022 -5.1733 0.0007 27.9189 -0.0014
# 6 -0.0006 -0.0012 -0.0022 -0.6896 -0.0014 26.0159
#
#
#
# Elastic Compliance Matrix: (Units=1/GPa)
#
#
# Indices 1 2 3 4 5 6 
#
# 1 0.021922 -0.004496 -0.006652 0.000004 0.006728 0.000000
# 2 -0.004496 0.020413 -0.011040 0.000009 0.002258 0.000000
# 3 -0.006652 -0.011040 0.025125 -0.000016 -0.001538 0.000001
# 4 0.000004 0.000009 -0.000016 0.042785 0.000000 0.001134
# 5 0.006728 0.002258 -0.001538 0.000000 0.039084 0.000002
# 6 0.000000 0.000000 0.000001 0.001134 0.000002 0.038468
#
#
# Mechanical properties :
#
#
# Convention : Reuss Voigt Hill
#
# Bulk Modulus (GPa) = 43.32108 47.25582 45.28845
# Shear Modulus (GPa) = 20.84480 22.53112 21.68796
#
# Velocity S-wave (km/s) = 3.39213 3.52667 3.46006
# Velocity P-wave (km/s) = 6.26545 6.53215 6.40019
#
# Compressibility (1/GPa) = 0.02308345
#
# Stress axis : x y z
#
# Youngs Moduli (GPa) = 45.61717 48.98722 39.80169
#
# Poissons Ratio (x) = 0.22023 0.26478
# Poissons Ratio (y) = 0.20508 0.43941
# Poissons Ratio (z) = 0.30346 0.54082
#
# Static dielectric constant tensor:
#      x y z
#    x 1.604960 0.000000 -0.015770 
#    y 0.000000 1.643690 0.000000 
#    z -0.015770 0.000000 1.724510 
# 
# From -- ./inp_files/337079.got.cif
#   From: 2010.05.17/outbox.cif.g08.bks.cpg/sg12_169_cif.got.tgz:337079.got - 2010.06.03 13:09:07.
