data_PCOD9192876
_publ_section_title
;
Structure prediction by ZEFSAII (Michael W. Deem and Ramdas Pophale) SiO2 
 PCOD9192876
Probable space group: C 2/M
;
_chemical_formula_sum "Si O2"
_cell_formula_units_Z 64
_cell_length_a 14.620340
_cell_length_b 7.662537
_cell_length_c 31.155191
_cell_angle_alpha 90.000000
_cell_angle_beta 62.177997
_cell_angle_gamma 90.000000
_cell_volume 3086.811402
_symmetry_space_group_name_H-M "C 2/M"
_symmetry_group_IT_number 12
_symmetry_cell_setting 'monoclinic'
loop_
_space_group_symop_operation_xyz
x,y,z
-x,y,-z
-x,-y,-z
x,-y,z
1/2+x,1/2+y,z
1/2-x,1/2+y,-z
1/2-x,1/2-y,-z
1/2+x,1/2-y,z
loop_
_atom_site_type_symbol
_atom_site_label
_atom_site_fract_x
_atom_site_fract_y
_atom_site_fract_z
Si Si1 0.220073 0.708807 0.133464
Si Si2 0.133531 0.206619 0.509148
Si Si3 0.204128 0.707821 0.403815
Si Si4 0.926483 0.210732 0.388377
Si Si5 0.505687 0.708758 0.135205
Si Si6 0.648794 0.208255 0.322104
Si Si7 0.442238 0.286357 0.055322
Si Si8 0.216188 0.786102 0.786662
O O1 0.228347 0.500000 0.133444
O O2 0.322503 0.769715 0.085670
O O3 0.229576 0.769686 0.180691
O O4 0.112938 0.750520 0.134328
O O5 0.250000 0.250000 0.500000
O O6 0.128626 0.264676 0.461019
O O7 0.065777 0.276091 0.563760
O O8 0.120073 0.000000 0.510788
O O9 0.213258 0.500000 0.397553
O O10 0.318164 0.774428 0.392423
O O11 0.171852 0.780164 0.364742
O O12 0.027910 0.260415 0.340271
O O13 0.921197 0.000000 0.391000
O O14 0.496845 0.500000 0.135229
O O15 0.496583 0.770027 0.087870
O O16 0.403443 0.769901 0.183099
O O17 0.722989 0.276562 0.268489
O O18 0.664180 0.000000 0.320233
O O19 0.443676 0.500000 0.054091
O O20 0.500000 0.225680 0.000000
O O21 0.217700 0.000000 0.785316
#
# Coordination Sequence:
#
# PCOD9192876 Si02
#       8
#     8   8   8   8   8   8   8   8
#     4   9  17  31  51  72  96 128 165 203 241 282
#     4   9  17  31  51  71  95 126 155 187 230 283
#     4   9  19  34  50  70  96 124 154 191 235 283
#     4   9  19  34  49  70  99 124 149 189 242 287
#     4   9  17  31  52  73  94 127 168 202 236 284
#     4  10  20  34  52  71  92 123 163 199 232 282
#     4   8  15  29  48  71 102 137 166 193 234 290
#     4   8  17  34  50  66  93 128 162 196 239 290
#
# _framework density 20.733367999999999
#
# number of rings (size 3 to 8) (size 9 to 14) (size 15 to 20)
#    0.000    3.125    0.000    2.625    0.000    5.000 
#    0.000    7.500    0.000    0.750    0.000    0.000 
#    0.000    0.000    0.000    0.000    0.000    0.000 
#
# Total GULP energy -178430.974965 kJ/mol
# GULP energy per Si atom -5575.967968 kJ/mol
# Density = 2.068618 g / cm^3
# Si number density = 20.733368 Si / 1000 Ang^3
#
#
#
# Elastic Constant Matrix: (Units=GPa)
#
#
# Indices 1 2 3 4 5 6 
#
# 1 123.1760 -2.2841 68.9847 0.0000 -8.5323 0.0000
# 2 -2.2841 33.4536 3.7529 0.0000 1.2264 0.0000
# 3 68.9847 3.7529 167.6509 0.0000 -15.8059 0.0000
# 4 0.0000 0.0000 0.0000 7.8967 0.0000 -3.6054
# 5 -8.5323 1.2264 -15.8059 0.0000 14.6583 0.0000
# 6 0.0000 0.0000 0.0000 -3.6054 0.0000 21.7356
#
#
#
# Elastic Compliance Matrix: (Units=1/GPa)
#
#
# Indices 1 2 3 4 5 6 
#
# 1 0.010628 0.001148 -0.004258 0.000000 0.001499 0.000000
# 2 0.001148 0.030263 -0.001476 0.000000 -0.003455 0.000000
# 3 -0.004258 -0.001476 0.008380 0.000000 0.006681 0.000000
# 4 0.000000 0.000000 0.000000 0.137011 0.000000 0.022727
# 5 0.001499 -0.003455 0.006681 0.000000 0.076587 0.000000
# 6 0.000000 0.000000 0.000000 0.022727 0.000000 0.049777
#
#
# Mechanical properties :
#
#
# Convention : Reuss Voigt Hill
#
# Bulk Modulus (GPa) = 24.93731 51.68748 38.31239
# Shear Modulus (GPa) = 14.91726 25.77992 20.34859
#
# Velocity S-wave (km/s) = 2.68522 3.53002 3.13620
# Velocity P-wave (km/s) = 4.65485 6.44968 5.62432
#
# Compressibility (1/GPa) = 0.04010056
#
# Stress axis : x y z
#
# Youngs Moduli (GPa) = 94.09052 33.04397 119.33802
#
# Poissons Ratio (x) = -0.03794 0.50809
# Poissons Ratio (y) = -0.10804 0.17610
# Poissons Ratio (z) = 0.40060 0.04876
#
# Static dielectric constant tensor:
#      x y z
#    x 1.749200 0.000000 0.006550 
#    y 0.000000 1.796310 0.000000 
#    z 0.006550 0.000000 1.745760 
# 
# From -- ./inp_files/375062.got.cif
#   From: 2010.05.17/outbox.cif.g08.bks.cpg/sg12_188_cif.got.tgz:375062.got - 2010.06.03 13:09:07.
