data_PCOD9192494
_publ_section_title
;
Structure prediction by ZEFSAII (Michael W. Deem and Ramdas Pophale) SiO2 
 PCOD9192494
Probable space group: C 2/M
;
_chemical_formula_sum "Si O2"
_cell_formula_units_Z 32
_cell_length_a 27.012885
_cell_length_b 10.914327
_cell_length_c 4.952012
_cell_angle_alpha 90.000000
_cell_angle_beta 98.652916
_cell_angle_gamma 90.000000
_cell_volume 1443.371312
_symmetry_space_group_name_H-M "C 2/M"
_symmetry_group_IT_number 12
_symmetry_cell_setting 'monoclinic'
loop_
_space_group_symop_operation_xyz
x,y,z
-x,y,-z
-x,-y,-z
x,-y,z
1/2+x,1/2+y,z
1/2-x,1/2+y,-z
1/2-x,1/2-y,-z
1/2+x,1/2-y,z
loop_
_atom_site_type_symbol
_atom_site_label
_atom_site_fract_x
_atom_site_fract_y
_atom_site_fract_z
Si Si1 0.947140 0.290380 0.509999
Si Si2 0.079154 0.140626 0.043547
Si Si3 0.216628 0.363154 0.869731
Si Si4 0.348701 0.187254 0.695743
O O1 0.956901 0.183775 0.742194
O O2 0.900944 0.360782 0.610757
O O3 0.000000 0.353650 0.500000
O O4 0.928065 0.226860 0.221147
O O5 0.133821 0.174465 0.214740
O O6 0.073902 0.000000 0.971393
O O7 0.239805 0.500000 0.879653
O O8 0.193759 0.329394 0.561090
O O9 0.250000 0.250000 0.000000
O O10 0.171139 0.368852 0.045984
#
# Coordination Sequence:
#
# PCOD9192494 Si02
#       4
#     8   8   8   8
#     4  10  20  35  59  91 134 178 221 265 319 391
#     4  10  20  33  56  90 132 177 221 267 319 378
#     4  12  26  46  72  97 129 168 218 275 333 396
#     4  10  22  43  61  94 131 171 212 263 335 382
#
# _framework density 22.17032
#
# number of rings (size 3 to 8) (size 9 to 14) (size 15 to 20)
#    1.500    0.000    2.500    3.000    0.000    5.000 
#    0.000    0.000    0.000    4.500    0.000    0.000 
#    0.000    0.000    0.000    0.000    0.000    0.000 
#
# Total GULP energy -89106.881580 kJ/mol
# GULP energy per Si atom -5569.180099 kJ/mol
# Density = 2.211986 g / cm^3
# Si number density = 22.170320 Si / 1000 Ang^3
#
#
#
# Elastic Constant Matrix: (Units=GPa)
#
#
# Indices 1 2 3 4 5 6 
#
# 1 66.1158 43.0581 2.7245 0.0000 -7.0233 0.0000
# 2 43.0581 103.4526 24.4840 0.0000 15.5672 0.0000
# 3 2.7245 24.4840 127.3390 0.0000 -10.4128 0.0000
# 4 0.0000 0.0000 0.0000 6.2134 0.0000 2.3495
# 5 -7.0233 15.5672 -10.4128 0.0000 33.4356 0.0000
# 6 0.0000 0.0000 0.0000 2.3495 0.0000 5.7831
#
#
#
# Elastic Compliance Matrix: (Units=1/GPa)
#
#
# Indices 1 2 3 4 5 6 
#
# 1 0.024553 -0.012707 0.002897 0.000000 0.011976 0.000000
# 2 -0.012707 0.017778 -0.004147 0.000000 -0.012238 0.000000
# 3 0.002897 -0.004147 0.009026 0.000000 0.005350 0.000000
# 4 0.000000 0.000000 0.000000 0.190155 0.000000 -0.077253
# 5 0.011976 -0.012238 0.005350 0.000000 0.039788 0.000000
# 6 0.000000 0.000000 0.000000 -0.077253 0.000000 0.204302
#
#
# Mechanical properties :
#
#
# Convention : Reuss Voigt Hill
#
# Bulk Modulus (GPa) = 42.65604 48.60451 45.63027
# Shear Modulus (GPa) = 9.59082 24.19579 16.89331
#
# Velocity S-wave (km/s) = 2.08215 3.30716 2.76339
# Velocity P-wave (km/s) = 5.00624 6.04598 5.55051
#
# Compressibility (1/GPa) = 0.02344334
#
# Stress axis : x y z
#
# Youngs Moduli (GPa) = 40.72759 56.24866 110.79134
#
# Poissons Ratio (x) = 0.71476 -0.32099
# Poissons Ratio (y) = 0.51753 0.45947
# Poissons Ratio (z) = -0.11800 0.23327
#
# Static dielectric constant tensor:
#      x y z
#    x 1.912290 0.000000 0.017630 
#    y 0.000000 1.802490 0.000000 
#    z 0.017630 0.000000 1.795550 
# 
# From -- ./inp_files/30489.got.cif
#   From: 2010.05.17/outbox.cif.g08.bks.cpg/sg12_16_cif.got.tgz:30489.got - 2010.06.03 13:09:07.
