data_PCOD9192608
_publ_section_title
;
Structure prediction by ZEFSAII (Michael W. Deem and Ramdas Pophale) SiO2 
 PCOD9192608
Probable space group: C 2/M
;
_chemical_formula_sum "Si O2"
_cell_formula_units_Z 44
_cell_length_a 5.035899
_cell_length_b 29.722659
_cell_length_c 15.809419
_cell_angle_alpha 90.000000
_cell_angle_beta 84.315257
_cell_angle_gamma 90.000000
_cell_volume 2354.720922
_symmetry_space_group_name_H-M "C 2/M"
_symmetry_group_IT_number 12
_symmetry_cell_setting 'monoclinic'
loop_
_space_group_symop_operation_xyz
x,y,z
-x,y,-z
-x,-y,-z
x,-y,z
1/2+x,1/2+y,z
1/2-x,1/2+y,-z
1/2-x,1/2-y,-z
1/2+x,1/2-y,z
loop_
_atom_site_type_symbol
_atom_site_label
_atom_site_fract_x
_atom_site_fract_y
_atom_site_fract_z
Si Si1 0.070306 0.553409 0.694231
Si Si2 0.556256 0.220750 0.899518
Si Si3 0.383813 0.447709 0.417768
Si Si4 0.371194 0.596405 0.910997
Si Si5 0.594054 0.869739 0.167293
Si Si6 0.774534 0.000000 0.937059
O O1 0.007400 0.500000 0.719337
O O2 0.378803 0.554630 0.658045
O O3 0.889446 0.566128 0.618192
O O4 0.004048 0.593232 0.761994
O O5 0.360578 0.262954 0.888860
O O6 0.481937 0.182747 0.833042
O O7 0.500000 0.207179 0.000000
O O8 0.500000 0.426206 0.500000
O O9 0.331787 0.500000 0.440296
O O10 0.590262 0.623071 0.850678
O O11 0.329742 0.544860 0.883932
O O12 0.078065 0.615582 0.909380
O O13 0.500000 0.596666 0.000000
O O14 0.500000 0.000000 0.000000
O O15 0.000000 0.000000 0.000000
#
# Coordination Sequence:
#
# PCOD9192608 Si02
#       6
#     8   8   8   8   8   4
#     4  10  21  33  50  79 114 142 172 212 264 319
#     4  10  21  38  58  76  97 131 183 239 283 322
#     4   9  17  33  54  75 104 146 184 211 243 301
#     4  11  22  34  50  68  98 141 186 218 252 312
#     4  12  23  35  55  78 108 137 174 229 287 324
#     4  10  20  34  46  64  92 132 183 216 235 288
#
# _framework density 18.685866999999998
#
# number of rings (size 3 to 8) (size 9 to 14) (size 15 to 20)
#    0.000    1.636    0.000    6.545    2.545    3.636 
#    0.000    0.000    0.000    0.000    0.000    0.000 
#    0.000   14.545    0.000    0.000    0.000    0.000 
#
# Total GULP energy -122496.825532 kJ/mol
# GULP energy per Si atom -5568.037524 kJ/mol
# Density = 1.864334 g / cm^3
# Si number density = 18.685867 Si / 1000 Ang^3
#
#
#
# Elastic Constant Matrix: (Units=GPa)
#
#
# Indices 1 2 3 4 5 6 
#
# 1 82.8604 -2.4399 -5.4881 0.0000 7.2158 0.0000
# 2 -2.4399 70.4195 16.5288 0.0000 0.8196 0.0000
# 3 -5.4881 16.5288 41.0624 0.0000 5.5246 0.0000
# 4 0.0000 0.0000 0.0000 12.7971 0.0000 7.2271
# 5 7.2158 0.8196 5.5246 0.0000 18.7253 0.0000
# 6 0.0000 0.0000 0.0000 7.2271 0.0000 17.7925
#
#
#
# Elastic Compliance Matrix: (Units=1/GPa)
#
#
# Indices 1 2 3 4 5 6 
#
# 1 0.012722 -0.000078 0.002490 0.000000 -0.005633 0.000000
# 2 -0.000078 0.015710 -0.006504 0.000000 0.001261 0.000000
# 3 0.002490 -0.006504 0.028527 0.000000 -0.009091 0.000000
# 4 0.000000 0.000000 0.000000 0.101405 0.000000 -0.041189
# 5 -0.005633 0.001261 -0.009091 0.000000 0.058202 0.000000
# 6 0.000000 0.000000 0.000000 -0.041189 0.000000 0.072934
#
#
# Mechanical properties :
#
#
# Convention : Reuss Voigt Hill
#
# Bulk Modulus (GPa) = 20.50268 23.50489 22.00379
# Shear Modulus (GPa) = 15.92653 22.24571 19.08612
#
# Velocity S-wave (km/s) = 2.92264 3.45412 3.19943
# Velocity P-wave (km/s) = 4.73130 5.33987 5.04477
#
# Compressibility (1/GPa) = 0.04877410
#
# Stress axis : x y z
#
# Youngs Moduli (GPa) = 78.60599 63.65450 35.05448
#
# Poissons Ratio (x) = 0.00497 -0.08727
# Poissons Ratio (y) = 0.00613 0.22799
# Poissons Ratio (z) = -0.19570 0.41400
#
# Static dielectric constant tensor:
#      x y z
#    x 2.283280 0.000000 0.871910 
#    y 0.000000 1.739490 0.000000 
#    z 0.871910 0.000000 2.823210 
# 
# From -- ./inp_files/191915.got.cif
#   From: 2010.05.17/outbox.cif.g08.bks.cpg/sg12_96_cif.got.tgz:191915.got - 2010.06.03 13:09:07.
