data_PCOD9192154
_publ_section_title
;
Structure prediction by ZEFSAII (Michael W. Deem and Ramdas Pophale) SiO2 
 PCOD9192154
Probable space group: C 2/M
;
_chemical_formula_sum "Si O2"
_cell_formula_units_Z 64
_cell_length_a 16.272596
_cell_length_b 7.680626
_cell_length_c 31.096094
_cell_angle_alpha 90.000000
_cell_angle_beta 49.852406
_cell_angle_gamma 90.000000
_cell_volume 2970.790808
_symmetry_space_group_name_H-M "C 2/M"
_symmetry_group_IT_number 12
_symmetry_cell_setting 'monoclinic'
loop_
_space_group_symop_operation_xyz
x,y,z
-x,y,-z
-x,-y,-z
x,-y,z
1/2+x,1/2+y,z
1/2-x,1/2+y,-z
1/2-x,1/2-y,-z
1/2+x,1/2-y,z
loop_
_atom_site_type_symbol
_atom_site_label
_atom_site_fract_x
_atom_site_fract_y
_atom_site_fract_z
Si Si1 0.106753 0.211329 0.938178
Si Si2 0.509845 0.289493 0.566103
Si Si3 0.827390 0.787688 0.564172
Si Si4 0.294635 0.209039 0.938074
Si Si5 0.014462 0.704470 0.826950
Si Si6 0.301547 0.201509 0.181547
Si Si7 0.417984 0.794975 0.362392
Si Si8 0.928860 0.200120 0.765180
O O1 0.209507 0.269079 0.931229
O O2 0.120938 0.286524 0.886001
O O3 0.106287 0.000000 0.935006
O O4 0.000000 0.262723 0.000000
O O5 0.509201 0.500000 0.567307
O O6 0.396275 0.234265 0.582965
O O7 0.602496 0.234943 0.501057
O O8 0.538545 0.228064 0.603935
O O9 0.704560 0.728763 0.601587
O O10 0.826136 0.000000 0.564535
O O11 0.412859 0.279034 0.887467
O O12 0.298916 0.000000 0.932755
O O13 0.250000 0.250000 0.000000
O O14 0.020574 0.500000 0.836096
O O15 0.986955 0.716045 0.786270
O O16 0.128779 0.779466 0.803171
O O17 0.187375 0.281412 0.206677
O O18 0.275780 0.000000 0.200708
O O19 0.497240 0.708807 0.301581
O O20 0.416779 0.000000 0.352849
O O21 0.911941 0.000000 0.784008
#
# Coordination Sequence:
#
# PCOD9192154 Si02
#       8
#     8   8   8   8   8   8   8   8
#     4  10  20  34  54  83 116 144 175 220 276 335
#     4   9  17  35  60  85 115 152 192 234 276 331
#     4   8  17  34  58  85 116 154 191 228 281 337
#     4  10  20  33  53  81 112 143 175 217 271 332
#     4  10  21  40  61  81 107 143 184 231 283 333
#     4  10  22  39  60  82 107 142 186 231 279 333
#     4  11  22  36  56  84 116 151 190 234 285 336
#     4  11  24  41  58  81 110 148 194 239 282 334
#
# _framework density 21.543085000000001
#
# number of rings (size 3 to 8) (size 9 to 14) (size 15 to 20)
#    0.000    2.125    1.250    2.625    0.000    3.250 
#    0.000    8.125    0.000    0.000    0.000    0.000 
#    0.000    0.000    0.000    0.000    0.000    0.000 
#
# Total GULP energy -178711.253327 kJ/mol
# GULP energy per Si atom -5584.726666 kJ/mol
# Density = 2.149405 g / cm^3
# Si number density = 21.543085 Si / 1000 Ang^3
#
#
#
# Elastic Constant Matrix: (Units=GPa)
#
#
# Indices 1 2 3 4 5 6 
#
# 1 184.3635 -0.3834 61.7109 -0.0005 2.6982 0.0079
# 2 -0.3834 39.3264 -10.8252 -0.0047 -4.1041 0.0259
# 3 61.7109 -10.8252 90.0272 -0.0015 1.3245 0.0032
# 4 -0.0005 -0.0047 -0.0015 17.0260 0.0001 15.8951
# 5 2.6982 -4.1041 1.3245 0.0001 14.1918 -0.0005
# 6 0.0079 0.0259 0.0032 15.8951 -0.0005 8.3067
#
#
#
# Elastic Compliance Matrix: (Units=1/GPa)
#
#
# Indices 1 2 3 4 5 6 
#
# 1 0.007128 -0.001454 -0.005041 0.000000 -0.001305 -0.000001
# 2 -0.001454 0.027377 0.004174 -0.000111 0.007804 0.000127
# 3 -0.005041 0.004174 0.015054 -0.000020 0.000761 0.000023
# 4 0.000000 -0.000111 -0.000020 -0.074684 -0.000025 0.142910
# 5 -0.001305 0.007804 0.000761 -0.000025 0.072897 0.000029
# 6 -0.000001 0.000127 0.000023 0.142910 0.000029 -0.153078
#
#
# Mechanical properties :
#
#
# Convention : Reuss Voigt Hill
#
# Bulk Modulus (GPa) = 22.26396 46.08017 34.17206
# Shear Modulus (GPa) = -58.35045 25.45255 -16.44895
#
# Velocity S-wave (km/s) = -5.21002 3.44098 -2.76622
# Velocity P-wave (km/s) = 5.08284 6.10110 2.38622
#
# Compressibility (1/GPa) = 0.04491565
#
# Stress axis : x y z
#
# Youngs Moduli (GPa) = 140.29881 36.52652 66.42646
#
# Poissons Ratio (x) = 0.05313 0.33489
# Poissons Ratio (y) = 0.20406 -0.27727
# Poissons Ratio (z) = 0.70731 -0.15247
#
# Static dielectric constant tensor:
#      x y z
#    x 1.808860 0.000000 -0.032530 
#    y 0.000000 1.819220 0.000000 
#    z -0.032530 0.000000 1.742910 
# 
# From -- ./inp_files/375383.got.cif
#   From: 2010.05.17/outbox.cif.g08.bks.cpg/sg12_188_cif.got.tgz:375383.got - 2010.06.03 13:09:07.
