data_PCOD9192690
_publ_section_title
;
Structure prediction by ZEFSAII (Michael W. Deem and Ramdas Pophale) SiO2 
 PCOD9192690
Probable space group: C 2/M
;
_chemical_formula_sum "Si O2"
_cell_formula_units_Z 64
_cell_length_a 34.121130
_cell_length_b 9.059914
_cell_length_c 18.468290
_cell_angle_alpha 90.000000
_cell_angle_beta 140.423565
_cell_angle_gamma 90.000000
_cell_volume 3637.362340
_symmetry_space_group_name_H-M "C 2/M"
_symmetry_group_IT_number 12
_symmetry_cell_setting 'monoclinic'
loop_
_space_group_symop_operation_xyz
x,y,z
-x,y,-z
-x,-y,-z
x,-y,z
1/2+x,1/2+y,z
1/2-x,1/2+y,-z
1/2-x,1/2-y,-z
1/2+x,1/2-y,z
loop_
_atom_site_type_symbol
_atom_site_label
_atom_site_fract_x
_atom_site_fract_y
_atom_site_fract_z
Si Si1 0.496539 0.323978 0.813101
Si Si2 0.769480 0.171136 0.601260
Si Si3 0.639432 0.176081 0.642407
Si Si4 0.103685 0.325217 0.041634
Si Si5 0.914682 0.170029 0.836173
Si Si6 0.028856 0.324356 0.372049
Si Si7 0.056399 0.169763 0.637893
Si Si8 0.253230 0.823450 0.729533
O O1 0.497985 0.500000 0.806380
O O2 0.455952 0.289753 0.826419
O O3 0.467938 0.249369 0.701678
O O4 0.564120 0.260259 0.925737
O O5 0.750000 0.250000 0.500000
O O6 0.843462 0.175054 0.711585
O O7 0.745543 0.254838 0.638433
O O8 0.749636 0.000000 0.574045
O O9 0.589348 0.204632 0.507106
O O10 0.611095 0.246774 0.674627
O O11 0.702974 0.250557 0.709714
O O12 0.645442 0.000000 0.658401
O O13 0.095663 0.500000 0.021940
O O14 0.079176 0.272407 0.085221
O O15 0.176619 0.291511 0.145765
O O16 0.928538 0.000000 0.877124
O O17 0.021811 0.500000 0.356079
O O18 0.970992 0.254809 0.332386
O O19 0.000000 0.168408 0.500000
O O20 0.071837 0.000000 0.676688
O O21 0.245738 0.000000 0.715960
#
# Coordination Sequence:
#
# PCOD9192690 Si02
#       8
#     8   8   8   8   8   8   8   8
#     4  11  22  35  54  78 105 140 178 221 267 317
#     4  10  20  34  50  72 104 141 176 217 267 316
#     4  10  20  34  55  83 111 141 175 216 261 313
#     4  10  21  37  55  76 102 137 180 226 269 310
#     4   9  20  36  52  73 101 137 179 221 265 315
#     4  10  21  35  52  80 113 141 172 216 265 313
#     4   9  17  32  54  79 108 143 175 209 256 315
#     4  10  21  36  54  76 103 139 180 220 262 315
#
# _framework density 17.595168000000001
#
# number of rings (size 3 to 8) (size 9 to 14) (size 15 to 20)
#    0.000    2.125    0.000    3.000    1.750    7.500 
#    0.000    0.000    0.000    0.750    0.000    0.000 
#    0.000    0.000    0.000    0.000    0.000    0.000 
#
# Total GULP energy -178662.685891 kJ/mol
# GULP energy per Si atom -5583.208934 kJ/mol
# Density = 1.755512 g / cm^3
# Si number density = 17.595168 Si / 1000 Ang^3
#
#
#
# Elastic Constant Matrix: (Units=GPa)
#
#
# Indices 1 2 3 4 5 6 
#
# 1 109.2841 49.5779 9.3478 0.0000 12.9294 0.0000
# 2 49.5779 84.5260 27.1118 0.0000 5.3197 0.0000
# 3 9.3478 27.1118 28.5374 0.0000 0.9170 0.0000
# 4 0.0000 0.0000 0.0000 23.6456 0.0000 -6.9489
# 5 12.9294 5.3197 0.9170 0.0000 8.8787 0.0000
# 6 0.0000 0.0000 0.0000 -6.9489 0.0000 31.5081
#
#
#
# Elastic Compliance Matrix: (Units=1/GPa)
#
#
# Indices 1 2 3 4 5 6 
#
# 1 0.014852 -0.009024 0.004244 0.000000 -0.016660 0.000000
# 2 -0.009024 0.023172 -0.019098 0.000000 0.001230 0.000000
# 3 0.004244 -0.019098 0.051798 0.000000 -0.000087 0.000000
# 4 0.000000 0.000000 0.000000 0.045222 0.000000 0.009973
# 5 -0.016660 0.001230 -0.000087 0.000000 0.136161 0.000000
# 6 0.000000 0.000000 0.000000 0.009973 0.000000 0.033937
#
#
# Mechanical properties :
#
#
# Convention : Reuss Voigt Hill
#
# Bulk Modulus (GPa) = 23.77235 43.82471 33.79853
# Shear Modulus (GPa) = 13.62687 21.89383 17.76035
#
# Velocity S-wave (km/s) = 2.78594 3.53130 3.18053
# Velocity P-wave (km/s) = 4.88761 6.44889 5.72175
#
# Compressibility (1/GPa) = 0.04206567
#
# Stress axis : x y z
#
# Youngs Moduli (GPa) = 67.32906 43.15559 19.30568
#
# Poissons Ratio (x) = 0.38944 -0.08193
# Poissons Ratio (y) = 0.60759 0.36870
# Poissons Ratio (z) = -0.28572 0.82418
#
# Static dielectric constant tensor:
#      x y z
#    x 1.586880 0.000000 0.014320 
#    y 0.000000 1.587780 0.000000 
#    z 0.014320 0.000000 1.586850 
# 
# From -- ./inp_files/249899.got.cif
#   From: 2010.05.17/outbox.cif.g08.bks.cpg/sg12_125_cif.got.tgz:249899.got - 2010.06.03 13:09:07.
