data_PCOD9192998
_publ_section_title
;
Structure prediction by ZEFSAII (Michael W. Deem and Ramdas Pophale) SiO2 
 PCOD9192998
Probable space group: C 2/M
;
_chemical_formula_sum "Si O2"
_cell_formula_units_Z 56
_cell_length_a 14.686768
_cell_length_b 9.268170
_cell_length_c 29.190686
_cell_angle_alpha 90.000000
_cell_angle_beta 129.557083
_cell_angle_gamma 90.000000
_cell_volume 3063.469389
_symmetry_space_group_name_H-M "C 2/M"
_symmetry_group_IT_number 12
_symmetry_cell_setting 'monoclinic'
loop_
_space_group_symop_operation_xyz
x,y,z
-x,y,-z
-x,-y,-z
x,-y,z
1/2+x,1/2+y,z
1/2-x,1/2+y,-z
1/2-x,1/2-y,-z
1/2+x,1/2-y,z
loop_
_atom_site_type_symbol
_atom_site_label
_atom_site_fract_x
_atom_site_fract_y
_atom_site_fract_z
Si Si1 0.797863 0.830505 0.819688
Si Si2 0.937311 0.337712 0.935590
Si Si3 0.903239 0.826775 0.506752
Si Si4 0.471970 0.173022 0.271365
Si Si5 0.159443 0.663439 0.939183
Si Si6 0.128915 0.327139 0.408851
Si Si7 0.513874 0.671803 0.820028
O O1 0.834268 0.746121 0.877133
O O2 0.665457 0.796584 0.761834
O O3 0.894753 0.802199 0.811481
O O4 0.803975 0.000000 0.832062
O O5 0.898386 0.500000 0.936140
O O6 0.041029 0.347595 0.931548
O O7 0.000000 0.269323 0.000000
O O8 0.917606 0.750848 0.560431
O O9 0.768457 0.793913 0.448303
O O10 0.000000 0.782425 0.500000
O O11 0.912402 0.000000 0.515300
O O12 0.555474 0.213846 0.340359
O O13 0.499953 0.257614 0.233946
O O14 0.483994 0.000000 0.267679
O O15 0.200170 0.500000 0.941922
O O16 0.120047 0.751227 0.881759
O O17 0.250000 0.750000 0.000000
O O18 0.118195 0.500000 0.411412
O O19 0.533381 0.500000 0.823728
#
# Coordination Sequence:
#
# PCOD9192998 Si02
#       7
#     8   8   8   8   8   8   8
#     4   9  20  37  53  73 102 136 174 218 266 323
#     4   9  19  34  51  73  99 127 164 215 268 319
#     4   9  18  34  56  82 114 148 183 224 266 310
#     4  10  21  37  56  79 109 145 181 221 274 324
#     4  10  20  34  52  75 103 133 168 217 273 327
#     4   9  19  35  54  80 113 146 182 224 266 318
#     4  10  21  37  54  75 104 138 178 222 269 323
#
# _framework density 18.279928999999999
#
# number of rings (size 3 to 8) (size 9 to 14) (size 15 to 20)
#    0.000    2.571    0.000    0.857    2.000    4.000 
#    0.000    0.000    0.000    0.000    0.000    0.000 
#    0.000    0.000    0.000    0.000    0.000    0.000 
#
# Total GULP energy -156191.453541 kJ/mol
# GULP energy per Si atom -5578.266198 kJ/mol
# Density = 1.823832 g / cm^3
# Si number density = 18.279929 Si / 1000 Ang^3
#
#
#
# Elastic Constant Matrix: (Units=GPa)
#
#
# Indices 1 2 3 4 5 6 
#
# 1 98.8700 51.9505 69.8411 0.0000 -11.6630 0.0000
# 2 51.9505 62.1580 77.3524 0.0000 -7.1018 0.0000
# 3 69.8411 77.3524 198.1137 0.0000 -17.3542 0.0000
# 4 0.0000 0.0000 0.0000 31.4237 0.0000 -6.7574
# 5 -11.6630 -7.1018 -17.3542 0.0000 20.3433 0.0000
# 6 0.0000 0.0000 0.0000 -6.7574 0.0000 6.5867
#
#
#
# Elastic Compliance Matrix: (Units=1/GPa)
#
#
# Indices 1 2 3 4 5 6 
#
# 1 0.018623 -0.014330 -0.000511 0.000000 0.005238 0.000000
# 2 -0.014330 0.042325 -0.011779 0.000000 -0.003489 0.000000
# 3 -0.000511 -0.011779 0.010204 0.000000 0.004299 0.000000
# 4 0.000000 0.000000 0.000000 0.040831 0.000000 0.041890
# 5 0.005238 -0.003489 0.004299 0.000000 0.054609 0.000000
# 6 0.000000 0.000000 0.000000 0.041890 0.000000 0.194798
#
#
# Mechanical properties :
#
#
# Convention : Reuss Voigt Hill
#
# Bulk Modulus (GPa) = 55.83388 84.15887 69.99638
# Shear Modulus (GPa) = 11.88776 22.33724 17.11250
#
# Velocity S-wave (km/s) = 2.55290 3.49944 3.06295
# Velocity P-wave (km/s) = 6.26896 7.90361 7.13326
#
# Compressibility (1/GPa) = 0.01791027
#
# Stress axis : x y z
#
# Youngs Moduli (GPa) = 53.69725 23.62666 98.00439
#
# Poissons Ratio (x) = 0.33857 0.05010
# Poissons Ratio (y) = 0.76948 1.15443
# Poissons Ratio (z) = 0.02745 0.27831
#
# Static dielectric constant tensor:
#      x y z
#    x 1.640360 0.000000 0.015830 
#    y 0.000000 1.635300 0.000000 
#    z 0.015830 0.000000 1.601930 
# 
# From -- ./inp_files/375124.got.cif
#   From: 2010.05.17/outbox.cif.g08.bks.cpg/sg12_188_cif.got.tgz:375124.got - 2010.06.03 13:09:07.
