data_PCOD9192417
_publ_section_title
;
Structure prediction by ZEFSAII (Michael W. Deem and Ramdas Pophale) SiO2 
 PCOD9192417
Probable space group: C 2/M
;
_chemical_formula_sum "Si O2"
_cell_formula_units_Z 56
_cell_length_a 19.606758
_cell_length_b 9.208255
_cell_length_c 28.127097
_cell_angle_alpha 90.000000
_cell_angle_beta 141.437028
_cell_angle_gamma 90.000000
_cell_volume 3165.607022
_symmetry_space_group_name_H-M "C 2/M"
_symmetry_group_IT_number 12
_symmetry_cell_setting 'monoclinic'
loop_
_space_group_symop_operation_xyz
x,y,z
-x,y,-z
-x,-y,-z
x,-y,z
1/2+x,1/2+y,z
1/2-x,1/2+y,-z
1/2-x,1/2-y,-z
1/2+x,1/2-y,z
loop_
_atom_site_type_symbol
_atom_site_label
_atom_site_fract_x
_atom_site_fract_y
_atom_site_fract_z
Si Si1 0.741972 0.674157 0.144430
Si Si2 0.821000 0.175017 0.997692
Si Si3 0.360634 0.167459 0.548353
Si Si4 0.923431 0.174061 0.861518
Si Si5 0.919382 0.171663 0.304166
Si Si6 0.379020 0.832143 0.445005
Si Si7 0.750785 0.670708 0.702453
O O1 0.759327 0.500000 0.157010
O O2 0.637696 0.707628 0.121742
O O3 0.845046 0.757442 0.222694
O O4 0.720244 0.712043 0.077891
O O5 0.949439 0.215183 0.070096
O O6 0.813799 0.000000 0.998777
O O7 0.750000 0.250000 0.000000
O O8 0.250000 0.250000 0.500000
O O9 0.465749 0.248209 0.627073
O O10 0.367979 0.168907 0.495284
O O11 0.358242 0.000000 0.562971
O O12 0.854492 0.252147 0.782882
O O13 0.916296 0.000000 0.851494
O O14 0.848665 0.191001 0.314025
O O15 0.934236 0.000000 0.304485
O O16 0.500000 0.773089 0.500000
O O17 0.288072 0.742572 0.367542
O O18 0.374745 0.000000 0.425618
O O19 0.770427 0.500000 0.707790
#
# Coordination Sequence:
#
# PCOD9192417 Si02
#       7
#     8   8   8   8   8   8   8
#     4   9  18  35  60  84 106 140 188 232 271 321
#     4  10  21  37  57  83 113 146 180 222 276 331
#     4  11  23  39  58  81 112 149 188 231 278 330
#     4   9  18  35  59  82 108 143 186 230 270 323
#     4  10  20  35  56  84 115 145 183 229 280 330
#     4  10  20  36  59  83 109 145 188 228 273 329
#     4  10  20  33  55  87 116 142 180 233 281 321
#
# _framework density 17.690131000000001
#
# number of rings (size 3 to 8) (size 9 to 14) (size 15 to 20)
#    0.000    2.143    1.429    1.714    0.000    5.429 
#    2.571    0.000    0.000    4.286    0.000    0.000 
#    0.000    0.000    0.000    0.000    0.000    0.000 
#
# Total GULP energy -156280.778725 kJ/mol
# GULP energy per Si atom -5581.456383 kJ/mol
# Density = 1.764987 g / cm^3
# Si number density = 17.690131 Si / 1000 Ang^3
#
#
#
# Elastic Constant Matrix: (Units=GPa)
#
#
# Indices 1 2 3 4 5 6 
#
# 1 78.6784 48.5346 74.1117 0.0000 12.2903 0.0000
# 2 48.5346 75.0347 80.1920 0.0000 14.7418 0.0000
# 3 74.1117 80.1920 167.8595 0.0000 14.8586 0.0000
# 4 0.0000 0.0000 0.0000 25.2684 0.0000 3.0141
# 5 12.2903 14.7418 14.8586 0.0000 23.1330 0.0000
# 6 0.0000 0.0000 0.0000 3.0141 0.0000 28.5307
#
#
#
# Elastic Compliance Matrix: (Units=1/GPa)
#
#
# Indices 1 2 3 4 5 6 
#
# 1 0.024498 -0.008002 -0.006672 0.000000 -0.003631 0.000000
# 2 -0.008002 0.031986 -0.010942 0.000000 -0.009104 0.000000
# 3 -0.006672 -0.010942 0.013995 0.000000 0.001528 0.000000
# 4 0.000000 0.000000 0.000000 0.040080 0.000000 -0.004234
# 5 -0.003631 -0.009104 0.001528 0.000000 0.049977 0.000000
# 6 0.000000 0.000000 0.000000 -0.004234 0.000000 0.035497
#
#
# Mechanical properties :
#
#
# Convention : Reuss Voigt Hill
#
# Bulk Modulus (GPa) = 51.95618 80.80545 66.38082
# Shear Modulus (GPa) = 19.70986 23.30205 21.50595
#
# Velocity S-wave (km/s) = 3.34154 3.63331 3.49048
# Velocity P-wave (km/s) = 6.65746 7.96107 7.33827
#
# Compressibility (1/GPa) = 0.01924699
#
# Stress axis : x y z
#
# Youngs Moduli (GPa) = 40.81944 31.26416 71.45479
#
# Poissons Ratio (x) = 0.25019 0.47673
# Poissons Ratio (y) = 0.32666 0.78182
# Poissons Ratio (z) = 0.27234 0.34208
#
# Static dielectric constant tensor:
#      x y z
#    x 1.587030 0.000000 0.003690 
#    y 0.000000 1.597140 0.000000 
#    z 0.003690 0.000000 1.572930 
# 
# From -- ./inp_files/362944.got.cif
#   From: 2010.05.17/outbox.cif.g08.bks.cpg/sg12_182_cif.got.tgz:362944.got - 2010.06.03 13:09:07.
