data_PCOD9192767
_publ_section_title
;
Structure prediction by ZEFSAII (Michael W. Deem and Ramdas Pophale) SiO2 
 PCOD9192767
Probable space group: C 2/M
;
_chemical_formula_sum "Si O2"
_cell_formula_units_Z 64
_cell_length_a 14.548154
_cell_length_b 8.722951
_cell_length_c 32.459770
_cell_angle_alpha 90.000000
_cell_angle_beta 116.627668
_cell_angle_gamma 90.000000
_cell_volume 3682.341956
_symmetry_space_group_name_H-M "C 2/M"
_symmetry_group_IT_number 12
_symmetry_cell_setting 'monoclinic'
loop_
_space_group_symop_operation_xyz
x,y,z
-x,y,-z
-x,-y,-z
x,-y,z
1/2+x,1/2+y,z
1/2-x,1/2+y,-z
1/2-x,1/2-y,-z
1/2+x,1/2-y,z
loop_
_atom_site_type_symbol
_atom_site_label
_atom_site_fract_x
_atom_site_fract_y
_atom_site_fract_z
Si Si1 0.536195 0.315164 0.878755
Si Si2 0.238113 0.814874 0.869852
Si Si3 0.278684 0.815164 0.621245
Si Si4 0.961882 0.315212 0.947658
Si Si5 0.998408 0.685126 0.630148
Si Si6 0.711215 0.316468 0.699144
Si Si7 0.566566 0.815212 0.552342
Si Si8 0.687072 0.683532 0.199144
O O1 0.537673 0.500000 0.881464
O O2 0.637291 0.265195 0.874452
O O3 0.527820 0.249915 0.923080
O O4 0.430980 0.269935 0.834198
O O5 0.343270 0.772347 0.914789
O O6 0.247034 0.744532 0.826240
O O7 0.235883 0.000000 0.865811
O O8 0.388387 0.765195 0.625548
O O9 0.262584 0.769935 0.665802
O O10 0.181661 0.749915 0.576921
O O11 0.274746 0.000000 0.618537
O O12 0.968047 0.500000 0.947850
O O13 0.000000 0.262710 0.000000
O O14 0.004259 0.500000 0.634188
O O15 0.094553 0.755467 0.673760
O O16 0.013692 0.727654 0.585211
O O17 0.710715 0.500000 0.701125
O O18 0.771386 0.250001 0.750000
O O19 0.500000 0.762710 0.500000
O O20 0.572347 0.000000 0.552150
O O21 0.691536 0.500000 0.201126
#
# Coordination Sequence:
#
# PCOD9192767 Si02
#       8
#     8   8   8   8   8   8   8   8
#     4   9  19  34  51  72  98 129 164 202 243 288
#     4   9  18  34  52  71  99 131 163 201 243 288
#     4   9  19  34  51  72  98 129 164 202 243 288
#     4   9  18  32  50  73 101 132 165 202 245 291
#     4   9  18  34  52  71  99 131 163 201 243 288
#     4  10  20  34  51  72  97 125 160 199 242 290
#     4   9  18  32  50  73 101 132 165 202 245 291
#     4  10  20  34  51  72  97 125 160 199 242 290
#
# _framework density 17.380244000000001
#
# number of rings (size 3 to 8) (size 9 to 14) (size 15 to 20)
#    0.000    2.750    0.000    0.750    0.000    4.500 
#    0.000    2.500    0.000    0.000    0.000    0.000 
#    0.000    0.000    0.000    0.000    0.000    0.000 
#
# Total GULP energy -178462.932062 kJ/mol
# GULP energy per Si atom -5576.966627 kJ/mol
# Density = 1.734069 g / cm^3
# Si number density = 17.380244 Si / 1000 Ang^3
#
#
#
# Elastic Constant Matrix: (Units=GPa)
#
#
# Indices 1 2 3 4 5 6 
#
# 1 135.8600 23.1338 41.8411 0.0000 -0.0001 0.0000
# 2 23.1338 9.7453 24.2962 0.0000 0.0001 0.0000
# 3 41.8411 24.2962 124.1987 0.0000 -0.0001 0.0000
# 4 0.0000 0.0000 0.0000 8.0475 0.0000 0.0001
# 5 -0.0001 0.0001 -0.0001 0.0000 8.0051 0.0000
# 6 0.0000 0.0000 0.0000 0.0001 0.0000 22.3058
#
#
#
# Elastic Compliance Matrix: (Units=1/GPa)
#
#
# Indices 1 2 3 4 5 6 
#
# 1 0.012986 -0.038885 0.003232 0.000000 0.000001 0.000000
# 2 -0.038885 0.316738 -0.048862 0.000000 -0.000005 0.000000
# 3 0.003232 -0.048862 0.016521 0.000000 0.000001 0.000000
# 4 0.000000 0.000000 0.000000 0.124263 0.000000 -0.000001
# 5 0.000001 -0.000005 0.000001 0.000000 0.124920 0.000000
# 6 0.000000 0.000000 0.000000 -0.000001 0.000000 0.044831
#
#
# Mechanical properties :
#
#
# Convention : Reuss Voigt Hill
#
# Bulk Modulus (GPa) = 5.64284 49.81626 27.72955
# Shear Modulus (GPa) = 5.75797 19.70719 12.73258
#
# Velocity S-wave (km/s) = 1.82212 3.37097 2.70958
# Velocity P-wave (km/s) = 2.77139 6.62390 5.07724
#
# Compressibility (1/GPa) = 0.17721585
#
# Stress axis : x y z
#
# Youngs Moduli (GPa) = 77.00340 3.15719 60.52787
#
# Poissons Ratio (x) = 0.12277 -0.19562
# Poissons Ratio (y) = 2.99429 2.95748
# Poissons Ratio (z) = -0.24887 0.15426
#
# Static dielectric constant tensor:
#      x y z
#    x 1.577750 0.000000 0.000000 
#    y 0.000000 1.582250 0.000000 
#    z 0.000000 0.000000 1.568410 
# 
# From -- ./inp_files/359751.got.cif
#   From: 2010.05.17/outbox.cif.g08.bks.cpg/sg12_180_cif.got.tgz:359751.got - 2010.06.03 13:09:07.
