data_PCOD9192848
_publ_section_title
;
Structure prediction by ZEFSAII (Michael W. Deem and Ramdas Pophale) SiO2 
 PCOD9192848
Probable space group: C 2/M
;
_chemical_formula_sum "Si O2"
_cell_formula_units_Z 50
_cell_length_a 28.284325
_cell_length_b 7.665647
_cell_length_c 15.651485
_cell_angle_alpha 90.000000
_cell_angle_beta 49.732809
_cell_angle_gamma 90.000000
_cell_volume 2589.385294
_symmetry_space_group_name_H-M "C 2/M"
_symmetry_group_IT_number 12
_symmetry_cell_setting 'monoclinic'
loop_
_space_group_symop_operation_xyz
x,y,z
-x,y,-z
-x,-y,-z
x,-y,z
1/2+x,1/2+y,z
1/2-x,1/2+y,-z
1/2-x,1/2-y,-z
1/2+x,1/2-y,z
loop_
_atom_site_type_symbol
_atom_site_label
_atom_site_fract_x
_atom_site_fract_y
_atom_site_fract_z
Si Si1 0.164338 0.707177 0.437918
Si Si2 0.990732 0.209796 0.235500
Si Si3 0.298595 0.208704 0.237420
Si Si4 0.972612 0.203897 0.445083
Si Si5 0.000000 0.500000 0.000000
Si Si6 0.351892 0.204359 0.354065
Si Si7 0.419675 0.701511 0.020892
O O1 0.154353 0.500000 0.455480
O O2 0.226936 0.742884 0.314328
O O3 0.101789 0.783617 0.471343
O O4 0.171100 0.777079 0.527743
O O5 0.995258 0.277242 0.327237
O O6 0.926293 0.277379 0.271511
O O7 0.985147 0.000000 0.245152
O O8 0.047518 0.251264 0.106946
O O9 0.323018 0.278687 0.301303
O O10 0.345865 0.282053 0.112254
O O11 0.303010 0.000000 0.230832
O O12 0.000000 0.281783 0.500000
O O13 0.990659 0.000000 0.423126
O O14 0.947101 0.345040 0.052888
O O15 0.336223 0.000000 0.371621
O O16 0.436271 0.500000 0.020871
#
# Coordination Sequence:
#
# PCOD9192848 Si02
#       7
#     8   8   8   8   2   8   8
#     4  10  20  34  51  76 109 142 179 225 281 332
#     4   9  19  33  52  78 108 141 180 230 281 326
#     4  11  21  34  51  75 108 151 194 225 266 326
#     4   9  18  36  61  85 106 134 176 229 289 346
#     4  12  22  36  52  78 110 152 204 228 264 316
#     4   9  19  31  48  72 103 144 183 224 265 317
#     4  11  23  36  52  78 113 152 194 237 273 319
#
# _framework density 19.309604
#
# number of rings (size 3 to 8) (size 9 to 14) (size 15 to 20)
#    0.000    2.080    0.800    2.640    3.360    3.520 
#    0.000    0.000    0.000    0.960    0.000    0.000 
#    0.000    0.000    0.000    0.000    0.000    0.000 
#
# Total GULP energy -139263.204254 kJ/mol
# GULP energy per Si atom -5570.528170 kJ/mol
# Density = 1.926565 g / cm^3
# Si number density = 19.309604 Si / 1000 Ang^3
#
#
#
# Elastic Constant Matrix: (Units=GPa)
#
#
# Indices 1 2 3 4 5 6 
#
# 1 52.1905 -5.4076 37.3394 0.0000 3.0938 -0.0001
# 2 -5.4076 67.7931 0.7295 0.0003 6.0255 -0.0003
# 3 37.3394 0.7295 119.4034 0.0000 -21.0631 0.0000
# 4 0.0000 0.0003 0.0000 10.6909 0.0000 -9.3658
# 5 3.0938 6.0255 -21.0631 0.0000 22.7370 0.0000
# 6 -0.0001 -0.0003 0.0000 -9.3658 0.0000 14.8373
#
#
#
# Elastic Compliance Matrix: (Units=1/GPa)
#
#
# Indices 1 2 3 4 5 6 
#
# 1 0.029054 0.003872 -0.011939 0.000000 -0.016039 0.000000
# 2 0.003872 0.015714 -0.002551 0.000000 -0.007055 0.000000
# 3 -0.011939 -0.002551 0.014977 0.000000 0.016175 0.000000
# 4 0.000000 0.000000 0.000000 0.209252 0.000000 0.132086
# 5 -0.016039 -0.007055 0.016175 0.000000 0.063018 0.000000
# 6 0.000000 0.000000 0.000000 0.132086 0.000000 0.150774
#
#
# Mechanical properties :
#
#
# Convention : Reuss Voigt Hill
#
# Bulk Modulus (GPa) = 25.96803 33.85663 29.91233
# Shear Modulus (GPa) = 9.67376 23.43476 16.55426
#
# Velocity S-wave (km/s) = 2.24069 3.48750 2.93116
# Velocity P-wave (km/s) = 4.49129 5.81279 5.19424
#
# Compressibility (1/GPa) = 0.03850888
#
# Stress axis : x y z
#
# Youngs Moduli (GPa) = 34.41877 63.63734 66.76767
#
# Poissons Ratio (x) = -0.24638 0.79711
# Poissons Ratio (y) = -0.13325 0.17033
# Poissons Ratio (z) = 0.41091 0.16235
#
# Static dielectric constant tensor:
#      x y z
#    x 1.663880 0.000000 0.019120 
#    y 0.000000 1.696830 0.000000 
#    z 0.019120 0.000000 1.745970 
# 
# From -- ./inp_files/237956.got.cif
#   From: 2010.05.17/outbox.cif.g08.bks.cpg/sg12_119_cif.got.tgz:237956.got - 2010.06.03 13:09:07.
