data_PCOD9192789
_publ_section_title
;
Structure prediction by ZEFSAII (Michael W. Deem and Ramdas Pophale) SiO2 
 PCOD9192789
Probable space group: C 2/M
;
_chemical_formula_sum "Si O2"
_cell_formula_units_Z 56
_cell_length_a 19.238297
_cell_length_b 8.837800
_cell_length_c 19.905846
_cell_angle_alpha 90.000000
_cell_angle_beta 121.352971
_cell_angle_gamma 90.000000
_cell_volume 2890.268557
_symmetry_space_group_name_H-M "C 2/M"
_symmetry_group_IT_number 12
_symmetry_cell_setting 'monoclinic'
loop_
_space_group_symop_operation_xyz
x,y,z
-x,y,-z
-x,-y,-z
x,-y,z
1/2+x,1/2+y,z
1/2-x,1/2+y,-z
1/2-x,1/2-y,-z
1/2+x,1/2-y,z
loop_
_atom_site_type_symbol
_atom_site_label
_atom_site_fract_x
_atom_site_fract_y
_atom_site_fract_z
Si Si1 0.431417 0.320746 0.518813
Si Si2 0.321007 0.819247 0.080550
Si Si3 0.302768 0.179477 0.230014
Si Si4 0.012750 0.321208 0.682026
Si Si5 0.506264 0.679380 0.825058
Si Si6 0.250859 0.820818 0.574249
Si Si7 0.662385 0.181320 0.249038
O O1 0.500000 0.278990 0.500000
O O2 0.439674 0.500000 0.538365
O O3 0.447675 0.226912 0.594190
O O4 0.341152 0.296728 0.445750
O O5 0.303204 0.786771 0.150404
O O6 0.409087 0.750278 0.106875
O O7 0.324429 0.000000 0.075039
O O8 0.250000 0.750000 0.000000
O O9 0.395911 0.209974 0.299229
O O10 0.235020 0.270197 0.236257
O O11 0.287670 0.000000 0.230999
O O12 0.007677 0.500000 0.695114
O O13 0.002816 0.228374 0.745105
O O14 0.508082 0.500000 0.832952
O O15 0.423699 0.746943 0.814415
O O16 0.250000 0.750000 0.500000
O O17 0.312113 0.765620 0.662630
O O18 0.264438 0.000000 0.573349
O O19 0.655445 0.000000 0.247079
#
# Coordination Sequence:
#
# PCOD9192789 Si02
#       7
#     8   8   8   8   8   8   8
#     4  10  20  34  51  73 102 139 187 238 287 339
#     4  10  21  40  65  93 122 149 183 225 271 330
#     4   9  20  37  57  83 115 149 184 227 279 334
#     4  10  20  35  54  78 108 143 189 239 284 336
#     4  11  22  37  59  84 112 148 186 226 277 333
#     4  10  22  36  51  74 105 144 187 235 287 335
#     4  11  22  37  57  82 113 148 191 239 284 336
#
# _framework density 19.375363
#
# number of rings (size 3 to 8) (size 9 to 14) (size 15 to 20)
#    0.000    1.857    0.000    5.143    0.000    8.857 
#    0.000    0.714    0.000    4.286    0.000    0.000 
#    0.000    0.000    0.000    0.000    0.000    0.000 
#
# Total GULP energy -156421.436228 kJ/mol
# GULP energy per Si atom -5586.479865 kJ/mol
# Density = 1.933126 g / cm^3
# Si number density = 19.375363 Si / 1000 Ang^3
#
#
#
# Elastic Constant Matrix: (Units=GPa)
#
#
# Indices 1 2 3 4 5 6 
#
# 1 92.7627 37.9585 19.6000 0.0000 21.3086 0.0000
# 2 37.9585 62.2496 31.3861 0.0000 12.9745 0.0000
# 3 19.6000 31.3861 83.0360 0.0000 29.2443 0.0000
# 4 0.0000 0.0000 0.0000 28.6400 0.0000 2.3481
# 5 21.3086 12.9745 29.2443 0.0000 27.0336 0.0000
# 6 0.0000 0.0000 0.0000 2.3481 0.0000 33.5449
#
#
#
# Elastic Compliance Matrix: (Units=1/GPa)
#
#
# Indices 1 2 3 4 5 6 
#
# 1 0.016923 -0.009748 0.004427 0.000000 -0.013450 0.000000
# 2 -0.009748 0.025549 -0.009279 0.000000 0.005459 0.000000
# 3 0.004427 -0.009279 0.022885 0.000000 -0.023792 0.000000
# 4 0.000000 0.000000 0.000000 0.035118 0.000000 -0.002458
# 5 -0.013450 0.005459 -0.023792 0.000000 0.070710 0.000000
# 6 0.000000 0.000000 0.000000 -0.002458 0.000000 0.029983
#
#
# Mechanical properties :
#
#
# Convention : Reuss Voigt Hill
#
# Bulk Modulus (GPa) = 27.65739 46.21527 36.93633
# Shear Modulus (GPa) = 20.62531 27.78395 24.20463
#
# Velocity S-wave (km/s) = 3.26623 3.79091 3.53830
# Velocity P-wave (km/s) = 5.34133 6.56244 5.98312
#
# Compressibility (1/GPa) = 0.03615670
#
# Stress axis : x y z
#
# Youngs Moduli (GPa) = 59.08984 39.14031 43.69744
#
# Poissons Ratio (x) = 0.38155 -0.19345
# Poissons Ratio (y) = 0.57602 0.40546
# Poissons Ratio (z) = -0.26159 0.36318
#
# Static dielectric constant tensor:
#      x y z
#    x 1.702730 0.000000 0.007500 
#    y 0.000000 1.647130 0.000000 
#    z 0.007500 0.000000 1.658500 
# 
# From -- ./inp_files/275567.got.cif
#   From: 2010.05.17/outbox.cif.g08.bks.cpg/sg12_138_cif.got.tgz:275567.got - 2010.06.03 13:09:07.
