data_PCOD9192365
_publ_section_title
;
Structure prediction by ZEFSAII (Michael W. Deem and Ramdas Pophale) SiO2 
 PCOD9192365
Probable space group: C 2/M
;
_chemical_formula_sum "Si O2"
_cell_formula_units_Z 56
_cell_length_a 13.430207
_cell_length_b 14.023978
_cell_length_c 19.865162
_cell_angle_alpha 90.000000
_cell_angle_beta 55.080771
_cell_angle_gamma 90.000000
_cell_volume 3067.881684
_symmetry_space_group_name_H-M "C 2/M"
_symmetry_group_IT_number 12
_symmetry_cell_setting 'monoclinic'
loop_
_space_group_symop_operation_xyz
x,y,z
-x,y,-z
-x,-y,-z
x,-y,z
1/2+x,1/2+y,z
1/2-x,1/2+y,-z
1/2-x,1/2-y,-z
1/2+x,1/2-y,z
loop_
_atom_site_type_symbol
_atom_site_label
_atom_site_fract_x
_atom_site_fract_y
_atom_site_fract_z
Si Si1 0.949193 0.390969 0.116704
Si Si2 0.738423 0.888759 0.017476
Si Si3 0.706458 0.890725 0.690800
Si Si4 0.749922 0.774483 0.884894
Si Si5 0.410023 0.720238 0.690774
Si Si6 0.686191 0.277473 0.594416
Si Si7 0.887923 0.611000 0.595028
O O1 0.924473 0.500000 0.102772
O O2 0.897928 0.383606 0.212222
O O3 0.871145 0.319042 0.101772
O O4 0.092860 0.376713 0.063172
O O5 0.773248 0.825164 0.068274
O O6 0.764927 0.000000 0.015152
O O7 0.793744 0.844457 0.927965
O O8 0.827825 0.854473 0.681274
O O9 0.680949 0.818597 0.640772
O O10 0.716774 0.000000 0.665000
O O11 0.848964 0.767883 0.787477
O O12 0.548909 0.688188 0.638988
O O13 0.405151 0.819807 0.651917
O O14 0.750000 0.250000 0.500000
O O15 0.768484 0.353047 0.602307
O O16 0.881202 0.500000 0.615995
O O17 0.000000 0.624200 0.500000
#
# Coordination Sequence:
#
# PCOD9192365 Si02
#       7
#     8   8   8   8   8   8   8
#     4   9  17  34  58  81 105 140 185 223 261 313
#     4  10  20  34  55  82 110 141 185 225 259 315
#     4   9  20  35  54  81 110 139 177 225 269 315
#     4  10  20  33  55  82 110 143 177 223 273 309
#     4  10  21  37  56  79 111 142 177 222 269 321
#     4  11  21  35  56  78 106 140 179 219 266 325
#     4  10  21  38  57  79 105 136 177 221 265 317
#
# _framework density 18.253636
#
# number of rings (size 3 to 8) (size 9 to 14) (size 15 to 20)
#    0.000    2.143    1.429    1.714    0.000    4.000 
#    0.000    0.714    0.000    7.714    0.000    0.000 
#    0.000    0.000    0.000    0.000    0.000    0.000 
#
# Total GULP energy -156329.252512 kJ/mol
# GULP energy per Si atom -5583.187590 kJ/mol
# Density = 1.821209 g / cm^3
# Si number density = 18.253636 Si / 1000 Ang^3
#
#
#
# Elastic Constant Matrix: (Units=GPa)
#
#
# Indices 1 2 3 4 5 6 
#
# 1 46.1776 1.2450 23.7437 0.0000 -9.1068 0.0000
# 2 1.2450 83.3253 24.6932 0.0000 -3.8121 0.0000
# 3 23.7437 24.6932 91.7892 0.0000 -2.4116 0.0000
# 4 0.0000 0.0000 0.0000 18.0003 0.0000 1.5346
# 5 -9.1068 -3.8121 -2.4116 0.0000 18.8143 0.0000
# 6 0.0000 0.0000 0.0000 1.5346 0.0000 14.7170
#
#
#
# Elastic Compliance Matrix: (Units=1/GPa)
#
#
# Indices 1 2 3 4 5 6 
#
# 1 0.028066 0.002423 -0.007567 0.000000 0.013106 0.000000
# 2 0.002423 0.013341 -0.004128 0.000000 0.003347 0.000000
# 3 -0.007567 -0.004128 0.013891 0.000000 -0.002719 0.000000
# 4 0.000000 0.000000 0.000000 0.056053 0.000000 -0.005845
# 5 0.013106 0.003347 -0.002719 0.000000 0.059824 0.000000
# 6 0.000000 0.000000 0.000000 -0.005845 0.000000 0.068558
#
#
# Mechanical properties :
#
#
# Convention : Reuss Voigt Hill
#
# Bulk Modulus (GPa) = 27.20842 35.62842 31.41842
# Shear Modulus (GPa) = 18.48225 21.74699 20.11462
#
# Velocity S-wave (km/s) = 3.18547 3.45538 3.32317
# Velocity P-wave (km/s) = 5.33552 5.95655 5.65456
#
# Compressibility (1/GPa) = 0.03675332
#
# Stress axis : x y z
#
# Youngs Moduli (GPa) = 35.63048 74.95486 71.98854
#
# Poissons Ratio (x) = -0.18160 0.54477
# Poissons Ratio (y) = -0.08633 0.29716
# Poissons Ratio (z) = 0.26963 0.30941
#
# Static dielectric constant tensor:
#      x y z
#    x 1.620630 0.000000 0.000720 
#    y 0.000000 1.612680 0.000000 
#    z 0.000720 0.000000 1.630830 
# 
# From -- ./inp_files/263242.got.cif
#   From: 2010.05.17/outbox.cif.g08.bks.cpg/sg12_132_cif.got.tgz:263242.got - 2010.06.03 13:09:07.
