data_PCOD9192540
_publ_section_title
;
Structure prediction by ZEFSAII (Michael W. Deem and Ramdas Pophale) SiO2 
 PCOD9192540
Probable space group: C 2/M
;
_chemical_formula_sum "Si O2"
_cell_formula_units_Z 40
_cell_length_a 7.179979
_cell_length_b 14.251375
_cell_length_c 16.856088
_cell_angle_alpha 90.000000
_cell_angle_beta 64.961834
_cell_angle_gamma 90.000000
_cell_volume 1562.706528
_symmetry_space_group_name_H-M "C 2/M"
_symmetry_group_IT_number 12
_symmetry_cell_setting 'monoclinic'
loop_
_space_group_symop_operation_xyz
x,y,z
-x,y,-z
-x,-y,-z
x,-y,z
1/2+x,1/2+y,z
1/2-x,1/2+y,-z
1/2-x,1/2-y,-z
1/2+x,1/2-y,z
loop_
_atom_site_type_symbol
_atom_site_label
_atom_site_fract_x
_atom_site_fract_y
_atom_site_fract_z
Si Si1 0.544584 0.611190 0.671249
Si Si2 0.287245 0.829494 0.060686
Si Si3 0.300938 0.891519 0.480218
Si Si4 0.150541 0.177299 0.820377
Si Si5 0.084661 0.391372 0.710482
O O1 0.607000 0.500000 0.669827
O O2 0.621136 0.643111 0.570505
O O3 0.630611 0.672294 0.728324
O O4 0.299696 0.613931 0.716654
O O5 0.340708 0.772383 0.131013
O O6 0.060395 0.874330 0.112973
O O7 0.500000 0.881924 0.000000
O O8 0.250000 0.750000 0.000000
O O9 0.500000 0.890521 0.500000
O O10 0.366719 0.848209 0.384923
O O11 0.242513 0.000000 0.473924
O O12 0.380284 0.140133 0.791706
O O13 0.040072 0.500000 0.702372
#
# Coordination Sequence:
#
# PCOD9192540 Si02
#       5
#     8   8   8   8   8
#     4  10  20  33  57  91 125 158 190 229 281 338
#     4   9  22  42  63  83  98 140 194 244 298 349
#     4   9  15  29  51  82 124 165 197 223 262 325
#     4  11  21  37  64  87 113 140 193 252 286 338
#     4  10  20  33  57  91 125 159 190 229 281 337
#
# _framework density 25.596616000000001
#
# number of rings (size 3 to 8) (size 9 to 14) (size 15 to 20)
#    0.000    2.200    2.000    1.200    5.600    2.400 
#    0.000    0.000    0.000   28.800    0.000    0.000 
#    0.000    0.000    0.000    0.000    0.000    0.000 
#
# Total GULP energy -111659.242608 kJ/mol
# GULP energy per Si atom -5582.962130 kJ/mol
# Density = 2.553836 g / cm^3
# Si number density = 25.596616 Si / 1000 Ang^3
#
#
#
# Elastic Constant Matrix: (Units=GPa)
#
#
# Indices 1 2 3 4 5 6 
#
# 1 132.9753 15.6756 44.5488 0.0000 -38.0989 0.0000
# 2 15.6756 66.8639 38.9602 0.0000 1.5975 0.0000
# 3 44.5488 38.9602 148.6072 0.0000 -36.2188 0.0000
# 4 0.0000 0.0000 0.0000 24.7798 0.0000 2.0629
# 5 -38.0989 1.5975 -36.2188 0.0000 81.0879 0.0000
# 6 0.0000 0.0000 0.0000 2.0629 0.0000 24.1646
#
#
#
# Elastic Compliance Matrix: (Units=1/GPa)
#
#
# Indices 1 2 3 4 5 6 
#
# 1 0.009248 -0.001376 -0.001510 0.000000 0.003698 0.000000
# 2 -0.001376 0.018404 -0.005227 0.000000 -0.003344 0.000000
# 3 -0.001510 -0.005227 0.009431 0.000000 0.003606 0.000000
# 4 0.000000 0.000000 0.000000 0.040644 0.000000 -0.003470
# 5 0.003698 -0.003344 0.003606 0.000000 0.015746 0.000000
# 6 0.000000 0.000000 0.000000 -0.003470 0.000000 0.041679
#
#
# Mechanical properties :
#
#
# Convention : Reuss Voigt Hill
#
# Bulk Modulus (GPa) = 47.94995 60.75727 54.35361
# Shear Modulus (GPa) = 31.57910 42.62393 37.10151
#
# Velocity S-wave (km/s) = 3.51625 4.08513 3.81132
# Velocity P-wave (km/s) = 5.93792 6.78521 6.37566
#
# Compressibility (1/GPa) = 0.02085508
#
# Stress axis : x y z
#
# Youngs Moduli (GPa) = 108.13373 54.33524 106.03104
#
# Poissons Ratio (x) = 0.07479 0.16013
# Poissons Ratio (y) = 0.14884 0.55427
# Poissons Ratio (z) = 0.16331 0.28403
#
# Static dielectric constant tensor:
#      x y z
#    x 2.006680 0.000000 -0.013060 
#    y 0.000000 2.162550 0.000000 
#    z -0.013060 0.000000 2.097180 
# 
# From -- ./inp_files/256385.got.cif
#   From: 2010.05.17/outbox.cif.g08.bks.cpg/sg12_129_cif.got.tgz:256385.got - 2010.06.03 13:09:07.
