data_PCOD9192689
_publ_section_title
;
Structure prediction by ZEFSAII (Michael W. Deem and Ramdas Pophale) SiO2 
 PCOD9192689
Probable space group: C 2/M
;
_chemical_formula_sum "Si O2"
_cell_formula_units_Z 48
_cell_length_a 18.865022
_cell_length_b 10.944147
_cell_length_c 21.199543
_cell_angle_alpha 90.000000
_cell_angle_beta 36.382039
_cell_angle_gamma 90.000000
_cell_volume 2596.225301
_symmetry_space_group_name_H-M "C 2/M"
_symmetry_group_IT_number 12
_symmetry_cell_setting 'monoclinic'
loop_
_space_group_symop_operation_xyz
x,y,z
-x,y,-z
-x,-y,-z
x,-y,z
1/2+x,1/2+y,z
1/2-x,1/2+y,-z
1/2-x,1/2-y,-z
1/2+x,1/2-y,z
loop_
_atom_site_type_symbol
_atom_site_label
_atom_site_fract_x
_atom_site_fract_y
_atom_site_fract_z
Si Si1 0.084800 0.856529 0.694707
Si Si2 0.343304 0.139200 0.552014
Si Si3 0.971782 0.148952 0.122765
Si Si4 0.441567 0.236202 0.684821
Si Si5 0.366310 0.368717 0.622312
Si Si6 0.316876 0.355510 0.115866
O O1 0.228882 0.849663 0.588329
O O2 0.049370 0.811973 0.790360
O O3 0.018423 0.783978 0.687867
O O4 0.053121 0.000000 0.712016
O O5 0.467122 0.163008 0.426495
O O6 0.324409 0.245078 0.617457
O O7 0.341809 0.000000 0.579235
O O8 0.872749 0.190287 0.142311
O O9 0.966548 0.000000 0.129080
O O10 0.098346 0.188364 0.001909
O O11 0.385794 0.344079 0.681973
O O12 0.322995 0.166376 0.790898
O O13 0.500000 0.379868 0.500000
O O14 0.304699 0.500000 0.654159
O O15 0.336127 0.500000 0.104032
#
# Coordination Sequence:
#
# PCOD9192689 Si02
#       6
#     8   8   8   8   8   8
#     4  10  20  34  50  72 104 140 176 213 258 312
#     4  10  21  36  55  78 105 139 179 220 258 302
#     4   8  16  32  52  72  98 134 174 218 262 306
#     4  11  20  30  50  78 107 137 169 214 266 315
#     4   9  19  34  51  73 103 139 176 212 255 310
#     4   9  17  31  52  77 102 130 173 224 265 302
#
# _framework density 18.488379999999999
#
# number of rings (size 3 to 8) (size 9 to 14) (size 15 to 20)
#    0.000    2.500    0.000    3.500    0.000    6.333 
#    0.000    1.667    0.000    0.000    0.000   22.167 
#    0.000    0.000    0.000    0.000    0.000    0.000 
#
# Total GULP energy -133620.634975 kJ/mol
# GULP energy per Si atom -5567.526457 kJ/mol
# Density = 1.844630 g / cm^3
# Si number density = 18.488380 Si / 1000 Ang^3
#
#
#
# Elastic Constant Matrix: (Units=GPa)
#
#
# Indices 1 2 3 4 5 6 
#
# 1 90.2831 42.7620 24.1921 0.0000 -4.5433 0.0000
# 2 42.7620 84.2502 15.1123 0.0000 3.2628 0.0000
# 3 24.1921 15.1123 92.1744 0.0000 -12.3997 0.0000
# 4 0.0000 0.0000 0.0000 18.0342 0.0000 -5.4443
# 5 -4.5433 3.2628 -12.3997 0.0000 21.9081 0.0000
# 6 0.0000 0.0000 0.0000 -5.4443 0.0000 27.2884
#
#
#
# Elastic Compliance Matrix: (Units=1/GPa)
#
#
# Indices 1 2 3 4 5 6 
#
# 1 0.015432 -0.007512 -0.002422 0.000000 0.002948 0.000000
# 2 -0.007512 0.016097 -0.001298 0.000000 -0.004690 0.000000
# 3 -0.002422 -0.001298 0.012617 0.000000 0.006832 0.000000
# 4 0.000000 0.000000 0.000000 0.059004 0.000000 0.011772
# 5 0.002948 -0.004690 0.006832 0.000000 0.050822 0.000000
# 6 0.000000 0.000000 0.000000 0.011772 0.000000 0.038994
#
#
# Mechanical properties :
#
#
# Convention : Reuss Voigt Hill
#
# Bulk Modulus (GPa) = 46.12547 47.87115 46.99831
# Shear Modulus (GPa) = 22.45607 25.75557 24.10582
#
# Velocity S-wave (km/s) = 3.48890 3.73643 3.61478
# Velocity P-wave (km/s) = 6.42125 6.67558 6.54965
#
# Compressibility (1/GPa) = 0.02168000
#
# Stress axis : x y z
#
# Youngs Moduli (GPa) = 64.80149 62.12392 79.26065
#
# Poissons Ratio (x) = 0.46669 0.19196
# Poissons Ratio (y) = 0.48681 0.10291
# Poissons Ratio (z) = 0.15695 0.08066
#
# Static dielectric constant tensor:
#      x y z
#    x 1.633960 0.000000 0.011580 
#    y 0.000000 1.675380 0.000000 
#    z 0.011580 0.000000 1.674230 
# 
# From -- ./inp_files/315218.got.cif
#   From: 2010.05.17/outbox.cif.g08.bks.cpg/sg12_158_cif.got.tgz:315218.got - 2010.06.03 13:09:07.
