data_PCOD9192625
_publ_section_title
;
Structure prediction by ZEFSAII (Michael W. Deem and Ramdas Pophale) SiO2 
 PCOD9192625
Probable space group: C 2/M
;
_chemical_formula_sum "Si O2"
_cell_formula_units_Z 56
_cell_length_a 28.068894
_cell_length_b 7.588868
_cell_length_c 22.984755
_cell_angle_alpha 90.000000
_cell_angle_beta 139.662542
_cell_angle_gamma 90.000000
_cell_volume 3169.128871
_symmetry_space_group_name_H-M "C 2/M"
_symmetry_group_IT_number 12
_symmetry_cell_setting 'monoclinic'
loop_
_space_group_symop_operation_xyz
x,y,z
-x,y,-z
-x,-y,-z
x,-y,z
1/2+x,1/2+y,z
1/2-x,1/2+y,-z
1/2-x,1/2-y,-z
1/2+x,1/2-y,z
loop_
_atom_site_type_symbol
_atom_site_label
_atom_site_fract_x
_atom_site_fract_y
_atom_site_fract_z
Si Si1 0.746531 0.789401 0.902074
Si Si2 0.515112 0.214234 0.615966
Si Si3 0.324343 0.215181 0.280273
Si Si4 0.675845 0.291331 0.465002
Si Si5 0.519716 0.704214 0.284804
Si Si6 0.868116 0.213435 0.103122
Si Si7 0.855992 0.290311 0.433075
O O1 0.727875 0.720765 0.820470
O O2 0.677466 0.758242 0.880872
O O3 0.755328 0.000000 0.905803
O O4 0.818269 0.721420 0.003052
O O5 0.591889 0.263184 0.658603
O O6 0.508545 0.286449 0.674986
O O7 0.440773 0.273335 0.514314
O O8 0.513747 0.000000 0.618060
O O9 0.313402 0.275961 0.336465
O O10 0.320004 0.000000 0.274814
O O11 0.666130 0.500000 0.456187
O O12 0.750000 0.250000 0.500000
O O13 0.601746 0.216129 0.365416
O O14 0.677490 0.239243 0.534355
O O15 0.527177 0.500000 0.273768
O O16 0.451747 0.780820 0.184861
O O17 0.870862 0.000000 0.103200
O O18 0.860872 0.500000 0.430280
#
# Coordination Sequence:
#
# PCOD9192625 Si02
#       7
#     8   8   8   8   8   8   8
#     4   9  16  25  39  59  85 117 150 178 199 230
#     4   9  15  24  39  59  84 115 148 174 196 235
#     4   9  15  24  39  61  87 116 147 174 200 234
#     4  10  20  34  49  65  84 105 135 176 220 262
#     4   9  17  28  42  61  86 113 139 172 214 254
#     4   9  16  26  39  58  85 116 146 175 208 240
#     4   9  17  28  43  62  85 113 142 172 208 249
#
# _framework density 17.670470000000002
#
# number of rings (size 3 to 8) (size 9 to 14) (size 15 to 20)
#    0.000    2.857    1.429    0.857    0.000    2.286 
#    0.000    1.429    0.000    3.429    0.000    1.000 
#    0.000    8.000    0.000    0.000    0.000    0.000 
#
# Total GULP energy -155953.355741 kJ/mol
# GULP energy per Si atom -5569.762705 kJ/mol
# Density = 1.763025 g / cm^3
# Si number density = 17.670470 Si / 1000 Ang^3
#
#
#
# Elastic Constant Matrix: (Units=GPa)
#
#
# Indices 1 2 3 4 5 6 
#
# 1 67.0146 -7.6209 70.6550 0.0000 6.2768 0.0000
# 2 -7.6209 35.1281 5.2850 0.0000 -1.4475 0.0001
# 3 70.6550 5.2850 183.5772 0.0000 -6.3031 0.0000
# 4 0.0000 0.0000 0.0000 7.9475 0.0000 -3.0624
# 5 6.2768 -1.4475 -6.3031 0.0000 19.4531 0.0000
# 6 0.0000 0.0001 0.0000 -3.0624 0.0000 10.3658
#
#
#
# Elastic Compliance Matrix: (Units=1/GPa)
#
#
# Indices 1 2 3 4 5 6 
#
# 1 0.029833 0.007765 -0.012152 0.000000 -0.012986 0.000000
# 2 0.007765 0.030681 -0.003923 0.000000 -0.001494 0.000000
# 3 -0.012152 -0.003923 0.010478 0.000000 0.007024 0.000000
# 4 0.000000 0.000000 0.000000 0.141989 0.000000 0.041948
# 5 -0.012986 -0.001494 0.007024 0.000000 0.057760 0.000000
# 6 0.000000 0.000000 0.000000 0.041948 0.000000 0.108864
#
#
# Mechanical properties :
#
#
# Convention : Reuss Voigt Hill
#
# Bulk Modulus (GPa) = 18.39147 46.92867 32.66007
# Shear Modulus (GPa) = 12.06713 22.04668 17.05691
#
# Velocity S-wave (km/s) = 2.61607 3.53605 3.11026
# Velocity P-wave (km/s) = 4.42218 6.57928 5.60547
#
# Compressibility (1/GPa) = 0.05437304
#
# Stress axis : x y z
#
# Youngs Moduli (GPa) = 33.51977 32.59388 95.43535
#
# Poissons Ratio (x) = -0.25310 1.15969
# Poissons Ratio (y) = -0.26029 0.37442
# Poissons Ratio (z) = 0.40732 0.12787
#
# Static dielectric constant tensor:
#      x y z
#    x 1.524880 0.000000 -0.002070 
#    y 0.000000 1.636370 0.000000 
#    z -0.002070 0.000000 1.682270 
# 
# From -- ./inp_files/291440.got.cif
#   From: 2010.05.17/outbox.cif.g08.bks.cpg/sg12_146_cif.got.tgz:291440.got - 2010.06.03 13:09:07.
