data_PCOD9192204
_publ_section_title
;
Structure prediction by ZEFSAII (Michael W. Deem and Ramdas Pophale) SiO2 
 PCOD9192204
Probable space group: C 2/M
;
_chemical_formula_sum "Si O2"
_cell_formula_units_Z 64
_cell_length_a 15.186572
_cell_length_b 11.293686
_cell_length_c 17.764734
_cell_angle_alpha 90.000000
_cell_angle_beta 95.226155
_cell_angle_gamma 90.000000
_cell_volume 3034.205646
_symmetry_space_group_name_H-M "C 2/M"
_symmetry_group_IT_number 12
_symmetry_cell_setting 'monoclinic'
loop_
_space_group_symop_operation_xyz
x,y,z
-x,y,-z
-x,-y,-z
x,-y,z
1/2+x,1/2+y,z
1/2-x,1/2+y,-z
1/2-x,1/2-y,-z
1/2+x,1/2-y,z
loop_
_atom_site_type_symbol
_atom_site_label
_atom_site_fract_x
_atom_site_fract_y
_atom_site_fract_z
Si Si1 0.449392 0.354787 0.343535
Si Si2 0.499087 0.635637 0.184968
Si Si3 0.356960 0.684167 0.590523
Si Si4 0.628639 0.636688 0.949171
Si Si5 0.726450 0.130741 0.172315
Si Si6 0.214185 0.130389 0.577007
Si Si7 0.799336 0.128752 0.752502
Si Si8 0.898034 0.368567 0.965904
O O1 0.451093 0.500000 0.344367
O O2 0.459686 0.310494 0.258518
O O3 0.537991 0.317364 0.394166
O O4 0.361853 0.310414 0.378153
O O5 0.467209 0.500000 0.184777
O O6 0.460610 0.674427 0.102739
O O7 0.603737 0.632491 0.201434
O O8 0.308909 0.809869 0.584565
O O9 0.324198 0.627476 0.510541
O O10 0.319453 0.629239 0.664908
O O11 0.621146 0.500000 0.978605
O O12 0.704104 0.635700 0.891148
O O13 0.643060 0.746148 0.006004
O O14 0.741221 0.246272 0.224424
O O15 0.629931 0.133179 0.124345
O O16 0.737150 0.000000 0.209295
O O17 0.224464 0.000000 0.607618
O O18 0.758030 0.000000 0.768932
O O19 0.862404 0.500000 0.989394
O O20 0.000000 0.370711 0.000000
#
# Coordination Sequence:
#
# PCOD9192204 Si02
#       8
#     8   8   8   8   8   8   8   8
#     4   9  17  32  56  79 105 143 188 233 279 333
#     4   8  16  31  51  77 103 133 176 227 272 315
#     4  10  20  33  53  83 113 140 184 241 283 332
#     4  10  20  34  55  80 107 135 176 228 267 309
#     4  10  22  36  53  80 109 140 177 223 268 317
#     4  10  20  33  55  82 108 145 189 231 286 344
#     4  10  20  35  55  77 106 143 178 221 276 329
#     4  10  21  37  55  77 109 145 177 213 264 324
#
# _framework density 21.092835999999998
#
# number of rings (size 3 to 8) (size 9 to 14) (size 15 to 20)
#    0.000    2.375    0.000    3.375    1.750    2.750 
#    0.000    0.000    0.000    8.250    0.000    0.000 
#    0.000    0.000    0.000    0.000    0.000    0.000 
#
# Total GULP energy -178257.029436 kJ/mol
# GULP energy per Si atom -5570.532170 kJ/mol
# Density = 2.104483 g / cm^3
# Si number density = 21.092836 Si / 1000 Ang^3
#
#
#
# Elastic Constant Matrix: (Units=GPa)
#
#
# Indices 1 2 3 4 5 6 
#
# 1 50.9622 25.2687 0.3664 0.0000 6.7289 0.0000
# 2 25.2687 136.6368 49.3753 0.0000 -8.7046 0.0000
# 3 0.3664 49.3753 57.3652 0.0000 12.3133 0.0000
# 4 0.0000 0.0000 0.0000 47.3044 0.0000 19.0601
# 5 6.7289 -8.7046 12.3133 0.0000 28.4576 0.0000
# 6 0.0000 0.0000 0.0000 19.0601 0.0000 41.5626
#
#
#
# Elastic Compliance Matrix: (Units=1/GPa)
#
#
# Indices 1 2 3 4 5 6 
#
# 1 0.026309 -0.009878 0.011374 0.000000 -0.014164 0.000000
# 2 -0.009878 0.016255 -0.017083 0.000000 0.014700 0.000000
# 3 0.011374 -0.017083 0.037219 0.000000 -0.024019 0.000000
# 4 0.000000 0.000000 0.000000 0.025931 0.000000 -0.011892
# 5 -0.014164 0.014700 -0.024019 0.000000 0.053378 0.000000
# 6 0.000000 0.000000 0.000000 -0.011892 0.000000 0.029513
#
#
# Mechanical properties :
#
#
# Convention : Reuss Voigt Hill
#
# Bulk Modulus (GPa) = 20.57228 43.88720 32.22974
# Shear Modulus (GPa) = 21.18805 34.79518 27.99161
#
# Velocity S-wave (km/s) = 3.17285 4.06596 3.64685
# Velocity P-wave (km/s) = 4.81632 6.54939 5.74854
#
# Compressibility (1/GPa) = 0.04860911
#
# Stress axis : x y z
#
# Youngs Moduli (GPa) = 38.01047 61.51929 26.86798
#
# Poissons Ratio (x) = 0.60768 -0.30560
# Poissons Ratio (y) = 0.37546 0.45899
# Poissons Ratio (z) = -0.43234 1.05094
#
# Static dielectric constant tensor:
#      x y z
#    x 1.787040 0.000000 0.007810 
#    y 0.000000 1.810130 0.000000 
#    z 0.007810 0.000000 1.803640 
# 
# From -- ./inp_files/269325.got.cif
#   From: 2010.05.17/outbox.cif.g08.bks.cpg/sg12_135_cif.got.tgz:269325.got - 2010.06.03 13:09:07.
