data_PCOD9192933
_publ_section_title
;
Structure prediction by ZEFSAII (Michael W. Deem and Ramdas Pophale) SiO2 
 PCOD9192933
Probable space group: C 2/M
;
_chemical_formula_sum "Si O2"
_cell_formula_units_Z 52
_cell_length_a 8.564648
_cell_length_b 12.413236
_cell_length_c 27.415960
_cell_angle_alpha 90.000000
_cell_angle_beta 83.802890
_cell_angle_gamma 90.000000
_cell_volume 2897.695229
_symmetry_space_group_name_H-M "C 2/M"
_symmetry_group_IT_number 12
_symmetry_cell_setting 'monoclinic'
loop_
_space_group_symop_operation_xyz
x,y,z
-x,y,-z
-x,-y,-z
x,-y,z
1/2+x,1/2+y,z
1/2-x,1/2+y,-z
1/2-x,1/2-y,-z
1/2+x,1/2-y,z
loop_
_atom_site_type_symbol
_atom_site_label
_atom_site_fract_x
_atom_site_fract_y
_atom_site_fract_z
Si Si1 0.500000 0.284467 0.000000
Si Si2 0.884663 0.122094 0.591077
Si Si3 0.847166 0.376243 0.824940
Si Si4 0.582084 0.715319 0.765786
Si Si5 0.804683 0.376261 0.940683
Si Si6 0.611471 0.802661 0.536294
Si Si7 0.183483 0.876655 0.292982
O O1 0.364399 0.354341 0.029579
O O2 0.577906 0.207087 0.037779
O O3 0.710665 0.133443 0.573259
O O4 0.868571 0.138846 0.649418
O O5 0.003563 0.210110 0.564620
O O6 0.941534 0.000000 0.579619
O O7 0.899481 0.500000 0.817892
O O8 0.699946 0.353876 0.794647
O O9 0.801369 0.358726 0.882760
O O10 0.981118 0.293615 0.803908
O O11 0.684095 0.791777 0.726957
O O12 0.462896 0.645147 0.737849
O O13 0.852489 0.500000 0.947901
O O14 0.500000 0.860434 0.500000
O O15 0.750000 0.750000 0.500000
O O16 0.238347 0.000000 0.285786
#
# Coordination Sequence:
#
# PCOD9192933 Si02
#       7
#     4   8   8   8   8   8   8
#     4  10  20  34  52  74 100 132 170 208 254 300
#     4  10  20  35  54  75 102 134 166 205 250 293
#     4  10  20  34  52  75 102 133 168 206 251 300
#     4  10  20  34  53  75 103 133 165 207 250 294
#     4  10  20  34  52  74 101 132 168 209 251 299
#     4   9  19  34  52  75 101 129 166 204 242 293
#     4  10  20  34  53  76 101 132 168 204 247 297
#
# _framework density 17.945297
#
# number of rings (size 3 to 8) (size 9 to 14) (size 15 to 20)
#    0.000    2.154    0.000    3.231    0.000    3.077 
#    0.000    2.308    0.000   27.692    0.000    0.000 
#    0.000    0.000    0.000    0.000    0.000    0.000 
#
# Total GULP energy -145019.999759 kJ/mol
# GULP energy per Si atom -5577.692298 kJ/mol
# Density = 1.790445 g / cm^3
# Si number density = 17.945297 Si / 1000 Ang^3
#
#
#
# Elastic Constant Matrix: (Units=GPa)
#
#
# Indices 1 2 3 4 5 6 
#
# 1 35.5956 -6.0433 -0.5602 0.0000 -1.4036 0.0000
# 2 -6.0433 57.5348 28.8868 0.0000 -2.4122 0.0000
# 3 -0.5602 28.8868 77.5650 0.0000 2.4831 0.0000
# 4 0.0000 0.0000 0.0000 74.2058 0.0000 4.2215
# 5 -1.4036 -2.4122 2.4831 0.0000 17.2592 0.0000
# 6 0.0000 0.0000 0.0000 4.2215 0.0000 12.7088
#
#
#
# Elastic Compliance Matrix: (Units=1/GPa)
#
#
# Indices 1 2 3 4 5 6 
#
# 1 0.028842 0.003816 -0.001311 0.000000 0.003068 0.000000
# 2 0.003816 0.022184 -0.008382 0.000000 0.004617 0.000000
# 3 -0.001311 -0.008382 0.016120 0.000000 -0.003597 0.000000
# 4 0.000000 0.000000 0.000000 0.013736 0.000000 -0.004563
# 5 0.003068 0.004617 -0.003597 0.000000 0.059352 0.000000
# 6 0.000000 0.000000 0.000000 -0.004563 0.000000 0.080201
#
#
# Mechanical properties :
#
#
# Convention : Reuss Voigt Hill
#
# Bulk Modulus (GPa) = 18.05330 23.91800 20.98565
# Shear Modulus (GPa) = 19.94804 30.72891 25.33847
#
# Velocity S-wave (km/s) = 3.33769 4.14256 3.76171
# Velocity P-wave (km/s) = 4.99355 6.01983 5.53055
#
# Compressibility (1/GPa) = 0.05539154
#
# Stress axis : x y z
#
# Youngs Moduli (GPa) = 34.67207 45.07855 62.03604
#
# Poissons Ratio (x) = -0.17204 0.08134
# Poissons Ratio (y) = -0.13232 0.51997
# Poissons Ratio (z) = 0.04546 0.37784
#
# Static dielectric constant tensor:
#      x y z
#    x 1.600580 0.000000 0.017210 
#    y 0.000000 1.619610 0.000000 
#    z 0.017210 0.000000 1.594040 
# 
# From -- ./inp_files/355528.got.cif
#   From: 2010.05.17/outbox.cif.g08.bks.cpg/sg12_178_cif.got.tgz:355528.got - 2010.06.03 13:09:07.
