data_PCOD9192052
_publ_section_title
;
Structure prediction by ZEFSAII (Michael W. Deem and Ramdas Pophale) SiO2 
 PCOD9192052
Probable space group: C 2/M
;
_chemical_formula_sum "Si O2"
_cell_formula_units_Z 56
_cell_length_a 14.919573
_cell_length_b 18.085301
_cell_length_c 18.131653
_cell_angle_alpha 90.000000
_cell_angle_beta 143.612961
_cell_angle_gamma 90.000000
_cell_volume 2902.335499
_symmetry_space_group_name_H-M "C 2/M"
_symmetry_group_IT_number 12
_symmetry_cell_setting 'monoclinic'
loop_
_space_group_symop_operation_xyz
x,y,z
-x,y,-z
-x,-y,-z
x,-y,z
1/2+x,1/2+y,z
1/2-x,1/2+y,-z
1/2-x,1/2-y,-z
1/2+x,1/2-y,z
loop_
_atom_site_type_symbol
_atom_site_label
_atom_site_fract_x
_atom_site_fract_y
_atom_site_fract_z
Si Si1 0.348829 0.812148 0.234114
Si Si2 0.197127 0.774401 0.285220
Si Si3 0.695584 0.820491 0.419038
Si Si4 0.868480 0.086219 0.961205
Si Si5 0.809720 0.913196 0.090822
Si Si6 0.139572 0.087915 0.355840
Si Si7 0.094196 0.715159 0.988990
O O1 0.311128 0.783827 0.291529
O O2 0.516757 0.817100 0.315589
O O3 0.282519 0.894076 0.181641
O O4 0.238141 0.765600 0.106749
O O5 0.235503 0.703754 0.362340
O O6 0.194251 0.851391 0.330578
O O7 0.028026 0.754285 0.144707
O O8 0.750000 0.750000 0.500000
O O9 0.775916 0.889554 0.512293
O O10 0.892533 0.000000 0.977031
O O11 0.864016 0.103645 0.043906
O O12 0.000000 0.123607 0.000000
O O13 0.668862 0.860275 0.010753
O O14 0.957704 0.900125 0.239592
O O15 0.770254 0.000000 0.069673
O O16 0.161900 0.000000 0.352356
O O17 0.000000 0.698965 0.000000
#
# Coordination Sequence:
#
# PCOD9192052 Si02
#       7
#     8   8   8   8   8   8   8
#     4  11  21  34  56  83 109 140 179 219 269 327
#     4  10  21  37  57  83 111 142 178 223 275 324
#     4  10  22  37  53  76 107 143 184 227 261 304
#     4  10  20  33  52  82 115 140 167 211 269 331
#     4  10  20  35  56  80 110 147 180 218 271 322
#     4  10  21  37  56  78 108 148 189 223 261 316
#     4  10  20  35  57  85 112 139 176 224 275 328
#
# _framework density 19.294805
#
# number of rings (size 3 to 8) (size 9 to 14) (size 15 to 20)
#    0.000    1.857    0.000    5.571    0.000    6.571 
#    0.000    1.429    0.000    1.286    0.000   16.000 
#    0.000    0.000    0.000    0.000    0.000    0.000 
#
# Total GULP energy -155988.308041 kJ/mol
# GULP energy per Si atom -5571.011001 kJ/mol
# Density = 1.925089 g / cm^3
# Si number density = 19.294805 Si / 1000 Ang^3
#
#
#
# Elastic Constant Matrix: (Units=GPa)
#
#
# Indices 1 2 3 4 5 6 
#
# 1 46.2188 28.1824 37.4348 0.0005 -6.9356 0.0004
# 2 28.1824 75.4933 19.5116 0.0005 -11.4891 0.0004
# 3 37.4348 19.5116 71.1072 0.0009 -12.9926 0.0009
# 4 0.0005 0.0005 0.0009 31.3877 0.0006 1.3081
# 5 -6.9356 -11.4891 -12.9926 0.0006 25.5370 0.0004
# 6 0.0004 0.0004 0.0009 1.3081 0.0004 23.7945
#
#
#
# Elastic Compliance Matrix: (Units=1/GPa)
#
#
# Indices 1 2 3 4 5 6 
#
# 1 0.045933 -0.012179 -0.021567 0.000000 -0.003977 0.000000
# 2 -0.012179 0.018059 0.002576 0.000000 0.006128 0.000000
# 3 -0.021567 0.002576 0.026297 -0.000001 0.008681 -0.000001
# 4 0.000000 0.000000 -0.000001 0.031933 -0.000001 -0.001756
# 5 -0.003977 0.006128 0.008681 -0.000001 0.045252 -0.000001
# 6 0.000000 0.000000 -0.000001 -0.001756 -0.000001 0.042123
#
#
# Mechanical properties :
#
#
# Convention : Reuss Voigt Hill
#
# Bulk Modulus (GPa) = 35.77800 40.34187 38.05993
# Shear Modulus (GPa) = 17.77754 23.32320 20.55037
#
# Velocity S-wave (km/s) = 3.03869 3.48052 3.26709
# Velocity P-wave (km/s) = 5.55829 6.09144 5.83096
#
# Compressibility (1/GPa) = 0.02795014
#
# Stress axis : x y z
#
# Youngs Moduli (GPa) = 21.77061 55.37257 38.02776
#
# Poissons Ratio (x) = 0.67436 0.82014
# Poissons Ratio (y) = 0.26514 -0.09795
# Poissons Ratio (z) = 0.46952 -0.14262
#
# Static dielectric constant tensor:
#      x y z
#    x 1.667880 0.000000 -0.058560 
#    y 0.000000 1.675760 0.000000 
#    z -0.058560 0.000000 1.706270 
# 
# From -- ./inp_files/271461.got.cif
#   From: 2010.05.17/outbox.cif.g08.bks.cpg/sg12_136_cif.got.tgz:271461.got - 2010.06.03 13:09:07.
