data_PCOD9192282
_publ_section_title
;
Structure prediction by ZEFSAII (Michael W. Deem and Ramdas Pophale) SiO2 
 PCOD9192282
Probable space group: C 2/M
;
_chemical_formula_sum "Si O2"
_cell_formula_units_Z 56
_cell_length_a 19.206968
_cell_length_b 16.996447
_cell_length_c 9.842542
_cell_angle_alpha 90.000000
_cell_angle_beta 98.241866
_cell_angle_gamma 90.000000
_cell_volume 3179.914232
_symmetry_space_group_name_H-M "C 2/M"
_symmetry_group_IT_number 12
_symmetry_cell_setting 'monoclinic'
loop_
_space_group_symop_operation_xyz
x,y,z
-x,y,-z
-x,-y,-z
x,-y,z
1/2+x,1/2+y,z
1/2-x,1/2+y,-z
1/2-x,1/2-y,-z
1/2+x,1/2-y,z
loop_
_atom_site_type_symbol
_atom_site_label
_atom_site_fract_x
_atom_site_fract_y
_atom_site_fract_z
Si Si1 0.564625 0.637896 0.111693
Si Si2 0.707500 0.367878 0.021814
Si Si3 0.198540 0.194582 0.573709
Si Si4 0.422733 0.822175 0.964704
Si Si5 0.330704 0.217354 0.176072
Si Si6 0.205329 0.412347 0.205080
Si Si7 0.931669 0.906083 0.575415
O O1 0.570956 0.733131 0.093813
O O2 0.552419 0.614754 0.263468
O O3 0.500000 0.612284 0.000000
O O4 0.637227 0.602657 0.073264
O O5 0.686728 0.291288 0.926824
O O6 0.748602 0.416886 0.920656
O O7 0.762984 0.338939 0.149763
O O8 0.250000 0.250000 0.500000
O O9 0.158914 0.250195 0.671898
O O10 0.249497 0.137378 0.674908
O O11 0.138140 0.143411 0.483932
O O12 0.365655 0.867501 0.858404
O O13 0.500000 0.857097 0.000000
O O14 0.393822 0.820584 0.111026
O O15 0.191201 0.500000 0.251050
O O16 0.000000 0.887788 0.500000
O O17 0.918423 0.000000 0.558159
#
# Coordination Sequence:
#
# PCOD9192282 Si02
#       7
#     8   8   8   8   8   8   8
#     4  10  20  35  59  82 106 148 195 234 277 335
#     4   8  15  30  50  78 106 129 178 234 269 322
#     4  11  21  37  59  79 108 151 198 239 278 340
#     4   9  18  32  56  86 112 137 188 240 279 325
#     4   8  15  29  52  79 102 133 174 231 279 311
#     4  10  20  33  54  82 111 149 185 231 294 342
#     4  11  26  40  52  82 126 158 185 234 300 357
#
# _framework density 17.610537999999998
#
# number of rings (size 3 to 8) (size 9 to 14) (size 15 to 20)
#    0.000    2.429    0.000    4.714    8.000    1.143 
#    0.000    0.000    0.000    0.857    0.000    1.000 
#    0.000    0.000    0.000    0.000    0.000    0.000 
#
# Total GULP energy -155978.137853 kJ/mol
# GULP energy per Si atom -5570.647780 kJ/mol
# Density = 1.757046 g / cm^3
# Si number density = 17.610538 Si / 1000 Ang^3
#
#
#
# Elastic Constant Matrix: (Units=GPa)
#
#
# Indices 1 2 3 4 5 6 
#
# 1 143.0142 44.3069 62.6244 0.0000 6.9026 0.0000
# 2 44.3069 67.0411 37.0842 0.0000 6.6361 0.0000
# 3 62.6244 37.0842 117.7900 0.0000 7.8753 0.0000
# 4 0.0000 0.0000 0.0000 8.3681 0.0000 -5.6139
# 5 6.9026 6.6361 7.8753 0.0000 25.2064 0.0000
# 6 0.0000 0.0000 0.0000 -5.6139 0.0000 8.8104
#
#
#
# Elastic Compliance Matrix: (Units=1/GPa)
#
#
# Indices 1 2 3 4 5 6 
#
# 1 0.010125 -0.004470 -0.003952 0.000000 -0.000361 0.000000
# 2 -0.004470 0.020266 -0.003809 0.000000 -0.002921 0.000000
# 3 -0.003952 -0.003809 0.011899 0.000000 -0.001633 0.000000
# 4 0.000000 0.000000 0.000000 0.208727 0.000000 0.132998
# 5 -0.000361 -0.002921 -0.001633 0.000000 0.041051 0.000000
# 6 0.000000 0.000000 0.000000 0.132998 0.000000 0.198246
#
#
# Mechanical properties :
#
#
# Convention : Reuss Voigt Hill
#
# Bulk Modulus (GPa) = 56.08612 68.43069 62.25841
# Shear Modulus (GPa) = 9.60214 20.73228 15.16721
#
# Velocity S-wave (km/s) = 2.33759 3.43485 2.93790
# Velocity P-wave (km/s) = 6.26123 7.39413 6.85113
#
# Compressibility (1/GPa) = 0.01782972
#
# Stress axis : x y z
#
# Youngs Moduli (GPa) = 98.76621 49.34290 84.04141
#
# Poissons Ratio (x) = 0.22056 0.33210
# Poissons Ratio (y) = 0.44147 0.32009
# Poissons Ratio (z) = 0.39029 0.18793
#
# Static dielectric constant tensor:
#      x y z
#    x 1.630740 0.000000 -0.014400 
#    y 0.000000 1.626400 0.000000 
#    z -0.014400 0.000000 1.579050 
# 
# From -- ./inp_files/76918.got.cif
#   From: 2010.05.17/outbox.cif.g08.bks.cpg/sg12_39_cif.got.tgz:76918.got - 2010.06.03 13:09:07.
