data_PCOD9192610
_publ_section_title
;
Structure prediction by ZEFSAII (Michael W. Deem and Ramdas Pophale) SiO2 
 PCOD9192610
Probable space group: C 2/M
;
_chemical_formula_sum "Si O2"
_cell_formula_units_Z 60
_cell_length_a 9.438489
_cell_length_b 27.966517
_cell_length_c 13.995867
_cell_angle_alpha 90.000000
_cell_angle_beta 111.602508
_cell_angle_gamma 90.000000
_cell_volume 3434.880988
_symmetry_space_group_name_H-M "C 2/M"
_symmetry_group_IT_number 12
_symmetry_cell_setting 'monoclinic'
loop_
_space_group_symop_operation_xyz
x,y,z
-x,y,-z
-x,-y,-z
x,-y,z
1/2+x,1/2+y,z
1/2-x,1/2+y,-z
1/2-x,1/2-y,-z
1/2+x,1/2-y,z
loop_
_atom_site_type_symbol
_atom_site_label
_atom_site_fract_x
_atom_site_fract_y
_atom_site_fract_z
Si Si1 0.736852 0.552546 0.691836
Si Si2 0.961800 0.554423 0.101503
Si Si3 0.630100 0.131683 0.783875
Si Si4 0.000000 0.699812 0.500000
Si Si5 0.014310 0.444836 0.392481
Si Si6 0.571845 0.645210 0.620522
Si Si7 0.307668 0.315275 0.686950
Si Si8 0.626965 0.791008 0.326186
O O1 0.667694 0.500000 0.681949
O O2 0.814534 0.558452 0.606488
O O3 0.625984 0.595810 0.679900
O O4 0.880056 0.555237 0.799407
O O5 0.898227 0.500000 0.099241
O O6 0.867135 0.599135 0.120506
O O7 0.000000 0.560323 0.000000
O O8 0.579464 0.092585 0.692274
O O9 0.779733 0.156355 0.778207
O O10 0.502051 0.174094 0.751305
O O11 0.847245 0.677024 0.415117
O O12 0.928172 0.722337 0.579092
O O13 0.966145 0.500000 0.364220
O O14 0.000000 0.434351 0.500000
O O15 0.500000 0.635663 0.500000
O O16 0.449470 0.668077 0.660181
O O17 0.718421 0.678461 0.637484
O O18 0.333330 0.259118 0.712717
#
# Coordination Sequence:
#
# PCOD9192610 Si02
#       8
#     8   8   8   4   8   8   8   8
#     4   9  19  35  50  75 108 135 171 215 256 316
#     4   9  17  35  66  92 103 124 172 229 278 322
#     4  10  20  34  54  77 106 137 174 224 268 316
#     4  10  20  34  46  66 103 144 199 238 254 280
#     4   9  17  29  48  69  97 137 171 206 256 310
#     4  12  22  32  49  74 106 154 184 212 262 314
#     4  11  24  31  47  72 107 146 186 227 260 304
#     4  11  21  34  48  72 105 149 188 230 260 300
#
# _framework density 17.467853999999999
#
# number of rings (size 3 to 8) (size 9 to 14) (size 15 to 20)
#    0.000    1.867    4.000    3.200    7.467    0.267 
#    0.000    1.333    0.000    1.600    0.000    2.800 
#    0.000    0.000    0.000    0.000    0.000    0.000 
#
# Total GULP energy -167049.689953 kJ/mol
# GULP energy per Si atom -5568.322998 kJ/mol
# Density = 1.742810 g / cm^3
# Si number density = 17.467854 Si / 1000 Ang^3
#
#
#
# Elastic Constant Matrix: (Units=GPa)
#
#
# Indices 1 2 3 4 5 6 
#
# 1 78.7923 34.1209 18.4963 0.0000 -8.9291 0.0000
# 2 34.1209 117.1373 25.1462 0.0000 -12.7898 0.0000
# 3 18.4963 25.1462 43.5963 0.0000 -22.3085 0.0000
# 4 0.0000 0.0000 0.0000 14.0774 0.0000 -9.6710
# 5 -8.9291 -12.7898 -22.3085 0.0000 19.3555 0.0000
# 6 0.0000 0.0000 0.0000 -9.6710 0.0000 22.7649
#
#
#
# Elastic Compliance Matrix: (Units=1/GPa)
#
#
# Indices 1 2 3 4 5 6 
#
# 1 0.015255 -0.003485 -0.004971 0.000000 -0.000995 0.000000
# 2 -0.003485 0.010540 -0.004533 0.000000 0.000132 0.000000
# 3 -0.004971 -0.004533 0.060833 0.000000 0.064826 0.000000
# 4 0.000000 0.000000 0.000000 0.100312 0.000000 0.042615
# 5 -0.000995 0.000132 0.064826 0.000000 0.126009 0.000000
# 6 0.000000 0.000000 0.000000 0.042615 0.000000 0.062031
#
#
# Mechanical properties :
#
#
# Convention : Reuss Voigt Hill
#
# Bulk Modulus (GPa) = 16.48824 43.89474 30.19149
# Shear Modulus (GPa) = 11.87157 22.02371 16.94764
#
# Velocity S-wave (km/s) = 2.60979 3.55465 3.11821
# Velocity P-wave (km/s) = 4.30593 6.48311 5.50326
#
# Compressibility (1/GPa) = 0.06064929
#
# Stress axis : x y z
#
# Youngs Moduli (GPa) = 65.55220 94.87922 16.43843
#
# Poissons Ratio (x) = 0.33067 0.08172
# Poissons Ratio (y) = 0.22846 0.07452
# Poissons Ratio (z) = 0.32586 0.43010
#
# Static dielectric constant tensor:
#      x y z
#    x 1.610790 0.000000 -0.009900 
#    y 0.000000 1.647640 0.000000 
#    z -0.009900 0.000000 1.589910 
# 
# From -- ./inp_files/200636.got.cif
#   From: 2010.05.17/outbox.cif.g08.bks.cpg/sg12_101_cif.got.tgz:200636.got - 2010.06.03 13:09:07.
