data_PCOD9192123
_publ_section_title
;
Structure prediction by ZEFSAII (Michael W. Deem and Ramdas Pophale) SiO2 
 PCOD9192123
Probable space group: C 2/M
;
_chemical_formula_sum "Si O2"
_cell_formula_units_Z 48
_cell_length_a 19.426455
_cell_length_b 9.026990
_cell_length_c 15.984772
_cell_angle_alpha 90.000000
_cell_angle_beta 78.423170
_cell_angle_gamma 90.000000
_cell_volume 2746.102738
_symmetry_space_group_name_H-M "C 2/M"
_symmetry_group_IT_number 12
_symmetry_cell_setting 'monoclinic'
loop_
_space_group_symop_operation_xyz
x,y,z
-x,y,-z
-x,-y,-z
x,-y,z
1/2+x,1/2+y,z
1/2-x,1/2+y,-z
1/2-x,1/2-y,-z
1/2+x,1/2-y,z
loop_
_atom_site_type_symbol
_atom_site_label
_atom_site_fract_x
_atom_site_fract_y
_atom_site_fract_z
Si Si1 0.682019 0.178209 0.473744
Si Si2 0.311523 0.823454 0.723446
Si Si3 0.928410 0.675305 0.364241
Si Si4 0.022414 0.322513 0.900531
Si Si5 0.335113 0.173928 0.220542
Si Si6 0.947837 0.823704 0.761511
O O1 0.750000 0.250000 0.500000
O O2 0.679368 0.216398 0.376881
O O3 0.612057 0.221004 0.541963
O O4 0.688224 0.000000 0.479577
O O5 0.234125 0.771089 0.768485
O O6 0.371841 0.742527 0.760428
O O7 0.318664 0.000000 0.729831
O O8 0.945883 0.500000 0.364286
O O9 0.872769 0.694005 0.301628
O O10 0.997385 0.764351 0.321818
O O11 0.013682 0.500000 0.889563
O O12 0.104136 0.290004 0.861152
O O13 0.977050 0.238547 0.842181
O O14 0.000000 0.286570 0.000000
O O15 0.316819 0.000000 0.217745
O O16 0.946810 0.000000 0.762263
#
# Coordination Sequence:
#
# PCOD9192123 Si02
#       6
#     8   8   8   8   8   8
#     4  10  20  33  53  79 108 145 189 232 269 316
#     4  11  22  35  53  79 112 149 185 224 273 323
#     4   9  18  35  55  76 107 147 187 228 273 322
#     4   9  19  39  65  87 109 139 174 216 271 335
#     4   9  17  32  56  82 109 140 177 219 268 325
#     4  11  23  37  55  80 112 145 181 228 274 320
#
# _framework density 17.479316000000001
#
# number of rings (size 3 to 8) (size 9 to 14) (size 15 to 20)
#    0.000    2.167    1.667    3.000    0.000    5.000 
#    0.000    4.167    0.000    0.000    0.000    0.000 
#    0.000    0.000    0.000    0.000    0.000    0.000 
#
# Total GULP energy -133979.723271 kJ/mol
# GULP energy per Si atom -5582.488470 kJ/mol
# Density = 1.743953 g / cm^3
# Si number density = 17.479316 Si / 1000 Ang^3
#
#
#
# Elastic Constant Matrix: (Units=GPa)
#
#
# Indices 1 2 3 4 5 6 
#
# 1 110.9417 65.1423 59.6987 0.0000 -9.6919 0.0000
# 2 65.1423 67.4654 48.3680 0.0000 -2.4296 0.0000
# 3 59.6987 48.3680 104.0363 0.0000 -23.9200 0.0000
# 4 0.0000 0.0000 0.0000 17.7903 0.0000 -3.3600
# 5 -9.6919 -2.4296 -23.9200 0.0000 21.7252 0.0000
# 6 0.0000 0.0000 0.0000 -3.3600 0.0000 34.3450
#
#
#
# Elastic Compliance Matrix: (Units=1/GPa)
#
#
# Indices 1 2 3 4 5 6 
#
# 1 0.022268 -0.019454 -0.002611 0.000000 0.004884 0.000000
# 2 -0.019454 0.041795 -0.012303 0.000000 -0.017551 0.000000
# 3 -0.002611 -0.012303 0.021753 0.000000 0.021410 0.000000
# 4 0.000000 0.000000 0.000000 0.057268 0.000000 0.005603
# 5 0.004884 -0.017551 0.021410 0.000000 0.069818 0.000000
# 6 0.000000 0.000000 0.000000 0.005603 0.000000 0.029664
#
#
# Mechanical properties :
#
#
# Convention : Reuss Voigt Hill
#
# Bulk Modulus (GPa) = 58.54773 69.87348 64.21061
# Shear Modulus (GPa) = 15.77311 22.05439 18.91375
#
# Velocity S-wave (km/s) = 3.00724 3.55595 3.29304
# Velocity P-wave (km/s) = 6.75471 7.54463 7.16057
#
# Compressibility (1/GPa) = 0.01708008
#
# Stress axis : x y z
#
# Youngs Moduli (GPa) = 44.90753 23.92642 45.97148
#
# Poissons Ratio (x) = 0.46546 0.12002
# Poissons Ratio (y) = 0.87362 0.56560
# Poissons Ratio (z) = 0.11724 0.29437
#
# Static dielectric constant tensor:
#      x y z
#    x 1.573190 0.000000 -0.016280 
#    y 0.000000 1.581390 0.000000 
#    z -0.016280 0.000000 1.590840 
# 
# From -- ./inp_files/221595.got.cif
#   From: 2010.05.17/outbox.cif.g08.bks.cpg/sg12_111_cif.got.tgz:221595.got - 2010.06.03 13:09:07.
