data_PCOD9192546
_publ_section_title
;
Structure prediction by ZEFSAII (Michael W. Deem and Ramdas Pophale) SiO2 
 PCOD9192546
Probable space group: C 2/M
;
_chemical_formula_sum "Si O2"
_cell_formula_units_Z 44
_cell_length_a 14.342860
_cell_length_b 28.516765
_cell_length_c 7.365784
_cell_angle_alpha 90.000000
_cell_angle_beta 138.251562
_cell_angle_gamma 90.000000
_cell_volume 2006.036297
_symmetry_space_group_name_H-M "C 2/M"
_symmetry_group_IT_number 12
_symmetry_cell_setting 'monoclinic'
loop_
_space_group_symop_operation_xyz
x,y,z
-x,y,-z
-x,-y,-z
x,-y,z
1/2+x,1/2+y,z
1/2-x,1/2+y,-z
1/2-x,1/2-y,-z
1/2+x,1/2-y,z
loop_
_atom_site_type_symbol
_atom_site_label
_atom_site_fract_x
_atom_site_fract_y
_atom_site_fract_z
Si Si1 0.000000 0.279306 0.500000
Si Si2 0.817765 0.214790 0.457852
Si Si3 0.946421 0.148582 0.210053
Si Si4 0.449395 0.449063 0.637068
Si Si5 0.158187 0.653295 0.958658
Si Si6 0.633473 0.947844 0.062814
O O1 0.127878 0.245763 0.632844
O O2 0.034407 0.313347 0.715913
O O3 0.750000 0.250000 0.500000
O O4 0.956289 0.188473 0.732477
O O5 0.716405 0.174574 0.231855
O O6 0.000000 0.146984 0.500000
O O7 0.978888 0.097181 0.180322
O O8 0.782722 0.157879 0.990928
O O9 0.500000 0.450631 0.500000
O O10 0.485265 0.500000 0.767810
O O11 0.281422 0.443644 0.384217
O O12 0.125656 0.598431 0.928648
O O13 0.637361 0.000000 0.980055
O O14 0.500000 0.946842 0.000000
#
# Coordination Sequence:
#
# PCOD9192546 Si02
#       6
#     4   8   8   8   8   8
#     4  12  26  40  57  84 127 170 206 254 316 372
#     4  11  23  39  61  87 117 158 206 264 318 362
#     4   9  16  34  56  82 115 145 195 259 291 356
#     4   9  14  26  52  83 110 146 189 241 307 356
#     4  11  22  41  60  86 125 161 206 257 308 379
#     4  10  20  33  57  93 127 156 198 261 317 374
#
# _framework density 21.933802
#
# number of rings (size 3 to 8) (size 9 to 14) (size 15 to 20)
#    0.000    1.818    8.182    0.545    2.545    0.000 
#    0.000    0.455    0.000    0.000    0.000    0.000 
#    0.000    7.273    0.000    0.000    0.000    0.000 
#
# Total GULP energy -122761.769469 kJ/mol
# GULP energy per Si atom -5580.080430 kJ/mol
# Density = 2.188388 g / cm^3
# Si number density = 21.933802 Si / 1000 Ang^3
#
#
#
# Elastic Constant Matrix: (Units=GPa)
#
#
# Indices 1 2 3 4 5 6 
#
# 1 77.2058 36.2444 14.9873 0.0000 14.5785 0.0000
# 2 36.2444 199.5781 12.7725 0.0000 6.1494 0.0000
# 3 14.9873 12.7725 25.4758 0.0000 6.7305 0.0000
# 4 0.0000 0.0000 0.0000 3.5281 0.0000 22.8909
# 5 14.5785 6.1494 6.7305 0.0000 27.2310 0.0000
# 6 0.0000 0.0000 0.0000 22.8909 0.0000 29.0714
#
#
#
# Elastic Compliance Matrix: (Units=1/GPa)
#
#
# Indices 1 2 3 4 5 6 
#
# 1 0.016662 -0.002382 -0.006840 0.000000 -0.006692 0.000000
# 2 -0.002382 0.005525 -0.001472 0.000000 0.000391 0.000000
# 3 -0.006840 -0.001472 0.045961 0.000000 -0.007366 0.000000
# 4 0.000000 0.000000 0.000000 -0.068984 0.000000 0.054318
# 5 -0.006692 0.000391 -0.007366 0.000000 0.042038 0.000000
# 6 0.000000 0.000000 0.000000 0.054318 0.000000 -0.008372
#
#
# Mechanical properties :
#
#
# Convention : Reuss Voigt Hill
#
# Bulk Modulus (GPa) = 21.38594 47.80756 34.59675
# Shear Modulus (GPa) = 71.62793 27.84980 49.73886
#
# Velocity S-wave (km/s) = 5.72078 3.56718 4.76718
# Velocity P-wave (km/s) = 7.30806 6.22977 6.79035
#
# Compressibility (1/GPa) = 0.04675970
#
# Stress axis : x y z
#
# Youngs Moduli (GPa) = 60.01695 180.98540 21.75764
#
# Poissons Ratio (x) = 0.43110 0.14882
# Poissons Ratio (y) = 0.14296 0.03203
# Poissons Ratio (z) = 0.41052 0.26646
#
# Static dielectric constant tensor:
#      x y z
#    x 1.842640 0.000000 -0.010580 
#    y 0.000000 1.837270 0.000000 
#    z -0.010580 0.000000 1.818560 
# 
# From -- ./inp_files/67165.got.cif
#   From: 2010.05.17/outbox.cif.g08.bks.cpg/sg12_34_cif.got.tgz:67165.got - 2010.06.03 13:09:07.
