data_PCOD9192373
_publ_section_title
;
Structure prediction by ZEFSAII (Michael W. Deem and Ramdas Pophale) SiO2 
 PCOD9192373
Probable space group: C 2/M
;
_chemical_formula_sum "Si O2"
_cell_formula_units_Z 48
_cell_length_a 14.666792
_cell_length_b 14.425426
_cell_length_c 23.389364
_cell_angle_alpha 90.000000
_cell_angle_beta 29.558396
_cell_angle_gamma 90.000000
_cell_volume 2441.194824
_symmetry_space_group_name_H-M "C 2/M"
_symmetry_group_IT_number 12
_symmetry_cell_setting 'monoclinic'
loop_
_space_group_symop_operation_xyz
x,y,z
-x,y,-z
-x,-y,-z
x,-y,z
1/2+x,1/2+y,z
1/2-x,1/2+y,-z
1/2-x,1/2-y,-z
1/2+x,1/2-y,z
loop_
_atom_site_type_symbol
_atom_site_label
_atom_site_fract_x
_atom_site_fract_y
_atom_site_fract_z
Si Si1 0.837824 0.299231 0.178700
Si Si2 0.527616 0.282166 0.553042
Si Si3 0.224867 0.357333 0.000232
Si Si4 0.755538 0.389886 0.519905
Si Si5 0.486628 0.598633 0.074999
Si Si6 0.379779 0.605138 0.794931
O O1 0.666805 0.312588 0.313957
O O2 0.891813 0.191101 0.150082
O O3 0.762566 0.325387 0.157276
O O4 0.010956 0.364123 0.100276
O O5 0.500000 0.284661 0.500000
O O6 0.679972 0.349568 0.500308
O O7 0.585857 0.179269 0.543610
O O8 0.308051 0.403896 0.010558
O O9 0.353108 0.385385 0.876954
O O10 0.250000 0.250000 0.000000
O O11 0.798506 0.500000 0.493455
O O12 0.583979 0.377893 0.658366
O O13 0.394252 0.500000 0.139968
O O14 0.500000 0.606829 0.000000
O O15 0.331031 0.500000 0.804748
#
# Coordination Sequence:
#
# PCOD9192373 Si02
#       6
#     8   8   8   8   8   8
#     4  10  21  37  57  85 117 152 192 243 299 345
#     4  10  22  39  62  89 120 159 209 250 297 361
#     4  10  20  33  55  83 112 152 188 229 294 353
#     4   9  21  41  62  89 123 158 202 255 301 351
#     4  10  21  37  54  80 119 155 192 236 289 358
#     4  10  20  36  61  88 117 149 192 245 295 352
#
# _framework density 19.662502
#
# number of rings (size 3 to 8) (size 9 to 14) (size 15 to 20)
#    0.000    2.167    0.000    3.000    4.667    3.333 
#    3.000    0.000    0.000    0.000    0.000    0.000 
#    0.000    0.000    0.000    0.000    0.000    0.000 
#
# Total GULP energy -133749.452768 kJ/mol
# GULP energy per Si atom -5572.893865 kJ/mol
# Density = 1.961775 g / cm^3
# Si number density = 19.662502 Si / 1000 Ang^3
#
#
#
# Elastic Constant Matrix: (Units=GPa)
#
#
# Indices 1 2 3 4 5 6 
#
# 1 127.8256 7.7234 29.5038 0.0101 18.1755 -0.0274
# 2 7.7234 77.9681 -2.4441 0.0053 2.9658 -0.0151
# 3 29.5038 -2.4441 27.3955 0.0154 4.7286 -0.0392
# 4 0.0101 0.0053 0.0154 21.7841 -0.0096 2.1183
# 5 18.1755 2.9658 4.7286 -0.0096 16.6484 0.0303
# 6 -0.0274 -0.0151 -0.0392 2.1183 0.0303 109.1980
#
#
#
# Elastic Compliance Matrix: (Units=1/GPa)
#
#
# Indices 1 2 3 4 5 6 
#
# 1 0.011834 -0.001161 -0.011204 -0.000002 -0.009531 0.000001
# 2 -0.001161 0.013097 0.002737 -0.000006 -0.001843 0.000003
# 3 -0.011204 0.002737 0.049197 -0.000033 -0.002229 0.000016
# 4 -0.000002 -0.000006 -0.000033 0.045992 0.000040 -0.000892
# 5 -0.009531 -0.001843 -0.002229 0.000040 0.071433 -0.000024
# 6 0.000001 0.000003 0.000016 -0.000892 -0.000024 0.009175
#
#
# Mechanical properties :
#
#
# Convention : Reuss Voigt Hill
#
# Bulk Modulus (GPa) = 18.22396 33.63949 25.93173
# Shear Modulus (GPa) = 20.98418 42.75318 31.86868
#
# Velocity S-wave (km/s) = 3.27037 4.66805 4.03026
# Velocity P-wave (km/s) = 4.85273 6.79705 5.90546
#
# Compressibility (1/GPa) = 0.05487280
#
# Stress axis : x y z
#
# Youngs Moduli (GPa) = 84.49876 76.35530 20.32630
#
# Poissons Ratio (x) = 0.08865 0.22773
# Poissons Ratio (y) = 0.09810 -0.05563
# Poissons Ratio (z) = 0.94670 -0.20897
#
# Static dielectric constant tensor:
#      x y z
#    x 1.735670 0.000000 -0.035420 
#    y 0.000000 1.725310 0.000000 
#    z -0.035420 0.000000 1.688130 
# 
# From -- ./inp_files/142710.got.cif
#   From: 2010.05.17/outbox.cif.g08.bks.cpg/sg12_72_cif.got.tgz:142710.got - 2010.06.03 13:09:07.
