data_PCOD9192551
_publ_section_title
;
Structure prediction by ZEFSAII (Michael W. Deem and Ramdas Pophale) SiO2 
 PCOD9192551
Probable space group: C 2/M
;
_chemical_formula_sum "Si O2"
_cell_formula_units_Z 48
_cell_length_a 9.309155
_cell_length_b 17.100229
_cell_length_c 17.266135
_cell_angle_alpha 90.000000
_cell_angle_beta 125.815170
_cell_angle_gamma 90.000000
_cell_volume 2228.842571
_symmetry_space_group_name_H-M "C 2/M"
_symmetry_group_IT_number 12
_symmetry_cell_setting 'monoclinic'
loop_
_space_group_symop_operation_xyz
x,y,z
-x,y,-z
-x,-y,-z
x,-y,z
1/2+x,1/2+y,z
1/2-x,1/2+y,-z
1/2-x,1/2-y,-z
1/2+x,1/2-y,z
loop_
_atom_site_type_symbol
_atom_site_label
_atom_site_fract_x
_atom_site_fract_y
_atom_site_fract_z
Si Si1 0.025312 0.852905 0.088754
Si Si2 0.910961 0.587259 0.641916
Si Si3 0.834742 0.834070 0.550477
Si Si4 0.259480 0.666152 0.279365
Si Si5 0.735345 0.657472 0.295496
Si Si6 0.806615 0.309311 0.913312
O O1 0.124465 0.887960 0.194757
O O2 0.149386 0.780469 0.097788
O O3 0.840595 0.821541 0.067195
O O4 0.000000 0.898816 0.000000
O O5 0.975822 0.500000 0.649556
O O6 0.742126 0.605558 0.535475
O O7 0.855397 0.602909 0.712162
O O8 0.062488 0.647493 0.665518
O O9 0.750000 0.750000 0.500000
O O10 0.778958 0.861113 0.618945
O O11 0.046007 0.830281 0.621974
O O12 0.176662 0.751736 0.270193
O O13 0.262925 0.653694 0.188748
O O14 0.000000 0.340472 0.000000
#
# Coordination Sequence:
#
# PCOD9192551 Si02
#       6
#     8   8   8   8   8   8
#     4  10  20  33  57  95 132 163 206 272 328 372
#     4  12  28  42  63  97 135 173 209 268 333 379
#     4  12  22  40  63  97 128 169 221 270 308 380
#     4  11  22  39  65  95 129 169 222 265 315 386
#     4  11  22  39  65  95 129 169 222 265 315 386
#     4  10  20  33  57  95 132 163 206 272 328 372
#
# _framework density 21.535841000000001
#
# number of rings (size 3 to 8) (size 9 to 14) (size 15 to 20)
#    0.000    1.000    5.000    3.000    9.333    2.667 
#    0.000    0.000    0.000    1.000    0.000    0.000 
#    0.000    0.000    0.000    0.000    0.000    0.000 
#
# Total GULP energy -133932.264873 kJ/mol
# GULP energy per Si atom -5580.511036 kJ/mol
# Density = 2.148682 g / cm^3
# Si number density = 21.535841 Si / 1000 Ang^3
#
#
#
# Elastic Constant Matrix: (Units=GPa)
#
#
# Indices 1 2 3 4 5 6 
#
# 1 100.4598 5.7236 27.6305 0.0000 -24.5142 0.0000
# 2 5.7236 31.2113 8.4704 0.0000 -3.0535 0.0000
# 3 27.6305 8.4704 130.9954 0.0000 -22.9849 0.0000
# 4 0.0000 0.0000 0.0000 4.4073 0.0000 -2.5145
# 5 -24.5142 -3.0535 -22.9849 0.0000 50.3826 0.0000
# 6 0.0000 0.0000 0.0000 -2.5145 0.0000 3.9820
#
#
#
# Elastic Compliance Matrix: (Units=1/GPa)
#
#
# Indices 1 2 3 4 5 6 
#
# 1 0.011636 -0.001244 -0.001515 0.000000 0.004895 0.000000
# 2 -0.001244 0.032801 -0.001757 0.000000 0.000581 0.000000
# 3 -0.001515 -0.001757 0.008608 0.000000 0.003083 0.000000
# 4 0.000000 0.000000 0.000000 0.354672 0.000000 0.223963
# 5 0.004895 0.000581 0.003083 0.000000 0.023672 0.000000
# 6 0.000000 0.000000 0.000000 0.223963 0.000000 0.392553
#
#
# Mechanical properties :
#
#
# Convention : Reuss Voigt Hill
#
# Bulk Modulus (GPa) = 22.71966 38.47948 30.59957
# Shear Modulus (GPa) = 5.89870 26.47720 16.18795
#
# Velocity S-wave (km/s) = 1.65679 3.51015 2.74464
# Velocity P-wave (km/s) = 3.77260 5.85958 4.92784
#
# Compressibility (1/GPa) = 0.04401474
#
# Stress axis : x y z
#
# Youngs Moduli (GPa) = 85.93783 30.48656 116.17048
#
# Poissons Ratio (x) = 0.03792 0.17601
# Poissons Ratio (y) = 0.10689 0.20407
# Poissons Ratio (z) = 0.13020 0.05355
#
# Static dielectric constant tensor:
#      x y z
#    x 1.787500 0.000000 -0.001240 
#    y 0.000000 1.793410 0.000000 
#    z -0.001240 0.000000 1.877620 
# 
# From -- ./inp_files/256722.got.cif
#   From: 2010.05.17/outbox.cif.g08.bks.cpg/sg12_129_cif.got.tgz:256722.got - 2010.06.03 13:09:07.
