data_PCOD9192148
_publ_section_title
;
Structure prediction by ZEFSAII (Michael W. Deem and Ramdas Pophale) SiO2 
 PCOD9192148
Probable space group: C 2/M
;
_chemical_formula_sum "Si O2"
_cell_formula_units_Z 56
_cell_length_a 21.688987
_cell_length_b 8.573962
_cell_length_c 18.527698
_cell_angle_alpha 90.000000
_cell_angle_beta 121.854230
_cell_angle_gamma 90.000000
_cell_volume 2926.518314
_symmetry_space_group_name_H-M "C 2/M"
_symmetry_group_IT_number 12
_symmetry_cell_setting 'monoclinic'
loop_
_space_group_symop_operation_xyz
x,y,z
-x,y,-z
-x,-y,-z
x,-y,z
1/2+x,1/2+y,z
1/2-x,1/2+y,-z
1/2-x,1/2-y,-z
1/2+x,1/2-y,z
loop_
_atom_site_type_symbol
_atom_site_label
_atom_site_fract_x
_atom_site_fract_y
_atom_site_fract_z
Si Si1 0.643909 0.188469 0.273973
Si Si2 0.798496 0.816172 0.301347
Si Si3 0.919921 0.315269 0.473325
Si Si4 0.332624 0.314619 0.556367
Si Si5 0.234042 0.684438 0.872929
Si Si6 0.358371 0.186507 0.043078
Si Si7 0.484858 0.189173 0.909029
O O1 0.724912 0.227737 0.297954
O O2 0.633909 0.257569 0.347178
O O3 0.585878 0.243408 0.178141
O O4 0.638860 0.000000 0.275386
O O5 0.865274 0.721056 0.374330
O O6 0.784710 0.779399 0.209580
O O7 0.811193 0.000000 0.320395
O O8 0.924777 0.500000 0.489140
O O9 0.882573 0.240535 0.520733
O O10 0.000000 0.257787 0.500000
O O11 0.327733 0.500000 0.551940
O O12 0.250000 0.250000 0.500000
O O13 0.229976 0.500000 0.856033
O O14 0.178561 0.723760 0.903496
O O15 0.312833 0.728971 0.952691
O O16 0.442710 0.225364 0.091117
O O17 0.350767 0.000000 0.026861
O O18 0.478151 0.000000 0.909743
O O19 0.500000 0.245281 0.000000
#
# Coordination Sequence:
#
# PCOD9192148 Si02
#       7
#     8   8   8   8   8   8   8
#     4  10  21  37  61  91 119 157 205 253 308 368
#     4  11  22  37  60  87 117 154 199 248 300 369
#     4  11  25  44  66  92 124 160 201 255 316 374
#     4  12  24  41  66  93 125 164 208 258 312 373
#     4  10  20  33  53  80 113 152 195 244 299 363
#     4   9  18  34  54  78 109 150 196 243 298 360
#     4   9  17  32  56  84 114 148 193 246 297 357
#
# _framework density 19.135366000000001
#
# number of rings (size 3 to 8) (size 9 to 14) (size 15 to 20)
#    0.000    1.714    1.429    3.429    0.000    5.714 
#    0.000    3.571    0.000    1.714    0.000    0.000 
#    0.000    0.000    0.000    0.000    0.000    0.000 
#
# Total GULP energy -156403.895425 kJ/mol
# GULP energy per Si atom -5585.853408 kJ/mol
# Density = 1.909181 g / cm^3
# Si number density = 19.135366 Si / 1000 Ang^3
#
#
#
# Elastic Constant Matrix: (Units=GPa)
#
#
# Indices 1 2 3 4 5 6 
#
# 1 105.0017 30.7566 44.8192 0.0000 12.6086 0.0000
# 2 30.7566 24.6834 18.2633 0.0000 3.4771 0.0000
# 3 44.8192 18.2633 96.3882 0.0000 1.2287 0.0000
# 4 0.0000 0.0000 0.0000 44.7719 0.0000 -4.8724
# 5 12.6086 3.4771 1.2287 0.0000 29.2107 0.0000
# 6 0.0000 0.0000 0.0000 -4.8724 0.0000 22.4238
#
#
#
# Elastic Compliance Matrix: (Units=1/GPa)
#
#
# Indices 1 2 3 4 5 6 
#
# 1 0.017180 -0.017233 -0.004657 0.000000 -0.005168 0.000000
# 2 -0.017233 0.065219 -0.004343 0.000000 -0.000142 0.000000
# 3 -0.004657 -0.004343 0.013338 0.000000 0.001966 0.000000
# 4 0.000000 0.000000 0.000000 0.022876 0.000000 0.004971
# 5 -0.005168 -0.000142 0.001966 0.000000 0.036399 0.000000
# 6 0.000000 0.000000 0.000000 0.004971 0.000000 0.045676
#
#
# Mechanical properties :
#
#
# Convention : Reuss Voigt Hill
#
# Bulk Modulus (GPa) = 23.10992 45.97240 34.54116
# Shear Modulus (GPa) = 18.68612 28.09689 23.39151
#
# Velocity S-wave (km/s) = 3.12833 3.83603 3.50011
# Velocity P-wave (km/s) = 5.01516 6.61038 5.86724
#
# Compressibility (1/GPa) = 0.04327146
#
# Stress axis : x y z
#
# Youngs Moduli (GPa) = 58.20705 15.33290 74.97339
#
# Poissons Ratio (x) = 0.26423 0.34918
# Poissons Ratio (y) = 1.00308 0.32558
# Poissons Ratio (z) = 0.27109 0.06658
#
# Static dielectric constant tensor:
#      x y z
#    x 1.660480 0.000000 -0.003870 
#    y 0.000000 1.652340 0.000000 
#    z -0.003870 0.000000 1.645690 
# 
# From -- ./inp_files/280905.got.cif
#   From: 2010.05.17/outbox.cif.g08.bks.cpg/sg12_141_cif.got.tgz:280905.got - 2010.06.03 13:09:07.
