data_PCOD9192239
_publ_section_title
;
Structure prediction by ZEFSAII (Michael W. Deem and Ramdas Pophale) SiO2 
 PCOD9192239
Probable space group: C 2/M
;
_chemical_formula_sum "Si O2"
_cell_formula_units_Z 56
_cell_length_a 18.373986
_cell_length_b 26.643069
_cell_length_c 9.710161
_cell_angle_alpha 90.000000
_cell_angle_beta 32.291651
_cell_angle_gamma 90.000000
_cell_volume 2539.461673
_symmetry_space_group_name_H-M "C 2/M"
_symmetry_group_IT_number 12
_symmetry_cell_setting 'monoclinic'
loop_
_space_group_symop_operation_xyz
x,y,z
-x,y,-z
-x,-y,-z
x,-y,z
1/2+x,1/2+y,z
1/2-x,1/2+y,-z
1/2-x,1/2-y,-z
1/2+x,1/2-y,z
loop_
_atom_site_type_symbol
_atom_site_label
_atom_site_fract_x
_atom_site_fract_y
_atom_site_fract_z
Si Si1 0.768136 0.807736 0.422225
Si Si2 0.538684 0.272133 0.586759
Si Si3 0.943238 0.153866 0.915538
Si Si4 0.806140 0.285212 0.030886
Si Si5 0.574336 0.902407 0.737189
Si Si6 0.215998 0.057991 0.815631
Si Si7 0.883278 0.387415 0.787887
O O1 0.750000 0.750000 0.500000
O O2 0.698862 0.719116 0.325080
O O3 0.911348 0.828972 0.255412
O O4 0.644432 0.846899 0.647118
O O5 0.500000 0.251837 0.500000
O O6 0.465288 0.325175 0.727957
O O7 0.460744 0.233698 0.812890
O O8 0.812139 0.182495 0.191270
O O9 0.911135 0.095921 0.983160
O O10 0.750000 0.250000 0.000000
O O11 0.803909 0.340912 0.977046
O O12 0.697523 0.932433 0.463589
O O13 0.460202 0.907686 0.799977
O O14 0.500000 0.916507 0.000000
O O15 0.300877 0.075922 0.816875
O O16 0.181985 0.000000 0.881306
O O17 0.000000 0.366459 0.500000
#
# Coordination Sequence:
#
# PCOD9192239 Si02
#       7
#     8   8   8   8   8   8   8
#     4  10  24  41  61  92 138 186 218 258 324 406
#     4  10  21  33  55  88 129 167 214 264 329 391
#     4  10  23  41  63  95 132 171 233 270 318 412
#     4  10  20  33  53  90 130 171 211 265 330 396
#     4  10  24  40  62 101 136 174 223 275 338 405
#     4  10  22  46  74  95 125 173 227 293 346 389
#     4  10  21  38  63  96 131 170 225 277 333 408
#
# _framework density 22.051919000000002
#
# number of rings (size 3 to 8) (size 9 to 14) (size 15 to 20)
#    0.000    2.000    0.000    3.000    8.000    4.000 
#    0.000    5.714    0.000    3.857    0.000    0.000 
#    0.000    0.000    0.000    0.000    0.000    0.000 
#
# Total GULP energy -155896.821891 kJ/mol
# GULP energy per Si atom -5567.743639 kJ/mol
# Density = 2.200173 g / cm^3
# Si number density = 22.051919 Si / 1000 Ang^3
#
#
#
# Elastic Constant Matrix: (Units=GPa)
#
#
# Indices 1 2 3 4 5 6 
#
# 1 64.7755 27.4783 35.2965 0.0000 5.4686 0.0000
# 2 27.4783 172.3165 54.3976 0.0000 -12.4133 0.0000
# 3 35.2965 54.3976 159.2158 -0.0001 0.6966 0.0001
# 4 0.0000 0.0000 -0.0001 21.3753 0.0000 3.0044
# 5 5.4686 -12.4133 0.6966 0.0000 30.3487 0.0000
# 6 0.0000 0.0000 0.0001 3.0044 0.0000 13.5735
#
#
#
# Elastic Compliance Matrix: (Units=1/GPa)
#
#
# Indices 1 2 3 4 5 6 
#
# 1 0.018544 -0.002203 -0.003340 0.000000 -0.004166 0.000000
# 2 -0.002203 0.006998 -0.001917 0.000000 0.003303 0.000000
# 3 -0.003340 -0.001917 0.007678 0.000000 -0.000358 0.000000
# 4 0.000000 0.000000 0.000000 0.048285 0.000000 -0.010687
# 5 -0.004166 0.003303 -0.000358 0.000000 0.035060 0.000000
# 6 0.000000 0.000000 0.000000 -0.010687 0.000000 0.076039
#
#
# Mechanical properties :
#
#
# Convention : Reuss Voigt Hill
#
# Bulk Modulus (GPa) = 54.64560 70.07251 62.35906
# Shear Modulus (GPa) = 23.40566 31.66851 27.53709
#
# Velocity S-wave (km/s) = 3.26143 3.79369 3.53758
# Velocity P-wave (km/s) = 6.24634 7.14385 6.71012
#
# Compressibility (1/GPa) = 0.01829973
#
# Stress axis : x y z
#
# Youngs Moduli (GPa) = 53.92530 142.90547 130.24598
#
# Poissons Ratio (x) = 0.31479 0.43505
# Poissons Ratio (y) = 0.11879 0.24967
# Poissons Ratio (z) = 0.18012 0.27394
#
# Static dielectric constant tensor:
#      x y z
#    x 4.036330 0.000000 -0.578950 
#    y 0.000000 1.805590 0.000000 
#    z -0.578950 0.000000 2.071850 
# 
# From -- ./inp_files/79650.got.cif
#   From: 2010.05.17/outbox.cif.g08.bks.cpg/sg12_40_cif.got.tgz:79650.got - 2010.06.03 13:09:07.
