data_PCOD9192251
_publ_section_title
;
Structure prediction by ZEFSAII (Michael W. Deem and Ramdas Pophale) SiO2 
 PCOD9192251
Probable space group: C 2/M
;
_chemical_formula_sum "Si O2"
_cell_formula_units_Z 50
_cell_length_a 17.554998
_cell_length_b 9.289766
_cell_length_c 14.527732
_cell_angle_alpha 90.000000
_cell_angle_beta 85.540412
_cell_angle_gamma 90.000000
_cell_volume 2362.036068
_symmetry_space_group_name_H-M "C 2/M"
_symmetry_group_IT_number 12
_symmetry_cell_setting 'monoclinic'
loop_
_space_group_symop_operation_xyz
x,y,z
-x,y,-z
-x,-y,-z
x,-y,z
1/2+x,1/2+y,z
1/2-x,1/2+y,-z
1/2-x,1/2-y,-z
1/2+x,1/2-y,z
loop_
_atom_site_type_symbol
_atom_site_label
_atom_site_fract_x
_atom_site_fract_y
_atom_site_fract_z
Si Si1 0.127374 0.164131 0.627842
Si Si2 0.085981 0.336024 0.949779
Si Si3 0.000000 0.500000 0.500000
Si Si4 0.980039 0.827086 0.213840
Si Si5 0.849504 0.341164 0.551049
Si Si6 0.147410 0.828911 0.114918
Si Si7 0.771922 0.333285 0.741387
O O1 0.049742 0.220756 0.682989
O O2 0.161982 0.250881 0.539820
O O3 0.188256 0.167301 0.705189
O O4 0.114925 0.000000 0.599564
O O5 0.112480 0.500000 0.933824
O O6 0.071999 0.251039 0.857152
O O7 0.137012 0.250519 0.018519
O O8 0.000000 0.341935 0.000000
O O9 0.061416 0.378091 0.460006
O O10 0.068078 0.799350 0.178914
O O11 0.969220 0.000000 0.209235
O O12 0.809933 0.500000 0.547184
O O13 0.823776 0.279575 0.650772
O O14 0.214061 0.762420 0.170817
O O15 0.154481 0.000000 0.101970
O O16 0.792931 0.500000 0.760430
#
# Coordination Sequence:
#
# PCOD9192251 Si02
#       7
#     8   8   2   8   8   8   8
#     4  10  21  36  54  78 106 142 179 214 263 314
#     4   9  17  32  53  80 105 135 172 214 266 320
#     4   8  20  36  54  84 104 134 184 216 272 296
#     4   9  19  34  53  77 107 136 171 219 266 312
#     4   9  20  35  55  76 108 138 174 217 262 306
#     4  10  20  33  54  79 106 136 173 218 266 313
#     4  10  21  36  53  75 107 143 178 217 261 313
#
# _framework density 21.168178000000001
#
# number of rings (size 3 to 8) (size 9 to 14) (size 15 to 20)
#    0.480    2.080    0.000    1.440    2.240    4.480 
#    0.000    1.200    0.000    0.000    0.000    0.000 
#    0.000    0.000    0.000    0.000    0.000    0.000 
#
# Total GULP energy -139175.840924 kJ/mol
# GULP energy per Si atom -5567.033637 kJ/mol
# Density = 2.112000 g / cm^3
# Si number density = 21.168178 Si / 1000 Ang^3
#
#
#
# Elastic Constant Matrix: (Units=GPa)
#
#
# Indices 1 2 3 4 5 6 
#
# 1 27.8076 -1.0232 -5.7579 0.0000 -5.1057 0.0000
# 2 -1.0232 60.3232 44.4358 0.0000 15.5912 0.0000
# 3 -5.7579 44.4358 80.2952 0.0000 10.7038 0.0000
# 4 0.0000 0.0000 0.0000 26.7782 0.0000 1.6251
# 5 -5.1057 15.5912 10.7038 0.0000 34.2755 0.0000
# 6 0.0000 0.0000 0.0000 1.6251 0.0000 13.7192
#
#
#
# Elastic Compliance Matrix: (Units=1/GPa)
#
#
# Indices 1 2 3 4 5 6 
#
# 1 0.037790 -0.003953 0.004077 0.000000 0.006154 0.000000
# 2 -0.003953 0.030821 -0.016061 0.000000 -0.009593 0.000000
# 3 0.004077 -0.016061 0.021474 0.000000 0.001207 0.000000
# 4 0.000000 0.000000 0.000000 0.037614 0.000000 -0.004456
# 5 0.006154 -0.009593 0.001207 0.000000 0.034079 0.000000
# 6 0.000000 0.000000 0.000000 -0.004456 0.000000 0.073418
#
#
# Mechanical properties :
#
#
# Convention : Reuss Voigt Hill
#
# Bulk Modulus (GPa) = 17.17892 27.08172 22.13032
# Shear Modulus (GPa) = 17.45364 23.67268 20.56316
#
# Velocity S-wave (km/s) = 2.87457 3.34775 3.12014
# Velocity P-wave (km/s) = 4.37614 5.26921 4.84330
#
# Compressibility (1/GPa) = 0.05821087
#
# Stress axis : x y z
#
# Youngs Moduli (GPa) = 26.46193 32.44564 46.56843
#
# Poissons Ratio (x) = 0.12826 -0.18987
# Poissons Ratio (y) = 0.10460 0.74794
# Poissons Ratio (z) = -0.10789 0.52111
#
# Static dielectric constant tensor:
#      x y z
#    x 1.816490 0.000000 -0.010430 
#    y 0.000000 1.755520 0.000000 
#    z -0.010430 0.000000 1.738060 
# 
# From -- ./inp_files/230285.got.cif
#   From: 2010.05.17/outbox.cif.g08.bks.cpg/sg12_116_cif.got.tgz:230285.got - 2010.06.03 13:09:07.
