data_PCOD9192696
_publ_section_title
;
Structure prediction by ZEFSAII (Michael W. Deem and Ramdas Pophale) SiO2 
 PCOD9192696
Probable space group: C 2/M
;
_chemical_formula_sum "Si O2"
_cell_formula_units_Z 48
_cell_length_a 15.288511
_cell_length_b 7.420031
_cell_length_c 30.355683
_cell_angle_alpha 90.000000
_cell_angle_beta 142.852727
_cell_angle_gamma 90.000000
_cell_volume 2079.463897
_symmetry_space_group_name_H-M "C 2/M"
_symmetry_group_IT_number 12
_symmetry_cell_setting 'monoclinic'
loop_
_space_group_symop_operation_xyz
x,y,z
-x,y,-z
-x,-y,-z
x,-y,z
1/2+x,1/2+y,z
1/2-x,1/2+y,-z
1/2-x,1/2-y,-z
1/2+x,1/2-y,z
loop_
_atom_site_type_symbol
_atom_site_label
_atom_site_fract_x
_atom_site_fract_y
_atom_site_fract_z
Si Si1 0.644984 0.716114 0.916189
Si Si2 0.269045 0.719875 0.398444
Si Si3 0.981022 0.217515 0.562984
Si Si4 0.155793 0.281727 0.082515
Si Si5 0.985430 0.291705 0.325566
Si Si6 0.328674 0.294316 0.809901
O O1 0.634890 0.500000 0.909502
O O2 0.722491 0.779503 0.902922
O O3 0.482343 0.787640 0.857268
O O4 0.750000 0.750000 0.000000
O O5 0.266031 0.500000 0.397016
O O6 0.364451 0.772521 0.479400
O O7 0.361590 0.774359 0.392964
O O8 0.105727 0.784658 0.340681
O O9 0.952041 0.287291 0.599960
O O10 0.978704 0.000000 0.563916
O O11 0.161505 0.500000 0.088210
O O12 0.169875 0.205370 0.136648
O O13 0.000000 0.234101 0.000000
O O14 0.964531 0.500000 0.303879
O O15 0.825572 0.208335 0.264096
O O16 0.327304 0.500000 0.792186
#
# Coordination Sequence:
#
# PCOD9192696 Si02
#       6
#     8   8   8   8   8   8
#     4  10  20  35  54  75  99 127 162 206 251 298
#     4   8  16  32  53  74 102 136 171 208 248 296
#     4   9  17  32  54  77  98 133 178 211 242 290
#     4  10  20  35  55  76  98 127 166 211 253 294
#     4  10  20  34  50  73 107 138 164 205 257 301
#     4  10  22  36  51  75 105 136 167 202 254 310
#
# _framework density 23.082871999999998
#
# number of rings (size 3 to 8) (size 9 to 14) (size 15 to 20)
#    0.000    2.500    1.667    1.500    0.000    3.000 
#    0.000    2.500    0.000    0.000    0.000    0.000 
#    0.000    0.000    0.000    0.000    0.000    0.000 
#
# Total GULP energy -134039.556800 kJ/mol
# GULP energy per Si atom -5584.981533 kJ/mol
# Density = 2.303033 g / cm^3
# Si number density = 23.082872 Si / 1000 Ang^3
#
#
#
# Elastic Constant Matrix: (Units=GPa)
#
#
# Indices 1 2 3 4 5 6 
#
# 1 159.1878 3.9445 13.4712 0.0001 41.9646 0.0001
# 2 3.9445 77.7114 0.3763 0.0001 10.5544 0.0002
# 3 13.4712 0.3763 26.6976 0.0000 22.9652 0.0001
# 4 0.0001 0.0001 0.0000 10.0845 0.0000 -10.0712
# 5 41.9646 10.5544 22.9652 0.0000 46.4558 0.0000
# 6 0.0001 0.0002 0.0001 -10.0712 0.0000 50.2649
#
#
#
# Elastic Compliance Matrix: (Units=1/GPa)
#
#
# Indices 1 2 3 4 5 6 
#
# 1 0.008548 0.000913 0.004340 0.000000 -0.010074 0.000000
# 2 0.000913 0.013650 0.004740 0.000000 -0.006269 0.000000
# 3 0.004340 0.004740 0.068721 0.000000 -0.038969 0.000000
# 4 0.000000 0.000000 0.000000 0.123968 0.000000 0.024839
# 5 -0.010074 -0.006269 -0.038969 0.000000 0.051315 0.000000
# 6 0.000000 0.000000 0.000000 0.024839 0.000000 0.024871
#
#
# Mechanical properties :
#
#
# Convention : Reuss Voigt Hill
#
# Bulk Modulus (GPa) = 9.01673 33.24232 21.12952
# Shear Modulus (GPa) = 16.23082 37.74802 26.98942
#
# Velocity S-wave (km/s) = 2.65458 4.04830 3.42312
# Velocity P-wave (km/s) = 3.64835 6.02364 4.97969
#
# Compressibility (1/GPa) = 0.11090501
#
# Stress axis : x y z
#
# Youngs Moduli (GPa) = 116.98983 73.25855 14.55156
#
# Poissons Ratio (x) = -0.06691 -0.06315
# Poissons Ratio (y) = -0.10685 -0.06897
# Poissons Ratio (z) = -0.50773 -0.34721
#
# Static dielectric constant tensor:
#      x y z
#    x 1.859040 0.000000 0.063630 
#    y 0.000000 2.120010 0.000000 
#    z 0.063630 0.000000 1.846820 
# 
# From -- ./inp_files/303837.got.cif
#   From: 2010.05.17/outbox.cif.g08.bks.cpg/sg12_152_cif.got.tgz:303837.got - 2010.06.03 13:09:07.
