data_PCOD9192359
_publ_section_title
;
Structure prediction by ZEFSAII (Michael W. Deem and Ramdas Pophale) SiO2 
 PCOD9192359
Probable space group: C 2/M
;
_chemical_formula_sum "Si O2"
_cell_formula_units_Z 64
_cell_length_a 13.106078
_cell_length_b 28.950963
_cell_length_c 7.404074
_cell_angle_alpha 90.000000
_cell_angle_beta 82.369924
_cell_angle_gamma 90.000000
_cell_volume 2784.480217
_symmetry_space_group_name_H-M "C 2/M"
_symmetry_group_IT_number 12
_symmetry_cell_setting 'monoclinic'
loop_
_space_group_symop_operation_xyz
x,y,z
-x,y,-z
-x,-y,-z
x,-y,z
1/2+x,1/2+y,z
1/2-x,1/2+y,-z
1/2-x,1/2-y,-z
1/2+x,1/2-y,z
loop_
_atom_site_type_symbol
_atom_site_label
_atom_site_fract_x
_atom_site_fract_y
_atom_site_fract_z
Si Si1 0.916311 0.198264 0.148869
Si Si2 0.008984 0.100741 0.714616
Si Si3 0.711339 0.173628 0.254041
Si Si4 0.292464 0.445134 0.802312
Si Si5 0.503882 0.867741 0.715346
Si Si6 0.884412 0.447375 0.881585
Si Si7 0.772664 0.924637 0.385594
Si Si8 0.894522 0.282680 0.412155
O O1 0.802957 0.186813 0.098683
O O2 0.894858 0.235933 0.304540
O O3 0.966926 0.150748 0.207541
O O4 0.000000 0.220030 0.000000
O O5 0.901698 0.080154 0.811211
O O6 0.000000 0.106031 0.500000
O O7 0.110288 0.068375 0.713480
O O8 0.601637 0.158678 0.202200
O O9 0.752607 0.129652 0.357343
O O10 0.688473 0.211372 0.411843
O O11 0.305404 0.500000 0.829568
O O12 0.266926 0.437234 0.596766
O O13 0.198455 0.428999 0.951279
O O14 0.500000 0.877888 0.500000
O O15 0.485207 0.916427 0.816996
O O16 0.595064 0.830119 0.709582
O O17 0.909007 0.500000 0.918451
O O18 0.815254 0.447263 0.714609
O O19 0.000000 0.282724 0.500000
#
# Coordination Sequence:
#
# PCOD9192359 Si02
#       8
#     8   8   8   8   8   8   8   8
#     4  11  21  31  52  83 111 133 175 223 265 321
#     4   9  20  34  51  73 107 149 179 214 266 315
#     4   8  17  34  56  74 103 147 175 210 269 318
#     4  10  21  34  51  80 110 143 184 222 264 323
#     4   8  17  35  57  76 102 141 182 222 268 319
#     4  10  20  33  55  80 106 140 179 224 277 318
#     4   9  18  34  53  77 107 147 182 216 266 318
#     4   9  18  37  57  72 103 143 183 219 262 322
#
# _framework density 22.984539999999999
#
# number of rings (size 3 to 8) (size 9 to 14) (size 15 to 20)
#    0.000    3.000    0.000    1.125    5.250    3.000 
#    2.250    3.750    0.000    0.000    0.000   16.625 
#    0.000    0.000    0.000    0.000    0.000    0.000 
#
# Total GULP energy -178467.575560 kJ/mol
# GULP energy per Si atom -5577.111736 kJ/mol
# Density = 2.293223 g / cm^3
# Si number density = 22.984540 Si / 1000 Ang^3
#
#
#
# Elastic Constant Matrix: (Units=GPa)
#
#
# Indices 1 2 3 4 5 6 
#
# 1 70.7619 -7.8682 13.0046 0.0000 -16.3232 0.0000
# 2 -7.8682 45.1038 2.4063 0.0000 -3.0117 0.0000
# 3 13.0046 2.4063 59.6191 0.0000 -17.3136 0.0000
# 4 0.0000 0.0000 0.0000 15.2890 0.0000 -86.9643
# 5 -16.3232 -3.0117 -17.3136 0.0000 28.4283 0.0000
# 6 0.0000 0.0000 0.0000 -86.9643 0.0000 -695.8088
#
#
#
# Elastic Compliance Matrix: (Units=1/GPa)
#
#
# Indices 1 2 3 4 5 6 
#
# 1 0.016913 0.003639 -0.001098 0.000000 0.009428 0.000000
# 2 0.003639 0.023115 -0.000497 0.000000 0.004236 0.000000
# 3 -0.001098 -0.000497 0.020451 0.000000 0.011772 0.000000
# 4 0.000000 0.000000 0.000000 0.038229 0.000000 -0.004778
# 5 0.009428 0.004236 0.011772 0.000000 0.048208 0.000000
# 6 0.000000 0.000000 0.000000 -0.004778 0.000000 -0.000840
#
#
# Mechanical properties :
#
#
# Convention : Reuss Voigt Hill
#
# Bulk Modulus (GPa) = 15.48775 21.17448 18.33112
# Shear Modulus (GPa) = 30.57886 -119.22215 -44.32165
#
# Velocity S-wave (km/s) = 3.65144 -7.20994 -4.39603
# Velocity P-wave (km/s) = 4.95280 7.75103 4.21593
#
# Compressibility (1/GPa) = 0.06456715
#
# Stress axis : x y z
#
# Youngs Moduli (GPa) = 59.12571 43.26173 48.89625
#
# Poissons Ratio (x) = -0.15741 0.05370
# Poissons Ratio (y) = -0.21513 0.02428
# Poissons Ratio (z) = 0.06493 0.02148
#
# Static dielectric constant tensor:
#      x y z
#    x 1.938460 0.000000 -0.029900 
#    y 0.000000 1.901400 0.000000 
#    z -0.029900 0.000000 1.885070 
# 
# From -- ./inp_files/68192.got.cif
#   From: 2010.05.17/outbox.cif.g08.bks.cpg/sg12_35_cif.got.tgz:68192.got - 2010.06.03 13:09:07.
