data_PCOD9192738
_publ_section_title
;
Structure prediction by ZEFSAII (Michael W. Deem and Ramdas Pophale) SiO2 
 PCOD9192738
Probable space group: C 2/M
;
_chemical_formula_sum "Si O2"
_cell_formula_units_Z 64
_cell_length_a 19.861320
_cell_length_b 7.694424
_cell_length_c 25.138546
_cell_angle_alpha 90.000000
_cell_angle_beta 55.265465
_cell_angle_gamma 90.000000
_cell_volume 3157.118737
_symmetry_space_group_name_H-M "C 2/M"
_symmetry_group_IT_number 12
_symmetry_cell_setting 'monoclinic'
loop_
_space_group_symop_operation_xyz
x,y,z
-x,y,-z
-x,-y,-z
x,-y,z
1/2+x,1/2+y,z
1/2-x,1/2+y,-z
1/2-x,1/2-y,-z
1/2+x,1/2-y,z
loop_
_atom_site_type_symbol
_atom_site_label
_atom_site_fract_x
_atom_site_fract_y
_atom_site_fract_z
Si Si1 0.810178 0.296628 0.821178
Si Si2 0.410330 0.790270 0.555976
Si Si3 0.244684 0.706888 0.440714
Si Si4 0.469791 0.203910 0.807205
Si Si5 0.196456 0.793176 0.297300
Si Si6 0.850610 0.704888 0.295969
Si Si7 0.521152 0.710401 0.075594
Si Si8 0.370314 0.712240 0.073683
O O1 0.807228 0.500000 0.837867
O O2 0.890669 0.220089 0.813003
O O3 0.816111 0.284231 0.755003
O O4 0.721770 0.222537 0.877772
O O5 0.500000 0.725237 0.500000
O O6 0.340113 0.727215 0.547024
O O7 0.378129 0.742590 0.628893
O O8 0.412324 0.000000 0.552175
O O9 0.245924 0.500000 0.434399
O O10 0.250000 0.750000 0.500000
O O11 0.317468 0.776219 0.370784
O O12 0.558973 0.280371 0.752668
O O13 0.460507 0.218833 0.874672
O O14 0.473120 0.000000 0.790471
O O15 0.279072 0.724219 0.289346
O O16 0.204206 0.000000 0.287693
O O17 0.855408 0.500000 0.281525
O O18 0.521466 0.500000 0.078286
O O19 0.432080 0.765550 0.093193
O O20 0.586944 0.762102 0.001027
O O21 0.369630 0.500000 0.075231
#
# Coordination Sequence:
#
# PCOD9192738 Si02
#       8
#     8   8   8   8   8   8   8   8
#     4  10  20  34  51  71 100 135 167 201 245 299
#     4   9  19  36  56  76  99 131 168 201 240 295
#     4  10  20  34  54  78 102 130 165 203 244 292
#     4  10  21  34  49  73 103 133 164 202 250 296
#     4  10  20  34  53  75  99 128 165 209 249 286
#     4   9  19  36  53  70  98 133 167 204 245 290
#     4   9  17  32  54  75  97 128 167 208 246 291
#     4   8  16  32  53  75  97 128 169 206 244 292
#
# _framework density 20.271649
#
# number of rings (size 3 to 8) (size 9 to 14) (size 15 to 20)
#    0.000    2.625    0.000    2.250    0.000    3.750 
#    0.000    6.875    0.000    0.000    0.000    0.000 
#    0.000    0.000    0.000    0.000    0.000    0.000 
#
# Total GULP energy -178582.826617 kJ/mol
# GULP energy per Si atom -5580.713332 kJ/mol
# Density = 2.022551 g / cm^3
# Si number density = 20.271649 Si / 1000 Ang^3
#
#
#
# Elastic Constant Matrix: (Units=GPa)
#
#
# Indices 1 2 3 4 5 6 
#
# 1 149.0471 -0.4478 106.7138 -0.0004 -14.5602 0.0008
# 2 -0.4478 32.4954 -12.5610 -0.0026 -10.7444 0.0001
# 3 106.7138 -12.5610 116.1324 0.0004 -14.3332 -0.0002
# 4 -0.0004 -0.0026 0.0004 19.1101 0.0000 9.5018
# 5 -14.5602 -10.7444 -14.3332 0.0000 34.1029 -0.0002
# 6 0.0008 0.0001 -0.0002 9.5018 -0.0002 6.2689
#
#
#
# Elastic Compliance Matrix: (Units=1/GPa)
#
#
# Indices 1 2 3 4 5 6 
#
# 1 0.021409 -0.008549 -0.020885 0.000005 -0.002331 -0.000011
# 2 -0.008549 0.041204 0.014200 0.000018 0.015300 -0.000026
# 3 -0.020885 0.014200 0.030365 -0.000003 0.008319 0.000009
# 4 0.000005 0.000018 -0.000003 0.212395 0.000005 -0.321928
# 5 -0.002331 0.015300 0.008319 0.000005 0.036645 -0.000006
# 6 -0.000011 -0.000026 0.000009 -0.321928 -0.000006 0.647465
#
#
# Mechanical properties :
#
#
# Convention : Reuss Voigt Hill
#
# Bulk Modulus (GPa) = 15.99724 53.89832 34.94778
# Shear Modulus (GPa) = 4.80407 25.49438 15.14922
#
# Velocity S-wave (km/s) = 1.54110 3.55017 2.73666
# Velocity P-wave (km/s) = 3.32795 6.59171 5.22139
#
# Compressibility (1/GPa) = 0.06251078
#
# Stress axis : x y z
#
# Youngs Moduli (GPa) = 46.70938 24.26967 32.93308
#
# Poissons Ratio (x) = 0.20747 0.68780
# Poissons Ratio (y) = 0.39930 -0.46766
# Poissons Ratio (z) = 0.97552 -0.34463
#
# Static dielectric constant tensor:
#      x y z
#    x 1.730740 0.000000 -0.036030 
#    y 0.000000 1.753250 -0.000010 
#    z -0.036030 -0.000010 1.917500 
# 
# From -- ./inp_files/345957.got.cif
#   From: 2010.05.17/outbox.cif.g08.bks.cpg/sg12_173_cif.got.tgz:345957.got - 2010.06.03 13:09:07.
