data_PCOD9192585
_publ_section_title
;
Structure prediction by ZEFSAII (Michael W. Deem and Ramdas Pophale) SiO2 
 PCOD9192585
Probable space group: C 2/M
;
_chemical_formula_sum "Si O2"
_cell_formula_units_Z 52
_cell_length_a 20.389930
_cell_length_b 22.295426
_cell_length_c 5.890475
_cell_angle_alpha 90.000000
_cell_angle_beta 110.973121
_cell_angle_gamma 90.000000
_cell_volume 2500.412825
_symmetry_space_group_name_H-M "C 2/M"
_symmetry_group_IT_number 12
_symmetry_cell_setting 'monoclinic'
loop_
_space_group_symop_operation_xyz
x,y,z
-x,y,-z
-x,-y,-z
x,-y,z
1/2+x,1/2+y,z
1/2-x,1/2+y,-z
1/2-x,1/2-y,-z
1/2+x,1/2-y,z
loop_
_atom_site_type_symbol
_atom_site_label
_atom_site_fract_x
_atom_site_fract_y
_atom_site_fract_z
Si Si1 0.821881 0.720050 0.182051
Si Si2 0.200949 0.066338 0.026682
Si Si3 0.037656 0.500000 0.795051
Si Si4 0.360832 0.658823 0.373084
Si Si5 0.349303 0.099187 0.982676
Si Si6 0.538341 0.567441 0.296232
Si Si7 0.269031 0.130674 0.496154
O O1 0.874462 0.773821 0.309695
O O2 0.853442 0.669073 0.057349
O O3 0.797751 0.681262 0.367111
O O4 0.750000 0.750000 0.000000
O O5 0.276642 0.073100 0.997420
O O6 0.221400 0.082764 0.306025
O O7 0.172460 0.000000 0.962637
O O8 0.149452 0.115083 0.855231
O O9 0.087039 0.558857 0.861881
O O10 0.000000 0.500000 0.500000
O O11 0.000000 0.500000 0.000000
O O12 0.412001 0.625139 0.608750
O O13 0.284010 0.660652 0.393057
O O14 0.333919 0.098333 0.696346
O O15 0.500000 0.567447 0.500000
O O16 0.571190 0.500000 0.326610
O O17 0.500000 0.572996 0.000000
#
# Coordination Sequence:
#
# PCOD9192585 Si02
#       7
#     8   8   4   8   8   8   8
#     4  11  20  38  62  97 135 172 204 272 354 416
#     4  10  20  33  59  95 135 159 209 278 342 395
#     4  12  30  50  78  98 136 192 246 286 344 404
#     4  11  22  37  62  94 126 171 223 257 335 415
#     4  10  23  40  64  94 130 170 224 278 342 402
#     4  10  24  45  66  88 128 177 224 274 321 375
#     4  10  21  34  62  97 132 165 205 274 350 398
#
# _framework density 20.796567
#
# number of rings (size 3 to 8) (size 9 to 14) (size 15 to 20)
#    0.000    1.538    5.385    0.923    7.538    1.231 
#    0.000    0.769    0.000    0.000    0.000    0.000 
#    0.000    0.000    0.000    0.000    0.000    0.000 
#
# Total GULP energy -144897.161669 kJ/mol
# GULP energy per Si atom -5572.967756 kJ/mol
# Density = 2.074923 g / cm^3
# Si number density = 20.796567 Si / 1000 Ang^3
#
#
#
# Elastic Constant Matrix: (Units=GPa)
#
#
# Indices 1 2 3 4 5 6 
#
# 1 35.9927 9.4436 20.3740 0.0000 -2.9128 0.0000
# 2 9.4436 125.0810 49.7610 0.0000 16.1502 0.0000
# 3 20.3740 49.7610 149.2293 0.0000 10.0484 0.0000
# 4 0.0000 0.0000 0.0000 34.5538 0.0000 8.1948
# 5 -2.9128 16.1502 10.0484 0.0000 24.5892 0.0000
# 6 0.0000 0.0000 0.0000 8.1948 0.0000 20.8869
#
#
#
# Elastic Compliance Matrix: (Units=1/GPa)
#
#
# Indices 1 2 3 4 5 6 
#
# 1 0.031053 -0.001510 -0.004165 0.000000 0.006373 0.000000
# 2 -0.001510 0.009912 -0.002724 0.000000 -0.005576 0.000000
# 3 -0.004165 -0.002724 0.008320 0.000000 -0.002104 0.000000
# 4 0.000000 0.000000 0.000000 0.031909 0.000000 -0.012519
# 5 0.006373 -0.005576 -0.002104 0.000000 0.045946 0.000000
# 6 0.000000 0.000000 0.000000 -0.012519 0.000000 0.052789
#
#
# Mechanical properties :
#
#
# Convention : Reuss Voigt Hill
#
# Bulk Modulus (GPa) = 30.78150 52.16225 41.47188
# Shear Modulus (GPa) = 24.08984 31.38760 27.73872
#
# Velocity S-wave (km/s) = 3.40716 3.88915 3.65610
# Velocity P-wave (km/s) = 5.50560 6.73081 6.14880
#
# Compressibility (1/GPa) = 0.03248704
#
# Stress axis : x y z
#
# Youngs Moduli (GPa) = 32.20287 100.88374 120.19726
#
# Poissons Ratio (x) = 0.15237 0.50064
# Poissons Ratio (y) = 0.04864 0.32737
# Poissons Ratio (z) = 0.13413 0.27477
#
# Static dielectric constant tensor:
#      x y z
#    x 1.800060 0.000000 -0.041230 
#    y 0.000000 1.762250 0.000000 
#    z -0.041230 0.000000 1.828190 
# 
# From -- ./inp_files/21235.got.cif
#   From: 2010.05.17/outbox.cif.g08.bks.cpg/sg12_11_cif.got.tgz:21235.got - 2010.06.03 13:09:07.
