data_PCOD9192276
_publ_section_title
;
Structure prediction by ZEFSAII (Michael W. Deem and Ramdas Pophale) SiO2 
 PCOD9192276
Probable space group: C 2/M
;
_chemical_formula_sum "Si O2"
_cell_formula_units_Z 56
_cell_length_a 20.075857
_cell_length_b 8.450399
_cell_length_c 21.130311
_cell_angle_alpha 90.000000
_cell_angle_beta 124.432829
_cell_angle_gamma 90.000000
_cell_volume 2956.653297
_symmetry_space_group_name_H-M "C 2/M"
_symmetry_group_IT_number 12
_symmetry_cell_setting 'monoclinic'
loop_
_space_group_symop_operation_xyz
x,y,z
-x,y,-z
-x,-y,-z
x,-y,z
1/2+x,1/2+y,z
1/2-x,1/2+y,-z
1/2-x,1/2-y,-z
1/2+x,1/2-y,z
loop_
_atom_site_type_symbol
_atom_site_label
_atom_site_fract_x
_atom_site_fract_y
_atom_site_fract_z
Si Si1 0.382136 0.308711 0.731067
Si Si2 0.184573 0.307293 0.818510
Si Si3 0.441993 0.188892 0.141795
Si Si4 0.288228 0.806832 0.307216
Si Si5 0.086218 0.308879 0.518052
Si Si6 0.814936 0.189241 0.983684
Si Si7 0.338533 0.688752 0.566193
O O1 0.384322 0.500000 0.732411
O O2 0.467394 0.247841 0.801516
O O3 0.304115 0.259265 0.729887
O O4 0.366070 0.254716 0.650192
O O5 0.181005 0.500000 0.816431
O O6 0.114328 0.253594 0.829215
O O7 0.178882 0.253121 0.743194
O O8 0.272266 0.264069 0.894947
O O9 0.399250 0.244041 0.053931
O O10 0.440254 0.000000 0.142393
O O11 0.343953 0.756508 0.395763
O O12 0.290094 0.000000 0.307950
O O13 0.089326 0.500000 0.515786
O O14 0.101841 0.242141 0.457134
O O15 0.000000 0.263429 0.500000
O O16 0.818863 0.000000 0.987664
O O17 0.750000 0.250000 0.000000
O O18 0.334506 0.500000 0.566660
O O19 0.250000 0.750000 0.500000
#
# Coordination Sequence:
#
# PCOD9192276 Si02
#       7
#     8   8   8   8   8   8   8
#     4  10  21  36  54  76 106 142 176 220 271 321
#     4   8  16  30  53  80 102 134 176 221 261 307
#     4  10  20  33  54  82 107 136 179 222 266 321
#     4   9  17  34  53  75 108 138 176 223 265 314
#     4  10  21  36  58  84 110 145 186 227 275 326
#     4   9  16  30  52  79 109 139 177 219 268 317
#     4  11  22  38  58  80 110 146 187 227 275 330
#
# _framework density 18.940335000000001
#
# number of rings (size 3 to 8) (size 9 to 14) (size 15 to 20)
#    0.000    2.429    1.429    2.143    2.000    1.429 
#    0.000    0.714    0.000   11.143    0.000    0.000 
#    0.000    0.000    0.000    0.000    0.000    0.000 
#
# Total GULP energy -156150.302736 kJ/mol
# GULP energy per Si atom -5576.796526 kJ/mol
# Density = 1.889723 g / cm^3
# Si number density = 18.940335 Si / 1000 Ang^3
#
#
#
# Elastic Constant Matrix: (Units=GPa)
#
#
# Indices 1 2 3 4 5 6 
#
# 1 63.3910 10.6716 -0.1018 0.0000 15.7095 0.0000
# 2 10.6716 14.8498 5.6852 0.0000 5.8078 0.0000
# 3 -0.1018 5.6852 43.1932 0.0000 20.9708 0.0000
# 4 0.0000 0.0000 0.0000 24.5145 0.0000 3.0326
# 5 15.7095 5.8078 20.9708 0.0000 37.7720 0.0000
# 6 0.0000 0.0000 0.0000 3.0326 0.0000 21.2076
#
#
#
# Elastic Compliance Matrix: (Units=1/GPa)
#
#
# Indices 1 2 3 4 5 6 
#
# 1 0.020586 -0.013376 0.006800 0.000000 -0.010280 0.000000
# 2 -0.013376 0.081341 -0.010085 0.000000 -0.001344 0.000000
# 3 0.006800 -0.010085 0.034384 0.000000 -0.020367 0.000000
# 4 0.000000 0.000000 0.000000 0.041527 0.000000 -0.005938
# 5 -0.010280 -0.001344 -0.020367 0.000000 0.042265 0.000000
# 6 0.000000 0.000000 0.000000 -0.005938 0.000000 0.048002
#
#
# Mechanical properties :
#
#
# Convention : Reuss Voigt Hill
#
# Bulk Modulus (GPa) = 9.70988 17.10490 13.40739
# Shear Modulus (GPa) = 14.89180 23.71075 19.30128
#
# Velocity S-wave (km/s) = 2.80705 3.54201 3.19573
# Velocity P-wave (km/s) = 3.95522 5.07724 4.55094
#
# Compressibility (1/GPa) = 0.10298787
#
# Stress axis : x y z
#
# Youngs Moduli (GPa) = 48.57772 12.29398 29.08344
#
# Poissons Ratio (x) = 0.16445 -0.19778
# Poissons Ratio (y) = 0.64979 0.29331
# Poissons Ratio (z) = -0.33035 0.12399
#
# Static dielectric constant tensor:
#      x y z
#    x 1.647180 0.000000 -0.002650 
#    y 0.000000 1.660550 0.000000 
#    z -0.002650 0.000000 1.666270 
# 
# From -- ./inp_files/319707.got.cif
#   From: 2010.05.17/outbox.cif.g08.bks.cpg/sg12_160_cif.got.tgz:319707.got - 2010.06.03 13:09:07.
