data_PCOD9192241
_publ_section_title
;
Structure prediction by ZEFSAII (Michael W. Deem and Ramdas Pophale) SiO2 
 PCOD9192241
Probable space group: C 2/M
;
_chemical_formula_sum "Si O2"
_cell_formula_units_Z 56
_cell_length_a 15.259650
_cell_length_b 29.649816
_cell_length_c 15.226141
_cell_angle_alpha 90.000000
_cell_angle_beta 27.840122
_cell_angle_gamma 90.000000
_cell_volume 3217.205843
_symmetry_space_group_name_H-M "C 2/M"
_symmetry_group_IT_number 12
_symmetry_cell_setting 'monoclinic'
loop_
_space_group_symop_operation_xyz
x,y,z
-x,y,-z
-x,-y,-z
x,-y,z
1/2+x,1/2+y,z
1/2-x,1/2+y,-z
1/2-x,1/2-y,-z
1/2+x,1/2-y,z
loop_
_atom_site_type_symbol
_atom_site_label
_atom_site_fract_x
_atom_site_fract_y
_atom_site_fract_z
Si Si1 0.649274 0.359840 0.587688
Si Si2 0.728337 0.674010 0.167088
Si Si3 0.411892 0.447846 0.442370
Si Si4 0.288310 0.079670 0.199561
Si Si5 0.521562 0.797972 0.755098
Si Si6 0.787731 0.275140 0.788979
Si Si7 0.619700 0.292594 0.765513
O O1 0.472523 0.341048 0.690355
O O2 0.638186 0.413476 0.590689
O O3 0.632231 0.337136 0.697004
O O4 0.834640 0.338730 0.381472
O O5 0.792256 0.632909 0.171835
O O6 0.711506 0.721605 0.229649
O O7 0.862746 0.685969 0.965114
O O8 0.372623 0.500000 0.460963
O O9 0.292205 0.430521 0.632554
O O10 0.631041 0.441860 0.274922
O O11 0.500000 0.062366 0.000000
O O12 0.434168 0.786780 0.736442
O O13 0.622273 0.752779 0.703210
O O14 0.777973 0.294864 0.700024
O O15 0.586543 0.288432 0.009151
#
# Coordination Sequence:
#
# PCOD9192241 Si02
#       7
#     8   8   8   8   8   8   8
#     4  11  21  36  53  75 104 143 182 222 271 319
#     4  10  20  34  50  76 114 147 177 215 259 311
#     4  10  23  39  53  78 110 137 182 237 282 328
#     4  10  20  34  57  81 109 145 182 218 268 333
#     4  11  20  36  52  77 114 144 185 221 256 323
#     4  10  20  33  54  75 113 152 178 218 266 308
#     4  10  20  34  52  79 110 145 183 221 263 318
#
# _framework density 17.406407999999999
#
# number of rings (size 3 to 8) (size 9 to 14) (size 15 to 20)
#    0.000    1.714    2.857    3.000    6.000    1.714 
#    0.000    0.000    0.000    0.000    0.000    4.000 
#    0.000    0.000    0.000    0.000    0.000    0.000 
#
# Total GULP energy -156261.372935 kJ/mol
# GULP energy per Si atom -5580.763319 kJ/mol
# Density = 1.736679 g / cm^3
# Si number density = 17.406408 Si / 1000 Ang^3
#
#
#
# Elastic Constant Matrix: (Units=GPa)
#
#
# Indices 1 2 3 4 5 6 
#
# 1 75.6369 50.7563 20.4623 -0.0025 -10.6894 0.0080
# 2 50.7563 118.7623 -0.0503 -0.1015 -12.2602 0.2141
# 3 20.4623 -0.0503 27.7803 -0.0378 -49.6384 0.0860
# 4 -0.0025 -0.1015 -0.0378 -17.0071 -0.1193 54.2345
# 5 -10.6894 -12.2602 -49.6384 -0.1193 -6.3881 0.2546
# 6 0.0080 0.2141 0.0860 54.2345 0.2546 -93.7896
#
#
#
# Elastic Compliance Matrix: (Units=1/GPa)
#
#
# Indices 1 2 3 4 5 6 
#
# 1 0.020444 -0.008056 -0.003263 -0.000001 0.006610 -0.000002
# 2 -0.008056 0.011483 -0.000627 -0.000009 -0.003684 0.000010
# 3 -0.003263 -0.000627 0.003380 0.000037 -0.019599 -0.000031
# 4 -0.000001 -0.000009 0.000037 0.069665 0.000037 0.040285
# 5 0.006610 -0.003684 -0.019599 0.000037 -0.008240 -0.000027
# 6 -0.000002 0.000010 -0.000031 0.040285 -0.000027 0.012633
#
#
# Mechanical properties :
#
#
# Convention : Reuss Voigt Hill
#
# Bulk Modulus (GPa) = 87.62001 40.50178 64.06090
# Shear Modulus (GPa) = 36.47973 -13.36955 11.55509
#
# Velocity S-wave (km/s) = 4.58292 -2.77444 2.57931
# Velocity P-wave (km/s) = 8.85727 3.61324 6.76412
#
# Compressibility (1/GPa) = 0.01141292
#
# Stress axis : x y z
#
# Youngs Moduli (GPa) = 48.91335 87.08692 295.89299
#
# Poissons Ratio (x) = 0.70162 0.96559
# Poissons Ratio (y) = 0.39407 0.18555
# Poissons Ratio (z) = 0.15962 0.05461
#
# Static dielectric constant tensor:
#      x y z
#    x 1.639220 0.000000 -0.000390 
#    y 0.000000 1.579580 0.000000 
#    z -0.000390 0.000000 1.644550 
# 
# From -- ./inp_files/219333.got.cif
#   From: 2010.05.17/outbox.cif.g08.bks.cpg/sg12_110_cif.got.tgz:219333.got - 2010.06.03 13:09:07.
