data_PCOD9192197
_publ_section_title
;
Structure prediction by ZEFSAII (Michael W. Deem and Ramdas Pophale) SiO2 
 PCOD9192197
Probable space group: C 2/M
;
_chemical_formula_sum "Si O2"
_cell_formula_units_Z 40
_cell_length_a 16.437376
_cell_length_b 7.657271
_cell_length_c 32.326647
_cell_angle_alpha 90.000000
_cell_angle_beta 153.403357
_cell_angle_gamma 90.000000
_cell_volume 1821.632474
_symmetry_space_group_name_H-M "C 2/M"
_symmetry_group_IT_number 12
_symmetry_cell_setting 'monoclinic'
loop_
_space_group_symop_operation_xyz
x,y,z
-x,y,-z
-x,-y,-z
x,-y,z
1/2+x,1/2+y,z
1/2-x,1/2+y,-z
1/2-x,1/2-y,-z
1/2+x,1/2-y,z
loop_
_atom_site_type_symbol
_atom_site_label
_atom_site_fract_x
_atom_site_fract_y
_atom_site_fract_z
Si Si1 0.949999 0.702964 0.702499
Si Si2 0.645643 0.211954 0.100828
Si Si3 0.053729 0.707979 0.392423
Si Si4 0.702208 0.793174 0.284879
Si Si5 0.460728 0.790398 0.101397
O O1 0.899419 0.500000 0.673299
O O2 0.152715 0.716381 0.813224
O O3 0.956750 0.780191 0.659354
O O4 0.818933 0.779304 0.678338
O O5 0.572202 0.271045 0.112086
O O6 0.656255 0.000000 0.105058
O O7 0.500000 0.264687 0.000000
O O8 0.028380 0.500000 0.379330
O O9 0.250000 0.750000 0.500000
O O10 0.894694 0.774862 0.349925
O O11 0.551345 0.720546 0.184491
O O12 0.666235 0.000000 0.272656
O O13 0.478949 0.000000 0.110271
O O14 0.250000 0.750000 0.000000
#
# Coordination Sequence:
#
# PCOD9192197 Si02
#       5
#     8   8   8   8   8
#     4  10  22  39  61  88 118 154 198 245 295 350
#     4  10  20  34  54  84 121 158 197 242 293 346
#     4  11  24  42  64  90 118 154 198 248 303 357
#     4  10  21  40  62  86 119 157 197 245 296 350
#     4  10  20  33  53  82 117 158 196 237 288 343
#
# _framework density 21.958327000000001
#
# number of rings (size 3 to 8) (size 9 to 14) (size 15 to 20)
#    0.000    1.800    2.000    1.800    0.000    4.400 
#    0.000    4.000    0.000    0.000    0.000    0.000 
#    0.000    0.000    0.000    0.000    0.000    0.000 
#
# Total GULP energy -111743.320004 kJ/mol
# GULP energy per Si atom -5587.166000 kJ/mol
# Density = 2.190835 g / cm^3
# Si number density = 21.958327 Si / 1000 Ang^3
#
#
#
# Elastic Constant Matrix: (Units=GPa)
#
#
# Indices 1 2 3 4 5 6 
#
# 1 198.5918 0.2953 49.6033 -0.0004 2.1211 0.0002
# 2 0.2953 39.8301 -22.0238 -0.0005 -8.1477 0.0003
# 3 49.6033 -22.0238 97.5948 -0.0007 3.9949 0.0003
# 4 -0.0004 -0.0005 -0.0007 25.2384 0.0004 10.3120
# 5 2.1211 -8.1477 3.9949 0.0004 28.2458 -0.0002
# 6 0.0002 0.0003 0.0003 10.3120 -0.0002 12.9766
#
#
#
# Elastic Compliance Matrix: (Units=1/GPa)
#
#
# Indices 1 2 3 4 5 6 
#
# 1 0.005904 -0.002060 -0.003443 0.000000 -0.000551 0.000000
# 2 -0.002060 0.031031 0.007722 0.000001 0.008014 -0.000002
# 3 -0.003443 0.007722 0.013717 0.000001 0.000546 -0.000001
# 4 0.000000 0.000001 0.000001 0.058672 -0.000001 -0.046625
# 5 -0.000551 0.008014 0.000546 -0.000001 0.037679 0.000001
# 6 0.000000 -0.000002 -0.000001 -0.046625 0.000001 0.114113
#
#
# Mechanical properties :
#
#
# Convention : Reuss Voigt Hill
#
# Bulk Modulus (GPa) = 18.15273 43.52959 30.84116
# Shear Modulus (GPa) = 18.17892 33.83495 26.00694
#
# Velocity S-wave (km/s) = 2.88042 3.92965 3.44521
# Velocity P-wave (km/s) = 4.39855 6.36053 5.46825
#
# Compressibility (1/GPa) = 0.05508812
#
# Stress axis : x y z
#
# Youngs Moduli (GPa) = 169.36275 32.22590 72.90326
#
# Poissons Ratio (x) = 0.06640 0.25104
# Poissons Ratio (y) = 0.34897 -0.56295
# Poissons Ratio (z) = 0.58319 -0.24884
#
# Static dielectric constant tensor:
#      x y z
#    x 1.827290 0.000000 -0.036290 
#    y 0.000000 1.508920 0.000000 
#    z -0.036290 0.000000 1.760160 
# 
# From -- ./inp_files/211182.got.cif
#   From: 2010.05.17/outbox.cif.g08.bks.cpg/sg12_106_cif.got.tgz:211182.got - 2010.06.03 13:09:07.
