data_PCOD9192582
_publ_section_title
;
Structure prediction by ZEFSAII (Michael W. Deem and Ramdas Pophale) SiO2 
 PCOD9192582
Probable space group: C 2/M
;
_chemical_formula_sum "Si O2"
_cell_formula_units_Z 40
_cell_length_a 7.532749
_cell_length_b 29.891280
_cell_length_c 9.964960
_cell_angle_alpha 90.000000
_cell_angle_beta 63.871000
_cell_angle_gamma 90.000000
_cell_volume 2014.445331
_symmetry_space_group_name_H-M "C 2/M"
_symmetry_group_IT_number 12
_symmetry_cell_setting 'monoclinic'
loop_
_space_group_symop_operation_xyz
x,y,z
-x,y,-z
-x,-y,-z
x,-y,z
1/2+x,1/2+y,z
1/2-x,1/2+y,-z
1/2-x,1/2-y,-z
1/2+x,1/2-y,z
loop_
_atom_site_type_symbol
_atom_site_label
_atom_site_fract_x
_atom_site_fract_y
_atom_site_fract_z
Si Si1 0.143007 0.810704 0.825174
Si Si2 0.885472 0.382133 0.178842
Si Si3 0.050160 0.285570 0.826619
Si Si4 0.024368 0.948550 0.330888
Si Si5 0.329741 0.103413 0.666718
O O1 0.351985 0.800091 0.821663
O O2 0.182978 0.854010 0.723774
O O3 0.095023 0.764646 0.764324
O O4 0.000000 0.819936 0.000000
O O5 0.700947 0.415205 0.232666
O O6 0.817799 0.330342 0.230783
O O7 0.045251 0.398756 0.236559
O O8 0.000000 0.380040 0.000000
O O9 0.000000 0.279088 0.000000
O O10 0.817968 0.936211 0.326469
O O11 0.000000 0.943824 0.500000
O O12 0.076604 0.000000 0.284594
O O13 0.500000 0.109519 0.500000
#
# Coordination Sequence:
#
# PCOD9192582 Si02
#       5
#     8   8   8   8   8
#     4  10  20  33  59  89 123 168 212 247 304 371
#     4  10  23  42  66  96 132 163 210 263 316 369
#     4   9  18  32  55  90 124 167 203 248 304 368
#     4  11  25  44  70  93 121 171 212 257 329 387
#     4  11  24  42  62  95 130 166 209 266 315 374
#
# _framework density 19.856583000000001
#
# number of rings (size 3 to 8) (size 9 to 14) (size 15 to 20)
#    0.000    1.800    2.000    2.400   11.200    1.600 
#    0.000    6.000    0.000    0.000    0.000    0.000 
#    0.000    0.000    0.000    0.000    0.000    0.000 
#
# Total GULP energy -111490.561639 kJ/mol
# GULP energy per Si atom -5574.528082 kJ/mol
# Density = 1.981139 g / cm^3
# Si number density = 19.856583 Si / 1000 Ang^3
#
#
#
# Elastic Constant Matrix: (Units=GPa)
#
#
# Indices 1 2 3 4 5 6 
#
# 1 70.2036 27.4475 23.5855 0.0000 2.2498 0.0000
# 2 27.4475 108.6177 37.9798 0.0000 -33.3760 0.0000
# 3 23.5855 37.9798 61.1302 0.0000 -12.8581 0.0000
# 4 0.0000 0.0000 0.0000 17.3039 0.0000 -6.0478
# 5 2.2498 -33.3760 -12.8581 0.0000 34.6185 0.0000
# 6 0.0000 0.0000 0.0000 -6.0478 0.0000 38.1272
#
#
#
# Elastic Compliance Matrix: (Units=1/GPa)
#
#
# Indices 1 2 3 4 5 6 
#
# 1 0.018458 -0.005276 -0.005603 0.000000 -0.008368 0.000000
# 2 -0.005276 0.016934 -0.005401 0.000000 0.014663 0.000000
# 3 -0.005603 -0.005401 0.022625 0.000000 0.003560 0.000000
# 4 0.000000 0.000000 0.000000 0.061182 0.000000 0.009705
# 5 -0.008368 0.014663 0.003560 0.000000 0.044889 0.000000
# 6 0.000000 0.000000 0.000000 0.009705 0.000000 0.027767
#
#
# Mechanical properties :
#
#
# Convention : Reuss Voigt Hill
#
# Bulk Modulus (GPa) = 39.28423 46.44189 42.86306
# Shear Modulus (GPa) = 21.46820 28.07251 24.77036
#
# Velocity S-wave (km/s) = 3.29167 3.76408 3.53578
# Velocity P-wave (km/s) = 5.85438 6.50619 6.18887
#
# Compressibility (1/GPa) = 0.02545550
#
# Stress axis : x y z
#
# Youngs Moduli (GPa) = 54.17773 59.05231 44.19879
#
# Poissons Ratio (x) = 0.31156 0.24767
# Poissons Ratio (y) = 0.28585 0.23873
# Poissons Ratio (z) = 0.30358 0.31895
#
# Static dielectric constant tensor:
#      x y z
#    x 1.617150 0.000000 -0.085830 
#    y 0.000000 1.813730 0.000000 
#    z -0.085830 0.000000 1.615300 
# 
# From -- ./inp_files/124711.got.cif
#   From: 2010.05.17/outbox.cif.g08.bks.cpg/sg12_63_cif.got.tgz:124711.got - 2010.06.03 13:09:07.
