data_PCOD9192530
_publ_section_title
;
Structure prediction by ZEFSAII (Michael W. Deem and Ramdas Pophale) SiO2 
 PCOD9192530
Probable space group: C 2/M
;
_chemical_formula_sum "Si O2"
_cell_formula_units_Z 56
_cell_length_a 23.301565
_cell_length_b 7.823119
_cell_length_c 15.468135
_cell_angle_alpha 90.000000
_cell_angle_beta 55.126377
_cell_angle_gamma 90.000000
_cell_volume 2313.325105
_symmetry_space_group_name_H-M "C 2/M"
_symmetry_group_IT_number 12
_symmetry_cell_setting 'monoclinic'
loop_
_space_group_symop_operation_xyz
x,y,z
-x,y,-z
-x,-y,-z
x,-y,z
1/2+x,1/2+y,z
1/2-x,1/2+y,-z
1/2-x,1/2-y,-z
1/2+x,1/2-y,z
loop_
_atom_site_type_symbol
_atom_site_label
_atom_site_fract_x
_atom_site_fract_y
_atom_site_fract_z
Si Si1 0.770675 0.189618 0.075998
Si Si2 0.366381 0.798180 0.584160
Si Si3 0.373016 0.304845 0.759467
Si Si4 0.895192 0.308505 0.069552
Si Si5 0.469325 0.206467 0.839391
Si Si6 0.295399 0.792141 0.304381
Si Si7 0.888525 0.291542 0.373773
O O1 0.696440 0.191541 0.186197
O O2 0.826897 0.315121 0.066855
O O3 0.801329 0.000000 0.050555
O O4 0.750000 0.250000 0.000000
O O5 0.402748 0.717523 0.637348
O O6 0.282112 0.768346 0.651941
O O7 0.392156 0.730461 0.468898
O O8 0.379846 0.000000 0.576398
O O9 0.350388 0.500000 0.789325
O O10 0.417143 0.257572 0.806207
O O11 0.918467 0.500000 0.074509
O O12 0.857251 0.229257 0.186025
O O13 0.950774 0.232129 0.952968
O O14 0.544521 0.260843 0.739849
O O15 0.466849 0.000000 0.847099
O O16 0.320024 0.740846 0.378861
O O17 0.294924 0.000000 0.298094
O O18 0.888863 0.500000 0.376290
#
# Coordination Sequence:
#
# PCOD9192530 Si02
#       7
#     8   8   8   8   8   8   8
#     4  12  22  34  56  86 122 156 193 238 296 354
#     4  11  22  38  61  88 116 154 201 250 302 352
#     4  12  24  38  58  87 120 154 197 247 301 356
#     4  10  20  33  57  89 121 153 193 237 291 348
#     4  10  21  39  60  85 120 161 198 237 292 360
#     4  10  20  37  61  90 120 151 195 250 298 350
#     4   9  21  40  61  85 117 158 204 246 291 354
#
# _framework density 24.207577000000001
#
# number of rings (size 3 to 8) (size 9 to 14) (size 15 to 20)
#    0.000    1.429    2.857    3.429    0.000    1.143 
#    0.000    8.571    0.000    0.000    0.000    3.000 
#    0.000    0.000    0.000    0.000    0.000    0.000 
#
# Total GULP energy -156366.600109 kJ/mol
# GULP energy per Si atom -5584.521432 kJ/mol
# Density = 2.415248 g / cm^3
# Si number density = 24.207577 Si / 1000 Ang^3
#
#
#
# Elastic Constant Matrix: (Units=GPa)
#
#
# Indices 1 2 3 4 5 6 
#
# 1 42.7748 -1.8588 9.7879 0.0000 1.9955 0.0001
# 2 -1.8588 72.2723 -5.9416 0.0000 1.1125 0.0001
# 3 9.7879 -5.9416 125.9790 -0.0001 7.9653 0.0000
# 4 0.0000 0.0000 -0.0001 10.9644 0.0000 1.5504
# 5 1.9955 1.1125 7.9653 0.0000 35.7994 0.0000
# 6 0.0001 0.0001 0.0000 1.5504 0.0000 12.0372
#
#
#
# Elastic Compliance Matrix: (Units=1/GPa)
#
#
# Indices 1 2 3 4 5 6 
#
# 1 0.023849 0.000482 -0.001770 0.000000 -0.000951 0.000000
# 2 0.000482 0.013912 0.000657 0.000000 -0.000605 0.000000
# 3 -0.001770 0.000657 0.008217 0.000000 -0.001750 0.000000
# 4 0.000000 0.000000 0.000000 0.092896 0.000000 -0.011965
# 5 -0.000951 -0.000605 -0.001750 0.000000 0.028395 0.000000
# 6 0.000000 0.000000 0.000000 -0.011965 0.000000 0.084617
#
#
# Mechanical properties :
#
#
# Convention : Reuss Voigt Hill
#
# Bulk Modulus (GPa) = 22.36304 27.22233 24.79269
# Shear Modulus (GPa) = 18.65305 27.69611 23.17458
#
# Velocity S-wave (km/s) = 2.77888 3.38614 3.09743
# Velocity P-wave (km/s) = 4.42203 5.15342 4.80167
#
# Compressibility (1/GPa) = 0.04471663
#
# Stress axis : x y z
#
# Youngs Moduli (GPa) = 41.93124 71.87886 121.69908
#
# Poissons Ratio (x) = -0.03468 0.21541
# Poissons Ratio (y) = -0.02023 -0.07995
# Poissons Ratio (z) = 0.07422 -0.04722
#
# Static dielectric constant tensor:
#      x y z
#    x 1.886870 0.000000 -0.029860 
#    y 0.000000 1.868180 0.000000 
#    z -0.029860 0.000000 2.111570 
# 
# From -- ./inp_files/238299.got.cif
#   From: 2010.05.17/outbox.cif.g08.bks.cpg/sg12_120_cif.got.tgz:238299.got - 2010.06.03 13:09:07.
