data_PCOD9192168
_publ_section_title
;
Structure prediction by ZEFSAII (Michael W. Deem and Ramdas Pophale) SiO2 
 PCOD9192168
Probable space group: C 2/M
;
_chemical_formula_sum "Si O2"
_cell_formula_units_Z 64
_cell_length_a 23.692680
_cell_length_b 7.504260
_cell_length_c 15.900773
_cell_angle_alpha 90.000000
_cell_angle_beta 88.443290
_cell_angle_gamma 90.000000
_cell_volume 2826.050919
_symmetry_space_group_name_H-M "C 2/M"
_symmetry_group_IT_number 12
_symmetry_cell_setting 'monoclinic'
loop_
_space_group_symop_operation_xyz
x,y,z
-x,y,-z
-x,-y,-z
x,-y,z
1/2+x,1/2+y,z
1/2-x,1/2+y,-z
1/2-x,1/2-y,-z
1/2+x,1/2-y,z
loop_
_atom_site_type_symbol
_atom_site_label
_atom_site_fract_x
_atom_site_fract_y
_atom_site_fract_z
Si Si1 0.361827 0.284950 0.327876
Si Si2 0.652804 0.201668 0.289070
Si Si3 0.072251 0.289461 0.846148
Si Si4 0.776650 0.793569 0.867037
Si Si5 0.964402 0.706588 0.760589
Si Si6 0.527776 0.283800 0.586180
Si Si7 0.756314 0.714039 0.597600
Si Si8 0.835936 0.283413 0.033810
O O1 0.360352 0.500000 0.326842
O O2 0.387204 0.228275 0.237184
O O3 0.407382 0.231995 0.397656
O O4 0.299399 0.218964 0.351692
O O5 0.699793 0.196171 0.214668
O O6 0.597252 0.288113 0.251081
O O7 0.685164 0.285535 0.366408
O O8 0.635700 0.000000 0.313639
O O9 0.064323 0.500000 0.860603
O O10 0.106712 0.220006 0.924725
O O11 0.011242 0.214267 0.821853
O O12 0.717462 0.725960 0.906769
O O13 0.769281 0.000000 0.845053
O O14 0.821712 0.777914 0.940882
O O15 0.956412 0.500000 0.787116
O O16 0.993340 0.714586 0.667797
O O17 0.500000 0.224600 0.500000
O O18 0.525113 0.500000 0.588256
O O19 0.757911 0.500000 0.609303
O O20 0.750000 0.750000 0.500000
O O21 0.835607 0.500000 0.032563
#
# Coordination Sequence:
#
# PCOD9192168 Si02
#       8
#     8   8   8   8   8   8   8   8
#     4   9  18  32  48  70  99 128 163 206 254 301
#     4  10  21  37  53  72 105 140 169 206 255 305
#     4   9  17  32  54  77  99 129 169 210 250 295
#     4  10  20  33  53  82 106 133 170 205 250 304
#     4   9  19  34  51  73  99 132 172 209 249 300
#     4   9  18  31  49  71  95 126 165 210 257 300
#     4  10  22  36  51  73 100 133 170 208 252 302
#     4   9  18  33  54  79 107 132 164 210 255 299
#
# _framework density 22.646442
#
# number of rings (size 3 to 8) (size 9 to 14) (size 15 to 20)
#    0.000    2.625    0.000    1.125    1.750    2.750 
#    0.000    0.625    0.000    3.750    0.000    0.000 
#    0.000    0.000    0.000    0.000    0.000    0.000 
#
# Total GULP energy -178630.425912 kJ/mol
# GULP energy per Si atom -5582.200810 kJ/mol
# Density = 2.259490 g / cm^3
# Si number density = 22.646442 Si / 1000 Ang^3
#
#
#
# Elastic Constant Matrix: (Units=GPa)
#
#
# Indices 1 2 3 4 5 6 
#
# 1 111.5742 9.3763 32.7022 0.0000 37.7552 0.0000
# 2 9.3763 66.2027 -5.7919 0.0000 6.1120 0.0000
# 3 32.7022 -5.7919 59.7035 0.0000 36.0200 0.0000
# 4 0.0000 0.0000 0.0000 10.9440 0.0000 -9.8967
# 5 37.7552 6.1120 36.0200 0.0000 40.1662 0.0000
# 6 0.0000 0.0000 0.0000 -9.8967 0.0000 -0.7030
#
#
#
# Elastic Compliance Matrix: (Units=1/GPa)
#
#
# Indices 1 2 3 4 5 6 
#
# 1 0.013180 -0.000686 0.000274 0.000000 -0.012530 0.000000
# 2 -0.000686 0.016528 0.006771 0.000000 -0.007942 0.000000
# 3 0.000274 0.006771 0.039291 0.000000 -0.036522 0.000000
# 4 0.000000 0.000000 0.000000 0.006655 0.000000 -0.093685
# 5 -0.012530 -0.007942 -0.036522 0.000000 0.070635 0.000000
# 6 0.000000 0.000000 0.000000 -0.093685 0.000000 -0.103598
#
#
# Mechanical properties :
#
#
# Convention : Reuss Voigt Hill
#
# Bulk Modulus (GPa) = 12.23763 34.45040 23.34402
# Shear Modulus (GPa) = 87.39347 23.49436 55.44391
#
# Velocity S-wave (km/s) = 6.21885 3.22443 4.95334
# Velocity P-wave (km/s) = 7.54858 5.39517 6.56083
#
# Compressibility (1/GPa) = 0.08171514
#
# Stress axis : x y z
#
# Youngs Moduli (GPa) = 75.87232 60.50406 25.45121
#
# Poissons Ratio (x) = 0.04150 -0.00696
# Poissons Ratio (y) = 0.05205 -0.17232
# Poissons Ratio (z) = -0.02076 -0.40964
#
# Static dielectric constant tensor:
#      x y z
#    x 1.888140 0.000000 0.054320 
#    y 0.000000 1.790960 0.000000 
#    z 0.054320 0.000000 1.793560 
# 
# From -- ./inp_files/281277.got.cif
#   From: 2010.05.17/outbox.cif.g08.bks.cpg/sg12_141_cif.got.tgz:281277.got - 2010.06.03 13:09:07.
