data_PCOD9192216
_publ_section_title
;
Structure prediction by ZEFSAII (Michael W. Deem and Ramdas Pophale) SiO2 
 PCOD9192216
Probable space group: C 2/M
;
_chemical_formula_sum "Si O2"
_cell_formula_units_Z 64
_cell_length_a 14.927936
_cell_length_b 7.773648
_cell_length_c 23.639532
_cell_angle_alpha 90.000000
_cell_angle_beta 84.065696
_cell_angle_gamma 90.000000
_cell_volume 2728.537388
_symmetry_space_group_name_H-M "C 2/M"
_symmetry_group_IT_number 12
_symmetry_cell_setting 'monoclinic'
loop_
_space_group_symop_operation_xyz
x,y,z
-x,y,-z
-x,-y,-z
x,-y,z
1/2+x,1/2+y,z
1/2-x,1/2+y,-z
1/2-x,1/2-y,-z
1/2+x,1/2-y,z
loop_
_atom_site_type_symbol
_atom_site_label
_atom_site_fract_x
_atom_site_fract_y
_atom_site_fract_z
Si Si1 0.211405 0.292109 0.864443
Si Si2 0.823744 0.191980 0.540287
Si Si3 0.326731 0.299753 0.378377
Si Si4 0.460294 0.211004 0.062303
Si Si5 0.399637 0.296150 0.717494
Si Si6 0.579892 0.201549 0.158885
Si Si7 0.986471 0.787874 0.595568
Si Si8 0.692696 0.792338 0.740916
O O1 0.217077 0.500000 0.863776
O O2 0.313748 0.228623 0.860165
O O3 0.168364 0.242227 0.806316
O O4 0.142518 0.237805 0.917607
O O5 0.750000 0.250000 0.500000
O O6 0.763685 0.197328 0.601636
O O7 0.918071 0.275559 0.551909
O O8 0.847574 0.000000 0.521910
O O9 0.307799 0.500000 0.390367
O O10 0.409096 0.239161 0.412306
O O11 0.355232 0.280355 0.311251
O O12 0.521964 0.271496 0.110567
O O13 0.461891 0.000000 0.061840
O O14 0.500000 0.268814 0.000000
O O15 0.394215 0.500000 0.710082
O O16 0.441172 0.267477 0.776736
O O17 0.448954 0.227379 0.658899
O O18 0.296750 0.232893 0.727939
O O19 0.561371 0.000000 0.162561
O O20 0.985715 0.000000 0.595049
O O21 0.687546 0.000000 0.737895
#
# Coordination Sequence:
#
# PCOD9192216 Si02
#       8
#     8   8   8   8   8   8   8   8
#     4   9  19  36  56  77 108 151 188 221 282 350
#     4  11  23  44  65  83 114 154 193 232 275 330
#     4  11  22  36  58  89 115 146 189 231 277 330
#     4   9  19  36  56  78 109 151 194 231 278 343
#     4   9  17  35  58  79 111 155 188 217 278 350
#     4  10  20  33  53  84 112 139 184 242 284 320
#     4   9  20  38  59  82 114 154 187 219 276 344
#     4   9  17  32  55  80 112 149 184 225 278 339
#
# _framework density 23.45579
#
# number of rings (size 3 to 8) (size 9 to 14) (size 15 to 20)
#    0.000    2.375    1.250    1.875    1.750    3.000 
#    0.000    6.875    0.000    2.625    0.000    0.000 
#    0.000    0.000    0.000    0.000    0.000    0.000 
#
# Total GULP energy -178706.089855 kJ/mol
# GULP energy per Si atom -5584.565308 kJ/mol
# Density = 2.340240 g / cm^3
# Si number density = 23.455790 Si / 1000 Ang^3
#
#
#
# Elastic Constant Matrix: (Units=GPa)
#
#
# Indices 1 2 3 4 5 6 
#
# 1 88.7227 -2.6707 25.7030 0.0000 8.5230 0.0000
# 2 -2.6707 27.8821 -2.5554 0.0000 -0.4771 0.0000
# 3 25.7030 -2.5554 91.3714 0.0000 -3.0095 0.0000
# 4 0.0000 0.0000 0.0000 22.1919 0.0000 4.0182
# 5 8.5230 -0.4771 -3.0095 0.0000 43.2084 0.0000
# 6 0.0000 0.0000 0.0000 4.0182 0.0000 11.2271
#
#
#
# Elastic Compliance Matrix: (Units=1/GPa)
#
#
# Indices 1 2 3 4 5 6 
#
# 1 0.012605 0.000830 -0.003612 0.000000 -0.002729 0.000000
# 2 0.000830 0.036022 0.000784 0.000000 0.000289 0.000000
# 3 -0.003612 0.000784 0.012034 0.000000 0.001559 0.000000
# 4 0.000000 0.000000 0.000000 0.048184 0.000000 -0.017245
# 5 -0.002729 0.000289 0.001559 0.000000 0.023794 0.000000
# 6 0.000000 0.000000 0.000000 -0.017245 0.000000 0.095242
#
#
# Mechanical properties :
#
#
# Convention : Reuss Voigt Hill
#
# Bulk Modulus (GPa) = 17.64864 27.65886 22.65375
# Shear Modulus (GPa) = 19.93895 27.82544 23.88220
#
# Velocity S-wave (km/s) = 2.91875 3.44800 3.19435
# Velocity P-wave (km/s) = 4.34734 5.26014 4.82537
#
# Compressibility (1/GPa) = 0.05666157
#
# Stress axis : x y z
#
# Youngs Moduli (GPa) = 79.33551 27.76115 83.09924
#
# Poissons Ratio (x) = -0.02303 0.30019
# Poissons Ratio (y) = -0.06582 -0.06511
# Poissons Ratio (z) = 0.28659 -0.02175
#
# Static dielectric constant tensor:
#      x y z
#    x 1.889800 0.000000 0.007030 
#    y 0.000000 1.869260 0.000000 
#    z 0.007030 0.000000 1.929300 
# 
# From -- ./inp_files/338867.got.cif
#   From: 2010.05.17/outbox.cif.g08.bks.cpg/sg12_170_cif.got.tgz:338867.got - 2010.06.03 13:09:07.
