data_PCOD9192230
_publ_section_title
;
Structure prediction by ZEFSAII (Michael W. Deem and Ramdas Pophale) SiO2 
 PCOD9192230
Probable space group: C 2/M
;
_chemical_formula_sum "Si O2"
_cell_formula_units_Z 48
_cell_length_a 9.244386
_cell_length_b 25.581738
_cell_length_c 21.253357
_cell_angle_alpha 90.000000
_cell_angle_beta 150.286023
_cell_angle_gamma 90.000000
_cell_volume 2491.315746
_symmetry_space_group_name_H-M "C 2/M"
_symmetry_group_IT_number 12
_symmetry_cell_setting 'monoclinic'
loop_
_space_group_symop_operation_xyz
x,y,z
-x,y,-z
-x,-y,-z
x,-y,z
1/2+x,1/2+y,z
1/2-x,1/2+y,-z
1/2-x,1/2-y,-z
1/2+x,1/2-y,z
loop_
_atom_site_type_symbol
_atom_site_label
_atom_site_fract_x
_atom_site_fract_y
_atom_site_fract_z
Si Si1 0.163746 0.937931 0.352302
Si Si2 0.356412 0.640801 0.758954
Si Si3 0.152200 0.782891 0.359082
Si Si4 0.158038 0.663056 0.362363
Si Si5 0.753941 0.359655 0.736773
Si Si6 0.828149 0.191996 0.002915
O O1 0.500000 0.924597 0.500000
O O2 0.087456 0.913639 0.254944
O O3 0.933003 0.908301 0.309762
O O4 0.135760 0.000000 0.343587
O O5 0.422525 0.684651 0.731537
O O6 0.013187 0.640405 0.644079
O O7 0.500474 0.659204 0.878512
O O8 0.500000 0.785570 0.500000
O O9 0.060256 0.723171 0.318037
O O10 0.975258 0.810811 0.348200
O O11 0.500000 0.663089 0.500000
O O12 0.112103 0.631932 0.281050
O O13 0.024671 0.339165 0.879572
O O14 0.750000 0.250000 0.000000
O O15 0.000000 0.195133 0.000000
#
# Coordination Sequence:
#
# PCOD9192230 Si02
#       6
#     8   8   8   8   8   8
#     4  10  23  45  70  93 117 153 209 272 327 378
#     4  11  22  37  58  86 123 161 206 252 304 363
#     4  10  20  33  53  85 122 161 198 242 303 379
#     4  11  19  31  54  85 120 156 194 247 313 372
#     4  11  22  37  58  86 123 161 206 252 304 363
#     4  12  26  40  60  91 133 177 211 244 288 365
#
# _framework density 19.266928
#
# number of rings (size 3 to 8) (size 9 to 14) (size 15 to 20)
#    0.000    1.167    1.667    7.000    4.667    2.667 
#    0.000    2.500    0.000    4.000    0.000    0.000 
#    0.000    0.000    0.000    0.000    0.000    0.000 
#
# Total GULP energy -133964.621203 kJ/mol
# GULP energy per Si atom -5581.859217 kJ/mol
# Density = 1.922308 g / cm^3
# Si number density = 19.266928 Si / 1000 Ang^3
#
#
#
# Elastic Constant Matrix: (Units=GPa)
#
#
# Indices 1 2 3 4 5 6 
#
# 1 95.5722 36.1785 12.5269 -0.0027 -1.4657 -0.0010
# 2 36.1785 107.5144 31.2359 -0.0024 0.1016 -0.0009
# 3 12.5269 31.2359 81.2207 -0.0166 -4.3235 -0.0017
# 4 -0.0027 -0.0024 -0.0166 22.3593 -0.0032 3.3925
# 5 -1.4657 0.1016 -4.3235 -0.0032 32.8915 0.0004
# 6 -0.0010 -0.0009 -0.0017 3.3925 0.0004 9.7645
#
#
#
# Elastic Compliance Matrix: (Units=1/GPa)
#
#
# Indices 1 2 3 4 5 6 
#
# 1 0.012007 -0.003952 -0.000305 0.000001 0.000507 0.000000
# 2 -0.003952 0.011782 -0.003961 -0.000002 -0.000733 0.000001
# 3 -0.000305 -0.003961 0.013980 0.000010 0.001836 -0.000002
# 4 0.000001 -0.000002 0.000010 0.047213 0.000006 -0.016403
# 5 0.000507 -0.000733 0.001836 0.000006 0.030669 -0.000003
# 6 0.000000 0.000001 -0.000002 -0.016403 -0.000003 0.108111
#
#
# Mechanical properties :
#
#
# Convention : Reuss Voigt Hill
#
# Bulk Modulus (GPa) = 46.87396 49.35443 48.11419
# Shear Modulus (GPa) = 20.21752 26.62746 23.42249
#
# Velocity S-wave (km/s) = 3.24286 3.72160 3.49045
# Velocity P-wave (km/s) = 6.19702 6.64370 6.42425
#
# Compressibility (1/GPa) = 0.02133381
#
# Stress axis : x y z
#
# Youngs Moduli (GPa) = 83.28354 84.87218 71.53011
#
# Poissons Ratio (x) = 0.33544 0.02181
# Poissons Ratio (y) = 0.32916 0.28331
# Poissons Ratio (z) = 0.02539 0.33616
#
# Static dielectric constant tensor:
#      x y z
#    x 1.697310 0.000000 -0.006870 
#    y 0.000000 1.630770 0.000000 
#    z -0.006870 0.000000 1.759970 
# 
# From -- ./inp_files/121948.got.cif
#   From: 2010.05.17/outbox.cif.g08.bks.cpg/sg12_61_cif.got.tgz:121948.got - 2010.06.03 13:09:07.
