data_PCOD9192044
_publ_section_title
;
Structure prediction by ZEFSAII (Michael W. Deem and Ramdas Pophale) SiO2 
 PCOD9192044
Probable space group: C 2/M
;
_chemical_formula_sum "Si O2"
_cell_formula_units_Z 48
_cell_length_a 15.349898
_cell_length_b 30.697760
_cell_length_c 6.946466
_cell_angle_alpha 90.000000
_cell_angle_beta 142.391642
_cell_angle_gamma 90.000000
_cell_volume 1997.521767
_symmetry_space_group_name_H-M "C 2/M"
_symmetry_group_IT_number 12
_symmetry_cell_setting 'monoclinic'
loop_
_space_group_symop_operation_xyz
x,y,z
-x,y,-z
-x,-y,-z
x,-y,z
1/2+x,1/2+y,z
1/2-x,1/2+y,-z
1/2-x,1/2-y,-z
1/2+x,1/2-y,z
loop_
_atom_site_type_symbol
_atom_site_label
_atom_site_fract_x
_atom_site_fract_y
_atom_site_fract_z
Si Si1 0.060786 0.709847 0.887581
Si Si2 0.292702 0.367086 0.296853
Si Si3 0.703330 0.049227 0.666182
Si Si4 0.110819 0.869241 0.980755
Si Si5 0.120587 0.549335 0.977065
Si Si6 0.250890 0.781468 0.311579
O O1 0.909838 0.709706 0.513392
O O2 0.173990 0.670866 0.088743
O O3 0.144782 0.754216 0.991415
O O4 0.000000 0.709989 0.000000
O O5 0.440716 0.364016 0.672481
O O6 0.339350 0.367693 0.155026
O O7 0.214750 0.411641 0.221462
O O8 0.662603 0.049504 0.822987
O O9 0.548566 0.058221 0.300490
O O10 0.748905 0.000000 0.700222
O O11 0.823427 0.084908 0.836574
O O12 0.183337 0.828740 0.215464
O O13 0.148444 0.500000 0.094500
O O14 0.250000 0.750000 0.500000
#
# Coordination Sequence:
#
# PCOD9192044 Si02
#       6
#     8   8   8   8   8   8
#     4  10  21  37  56  76 102 137 184 229 276 335
#     4  10  20  33  52  81 115 148 182 229 282 330
#     4   8  14  26  46  75 112 150 184 222 272 329
#     4  10  20  33  52  82 117 147 181 227 281 335
#     4   8  14  26  46  74 110 150 187 222 270 331
#     4  10  21  37  56  77 103 139 183 228 276 334
#
# _framework density 24.029775000000001
#
# number of rings (size 3 to 8) (size 9 to 14) (size 15 to 20)
#    0.000    2.667    0.000    3.000    0.000    4.667 
#    0.000    3.333    0.000    0.500    0.000    3.500 
#    0.000   19.333    0.000    0.000    0.000    0.000 
#
# Total GULP energy -134118.238101 kJ/mol
# GULP energy per Si atom -5588.259921 kJ/mol
# Density = 2.397508 g / cm^3
# Si number density = 24.029775 Si / 1000 Ang^3
#
#
#
# Elastic Constant Matrix: (Units=GPa)
#
#
# Indices 1 2 3 4 5 6 
#
# 1 103.1866 52.1133 44.3963 0.0000 21.1734 0.0000
# 2 52.1133 195.2782 119.8160 0.0000 50.7100 0.0000
# 3 44.3963 119.8160 174.8002 0.0000 51.7871 0.0000
# 4 0.0000 0.0000 0.0000 37.8420 0.0000 15.4034
# 5 21.1734 50.7100 51.7871 0.0000 46.7245 0.0000
# 6 0.0000 0.0000 0.0000 15.4034 0.0000 28.4001
#
#
#
# Elastic Compliance Matrix: (Units=1/GPa)
#
#
# Indices 1 2 3 4 5 6 
#
# 1 0.011512 -0.001937 -0.001003 0.000000 -0.002003 0.000000
# 2 -0.001937 0.009780 -0.004954 0.000000 -0.004246 0.000000
# 3 -0.001003 -0.004954 0.011381 0.000000 -0.006783 0.000000
# 4 0.000000 0.000000 0.000000 0.033912 0.000000 -0.018393
# 5 -0.002003 -0.004246 -0.006783 0.000000 0.034436 0.000000
# 6 0.000000 0.000000 0.000000 -0.018393 0.000000 0.045187
#
#
# Mechanical properties :
#
#
# Convention : Reuss Voigt Hill
#
# Bulk Modulus (GPa) = 59.22131 100.65736 79.93934
# Shear Modulus (GPa) = 29.82896 39.72260 34.77578
#
# Velocity S-wave (km/s) = 3.52708 4.07019 3.80833
# Velocity P-wave (km/s) = 6.42538 8.00426 7.25788
#
# Compressibility (1/GPa) = 0.01688581
#
# Stress axis : x y z
#
# Youngs Moduli (GPa) = 86.86753 102.25269 87.86903
#
# Poissons Ratio (x) = 0.19802 0.08812
# Poissons Ratio (y) = 0.16822 0.43528
# Poissons Ratio (z) = 0.08712 0.50653
#
# Static dielectric constant tensor:
#      x y z
#    x 2.017610 0.000000 -0.145620 
#    y 0.000000 1.860860 0.000000 
#    z -0.145620 0.000000 2.048400 
# 
# From -- ./inp_files/80831.got.cif
#   From: 2010.05.17/outbox.cif.g08.bks.cpg/sg12_41_cif.got.tgz:80831.got - 2010.06.03 13:09:07.
