data_PCOD9192071
_publ_section_title
;
Structure prediction by ZEFSAII (Michael W. Deem and Ramdas Pophale) SiO2 
 PCOD9192071
Probable space group: C 2/M
;
_chemical_formula_sum "Si O2"
_cell_formula_units_Z 58
_cell_length_a 19.144710
_cell_length_b 7.403394
_cell_length_c 20.770266
_cell_angle_alpha 90.000000
_cell_angle_beta 110.350561
_cell_angle_gamma 90.000000
_cell_volume 2760.140350
_symmetry_space_group_name_H-M "C 2/M"
_symmetry_group_IT_number 12
_symmetry_cell_setting 'monoclinic'
loop_
_space_group_symop_operation_xyz
x,y,z
-x,y,-z
-x,-y,-z
x,-y,z
1/2+x,1/2+y,z
1/2-x,1/2+y,-z
1/2-x,1/2-y,-z
1/2+x,1/2-y,z
loop_
_atom_site_type_symbol
_atom_site_label
_atom_site_fract_x
_atom_site_fract_y
_atom_site_fract_z
Si Si1 0.201059 0.795289 0.814338
Si Si2 0.794005 0.787035 0.599160
Si Si3 0.682412 0.784367 0.245452
Si Si4 0.550372 0.293005 0.107897
Si Si5 0.106651 0.778096 0.893802
Si Si6 0.629589 0.791822 0.505880
Si Si7 0.500000 0.500000 0.500000
Si Si8 0.331933 0.280282 0.953996
O O1 0.242360 0.714441 0.765784
O O2 0.133071 0.712760 0.832433
O O3 0.265332 0.796366 0.889984
O O4 0.179829 0.000000 0.790007
O O5 0.818722 0.754822 0.679915
O O6 0.708227 0.726582 0.562634
O O7 0.848923 0.707334 0.563213
O O8 0.793182 0.000000 0.586099
O O9 0.612241 0.710411 0.183776
O O10 0.681281 0.000000 0.235388
O O11 0.531929 0.500000 0.085815
O O12 0.474476 0.214090 0.110712
O O13 0.592324 0.220983 0.058442
O O14 0.107175 0.000000 0.891075
O O15 0.161773 0.726772 0.969828
O O16 0.562612 0.658553 0.501303
O O17 0.615119 0.000000 0.521216
O O18 0.327484 0.500000 0.948686
#
# Coordination Sequence:
#
# PCOD9192071 Si02
#       8
#     8   8   8   8   8   8   2   8
#     4   9  18  31  45  68  97 133 174 223 283 345
#     4  10  20  39  65  93 118 163 217 252 295 365
#     4  10  20  33  53  74 105 144 190 237 282 342
#     4   9  17  30  47  69  96 130 176 231 284 344
#     4   9  16  28  47  67  94 128 171 225 287 351
#     4  10  22  39  66 100 136 167 208 256 302 363
#     4  12  22  40  64 102 144 174 194 252 324 346
#     4   9  16  27  46  69  90 123 172 225 282 344
#
# _framework density 21.013424000000001
#
# number of rings (size 3 to 8) (size 9 to 14) (size 15 to 20)
#    0.000    2.483    0.690    1.862    1.931    2.207 
#    0.000    2.759    3.034    4.966    0.000    0.000 
#    0.000    0.000    0.000    0.000    0.000    0.000 
#
# Total GULP energy -161518.497724 kJ/mol
# GULP energy per Si atom -5569.603370 kJ/mol
# Density = 2.096560 g / cm^3
# Si number density = 21.013424 Si / 1000 Ang^3
#
#
#
# Elastic Constant Matrix: (Units=GPa)
#
#
# Indices 1 2 3 4 5 6 
#
# 1 117.3600 21.0651 10.6614 0.0000 3.4528 0.0000
# 2 21.0651 107.2810 -6.5066 0.0000 5.1030 0.0000
# 3 10.6614 -6.5066 65.7860 0.0000 -13.6411 0.0000
# 4 0.0000 0.0000 0.0000 7.3448 0.0000 5.3346
# 5 3.4528 5.1030 -13.6411 0.0000 11.3563 0.0000
# 6 0.0000 0.0000 0.0000 5.3346 0.0000 6.8841
#
#
#
# Elastic Compliance Matrix: (Units=1/GPa)
#
#
# Indices 1 2 3 4 5 6 
#
# 1 0.009242 -0.001728 -0.002784 0.000000 -0.005377 0.000000
# 2 -0.001728 0.009848 0.000593 0.000000 -0.003188 0.000000
# 3 -0.002784 0.000593 0.021082 0.000000 0.025903 0.000000
# 4 0.000000 0.000000 0.000000 0.311439 0.000000 -0.241341
# 5 -0.005377 -0.003188 0.025903 0.000000 0.122239 0.000000
# 6 0.000000 0.000000 0.000000 -0.241341 0.000000 0.332283
#
#
# Mechanical properties :
#
#
# Convention : Reuss Voigt Hill
#
# Bulk Modulus (GPa) = 30.92608 37.87408 34.40008
# Shear Modulus (GPa) = 6.06246 22.79752 14.42999
#
# Velocity S-wave (km/s) = 1.70038 3.29736 2.62335
# Velocity P-wave (km/s) = 4.31327 5.70611 5.05786
#
# Compressibility (1/GPa) = 0.03233517
#
# Stress axis : x y z
#
# Youngs Moduli (GPa) = 108.20176 101.54185 47.43445
#
# Poissons Ratio (x) = 0.17544 0.13204
# Poissons Ratio (y) = 0.18695 -0.02813
# Poissons Ratio (z) = 0.30120 -0.06022
#
# Static dielectric constant tensor:
#      x y z
#    x 1.805090 0.000000 -0.008270 
#    y 0.000000 1.817410 0.000000 
#    z -0.008270 0.000000 1.718960 
# 
# From -- ./inp_files/314833.got.cif
#   From: 2010.05.17/outbox.cif.g08.bks.cpg/sg12_158_cif.got.tgz:314833.got - 2010.06.03 13:09:07.
