data_PCOD9192413
_publ_section_title
;
Structure prediction by ZEFSAII (Michael W. Deem and Ramdas Pophale) SiO2 
 PCOD9192413
Probable space group: C 2/M
;
_chemical_formula_sum "Si O2"
_cell_formula_units_Z 64
_cell_length_a 17.358372
_cell_length_b 23.754107
_cell_length_c 13.946026
_cell_angle_alpha 90.000000
_cell_angle_beta 30.022329
_cell_angle_gamma 90.000000
_cell_volume 2877.141318
_symmetry_space_group_name_H-M "C 2/M"
_symmetry_group_IT_number 12
_symmetry_cell_setting 'monoclinic'
loop_
_space_group_symop_operation_xyz
x,y,z
-x,y,-z
-x,-y,-z
x,-y,z
1/2+x,1/2+y,z
1/2-x,1/2+y,-z
1/2-x,1/2-y,-z
1/2+x,1/2-y,z
loop_
_atom_site_type_symbol
_atom_site_label
_atom_site_fract_x
_atom_site_fract_y
_atom_site_fract_z
Si Si1 0.897641 0.067044 0.705606
Si Si2 0.050250 0.663104 0.228608
Si Si3 0.178975 0.435471 0.794504
Si Si4 0.844246 0.831855 0.031227
Si Si5 0.995615 0.933521 0.198421
Si Si6 0.858498 0.731608 0.597110
Si Si7 0.654725 0.066884 0.606308
Si Si8 0.384881 0.758539 0.275709
O O1 0.000000 0.076585 0.500000
O O2 0.961404 0.086723 0.738667
O O3 0.883388 0.000000 0.737207
O O4 0.740372 0.089499 0.828594
O O5 0.227469 0.671167 0.066118
O O6 0.946928 0.695138 0.420815
O O7 0.986778 0.599957 0.287388
O O8 0.999401 0.693095 0.185718
O O9 0.243941 0.500000 0.716693
O O10 0.197725 0.411746 0.667637
O O11 0.000000 0.440016 0.000000
O O12 0.735893 0.810116 0.232658
O O13 0.900021 0.895629 0.981531
O O14 0.000431 0.794957 0.855718
O O15 0.814130 0.924137 0.378081
O O16 0.023688 0.000000 0.160175
O O17 0.721190 0.769167 0.702342
O O18 0.000000 0.761282 0.500000
O O19 0.623452 0.000000 0.646697
O O20 0.250000 0.750000 0.500000
#
# Coordination Sequence:
#
# PCOD9192413 Si02
#       8
#     8   8   8   8   8   8   8   8
#     4   9  15  28  48  70 103 151 201 243 291 348
#     4  10  22  39  63  91 122 157 205 253 300 364
#     4   9  17  28  46  69 101 147 195 241 293 349
#     4  11  22  38  64  93 125 161 200 250 310 363
#     4  10  20  33  55  86 120 165 214 253 298 362
#     4   9  20  40  66  92 119 159 199 247 316 372
#     4  10  20  36  56  82 122 165 203 249 307 360
#     4  10  20  39  67  89 116 153 198 252 307 362
#
# _framework density 22.244302000000001
#
# number of rings (size 3 to 8) (size 9 to 14) (size 15 to 20)
#    0.000    2.250    1.250    2.250    1.750    0.500 
#    0.000    1.875   11.000    5.250    0.000    0.000 
#    0.000    0.000    0.000    0.000    0.000    0.000 
#
# Total GULP energy -178273.107818 kJ/mol
# GULP energy per Si atom -5571.034619 kJ/mol
# Density = 2.219367 g / cm^3
# Si number density = 22.244302 Si / 1000 Ang^3
#
#
#
# Elastic Constant Matrix: (Units=GPa)
#
#
# Indices 1 2 3 4 5 6 
#
# 1 89.2615 16.1521 20.9845 -0.0234 -36.7445 -0.0028
# 2 16.1521 40.5829 13.2054 -0.0253 -14.6773 -0.0068
# 3 20.9845 13.2054 73.3828 0.0039 -26.5208 -0.0033
# 4 -0.0234 -0.0253 0.0039 19.3627 0.0100 -6.1965
# 5 -36.7445 -14.6773 -26.5208 0.0100 33.0460 0.0044
# 6 -0.0028 -0.0068 -0.0033 -6.1965 0.0044 24.7178
#
#
#
# Elastic Compliance Matrix: (Units=1/GPa)
#
#
# Indices 1 2 3 4 5 6 
#
# 1 0.021269 -0.000041 0.003473 0.000012 0.026419 0.000001
# 2 -0.000041 0.029390 -0.000811 0.000037 0.012357 0.000015
# 3 0.003473 -0.000811 0.019783 -0.000012 0.019378 -0.000004
# 4 0.000012 0.000037 -0.000012 0.056150 0.000001 0.014076
# 5 0.026419 0.012357 0.019378 0.000001 0.080677 -0.000005
# 6 0.000001 0.000015 -0.000004 0.014076 -0.000005 0.043985
#
#
# Mechanical properties :
#
#
# Convention : Reuss Voigt Hill
#
# Bulk Modulus (GPa) = 13.21258 33.76793 23.49025
# Shear Modulus (GPa) = 18.43372 25.61765 22.02568
#
# Velocity S-wave (km/s) = 2.88183 3.39728 3.15011
# Velocity P-wave (km/s) = 4.12624 5.53192 4.87996
#
# Compressibility (1/GPa) = 0.07568543
#
# Stress axis : x y z
#
# Youngs Moduli (GPa) = 47.01622 34.02481 50.54731
#
# Poissons Ratio (x) = 0.00138 -0.17555
# Poissons Ratio (y) = 0.00191 0.04101
# Poissons Ratio (z) = -0.16329 0.02760
#
# Static dielectric constant tensor:
#      x y z
#    x 2.061730 0.000070 -0.047410 
#    y 0.000070 1.841370 -0.000030 
#    z -0.047410 -0.000030 1.889910 
# 
# From -- ./inp_files/228109.got.cif
#   From: 2010.05.17/outbox.cif.g08.bks.cpg/sg12_115_cif.got.tgz:228109.got - 2010.06.03 13:09:07.
