data_PCOD9192211
_publ_section_title
;
Structure prediction by ZEFSAII (Michael W. Deem and Ramdas Pophale) SiO2 
 PCOD9192211
Probable space group: C 2/M
;
_chemical_formula_sum "Si O2"
_cell_formula_units_Z 64
_cell_length_a 25.167665
_cell_length_b 14.728967
_cell_length_c 9.984305
_cell_angle_alpha 90.000000
_cell_angle_beta 89.696519
_cell_angle_gamma 90.000000
_cell_volume 3701.067117
_symmetry_space_group_name_H-M "C 2/M"
_symmetry_group_IT_number 12
_symmetry_cell_setting 'monoclinic'
loop_
_space_group_symop_operation_xyz
x,y,z
-x,y,-z
-x,-y,-z
x,-y,z
1/2+x,1/2+y,z
1/2-x,1/2+y,-z
1/2-x,1/2-y,-z
1/2+x,1/2-y,z
loop_
_atom_site_type_symbol
_atom_site_label
_atom_site_fract_x
_atom_site_fract_y
_atom_site_fract_z
Si Si1 0.136136 0.270834 0.474366
Si Si2 0.249362 0.159260 0.089962
Si Si3 0.766550 0.602696 0.590249
Si Si4 0.315731 0.605736 0.652363
Si Si5 0.690441 0.400831 0.844984
Si Si6 0.957994 0.602518 0.620132
Si Si7 0.033752 0.392434 0.866045
Si Si8 0.140287 0.713918 0.797588
O O1 0.188515 0.322528 0.421221
O O2 0.139679 0.169271 0.415585
O O3 0.086795 0.326248 0.417171
O O4 0.137242 0.277560 0.635972
O O5 0.207778 0.149982 0.212137
O O6 0.308031 0.155706 0.155011
O O7 0.250000 0.250000 0.000000
O O8 0.227747 0.093663 0.974967
O O9 0.788451 0.500000 0.602100
O O10 0.731277 0.606177 0.457118
O O11 0.728254 0.618846 0.717021
O O12 0.330419 0.500000 0.674835
O O13 0.665259 0.500000 0.823813
O O14 0.650522 0.315881 0.853110
O O15 0.064130 0.500000 0.360767
O O16 0.000000 0.598672 0.500000
O O17 0.992665 0.627740 0.747813
O O18 0.047902 0.500000 0.857104
O O19 0.086857 0.333298 0.850884
O O20 0.000000 0.377535 0.000000
#
# Coordination Sequence:
#
# PCOD9192211 Si02
#       8
#     8   8   8   8   8   8   8   8
#     4  12  20  34  59  83 111 151 195 234 278 338
#     4  10  21  36  55  84 118 152 189 233 278 331
#     4  10  20  33  53  83 116 150 188 230 274 332
#     4  11  22  35  54  84 120 154 190 231 277 336
#     4  10  21  37  54  81 120 153 184 227 278 335
#     4  10  21  37  57  83 109 139 186 241 293 337
#     4  10  23  41  59  82 112 141 180 239 296 342
#     4  11  21  35  59  82 107 149 195 227 281 344
#
# _framework density 17.292311000000002
#
# number of rings (size 3 to 8) (size 9 to 14) (size 15 to 20)
#    0.000    1.500    3.750    2.625    0.000    4.500 
#    0.000    2.500    0.000    1.500    0.000    0.000 
#    0.000    0.000    0.000    0.000    0.000    0.000 
#
# Total GULP energy -178395.098225 kJ/mol
# GULP energy per Si atom -5574.846820 kJ/mol
# Density = 1.725295 g / cm^3
# Si number density = 17.292311 Si / 1000 Ang^3
#
#
#
# Elastic Constant Matrix: (Units=GPa)
#
#
# Indices 1 2 3 4 5 6 
#
# 1 84.2682 66.7212 38.0005 0.0000 10.4252 0.0000
# 2 66.7212 117.7338 27.7082 0.0000 5.6133 0.0000
# 3 38.0005 27.7082 119.6746 0.0000 12.0163 0.0000
# 4 0.0000 0.0000 0.0000 -66.1539 0.0000 111.4188
# 5 10.4252 5.6133 12.0163 0.0000 13.2864 0.0000
# 6 0.0000 0.0000 0.0000 111.4188 0.0000 -111.0956
#
#
#
# Elastic Compliance Matrix: (Units=1/GPa)
#
#
# Indices 1 2 3 4 5 6 
#
# 1 0.025084 -0.012779 -0.003929 0.000000 -0.010730 0.000000
# 2 -0.012779 0.015548 0.000122 0.000000 0.003348 0.000000
# 3 -0.003929 0.000122 0.010197 0.000000 -0.006191 0.000000
# 4 0.000000 0.000000 0.000000 0.021935 0.000000 0.021999
# 5 -0.010730 0.003348 -0.006191 0.000000 0.087869 0.000000
# 6 0.000000 0.000000 0.000000 0.021999 0.000000 0.013062
#
#
# Mechanical properties :
#
#
# Convention : Reuss Voigt Hill
#
# Bulk Modulus (GPa) = 56.63727 65.17070 60.90398
# Shear Modulus (GPa) = 23.50145 -20.17617 1.66264
#
# Velocity S-wave (km/s) = 3.69055 -3.41951 0.98162
# Velocity P-wave (km/s) = 7.14032 4.70943 6.04826
#
# Compressibility (1/GPa) = 0.01765622
#
# Stress axis : x y z
#
# Youngs Moduli (GPa) = 39.86531 64.31843 98.06872
#
# Poissons Ratio (x) = 0.82195 0.38530
# Poissons Ratio (y) = 0.50946 -0.01196
# Poissons Ratio (z) = 0.15663 -0.00784
#
# Static dielectric constant tensor:
#      x y z
#    x 1.552550 0.000000 0.003320 
#    y 0.000000 1.643860 0.000000 
#    z 0.003320 0.000000 1.587460 
# 
# From -- ./inp_files/96914.got.cif
#   From: 2010.05.17/outbox.cif.g08.bks.cpg/sg12_49_cif.got.tgz:96914.got - 2010.06.03 13:09:07.
