data_PCOD9192893
_publ_section_title
;
Structure prediction by ZEFSAII (Michael W. Deem and Ramdas Pophale) SiO2 
 PCOD9192893
Probable space group: C 2/M
;
_chemical_formula_sum "Si O2"
_cell_formula_units_Z 64
_cell_length_a 24.271878
_cell_length_b 8.853474
_cell_length_c 17.357150
_cell_angle_alpha 90.000000
_cell_angle_beta 84.374689
_cell_angle_gamma 90.000000
_cell_volume 3711.923211
_symmetry_space_group_name_H-M "C 2/M"
_symmetry_group_IT_number 12
_symmetry_cell_setting 'monoclinic'
loop_
_space_group_symop_operation_xyz
x,y,z
-x,y,-z
-x,-y,-z
x,-y,z
1/2+x,1/2+y,z
1/2-x,1/2+y,-z
1/2-x,1/2-y,-z
1/2+x,1/2-y,z
loop_
_atom_site_type_symbol
_atom_site_label
_atom_site_fract_x
_atom_site_fract_y
_atom_site_fract_z
Si Si1 0.801148 0.182239 0.736968
Si Si2 0.983569 0.318384 0.917591
Si Si3 0.391513 0.674297 0.835896
Si Si4 0.308645 0.680034 0.465635
Si Si5 0.679942 0.819221 0.703247
Si Si6 0.558073 0.818709 0.763497
Si Si7 0.376054 0.180150 0.591179
Si Si8 0.969780 0.174617 0.672571
O O1 0.832354 0.227134 0.811374
O O2 0.736188 0.214026 0.741722
O O3 0.832016 0.262343 0.661591
O O4 0.809294 0.000000 0.727094
O O5 0.984463 0.500000 0.918906
O O6 0.027291 0.268441 0.845927
O O7 0.923528 0.266090 0.896392
O O8 0.000000 0.262719 0.000000
O O9 0.387587 0.500000 0.860350
O O10 0.430051 0.680794 0.753810
O O11 0.306369 0.500000 0.473401
O O12 0.250000 0.750000 0.500000
O O13 0.318331 0.730838 0.377070
O O14 0.355982 0.746574 0.514527
O O15 0.622853 0.783052 0.753843
O O16 0.680201 0.000000 0.686978
O O17 0.526590 0.746633 0.694854
O O18 0.551652 0.000000 0.759005
O O19 0.435929 0.237067 0.611937
O O20 0.374732 0.000000 0.586904
O O21 0.976802 0.000000 0.650149
#
# Coordination Sequence:
#
# PCOD9192893 Si02
#       8
#     8   8   8   8   8   8   8   8
#     4   9  17  30  48  70  98 130 166 208 253 300
#     4   9  17  30  50  76 103 130 162 203 249 297
#     4   8  15  27  45  71  97 124 161 202 245 293
#     4  12  23  35  50  72 101 132 170 213 255 300
#     4  10  20  34  52  72  99 134 169 209 256 304
#     4   9  18  33  52  75 101 132 170 207 248 304
#     4  11  20  31  50  74  98 128 168 215 258 298
#     4   9  17  31  50  71  98 131 165 209 257 301
#
# _framework density 17.241736
#
# number of rings (size 3 to 8) (size 9 to 14) (size 15 to 20)
#    0.000    2.375    1.250    3.375    0.000    3.750 
#    0.000    0.625    0.000    4.500    0.000    0.000 
#    0.000    0.000    0.000    0.000    0.000    1.625 
#
# Total GULP energy -178425.310614 kJ/mol
# GULP energy per Si atom -5575.790957 kJ/mol
# Density = 1.720249 g / cm^3
# Si number density = 17.241736 Si / 1000 Ang^3
#
#
#
# Elastic Constant Matrix: (Units=GPa)
#
#
# Indices 1 2 3 4 5 6 
#
# 1 114.9663 40.5347 53.7740 0.0000 28.7184 0.0000
# 2 40.5347 57.5530 38.0997 0.0000 12.3509 0.0000
# 3 53.7740 38.0997 91.2210 0.0000 32.0149 0.0000
# 4 0.0000 0.0000 0.0000 21.2002 0.0000 7.9734
# 5 28.7184 12.3509 32.0149 0.0000 27.3788 0.0000
# 6 0.0000 0.0000 0.0000 7.9734 0.0000 21.9673
#
#
#
# Elastic Compliance Matrix: (Units=1/GPa)
#
#
# Indices 1 2 3 4 5 6 
#
# 1 0.014524 -0.006532 -0.002580 0.000000 -0.009271 0.000000
# 2 -0.006532 0.026990 -0.009419 0.000000 0.005690 0.000000
# 3 -0.002580 -0.009419 0.023704 0.000000 -0.020763 0.000000
# 4 0.000000 0.000000 0.000000 0.054626 0.000000 -0.019827
# 5 -0.009271 0.005690 -0.020763 0.000000 0.067961 0.000000
# 6 0.000000 0.000000 0.000000 -0.019827 0.000000 0.052719
#
#
# Mechanical properties :
#
#
# Convention : Reuss Voigt Hill
#
# Bulk Modulus (GPa) = 35.51597 58.72857 47.12227
# Shear Modulus (GPa) = 17.42331 22.86473 20.14402
#
# Velocity S-wave (km/s) = 3.18233 3.64555 3.42179
# Velocity P-wave (km/s) = 5.84351 7.20110 6.55753
#
# Compressibility (1/GPa) = 0.02815635
#
# Stress axis : x y z
#
# Youngs Moduli (GPa) = 68.85292 37.05067 42.18653
#
# Poissons Ratio (x) = 0.24201 0.10883
# Poissons Ratio (y) = 0.44973 0.39737
# Poissons Ratio (z) = 0.17762 0.34900
#
# Static dielectric constant tensor:
#      x y z
#    x 1.605600 0.000000 0.014290 
#    y 0.000000 1.582140 0.000000 
#    z 0.014290 0.000000 1.570770 
# 
# From -- ./inp_files/287779.got.cif
#   From: 2010.05.17/outbox.cif.g08.bks.cpg/sg12_144_cif.got.tgz:287779.got - 2010.06.03 13:09:07.
