data_PCOD9192847
_publ_section_title
;
Structure prediction by ZEFSAII (Michael W. Deem and Ramdas Pophale) SiO2 
 PCOD9192847
Probable space group: C 2/M
;
_chemical_formula_sum "Si O2"
_cell_formula_units_Z 56
_cell_length_a 24.954839
_cell_length_b 7.556098
_cell_length_c 14.505784
_cell_angle_alpha 90.000000
_cell_angle_beta 58.431086
_cell_angle_gamma 90.000000
_cell_volume 2330.444758
_symmetry_space_group_name_H-M "C 2/M"
_symmetry_group_IT_number 12
_symmetry_cell_setting 'monoclinic'
loop_
_space_group_symop_operation_xyz
x,y,z
-x,y,-z
-x,-y,-z
x,-y,z
1/2+x,1/2+y,z
1/2-x,1/2+y,-z
1/2-x,1/2-y,-z
1/2+x,1/2-y,z
loop_
_atom_site_type_symbol
_atom_site_label
_atom_site_fract_x
_atom_site_fract_y
_atom_site_fract_z
Si Si1 0.481360 0.791354 0.814573
Si Si2 0.284866 0.290757 0.849134
Si Si3 0.112076 0.198585 0.775752
Si Si4 0.349325 0.798622 0.965246
Si Si5 0.757945 0.786763 0.303698
Si Si6 0.340068 0.785912 0.466861
Si Si7 0.972971 0.714589 0.426663
O O1 0.543315 0.776735 0.821952
O O2 0.417808 0.716147 0.916892
O O3 0.495833 0.721221 0.698158
O O4 0.469362 0.000000 0.813975
O O5 0.287082 0.500000 0.866085
O O6 0.336900 0.202938 0.866116
O O7 0.287657 0.259202 0.738891
O O8 0.215479 0.217227 0.939142
O O9 0.171033 0.282779 0.776737
O O10 0.142192 0.200288 0.645889
O O11 0.102591 0.000000 0.818293
O O12 0.349889 0.000000 0.999487
O O13 0.723512 0.724000 0.427128
O O14 0.762404 0.000000 0.304807
O O15 0.399103 0.748008 0.480572
O O16 0.338564 0.000000 0.454963
O O17 0.979562 0.500000 0.420405
O O18 0.000000 0.778824 0.500000
#
# Coordination Sequence:
#
# PCOD9192847 Si02
#       7
#     8   8   8   8   8   8   8
#     4   9  18  33  55  75  98 139 179 211 255 311
#     4  10  21  35  54  82 108 133 170 220 268 309
#     4  10  20  34  51  76 109 139 173 219 266 309
#     4   9  19  37  58  78 104 138 175 212 261 322
#     4  10  21  35  53  76 104 143 182 214 258 314
#     4   9  18  32  51  73 101 140 181 212 250 310
#     4   8  14  24  43  73  98 120 163 211 243 287
#
# _framework density 24.029747
#
# number of rings (size 3 to 8) (size 9 to 14) (size 15 to 20)
#    0.000    2.714    0.000    2.143    2.000    2.857 
#    0.000    0.714    0.000    6.000    0.000    0.000 
#    0.000    0.000    0.000    0.000    0.000    0.000 
#
# Total GULP energy -156237.077236 kJ/mol
# GULP energy per Si atom -5579.895616 kJ/mol
# Density = 2.397505 g / cm^3
# Si number density = 24.029747 Si / 1000 Ang^3
#
#
#
# Elastic Constant Matrix: (Units=GPa)
#
#
# Indices 1 2 3 4 5 6 
#
# 1 72.5549 7.6773 -0.3711 0.0000 -14.6199 0.0000
# 2 7.6773 68.1872 4.6586 0.0000 -7.3010 0.0000
# 3 -0.3711 4.6586 20.1128 0.0000 -11.7793 0.0000
# 4 0.0000 0.0000 0.0000 8.0823 0.0000 3.2735
# 5 -14.6199 -7.3010 -11.7793 0.0000 49.8836 0.0000
# 6 0.0000 0.0000 0.0000 3.2735 0.0000 14.6067
#
#
#
# Elastic Compliance Matrix: (Units=1/GPa)
#
#
# Indices 1 2 3 4 5 6 
#
# 1 0.014958 -0.001389 0.003535 0.000000 0.005015 0.000000
# 2 -0.001389 0.015139 -0.002870 0.000000 0.001131 0.000000
# 3 0.003535 -0.002870 0.058965 0.000000 0.014540 0.000000
# 4 0.000000 0.000000 0.000000 0.136079 0.000000 -0.030497
# 5 0.005015 0.001131 0.014540 0.000000 0.025116 0.000000
# 6 0.000000 0.000000 0.000000 -0.030497 0.000000 0.075297
#
#
# Mechanical properties :
#
#
# Convention : Reuss Voigt Hill
#
# Bulk Modulus (GPa) = 11.41349 20.53160 15.97254
# Shear Modulus (GPa) = 14.03683 24.44052 19.23868
#
# Velocity S-wave (km/s) = 2.41953 3.19265 2.83259
# Velocity P-wave (km/s) = 3.54479 4.70675 4.16648
#
# Compressibility (1/GPa) = 0.08761565
#
# Stress axis : x y z
#
# Youngs Moduli (GPa) = 66.85250 66.05441 16.95922
#
# Poissons Ratio (x) = 0.09173 -0.05995
# Poissons Ratio (y) = 0.09284 0.04867
# Poissons Ratio (z) = -0.23632 0.18956
#
# Static dielectric constant tensor:
#      x y z
#    x 1.962010 0.000000 -0.003670 
#    y 0.000000 1.966100 0.000000 
#    z -0.003670 0.000000 1.950190 
# 
# From -- ./inp_files/243598.got.cif
#   From: 2010.05.17/outbox.cif.g08.bks.cpg/sg12_122_cif.got.tgz:243598.got - 2010.06.03 13:09:07.
