data_PCOD9192323
_publ_section_title
;
Structure prediction by ZEFSAII (Michael W. Deem and Ramdas Pophale) SiO2 
 PCOD9192323
Probable space group: C 2/M
;
_chemical_formula_sum "Si O2"
_cell_formula_units_Z 56
_cell_length_a 28.717966
_cell_length_b 8.835682
_cell_length_c 13.735319
_cell_angle_alpha 90.000000
_cell_angle_beta 58.253057
_cell_angle_gamma 90.000000
_cell_volume 2963.778170
_symmetry_space_group_name_H-M "C 2/M"
_symmetry_group_IT_number 12
_symmetry_cell_setting 'monoclinic'
loop_
_space_group_symop_operation_xyz
x,y,z
-x,y,-z
-x,-y,-z
x,-y,z
1/2+x,1/2+y,z
1/2-x,1/2+y,-z
1/2-x,1/2-y,-z
1/2+x,1/2-y,z
loop_
_atom_site_type_symbol
_atom_site_label
_atom_site_fract_x
_atom_site_fract_y
_atom_site_fract_z
Si Si1 0.774232 0.319382 0.188505
Si Si2 0.336951 0.180110 0.723058
Si Si3 0.052386 0.824864 0.071039
Si Si4 0.333181 0.676471 0.940774
Si Si5 0.615039 0.181032 0.825647
Si Si6 0.943803 0.180674 0.506590
Si Si7 0.950011 0.679238 0.287735
O O1 0.767573 0.500000 0.194177
O O2 0.716855 0.240332 0.273195
O O3 0.823503 0.280206 0.208401
O O4 0.795020 0.261854 0.060205
O O5 0.333064 0.248096 0.835858
O O6 0.392146 0.239732 0.613072
O O7 0.336737 0.000000 0.727178
O O8 0.105520 0.816767 0.082578
O O9 0.004591 0.724836 0.169040
O O10 0.035047 0.000000 0.083712
O O11 0.073410 0.765143 0.944042
O O12 0.317020 0.500000 0.952157
O O13 0.599583 0.214940 0.731770
O O14 0.608130 0.000000 0.847812
O O15 0.947652 0.230472 0.390447
O O16 0.000000 0.222552 0.500000
O O17 0.937312 0.000000 0.521330
O O18 0.949913 0.500000 0.307973
#
# Coordination Sequence:
#
# PCOD9192323 Si02
#       7
#     8   8   8   8   8   8   8
#     4  10  20  37  59  83 114 150 188 230 278 329
#     4  12  24  38  58  84 113 147 188 231 280 334
#     4  10  20  33  54  85 118 152 189 229 276 332
#     4  10  20  35  55  83 118 152 188 230 278 332
#     4   9  20  37  57  83 115 150 187 230 278 330
#     4  11  25  44  63  84 111 144 185 230 275 328
#     4  11  22  37  58  84 114 148 188 232 280 332
#
# _framework density 18.894801999999999
#
# number of rings (size 3 to 8) (size 9 to 14) (size 15 to 20)
#    0.000    1.571    0.000    5.143    0.000    9.714 
#    0.000    0.714    0.000    0.000    0.000    0.000 
#    0.000    0.000    0.000    0.000    0.000    0.000 
#
# Total GULP energy -156561.561311 kJ/mol
# GULP energy per Si atom -5591.484333 kJ/mol
# Density = 1.885180 g / cm^3
# Si number density = 18.894802 Si / 1000 Ang^3
#
#
#
# Elastic Constant Matrix: (Units=GPa)
#
#
# Indices 1 2 3 4 5 6 
#
# 1 98.9606 45.9081 64.1952 0.0000 0.2166 0.0000
# 2 45.9081 77.5544 30.6335 0.0000 2.0185 0.0000
# 3 64.1952 30.6335 61.5159 0.0000 5.5518 0.0000
# 4 0.0000 0.0000 0.0000 33.1332 0.0000 -3.3777
# 5 0.2166 2.0185 5.5518 0.0000 30.5427 0.0000
# 6 0.0000 0.0000 0.0000 -3.3777 0.0000 21.5790
#
#
#
# Elastic Compliance Matrix: (Units=1/GPa)
#
#
# Indices 1 2 3 4 5 6 
#
# 1 0.035874 -0.007950 -0.034061 0.000000 0.006462 0.000000
# 2 -0.007950 0.017818 -0.000484 0.000000 -0.001033 0.000000
# 3 -0.034061 -0.000484 0.052884 0.000000 -0.009339 0.000000
# 4 0.000000 0.000000 0.000000 0.030671 0.000000 0.004801
# 5 0.006462 -0.001033 -0.009339 0.000000 0.034461 0.000000
# 6 0.000000 0.000000 0.000000 0.004801 0.000000 0.047093
#
#
# Mechanical properties :
#
#
# Convention : Reuss Voigt Hill
#
# Bulk Modulus (GPa) = 46.32328 57.72272 52.02300
# Shear Modulus (GPa) = 16.07797 23.53726 19.80762
#
# Velocity S-wave (km/s) = 2.92022 3.53328 3.24127
# Velocity P-wave (km/s) = 5.99499 6.87468 6.44985
#
# Compressibility (1/GPa) = 0.02158742
#
# Stress axis : x y z
#
# Youngs Moduli (GPa) = 27.87540 56.12310 18.90933
#
# Poissons Ratio (x) = 0.44617 0.64407
# Poissons Ratio (y) = 0.22161 0.00914
# Poissons Ratio (z) = 0.94946 0.02714
#
# Static dielectric constant tensor:
#      x y z
#    x 1.684970 0.000000 0.006910 
#    y 0.000000 1.628780 0.000000 
#    z 0.006910 0.000000 1.607180 
# 
# From -- ./inp_files/187237.got.cif
#   From: 2010.05.17/outbox.cif.g08.bks.cpg/sg12_94_cif.got.tgz:187237.got - 2010.06.03 13:09:07.
