data_PCOD9192328
_publ_section_title
;
Structure prediction by ZEFSAII (Michael W. Deem and Ramdas Pophale) SiO2 
 PCOD9192328
Probable space group: C 2/M
;
_chemical_formula_sum "Si O2"
_cell_formula_units_Z 64
_cell_length_a 27.525600
_cell_length_b 13.886768
_cell_length_c 22.002201
_cell_angle_alpha 90.000000
_cell_angle_beta 24.694799
_cell_angle_gamma 90.000000
_cell_volume 3513.634093
_symmetry_space_group_name_H-M "C 2/M"
_symmetry_group_IT_number 12
_symmetry_cell_setting 'monoclinic'
loop_
_space_group_symop_operation_xyz
x,y,z
-x,y,-z
-x,-y,-z
x,-y,z
1/2+x,1/2+y,z
1/2-x,1/2+y,-z
1/2-x,1/2-y,-z
1/2+x,1/2-y,z
loop_
_atom_site_type_symbol
_atom_site_label
_atom_site_fract_x
_atom_site_fract_y
_atom_site_fract_z
Si Si1 0.302184 0.614941 0.867362
Si Si2 0.064690 0.610238 0.093180
Si Si3 0.368855 0.616233 0.654233
Si Si4 0.898624 0.886506 0.284212
Si Si5 0.464386 0.760322 0.110415
Si Si6 0.736469 0.614005 0.353352
Si Si7 0.028378 0.805903 0.669901
Si Si8 0.877869 0.391151 0.405966
O O1 0.320669 0.500000 0.855659
O O2 0.323460 0.639119 0.772368
O O3 0.398360 0.669913 0.796659
O O4 0.164843 0.635688 0.028467
O O5 0.088825 0.500000 0.046250
O O6 0.057434 0.678334 0.043536
O O7 0.942949 0.612132 0.267136
O O8 0.500000 0.653639 0.500000
O O9 0.373867 0.500000 0.645259
O O10 0.295458 0.644500 0.679097
O O11 0.943295 0.837074 0.171947
O O12 0.953598 0.835005 0.280365
O O13 0.759036 0.873577 0.446040
O O14 0.923257 0.000000 0.258361
O O15 0.345970 0.822895 0.248450
O O16 0.500000 0.747884 0.000000
O O17 0.764136 0.500000 0.324111
O O18 0.622176 0.633276 0.524037
O O19 0.065283 0.694715 0.620536
O O20 0.894279 0.500000 0.411373
#
# Coordination Sequence:
#
# PCOD9192328 Si02
#       8
#     8   8   8   8   8   8   8   8
#     4  10  20  33  54  85 122 157 185 224 278 342
#     4  10  21  38  57  84 121 153 182 228 292 350
#     4   9  16  29  46  76 119 149 177 218 268 327
#     4  11  23  40  60  84 113 145 191 248 286 329
#     4  12  24  39  58  82 114 154 196 230 287 346
#     4  11  21  33  58  92 118 147 187 234 284 342
#     4  12  20  36  61  88 114 148 194 235 281 338
#     4  10  21  39  61  83 113 149 185 234 295 344
#
# _framework density 18.214759000000001
#
# number of rings (size 3 to 8) (size 9 to 14) (size 15 to 20)
#    0.000    1.375    3.750    3.375    0.000    3.750 
#    0.000    0.000    0.000    0.000    0.000    2.625 
#    0.000    0.000    0.000    0.000    0.000    0.000 
#
# Total GULP energy -178643.752111 kJ/mol
# GULP energy per Si atom -5582.617253 kJ/mol
# Density = 1.817330 g / cm^3
# Si number density = 18.214759 Si / 1000 Ang^3
#
#
#
# Elastic Constant Matrix: (Units=GPa)
#
#
# Indices 1 2 3 4 5 6 
#
# 1 97.0685 53.1544 29.6743 0.0000 -15.7029 0.0000
# 2 53.1544 90.7672 19.9603 0.0000 -9.4762 0.0000
# 3 29.6743 19.9603 68.4358 -0.0001 -1.0357 0.0001
# 4 0.0000 0.0000 -0.0001 14.5424 0.0000 1.6816
# 5 -15.7029 -9.4762 -1.0357 0.0000 26.6496 0.0000
# 6 0.0000 0.0000 0.0001 1.6816 0.0000 23.8798
#
#
#
# Elastic Compliance Matrix: (Units=1/GPa)
#
#
# Indices 1 2 3 4 5 6 
#
# 1 0.017658 -0.008473 -0.005076 0.000000 0.007194 0.000000
# 2 -0.008473 0.016293 -0.001067 0.000000 0.000759 0.000000
# 3 -0.005076 -0.001067 0.017083 0.000000 -0.002706 0.000000
# 4 0.000000 0.000000 0.000000 0.069329 0.000000 -0.004882
# 5 0.007194 0.000759 -0.002706 0.000000 0.041928 0.000000
# 6 0.000000 0.000000 0.000000 -0.004882 0.000000 0.042220
#
#
# Mechanical properties :
#
#
# Convention : Reuss Voigt Hill
#
# Bulk Modulus (GPa) = 45.86715 51.31662 48.59188
# Shear Modulus (GPa) = 20.74602 23.24654 21.99628
#
# Velocity S-wave (km/s) = 3.37852 3.57634 3.47883
# Velocity P-wave (km/s) = 6.36044 6.72962 6.54763
#
# Compressibility (1/GPa) = 0.02180210
#
# Stress axis : x y z
#
# Youngs Moduli (GPa) = 56.63315 61.37618 58.53609
#
# Poissons Ratio (x) = 0.52004 0.29715
# Poissons Ratio (y) = 0.47986 0.06243
# Poissons Ratio (z) = 0.28749 0.06546
#
# Static dielectric constant tensor:
#      x y z
#    x 1.624170 0.000000 -0.019180 
#    y 0.000000 1.631700 0.000000 
#    z -0.019180 0.000000 1.667930 
# 
# From -- ./inp_files/290075.got.cif
#   From: 2010.05.17/outbox.cif.g08.bks.cpg/sg12_146_cif.got.tgz:290075.got - 2010.06.03 13:09:07.
