data_PCOD9192691
_publ_section_title
;
Structure prediction by ZEFSAII (Michael W. Deem and Ramdas Pophale) SiO2 
 PCOD9192691
Probable space group: C 2/M
;
_chemical_formula_sum "Si O2"
_cell_formula_units_Z 64
_cell_length_a 32.079017
_cell_length_b 8.679183
_cell_length_c 26.600405
_cell_angle_alpha 90.000000
_cell_angle_beta 150.014397
_cell_angle_gamma 90.000000
_cell_volume 3701.426087
_symmetry_space_group_name_H-M "C 2/M"
_symmetry_group_IT_number 12
_symmetry_cell_setting 'monoclinic'
loop_
_space_group_symop_operation_xyz
x,y,z
-x,y,-z
-x,-y,-z
x,-y,z
1/2+x,1/2+y,z
1/2-x,1/2+y,-z
1/2-x,1/2-y,-z
1/2+x,1/2-y,z
loop_
_atom_site_type_symbol
_atom_site_label
_atom_site_fract_x
_atom_site_fract_y
_atom_site_fract_z
Si Si1 0.542546 0.315841 0.429127
Si Si2 0.819417 0.684249 0.360589
Si Si3 0.031065 0.186684 0.951983
Si Si4 0.278206 0.816414 0.118539
Si Si5 0.094094 0.316799 0.913423
Si Si6 0.565457 0.315317 0.778192
Si Si7 0.373684 0.315809 0.311471
Si Si8 0.870136 0.186868 0.846515
O O1 0.555289 0.500000 0.444224
O O2 0.624977 0.232539 0.534021
O O3 0.507512 0.274569 0.337515
O O4 0.466108 0.279150 0.387310
O O5 0.820393 0.500000 0.355938
O O6 0.859398 0.759734 0.352775
O O7 0.723254 0.737362 0.263050
O O8 0.051604 0.259602 0.920237
O O9 0.941325 0.232742 0.881174
O O10 0.033419 0.000000 0.950146
O O11 0.098642 0.232651 0.065238
O O12 0.349441 0.756779 0.155068
O O13 0.309124 0.765288 0.206136
O O14 0.271493 0.000000 0.108771
O O15 0.189536 0.741714 0.014146
O O16 0.092604 0.500000 0.908836
O O17 0.052148 0.244856 0.820169
O O18 0.574417 0.500000 0.787024
O O19 0.363152 0.500000 0.296776
O O20 0.870613 0.000000 0.846998
#
# Coordination Sequence:
#
# PCOD9192691 Si02
#       8
#     8   8   8   8   8   8   8   8
#     4   9  20  36  51  69  99 138 176 213 255 300
#     4  11  20  30  50  79 106 134 172 213 256 307
#     4   9  17  35  58  76 101 136 170 204 249 304
#     4  11  21  34  52  76 106 138 172 209 253 303
#     4  12  23  34  51  78 107 134 169 210 254 304
#     4  10  21  38  55  72  99 137 177 215 256 299
#     4  10  20  34  50  72 105 141 176 213 253 299
#     4   8  17  33  54  79 104 132 166 206 252 304
#
# _framework density 17.290633
#
# number of rings (size 3 to 8) (size 9 to 14) (size 15 to 20)
#    0.000    2.000    0.000    6.375    0.000    5.500 
#    0.000    3.125    0.000    0.750    0.000    0.000 
#    0.000    0.000    0.000    0.000    0.000    0.000 
#
# Total GULP energy -178720.026331 kJ/mol
# GULP energy per Si atom -5585.000823 kJ/mol
# Density = 1.725128 g / cm^3
# Si number density = 17.290633 Si / 1000 Ang^3
#
#
#
# Elastic Constant Matrix: (Units=GPa)
#
#
# Indices 1 2 3 4 5 6 
#
# 1 93.2289 22.2802 63.0100 0.0000 -19.3970 0.0000
# 2 22.2802 50.4478 28.8076 0.0000 -2.2147 0.0000
# 3 63.0100 28.8076 122.8758 0.0000 -1.8884 0.0000
# 4 0.0000 0.0000 0.0000 28.0972 0.0000 -5.3618
# 5 -19.3970 -2.2147 -1.8884 0.0000 18.5308 0.0000
# 6 0.0000 0.0000 0.0000 -5.3618 0.0000 21.2573
#
#
#
# Elastic Compliance Matrix: (Units=1/GPa)
#
#
# Indices 1 2 3 4 5 6 
#
# 1 0.023921 -0.003156 -0.011165 0.000000 0.023524 0.000000
# 2 -0.003156 0.023392 -0.003880 0.000000 -0.000904 0.000000
# 3 -0.011165 -0.003880 0.014609 0.000000 -0.010662 0.000000
# 4 0.000000 0.000000 0.000000 0.037390 0.000000 0.009431
# 5 0.023524 -0.000904 -0.010662 0.000000 0.077394 0.000000
# 6 0.000000 0.000000 0.000000 0.009431 0.000000 0.049421
#
#
# Mechanical properties :
#
#
# Convention : Reuss Voigt Hill
#
# Bulk Modulus (GPa) = 39.18375 54.97200 47.07788
# Shear Modulus (GPa) = 18.44767 23.74072 21.09420
#
# Velocity S-wave (km/s) = 3.26991 3.70947 3.49661
# Velocity P-wave (km/s) = 6.08009 7.08582 6.60213
#
# Compressibility (1/GPa) = 0.02552078
#
# Stress axis : x y z
#
# Youngs Moduli (GPa) = 41.80411 42.74940 68.44918
#
# Poissons Ratio (x) = 0.13493 0.76424
# Poissons Ratio (y) = 0.13195 0.26555
# Poissons Ratio (z) = 0.46675 0.16585
#
# Static dielectric constant tensor:
#      x y z
#    x 1.570630 0.000000 -0.005240 
#    y 0.000000 1.580710 0.000000 
#    z -0.005240 0.000000 1.590280 
# 
# From -- ./inp_files/249176.got.cif
#   From: 2010.05.17/outbox.cif.g08.bks.cpg/sg12_125_cif.got.tgz:249176.got - 2010.06.03 13:09:07.
