data_PCOD9192583
_publ_section_title
;
Structure prediction by ZEFSAII (Michael W. Deem and Ramdas Pophale) SiO2 
 PCOD9192583
Probable space group: C 2/M
;
_chemical_formula_sum "Si O2"
_cell_formula_units_Z 36
_cell_length_a 22.606434
_cell_length_b 14.078619
_cell_length_c 19.314555
_cell_angle_alpha 90.000000
_cell_angle_beta 16.901649
_cell_angle_gamma 90.000000
_cell_volume 1787.171665
_symmetry_space_group_name_H-M "C 2/M"
_symmetry_group_IT_number 12
_symmetry_cell_setting 'monoclinic'
loop_
_space_group_symop_operation_xyz
x,y,z
-x,y,-z
-x,-y,-z
x,-y,z
1/2+x,1/2+y,z
1/2-x,1/2+y,-z
1/2-x,1/2-y,-z
1/2+x,1/2-y,z
loop_
_atom_site_type_symbol
_atom_site_label
_atom_site_fract_x
_atom_site_fract_y
_atom_site_fract_z
Si Si1 0.055675 0.500000 0.120255
Si Si2 0.657221 0.149556 0.267503
Si Si3 0.000000 0.163874 0.500000
Si Si4 0.902286 0.000000 0.343399
Si Si5 0.733330 0.138971 0.030844
Si Si6 0.776135 0.500000 0.220068
Si Si7 0.487846 0.500000 0.930315
O O1 0.814741 0.500000 0.376592
O O2 0.119416 0.589221 0.095618
O O3 0.186292 0.500000 0.904511
O O4 0.500000 0.110618 0.500000
O O5 0.638655 0.262930 0.300461
O O6 0.612795 0.124690 0.238119
O O7 0.864975 0.097276 0.052438
O O8 0.856567 0.094000 0.616380
O O9 0.047522 0.911531 0.202296
O O10 0.860951 0.000000 0.306026
O O11 0.750000 0.250000 0.000000
O O12 0.000000 0.500000 0.000000
O O13 0.500000 0.500000 0.000000
#
# Coordination Sequence:
#
# PCOD9192583 Si02
#       7
#     4   8   4   4   8   4   4
#     4  11  24  39  62  89 122 156 198 243 302 348
#     4   9  20  37  59  88 116 152 200 233 295 357
#     4   9  22  41  64  86 118 157 200 243 302 332
#     4   9  23  38  55  94 118 152 200 239 295 353
#     4  10  21  40  62  84 120 157 197 244 293 351
#     4  11  24  42  62  88 117 156 206 249 289 353
#     4  10  20  33  59  89 124 152 192 240 291 357
#
# _framework density 20.143560999999998
#
# number of rings (size 3 to 8) (size 9 to 14) (size 15 to 20)
#    0.667    1.556    0.000    2.333    3.111    7.111 
#    0.000    0.000    0.000    0.000    0.000    0.000 
#    0.000    0.000    0.000    0.000    0.000    0.000 
#
# Total GULP energy -100225.628902 kJ/mol
# GULP energy per Si atom -5568.090495 kJ/mol
# Density = 2.009771 g / cm^3
# Si number density = 20.143561 Si / 1000 Ang^3
#
#
#
# Elastic Constant Matrix: (Units=GPa)
#
#
# Indices 1 2 3 4 5 6 
#
# 1 79.4274 27.8376 6.3069 -0.0236 1.6160 -0.0080
# 2 27.8376 158.9225 24.8892 0.0236 -17.2311 -0.0719
# 3 6.3069 24.8892 64.8567 -0.0143 -1.0876 -0.0535
# 4 -0.0236 0.0236 -0.0143 34.5488 -0.0002 18.5503
# 5 1.6160 -17.2311 -1.0876 -0.0002 37.2460 0.0105
# 6 -0.0080 -0.0719 -0.0535 18.5503 0.0105 17.2644
#
#
#
# Elastic Compliance Matrix: (Units=1/GPa)
#
#
# Indices 1 2 3 4 5 6 
#
# 1 0.013533 -0.002500 -0.000386 0.000031 -0.001755 -0.000037
# 2 -0.002500 0.007515 -0.002582 -0.000044 0.003510 0.000067
# 3 -0.000386 -0.002582 0.016435 -0.000032 -0.000698 0.000075
# 4 0.000031 -0.000044 -0.000032 0.068414 -0.000001 -0.073510
# 5 -0.001755 0.003510 -0.000698 -0.000001 0.028528 -0.000004
# 6 -0.000037 0.000067 0.000075 -0.073510 -0.000004 0.136908
#
#
# Mechanical properties :
#
#
# Convention : Reuss Voigt Hill
#
# Bulk Modulus (GPa) = 37.66916 46.80823 42.23869
# Shear Modulus (GPa) = 17.17507 34.09004 25.63256
#
# Velocity S-wave (km/s) = 2.92316 4.11829 3.57107
# Velocity P-wave (km/s) = 5.48945 6.77506 6.16586
#
# Compressibility (1/GPa) = 0.02654692
#
# Stress axis : x y z
#
# Youngs Moduli (GPa) = 73.89459 133.06166 60.84449
#
# Poissons Ratio (x) = 0.33270 0.02348
# Poissons Ratio (y) = 0.18476 0.15710
# Poissons Ratio (z) = 0.02852 0.34357
#
# Static dielectric constant tensor:
#      x y z
#    x 1.740270 -0.000020 0.030580 
#    y -0.000020 1.721770 0.000030 
#    z 0.030580 0.000030 1.723920 
# 
# From -- ./inp_files/284234.got.cif
#   From: 2010.05.17/outbox.cif.g08.bks.cpg/sg12_143_cif.got.tgz:284234.got - 2010.06.03 13:09:07.
