data_PCOD9192453
_publ_section_title
;
Structure prediction by ZEFSAII (Michael W. Deem and Ramdas Pophale) SiO2 
 PCOD9192453
Probable space group: C 2/M
;
_chemical_formula_sum "Si O2"
_cell_formula_units_Z 60
_cell_length_a 18.578853
_cell_length_b 7.361970
_cell_length_c 19.749429
_cell_angle_alpha 90.000000
_cell_angle_beta 59.414920
_cell_angle_gamma 90.000000
_cell_volume 2325.451876
_symmetry_space_group_name_H-M "C 2/M"
_symmetry_group_IT_number 12
_symmetry_cell_setting 'monoclinic'
loop_
_space_group_symop_operation_xyz
x,y,z
-x,y,-z
-x,-y,-z
x,-y,z
1/2+x,1/2+y,z
1/2-x,1/2+y,-z
1/2-x,1/2-y,-z
1/2+x,1/2-y,z
loop_
_atom_site_type_symbol
_atom_site_label
_atom_site_fract_x
_atom_site_fract_y
_atom_site_fract_z
Si Si1 0.738630 0.791745 0.258232
Si Si2 0.088792 0.206644 0.930077
Si Si3 0.376958 0.720704 0.462947
Si Si4 0.066173 0.500000 0.831627
Si Si5 0.758073 0.202857 0.897774
Si Si6 0.714077 0.289220 0.625532
Si Si7 0.944391 0.216837 0.651553
Si Si8 0.056136 0.219105 0.186724
O O1 0.729002 0.700932 0.190023
O O2 0.786105 0.705431 0.299827
O O3 0.642453 0.800291 0.329330
O O4 0.766623 0.000000 0.232213
O O5 0.108773 0.341150 0.859953
O O6 0.166148 0.209567 0.945980
O O7 0.074347 0.000000 0.915999
O O8 0.000000 0.276276 0.000000
O O9 0.374887 0.500000 0.463443
O O10 0.346449 0.784993 0.403174
O O11 0.305987 0.779298 0.548776
O O12 0.472062 0.777564 0.426547
O O13 0.010649 0.339818 0.819857
O O14 0.847983 0.275372 0.878709
O O15 0.750309 0.000000 0.928588
O O16 0.691914 0.500000 0.645900
O O17 0.955421 0.248112 0.726902
O O18 0.936463 0.000000 0.645500
O O19 0.048453 0.000000 0.178717
#
# Coordination Sequence:
#
# PCOD9192453 Si02
#       8
#     8   8   8   4   8   8   8   8
#     4  10  20  33  56  83 114 148 199 248 307 369
#     4  11  25  45  71  97 138 176 214 260 316 374
#     4   9  18  34  53  69 102 150 194 243 316 364
#     4  12  23  40  68 102 129 169 216 269 311 377
#     4  10  21  41  67  94 124 172 213 258 318 389
#     4   9  19  34  49  75 106 145 191 249 302 372
#     4   9  19  35  54  80 111 154 198 250 309 373
#     4   9  21  39  63  93 133 166 213 271 322 376
#
# _framework density 25.801438000000001
#
# number of rings (size 3 to 8) (size 9 to 14) (size 15 to 20)
#    0.000    2.267    0.667    2.200    4.667    3.200 
#    0.000    6.000    0.000    0.000    0.000    0.000 
#    0.000    0.000    0.000    0.000    0.000    0.000 
#
# Total GULP energy -167210.761066 kJ/mol
# GULP energy per Si atom -5573.692036 kJ/mol
# Density = 2.574271 g / cm^3
# Si number density = 25.801438 Si / 1000 Ang^3
#
#
#
# Elastic Constant Matrix: (Units=GPa)
#
#
# Indices 1 2 3 4 5 6 
#
# 1 57.4819 -16.1690 22.3004 0.0000 3.9061 -0.0012
# 2 -16.1690 111.3683 -23.4008 -0.0002 21.5301 -0.0040
# 3 22.3004 -23.4008 76.8713 0.0001 -10.7853 0.0001
# 4 0.0000 -0.0002 0.0001 -4.2785 0.0001 9.9273
# 5 3.9061 21.5301 -10.7853 0.0001 42.2390 -0.0003
# 6 -0.0012 -0.0040 0.0001 9.9273 -0.0003 23.8729
#
#
#
# Elastic Compliance Matrix: (Units=1/GPa)
#
#
# Indices 1 2 3 4 5 6 
#
# 1 0.020763 0.002709 -0.005872 0.000001 -0.004800 0.000001
# 2 0.002709 0.010762 0.001748 0.000002 -0.005290 0.000001
# 3 -0.005872 0.001748 0.015760 0.000000 0.003676 0.000000
# 4 0.000001 0.000002 0.000000 -0.118953 0.000000 0.049466
# 5 -0.004800 -0.005290 0.003676 0.000000 0.027754 -0.000001
# 6 0.000001 0.000001 0.000000 0.049466 -0.000001 0.021319
#
#
# Mechanical properties :
#
#
# Convention : Reuss Voigt Hill
#
# Bulk Modulus (GPa) = 22.49468 23.46474 22.97971
# Shear Modulus (GPa) = -1010.96558 29.89941 -490.53308
#
# Velocity S-wave (km/s) = -19.81605 3.40785 -13.80331
# Velocity P-wave (km/s) = 22.68988 4.95970 15.65618
#
# Compressibility (1/GPa) = 0.04445495
#
# Stress axis : x y z
#
# Youngs Moduli (GPa) = 48.16255 92.91541 63.45056
#
# Poissons Ratio (x) = -0.25167 0.37260
# Poissons Ratio (y) = -0.13045 -0.11093
# Poissons Ratio (z) = 0.28282 -0.16245
#
# Static dielectric constant tensor:
#      x y z
#    x 2.044000 0.000000 -0.080040 
#    y 0.000000 2.028020 0.000000 
#    z -0.080040 0.000000 2.140640 
# 
# From -- ./inp_files/342424.got.cif
#   From: 2010.05.17/outbox.cif.g08.bks.cpg/sg12_172_cif.got.tgz:342424.got - 2010.06.03 13:09:07.
