data_PCOD9192010
_publ_section_title
;
Structure prediction by ZEFSAII (Michael W. Deem and Ramdas Pophale) SiO2 
 PCOD9192010
Probable space group: C 2/M
;
_chemical_formula_sum "Si O2"
_cell_formula_units_Z 64
_cell_length_a 25.462721
_cell_length_b 8.489536
_cell_length_c 15.555183
_cell_angle_alpha 90.000000
_cell_angle_beta 109.136236
_cell_angle_gamma 90.000000
_cell_volume 3176.705915
_symmetry_space_group_name_H-M "C 2/M"
_symmetry_group_IT_number 12
_symmetry_cell_setting 'monoclinic'
loop_
_space_group_symop_operation_xyz
x,y,z
-x,y,-z
-x,-y,-z
x,-y,z
1/2+x,1/2+y,z
1/2-x,1/2+y,-z
1/2-x,1/2-y,-z
1/2+x,1/2-y,z
loop_
_atom_site_type_symbol
_atom_site_label
_atom_site_fract_x
_atom_site_fract_y
_atom_site_fract_z
Si Si1 0.311150 0.314232 0.509520
Si Si2 0.405778 0.189798 0.685784
Si Si3 0.974466 0.319853 0.248141
Si Si4 0.789487 0.312989 0.318896
Si Si5 0.327203 0.187695 0.790815
Si Si6 0.530220 0.322540 0.928012
Si Si7 0.151144 0.309844 0.825577
Si Si8 0.162911 0.177983 0.015926
O O1 0.311884 0.500000 0.523932
O O2 0.250000 0.250000 0.500000
O O3 0.358451 0.236049 0.593009
O O4 0.319040 0.273175 0.413496
O O5 0.466759 0.251870 0.690529
O O6 0.382607 0.238880 0.767973
O O7 0.410873 0.000000 0.690791
O O8 0.971107 0.500000 0.277050
O O9 0.982097 0.307349 0.149469
O O10 0.912433 0.250263 0.225311
O O11 0.796307 0.500000 0.333143
O O12 0.724749 0.268981 0.283412
O O13 0.813313 0.267470 0.238531
O O14 0.322390 0.000000 0.779121
O O15 0.323640 0.231028 0.889345
O O16 0.514132 0.500000 0.889456
O O17 0.595896 0.325697 0.978812
O O18 0.500000 0.289810 0.000000
O O19 0.148424 0.500000 0.831581
O O20 0.176102 0.247562 0.928844
O O21 0.185097 0.000000 0.034854
#
# Coordination Sequence:
#
# PCOD9192010 Si02
#       8
#     8   8   8   8   8   8   8   8
#     4  12  24  40  63  89 117 148 183 229 286 345
#     4  10  21  37  59  88 119 149 186 235 288 341
#     4   9  18  34  56  81 110 146 188 234 279 329
#     4  11  23  40  62  85 112 149 191 238 287 341
#     4  11  22  35  55  84 117 151 191 239 289 343
#     4   9  17  29  46  72 108 148 188 231 280 335
#     4   9  20  39  60  82 112 153 198 237 280 333
#     4  10  20  33  52  79 113 153 194 237 285 337
#
# _framework density 20.146654000000002
#
# number of rings (size 3 to 8) (size 9 to 14) (size 15 to 20)
#    0.000    1.875    1.250    3.000    0.000    3.250 
#    0.000    0.625    0.000    3.750    0.000    0.000 
#    0.000    0.000    0.000    0.000    0.000    0.000 
#
# Total GULP energy -178505.505173 kJ/mol
# GULP energy per Si atom -5578.297037 kJ/mol
# Density = 2.010080 g / cm^3
# Si number density = 20.146654 Si / 1000 Ang^3
#
#
#
# Elastic Constant Matrix: (Units=GPa)
#
#
# Indices 1 2 3 4 5 6 
#
# 1 49.2178 3.3615 5.9708 0.0000 3.2564 0.0000
# 2 3.3615 18.1444 -4.5279 0.0000 -4.7613 0.0000
# 3 5.9708 -4.5279 66.2696 0.0000 -1.6503 0.0000
# 4 0.0000 0.0000 0.0000 31.7460 0.0000 0.9733
# 5 3.2564 -4.7613 -1.6503 0.0000 34.2939 0.0000
# 6 0.0000 0.0000 0.0000 0.9733 0.0000 18.1070
#
#
#
# Elastic Compliance Matrix: (Units=1/GPa)
#
#
# Indices 1 2 3 4 5 6 
#
# 1 0.021148 -0.005248 -0.002335 0.000000 -0.002849 0.000000
# 2 -0.005248 0.059641 0.004772 0.000000 0.009008 0.000000
# 3 -0.002335 0.004772 0.015667 0.000000 0.001638 0.000000
# 4 0.000000 0.000000 0.000000 0.031552 0.000000 -0.001696
# 5 -0.002849 0.009008 0.001638 0.000000 0.030760 0.000000
# 6 0.000000 0.000000 0.000000 -0.001696 0.000000 0.055318
#
#
# Mechanical properties :
#
#
# Convention : Reuss Voigt Hill
#
# Bulk Modulus (GPa) = 11.00914 15.91561 13.46237
# Shear Modulus (GPa) = 20.00112 25.41788 22.70950
#
# Velocity S-wave (km/s) = 3.15425 3.55581 3.36104
# Velocity P-wave (km/s) = 4.32922 4.97749 4.66463
#
# Compressibility (1/GPa) = 0.09083363
#
# Stress axis : x y z
#
# Youngs Moduli (GPa) = 47.28564 16.76712 63.82801
#
# Poissons Ratio (x) = 0.08800 0.14904
# Poissons Ratio (y) = 0.24817 -0.30460
# Poissons Ratio (z) = 0.11041 -0.08002
#
# Static dielectric constant tensor:
#      x y z
#    x 1.757070 0.000000 0.015360 
#    y 0.000000 1.723130 0.000000 
#    z 0.015360 0.000000 1.709190 
# 
# From -- ./inp_files/244183.got.cif
#   From: 2010.05.17/outbox.cif.g08.bks.cpg/sg12_123_cif.got.tgz:244183.got - 2010.06.03 13:09:07.
