data_PCOD9192862
_publ_section_title
;
Structure prediction by ZEFSAII (Michael W. Deem and Ramdas Pophale) SiO2 
 PCOD9192862
Probable space group: C 2/M
;
_chemical_formula_sum "Si O2"
_cell_formula_units_Z 56
_cell_length_a 33.160679
_cell_length_b 8.985202
_cell_length_c 14.291214
_cell_angle_alpha 90.000000
_cell_angle_beta 46.478803
_cell_angle_gamma 90.000000
_cell_volume 3087.664198
_symmetry_space_group_name_H-M "C 2/M"
_symmetry_group_IT_number 12
_symmetry_cell_setting 'monoclinic'
loop_
_space_group_symop_operation_xyz
x,y,z
-x,y,-z
-x,-y,-z
x,-y,z
1/2+x,1/2+y,z
1/2-x,1/2+y,-z
1/2-x,1/2-y,-z
1/2+x,1/2-y,z
loop_
_atom_site_type_symbol
_atom_site_label
_atom_site_fract_x
_atom_site_fract_y
_atom_site_fract_z
Si Si1 0.976790 0.176587 0.744939
Si Si2 0.635133 0.678125 0.964980
Si Si3 0.589608 0.177796 0.536205
Si Si4 0.815478 0.677530 0.294491
Si Si5 0.197952 0.326445 0.033925
Si Si6 0.314805 0.322589 0.497338
Si Si7 0.417035 0.172849 0.671425
O O1 0.955183 0.228373 0.677431
O O2 0.033948 0.260870 0.673868
O O3 0.985657 0.000000 0.732093
O O4 0.926280 0.213241 0.896368
O O5 0.640617 0.500000 0.951776
O O6 0.647582 0.750992 0.845593
O O7 0.678752 0.743874 0.970400
O O8 0.643820 0.252096 0.493813
O O9 0.584059 0.215300 0.435063
O O10 0.593123 0.000000 0.538802
O O11 0.823209 0.500000 0.286619
O O12 0.750155 0.707013 0.376989
O O13 0.826716 0.750197 0.377243
O O14 0.209322 0.500000 0.996016
O O15 0.145086 0.318325 0.187751
O O16 0.250000 0.250000 0.000000
O O17 0.322320 0.500000 0.480730
O O18 0.435421 0.000000 0.650035
#
# Coordination Sequence:
#
# PCOD9192862 Si02
#       7
#     8   8   8   8   8   8   8
#     4  10  21  37  56  82 113 149 190 233 277 329
#     4  10  21  37  58  81 110 150 187 227 282 335
#     4  11  22  36  57  83 113 150 189 233 280 329
#     4  10  21  39  62  87 113 145 183 228 282 338
#     4  10  20  34  51  78 113 148 188 232 276 331
#     4  10  22  39  59  86 115 145 182 230 280 334
#     4   9  20  36  53  77 111 151 189 228 278 330
#
# _framework density 18.136686999999998
#
# number of rings (size 3 to 8) (size 9 to 14) (size 15 to 20)
#    0.000    2.000    0.000    3.000    2.000    6.857 
#    0.000    0.714    0.000    4.286    0.000    0.000 
#    0.000    0.000    0.000    0.000    0.000    0.000 
#
# Total GULP energy -156421.692325 kJ/mol
# GULP energy per Si atom -5586.489012 kJ/mol
# Density = 1.809541 g / cm^3
# Si number density = 18.136687 Si / 1000 Ang^3
#
#
#
# Elastic Constant Matrix: (Units=GPa)
#
#
# Indices 1 2 3 4 5 6 
#
# 1 42.1388 30.4904 22.3706 0.0000 -3.2567 0.0000
# 2 30.4904 70.2766 44.7238 0.0000 1.3263 0.0000
# 3 22.3706 44.7238 94.3323 0.0000 15.7623 0.0000
# 4 0.0000 0.0000 0.0000 27.2223 0.0000 4.0662
# 5 -3.2567 1.3263 15.7623 0.0000 11.9947 0.0000
# 6 0.0000 0.0000 0.0000 4.0662 0.0000 35.5591
#
#
#
# Elastic Compliance Matrix: (Units=1/GPa)
#
#
# Indices 1 2 3 4 5 6 
#
# 1 0.037857 -0.012854 -0.006200 0.000000 0.019847 0.000000
# 2 -0.012854 0.026568 -0.010858 0.000000 0.007842 0.000000
# 3 -0.006200 -0.010858 0.022167 0.000000 -0.029613 0.000000
# 4 0.000000 0.000000 0.000000 0.037373 0.000000 -0.004274
# 5 0.019847 0.007842 -0.029613 0.000000 0.126806 0.000000
# 6 0.000000 0.000000 0.000000 -0.004274 0.000000 0.028611
#
#
# Mechanical properties :
#
#
# Convention : Reuss Voigt Hill
#
# Bulk Modulus (GPa) = 37.35708 44.65748 41.00728
# Shear Modulus (GPa) = 14.36247 22.23276 18.29761
#
# Velocity S-wave (km/s) = 2.81713 3.50500 3.17972
# Velocity P-wave (km/s) = 5.58783 6.40752 6.01166
#
# Compressibility (1/GPa) = 0.02676869
#
# Stress axis : x y z
#
# Youngs Moduli (GPa) = 26.41525 37.63857 45.11146
#
# Poissons Ratio (x) = 0.48379 0.27969
# Poissons Ratio (y) = 0.33953 0.48984
# Poissons Ratio (z) = 0.16377 0.40870
#
# Static dielectric constant tensor:
#      x y z
#    x 1.592960 0.000000 -0.014740 
#    y 0.000000 1.603350 0.000000 
#    z -0.014740 0.000000 1.619490 
# 
# From -- ./inp_files/187243.got.cif
#   From: 2010.05.17/outbox.cif.g08.bks.cpg/sg12_94_cif.got.tgz:187243.got - 2010.06.03 13:09:07.
