data_PCOD9192682
_publ_section_title
;
Structure prediction by ZEFSAII (Michael W. Deem and Ramdas Pophale) SiO2 
 PCOD9192682
Probable space group: C 2/M
;
_chemical_formula_sum "Si O2"
_cell_formula_units_Z 56
_cell_length_a 23.855451
_cell_length_b 8.732663
_cell_length_c 15.284401
_cell_angle_alpha 90.000000
_cell_angle_beta 90.230836
_cell_angle_gamma 90.000000
_cell_volume 3184.045249
_symmetry_space_group_name_H-M "C 2/M"
_symmetry_group_IT_number 12
_symmetry_cell_setting 'monoclinic'
loop_
_space_group_symop_operation_xyz
x,y,z
-x,y,-z
-x,-y,-z
x,-y,z
1/2+x,1/2+y,z
1/2-x,1/2+y,-z
1/2-x,1/2-y,-z
1/2+x,1/2-y,z
loop_
_atom_site_type_symbol
_atom_site_label
_atom_site_fract_x
_atom_site_fract_y
_atom_site_fract_z
Si Si1 0.561047 0.683253 0.756729
Si Si2 0.631347 0.184865 0.017189
Si Si3 0.797325 0.181605 0.822006
Si Si4 0.887318 0.323764 0.706886
Si Si5 0.528544 0.175770 0.125041
Si Si6 0.325309 0.684093 0.165265
Si Si7 0.482608 0.314730 0.597380
O O1 0.560510 0.500000 0.754869
O O2 0.525026 0.734573 0.840747
O O3 0.625143 0.732005 0.768128
O O4 0.528950 0.736670 0.669300
O O5 0.672990 0.235732 0.095292
O O6 0.568047 0.230862 0.046125
O O7 0.632047 0.000000 0.010173
O O8 0.652778 0.262296 0.929399
O O9 0.833423 0.229682 0.737516
O O10 0.733860 0.238617 0.815822
O O11 0.799903 0.000000 0.835095
O O12 0.872648 0.500000 0.689806
O O13 0.928982 0.321579 0.791454
O O14 0.923502 0.252432 0.629081
O O15 0.512323 0.000000 0.108325
O O16 0.319259 0.500000 0.166342
O O17 0.500000 0.269165 0.500000
O O18 0.479431 0.500000 0.600552
#
# Coordination Sequence:
#
# PCOD9192682 Si02
#       7
#     8   8   8   8   8   8   8
#     4   9  19  33  49  71 100 132 163 198 246 299
#     4  10  20  34  50  71  97 129 171 213 251 287
#     4  11  21  34  52  72  96 130 171 211 248 286
#     4   9  17  31  51  76 103 130 161 199 245 293
#     4   8  16  30  48  68  94 127 161 201 244 289
#     4  11  22  34  47  67  98 135 171 207 247 290
#     4   9  17  32  56  83 106 128 158 198 244 296
#
# _framework density 17.587689999999998
#
# number of rings (size 3 to 8) (size 9 to 14) (size 15 to 20)
#    0.000    2.429    0.000    3.857    0.000    6.000 
#    0.000    2.857    0.000    0.857    0.000    0.000 
#    0.000    0.000    0.000    0.000    0.000    0.000 
#
# Total GULP energy -156206.365312 kJ/mol
# GULP energy per Si atom -5578.798761 kJ/mol
# Density = 1.754766 g / cm^3
# Si number density = 17.587690 Si / 1000 Ang^3
#
#
#
# Elastic Constant Matrix: (Units=GPa)
#
#
# Indices 1 2 3 4 5 6 
#
# 1 89.7118 8.6691 41.5467 0.0000 -3.4458 0.0000
# 2 8.6691 28.9798 11.4188 0.0000 -2.2777 0.0000
# 3 41.5467 11.4188 85.9413 0.0000 -19.7240 0.0000
# 4 0.0000 0.0000 0.0000 16.6700 0.0000 -7.6078
# 5 -3.4458 -2.2777 -19.7240 0.0000 20.5423 0.0000
# 6 0.0000 0.0000 0.0000 -7.6078 0.0000 27.5913
#
#
#
# Elastic Compliance Matrix: (Units=1/GPa)
#
#
# Indices 1 2 3 4 5 6 
#
# 1 0.014930 -0.001641 -0.008294 0.000000 -0.005641 0.000000
# 2 -0.001641 0.036603 -0.004107 0.000000 -0.000160 0.000000
# 3 -0.008294 -0.004107 0.020224 0.000000 0.017572 0.000000
# 4 0.000000 0.000000 0.000000 0.068624 0.000000 0.018922
# 5 -0.005641 -0.000160 0.017572 0.000000 0.064588 0.000000
# 6 0.000000 0.000000 0.000000 0.018922 0.000000 0.041461
#
#
# Mechanical properties :
#
#
# Convention : Reuss Voigt Hill
#
# Bulk Modulus (GPa) = 22.89754 36.43357 29.66555
# Shear Modulus (GPa) = 17.29676 22.49393 19.89534
#
# Velocity S-wave (km/s) = 3.13942 3.58013 3.36699
# Velocity P-wave (km/s) = 5.11748 6.15225 5.65857
#
# Compressibility (1/GPa) = 0.04367282
#
# Stress axis : x y z
#
# Youngs Moduli (GPa) = 66.97966 27.31988 49.44626
#
# Poissons Ratio (x) = 0.04484 0.41012
# Poissons Ratio (y) = 0.10994 0.20305
# Poissons Ratio (z) = 0.55555 0.11219
#
# Static dielectric constant tensor:
#      x y z
#    x 1.609510 0.000000 0.015520 
#    y 0.000000 1.593480 0.000000 
#    z 0.015520 0.000000 1.599520 
# 
# From -- ./inp_files/230955.got.cif
#   From: 2010.05.17/outbox.cif.g08.bks.cpg/sg12_116_cif.got.tgz:230955.got - 2010.06.03 13:09:07.
