data_PCOD9192358
_publ_section_title
;
Structure prediction by ZEFSAII (Michael W. Deem and Ramdas Pophale) SiO2 
 PCOD9192358
Probable space group: C 2/M
;
_chemical_formula_sum "Si O2"
_cell_formula_units_Z 44
_cell_length_a 9.500207
_cell_length_b 28.769216
_cell_length_c 12.644943
_cell_angle_alpha 90.000000
_cell_angle_beta 132.402210
_cell_angle_gamma 90.000000
_cell_volume 2552.036668
_symmetry_space_group_name_H-M "C 2/M"
_symmetry_group_IT_number 12
_symmetry_cell_setting 'monoclinic'
loop_
_space_group_symop_operation_xyz
x,y,z
-x,y,-z
-x,-y,-z
x,-y,z
1/2+x,1/2+y,z
1/2-x,1/2+y,-z
1/2-x,1/2-y,-z
1/2+x,1/2-y,z
loop_
_atom_site_type_symbol
_atom_site_label
_atom_site_fract_x
_atom_site_fract_y
_atom_site_fract_z
Si Si1 0.740026 0.447172 0.734751
Si Si2 0.859884 0.347484 0.837467
Si Si3 0.442717 0.187604 0.644647
Si Si4 0.017900 0.207790 0.382556
Si Si5 0.000000 0.621116 0.500000
Si Si6 0.209242 0.052905 0.465635
O O1 0.801524 0.500000 0.791699
O O2 0.849234 0.403251 0.835489
O O3 0.519016 0.442196 0.657558
O O4 0.748139 0.441996 0.611108
O O5 0.926718 0.332008 0.754394
O O6 0.646924 0.326414 0.739541
O O7 0.000000 0.330296 0.000000
O O8 0.232812 0.189024 0.482450
O O9 0.504328 0.241257 0.678277
O O10 0.562141 0.154390 0.628521
O O11 0.000000 0.214007 0.500000
O O12 0.832464 0.588611 0.460753
O O13 0.258644 0.000000 0.460710
#
# Coordination Sequence:
#
# PCOD9192358 Si02
#       6
#     8   8   8   8   4   8
#     4   9  18  35  53  76 107 143 181 217 267 328
#     4  11  22  35  54  79 109 144 182 222 265 319
#     4  10  20  33  55  80 104 141 179 223 270 315
#     4   9  19  36  55  76 105 138 185 224 264 317
#     4  12  17  28  54  86 110 128 173 234 272 318
#     4   9  18  30  52  82 109 135 173 231 279 311
#
# _framework density 17.241132
#
# number of rings (size 3 to 8) (size 9 to 14) (size 15 to 20)
#    0.000    2.182    2.727    2.455    5.091    1.091 
#    0.000    0.000    0.000    0.000    0.000    2.545 
#    0.000    0.000    0.000    0.000    0.000    0.000 
#
# Total GULP energy -122626.099495 kJ/mol
# GULP energy per Si atom -5573.913613 kJ/mol
# Density = 1.720189 g / cm^3
# Si number density = 17.241132 Si / 1000 Ang^3
#
#
#
# Elastic Constant Matrix: (Units=GPa)
#
#
# Indices 1 2 3 4 5 6 
#
# 1 74.6949 50.9248 10.8017 0.0000 -10.7292 0.0000
# 2 50.9248 130.5391 43.7397 0.0000 -7.4348 0.0000
# 3 10.8017 43.7397 66.4011 0.0000 -4.4089 0.0000
# 4 0.0000 0.0000 0.0000 11.6362 0.0000 2.3479
# 5 -10.7292 -7.4348 -4.4089 0.0000 6.8830 0.0000
# 6 0.0000 0.0000 0.0000 2.3479 0.0000 35.2552
#
#
#
# Elastic Compliance Matrix: (Units=1/GPa)
#
#
# Indices 1 2 3 4 5 6 
#
# 1 0.022779 -0.008530 0.003822 0.000000 0.028742 0.000000
# 2 -0.008530 0.013335 -0.007648 0.000000 -0.003792 0.000000
# 3 0.003822 -0.007648 0.020182 0.000000 0.010623 0.000000
# 4 0.000000 0.000000 0.000000 0.087110 0.000000 -0.005801
# 5 0.028742 -0.003792 0.010623 0.000000 0.192799 0.000000
# 6 0.000000 0.000000 0.000000 -0.005801 0.000000 0.028751
#
#
# Mechanical properties :
#
#
# Convention : Reuss Voigt Hill
#
# Bulk Modulus (GPa) = 31.66255 53.61860 42.64058
# Shear Modulus (GPa) = 12.49389 21.83280 17.16335
#
# Velocity S-wave (km/s) = 2.69486 3.56240 3.15856
# Velocity P-wave (km/s) = 5.29976 6.93453 6.17151
#
# Compressibility (1/GPa) = 0.03158305
#
# Stress axis : x y z
#
# Youngs Moduli (GPa) = 43.89972 74.99143 49.55008
#
# Poissons Ratio (x) = 0.63967 -0.18937
# Poissons Ratio (y) = 0.37446 0.37896
# Poissons Ratio (z) = -0.16777 0.57354
#
# Static dielectric constant tensor:
#      x y z
#    x 1.610340 0.000000 0.012610 
#    y 0.000000 1.624150 0.000000 
#    z 0.012610 0.000000 1.549510 
# 
# From -- ./inp_files/125423.got.cif
#   From: 2010.05.17/outbox.cif.g08.bks.cpg/sg12_63_cif.got.tgz:125423.got - 2010.06.03 13:09:07.
