data_PCOD9192783
_publ_section_title
;
Structure prediction by ZEFSAII (Michael W. Deem and Ramdas Pophale) SiO2 
 PCOD9192783
Probable space group: C 2/M
;
_chemical_formula_sum "Si O2"
_cell_formula_units_Z 48
_cell_length_a 20.634146
_cell_length_b 8.460267
_cell_length_c 21.902647
_cell_angle_alpha 90.000000
_cell_angle_beta 134.802568
_cell_angle_gamma 90.000000
_cell_volume 2712.960922
_symmetry_space_group_name_H-M "C 2/M"
_symmetry_group_IT_number 12
_symmetry_cell_setting 'monoclinic'
loop_
_space_group_symop_operation_xyz
x,y,z
-x,y,-z
-x,-y,-z
x,-y,z
1/2+x,1/2+y,z
1/2-x,1/2+y,-z
1/2-x,1/2-y,-z
1/2+x,1/2-y,z
loop_
_atom_site_type_symbol
_atom_site_label
_atom_site_fract_x
_atom_site_fract_y
_atom_site_fract_z
Si Si1 0.002002 0.191204 0.931472
Si Si2 0.502028 0.808968 0.600680
Si Si3 0.853095 0.692693 0.404311
Si Si4 0.493111 0.689121 0.258824
Si Si5 0.852800 0.312299 0.067716
Si Si6 0.854817 0.807530 0.735356
O O1 0.089586 0.247842 0.951619
O O2 0.912816 0.241039 0.833432
O O3 0.003493 0.000000 0.932558
O O4 0.000000 0.246017 0.000000
O O5 0.588797 0.760714 0.616793
O O6 0.412196 0.759869 0.502690
O O7 0.505160 0.742574 0.670430
O O8 0.502101 0.000000 0.603782
O O9 0.851741 0.500000 0.403580
O O10 0.749109 0.749403 0.335020
O O11 0.488280 0.500000 0.252213
O O12 0.408067 0.757134 0.164391
O O13 0.584424 0.740028 0.282664
O O14 0.852157 0.500000 0.065057
O O15 0.750000 0.250000 0.000000
O O16 0.851874 0.000000 0.733766
#
# Coordination Sequence:
#
# PCOD9192783 Si02
#       6
#     8   8   8   8   8   8
#     4   9  18  33  53  78 107 139 175 214 259 310
#     4   9  17  30  50  74  99 130 171 215 254 298
#     4   8  15  29  48  71  99 133 173 212 251 300
#     4  10  20  34  51  73 101 132 167 208 258 312
#     4  11  22  37  56  77 104 136 172 214 259 309
#     4   8  15  29  48  69  97 133 170 206 245 295
#
# _framework density 17.692845999999999
#
# number of rings (size 3 to 8) (size 9 to 14) (size 15 to 20)
#    0.000    2.833    0.000    4.000    0.000    2.333 
#    0.000    5.000    0.000    9.000    0.000    0.000 
#    0.000    0.000    0.000    0.000    0.000    0.000 
#
# Total GULP energy -133817.832267 kJ/mol
# GULP energy per Si atom -5575.743011 kJ/mol
# Density = 1.765258 g / cm^3
# Si number density = 17.692846 Si / 1000 Ang^3
#
#
#
# Elastic Constant Matrix: (Units=GPa)
#
#
# Indices 1 2 3 4 5 6 
#
# 1 145.4186 22.6150 140.9151 0.0000 2.7324 0.0000
# 2 22.6150 23.7709 26.5728 0.0000 -0.8660 0.0000
# 3 140.9151 26.5728 161.0946 0.0000 2.4936 0.0000
# 4 0.0000 0.0000 0.0000 18.4704 0.0000 -7.0335
# 5 2.7324 -0.8660 2.4936 0.0000 45.0253 0.0000
# 6 0.0000 0.0000 0.0000 -7.0335 0.0000 25.1271
#
#
#
# Elastic Compliance Matrix: (Units=1/GPa)
#
#
# Indices 1 2 3 4 5 6 
#
# 1 0.045190 0.001433 -0.039757 0.000000 -0.000513 0.000000
# 2 0.001433 0.051721 -0.009807 0.000000 0.001451 0.000000
# 3 -0.039757 -0.009807 0.042604 0.000000 -0.000135 0.000000
# 4 0.000000 0.000000 0.000000 0.060600 0.000000 0.016963
# 5 -0.000513 0.001451 -0.000135 0.000000 0.022276 0.000000
# 6 0.000000 0.000000 0.000000 0.016963 0.000000 0.044546
#
#
# Mechanical properties :
#
#
# Convention : Reuss Voigt Hill
#
# Bulk Modulus (GPa) = 23.12046 78.94330 51.03188
# Shear Modulus (GPa) = 13.24088 27.06997 20.15543
#
# Velocity S-wave (km/s) = 2.73861 3.91576 3.37884
# Velocity P-wave (km/s) = 4.80583 8.07217 6.64289
#
# Compressibility (1/GPa) = 0.04325174
#
# Stress axis : x y z
#
# Youngs Moduli (GPa) = 22.12900 19.33440 23.47175
#
# Poissons Ratio (x) = -0.02770 0.93317
# Poissons Ratio (y) = -0.03170 0.23019
# Poissons Ratio (z) = 0.87979 0.18962
#
# Static dielectric constant tensor:
#      x y z
#    x 1.588290 0.000000 0.007040 
#    y 0.000000 1.605730 0.000000 
#    z 0.007040 0.000000 1.589560 
# 
# From -- ./inp_files/229887.got.cif
#   From: 2010.05.17/outbox.cif.g08.bks.cpg/sg12_115_cif.got.tgz:229887.got - 2010.06.03 13:09:07.
