data_PCOD9192167
_publ_section_title
;
Structure prediction by ZEFSAII (Michael W. Deem and Ramdas Pophale) SiO2 
 PCOD9192167
Probable space group: C 2/M
;
_chemical_formula_sum "Si O2"
_cell_formula_units_Z 34
_cell_length_a 13.641716
_cell_length_b 26.256519
_cell_length_c 14.343219
_cell_angle_alpha 90.000000
_cell_angle_beta 160.781674
_cell_angle_gamma 90.000000
_cell_volume 1691.107820
_symmetry_space_group_name_H-M "C 2/M"
_symmetry_group_IT_number 12
_symmetry_cell_setting 'monoclinic'
loop_
_space_group_symop_operation_xyz
x,y,z
-x,y,-z
-x,-y,-z
x,-y,z
1/2+x,1/2+y,z
1/2-x,1/2+y,-z
1/2-x,1/2-y,-z
1/2+x,1/2-y,z
loop_
_atom_site_type_symbol
_atom_site_label
_atom_site_fract_x
_atom_site_fract_y
_atom_site_fract_z
Si Si1 0.637688 0.739785 0.522668
Si Si2 0.227766 0.402315 0.320581
Si Si3 0.000000 0.500000 0.000000
Si Si4 0.639475 0.691129 0.024354
Si Si5 0.594279 0.641809 0.793007
O O1 0.500000 0.730120 0.500000
O O2 0.974483 0.757140 0.840772
O O3 0.553624 0.692455 0.383703
O O4 0.475273 0.790911 0.340694
O O5 0.500000 0.383172 0.500000
O O6 0.384983 0.402834 0.563300
O O7 0.127031 0.455253 0.185258
O O8 0.931670 0.367903 0.060471
O O9 0.607755 0.649392 0.915874
O O10 0.500000 0.677981 0.000000
#
# Coordination Sequence:
#
# PCOD9192167 Si02
#       5
#     8   8   2   8   8
#     4  10  20  33  53  81 125 168 202 249 290 338
#     4  12  25  40  63  88 121 152 186 249 316 390
#     4  12  26  48  62  88 132 146 182 256 350 376
#     4  10  21  37  55  83 126 170 205 247 290 324
#     4  12  22  36  60  91 117 161 213 243 289 367
#
# _framework density 20.105163000000001
#
# number of rings (size 3 to 8) (size 9 to 14) (size 15 to 20)
#    0.000    0.941    2.353    5.294    0.000    3.765 
#    0.000    0.000    0.000    0.000    0.000    4.941 
#    0.000    0.000    0.000    0.000    0.000    0.000 
#
# Total GULP energy -94720.761412 kJ/mol
# GULP energy per Si atom -5571.809495 kJ/mol
# Density = 2.005940 g / cm^3
# Si number density = 20.105163 Si / 1000 Ang^3
#
#
#
# Elastic Constant Matrix: (Units=GPa)
#
#
# Indices 1 2 3 4 5 6 
#
# 1 133.1593 57.4109 54.4666 0.0004 -18.0157 -0.0008
# 2 57.4109 76.8923 35.6740 0.0011 -16.1732 0.0014
# 3 54.4666 35.6740 112.3421 0.0016 -9.3820 0.0087
# 4 0.0004 0.0011 0.0016 29.2624 -0.0005 -24.4435
# 5 -18.0157 -16.1732 -9.3820 -0.0005 45.4648 -0.0014
# 6 -0.0008 0.0014 0.0087 -24.4435 -0.0014 13.5533
#
#
#
# Elastic Compliance Matrix: (Units=1/GPa)
#
#
# Indices 1 2 3 4 5 6 
#
# 1 0.012268 -0.007189 -0.003533 -0.000007 0.001575 -0.000009
# 2 -0.007189 0.020429 -0.002679 0.000002 0.003866 0.000003
# 3 -0.003533 -0.002679 0.011466 0.000013 0.000013 0.000016
# 4 -0.000007 0.000002 0.000013 -0.067469 -0.000004 -0.121681
# 5 0.001575 0.003866 0.000013 -0.000004 0.023997 -0.000005
# 6 -0.000009 0.000003 0.000016 -0.121681 -0.000005 -0.145669
#
#
# Mechanical properties :
#
#
# Convention : Reuss Voigt Hill
#
# Bulk Modulus (GPa) = 57.60307 68.61074 63.10690
# Shear Modulus (GPa) = -44.48801 29.31227 -7.58787
#
# Velocity S-wave (km/s) = -4.70911 3.82245 -1.94481
# Velocity P-wave (km/s) = 0.92440 7.32677 5.13941
#
# Compressibility (1/GPa) = 0.01736019
#
# Stress axis : x y z
#
# Youngs Moduli (GPa) = 81.51570 48.95072 87.21300
#
# Poissons Ratio (x) = 0.35191 0.30815
# Poissons Ratio (y) = 0.58602 0.23363
# Poissons Ratio (z) = 0.28802 0.13113
#
# Static dielectric constant tensor:
#      x y z
#    x 1.768330 0.000000 -0.024330 
#    y 0.000000 1.689930 0.000000 
#    z -0.024330 0.000000 1.762160 
# 
# From -- ./inp_files/218608.got.cif
#   From: 2010.05.17/outbox.cif.g08.bks.cpg/sg12_110_cif.got.tgz:218608.got - 2010.06.03 13:09:07.
