data_PCOD9192510
_publ_section_title
;
Structure prediction by ZEFSAII (Michael W. Deem and Ramdas Pophale) SiO2 
 PCOD9192510
Probable space group: C 2/M
;
_chemical_formula_sum "Si O2"
_cell_formula_units_Z 48
_cell_length_a 16.337903
_cell_length_b 27.901888
_cell_length_c 12.527842
_cell_angle_alpha 90.000000
_cell_angle_beta 155.380084
_cell_angle_gamma 90.000000
_cell_volume 2379.151619
_symmetry_space_group_name_H-M "C 2/M"
_symmetry_group_IT_number 12
_symmetry_cell_setting 'monoclinic'
loop_
_space_group_symop_operation_xyz
x,y,z
-x,y,-z
-x,-y,-z
x,-y,z
1/2+x,1/2+y,z
1/2-x,1/2+y,-z
1/2-x,1/2-y,-z
1/2+x,1/2-y,z
loop_
_atom_site_type_symbol
_atom_site_label
_atom_site_fract_x
_atom_site_fract_y
_atom_site_fract_z
Si Si1 0.230475 0.316305 0.649138
Si Si2 0.721552 0.919971 0.723355
Si Si3 0.111627 0.052817 0.304502
Si Si4 0.108615 0.154536 0.386647
Si Si5 0.726290 0.711988 0.728048
Si Si6 0.192123 0.305460 0.948946
O O1 0.267504 0.363416 0.762623
O O2 0.338660 0.321431 0.664016
O O3 0.279501 0.266592 0.764011
O O4 0.999424 0.316330 0.346226
O O5 0.500000 0.926967 0.500000
O O6 0.759196 0.941450 0.650201
O O7 0.886703 0.941372 0.996696
O O8 0.153988 0.098358 0.428696
O O9 0.140672 0.000000 0.384860
O O10 0.223594 0.180654 0.618333
O O11 0.878594 0.162860 0.138481
O O12 0.500000 0.712892 0.500000
O O13 0.845402 0.690920 0.968732
O O14 0.250000 0.250000 0.000000
#
# Coordination Sequence:
#
# PCOD9192510 Si02
#       6
#     8   8   8   8   8   8
#     4  11  21  35  53  83 114 150 184 219 277 342
#     4  10  20  33  57  84 116 146 185 230 287 343
#     4  10  22  38  56  83 113 147 192 241 285 327
#     4  10  22  38  53  82 111 147 188 231 273 336
#     4  10  20  34  53  78 111 149 184 221 268 330
#     4  11  22  36  55  78 115 151 182 229 273 330
#
# _framework density 20.175259
#
# number of rings (size 3 to 8) (size 9 to 14) (size 15 to 20)
#    0.000    1.667    3.333    3.000    2.333    2.000 
#    0.000    0.000    0.000    4.500    0.000    4.667 
#    0.000    0.000    0.000    0.000    0.000    0.000 
#
# Total GULP energy -134314.056945 kJ/mol
# GULP energy per Si atom -5596.419039 kJ/mol
# Density = 2.012934 g / cm^3
# Si number density = 20.175259 Si / 1000 Ang^3
#
#
#
# Elastic Constant Matrix: (Units=GPa)
#
#
# Indices 1 2 3 4 5 6 
#
# 1 99.0286 28.3596 19.6519 0.0000 17.7491 0.0000
# 2 28.3596 121.5483 -15.8702 0.0000 -0.9408 0.0000
# 3 19.6519 -15.8702 37.2138 0.0000 16.9578 0.0002
# 4 0.0000 0.0000 0.0000 15.4425 0.0000 6.7333
# 5 17.7491 -0.9408 16.9578 0.0000 32.7136 0.0001
# 6 0.0000 0.0000 0.0002 6.7333 0.0001 4.4540
#
#
#
# Elastic Compliance Matrix: (Units=1/GPa)
#
#
# Indices 1 2 3 4 5 6 
#
# 1 0.013329 -0.004065 -0.007101 0.000000 -0.003668 0.000001
# 2 -0.004065 0.010074 0.006947 0.000000 -0.001106 -0.000001
# 3 -0.007101 0.006947 0.041553 0.000002 -0.017487 -0.000004
# 4 0.000000 0.000000 0.000002 0.189995 0.000000 -0.287226
# 5 -0.003668 -0.001106 -0.017487 0.000000 0.041591 0.000000
# 6 0.000001 -0.000001 -0.000004 -0.287226 0.000000 0.658736
#
#
# Mechanical properties :
#
#
# Convention : Reuss Voigt Hill
#
# Bulk Modulus (GPa) = 17.69388 35.78593 26.73990
# Shear Modulus (GPa) = 5.08876 25.56531 15.32704
#
# Velocity S-wave (km/s) = 1.58989 3.56358 2.75925
# Velocity P-wave (km/s) = 3.48704 5.89137 4.84085
#
# Compressibility (1/GPa) = 0.05651673
#
# Stress axis : x y z
#
# Youngs Moduli (GPa) = 75.02482 99.26322 24.06559
#
# Poissons Ratio (x) = 0.40355 0.17090
# Poissons Ratio (y) = 0.30501 -0.16718
# Poissons Ratio (z) = 0.53277 -0.68958
#
# Static dielectric constant tensor:
#      x y z
#    x 1.748470 0.000000 0.008020 
#    y 0.000000 1.702440 0.000000 
#    z 0.008020 0.000000 1.736940 
# 
# From -- ./inp_files/149605.got.cif
#   From: 2010.05.17/outbox.cif.g08.bks.cpg/sg12_75_cif.got.tgz:149605.got - 2010.06.03 13:09:07.
