data_PCOD9192351
_publ_section_title
;
Structure prediction by ZEFSAII (Michael W. Deem and Ramdas Pophale) SiO2 
 PCOD9192351
Probable space group: C 2/M
;
_chemical_formula_sum "Si O2"
_cell_formula_units_Z 58
_cell_length_a 20.107211
_cell_length_b 8.793696
_cell_length_c 18.475343
_cell_angle_alpha 90.000000
_cell_angle_beta 79.899620
_cell_angle_gamma 90.000000
_cell_volume 3216.121174
_symmetry_space_group_name_H-M "C 2/M"
_symmetry_group_IT_number 12
_symmetry_cell_setting 'monoclinic'
loop_
_space_group_symop_operation_xyz
x,y,z
-x,y,-z
-x,-y,-z
x,-y,z
1/2+x,1/2+y,z
1/2-x,1/2+y,-z
1/2-x,1/2-y,-z
1/2+x,1/2-y,z
loop_
_atom_site_type_symbol
_atom_site_label
_atom_site_fract_x
_atom_site_fract_y
_atom_site_fract_z
Si Si1 0.188670 0.183446 0.293315
Si Si2 0.454813 0.315034 0.735103
Si Si3 0.771885 0.681784 0.419609
Si Si4 0.106256 0.183749 0.690196
Si Si5 0.500000 0.500000 0.000000
Si Si6 0.074349 0.171420 0.096671
Si Si7 0.689171 0.682033 0.817565
Si Si8 0.316407 0.179393 0.023752
O O1 0.111213 0.231628 0.297010
O O2 0.218609 0.222654 0.366173
O O3 0.238498 0.257134 0.224697
O O4 0.192276 0.000000 0.284317
O O5 0.456991 0.500000 0.733714
O O6 0.528958 0.264138 0.696879
O O7 0.442163 0.271591 0.820923
O O8 0.774733 0.500000 0.423754
O O9 0.750000 0.750000 0.500000
O O10 0.843268 0.745556 0.377817
O O11 0.135863 0.223009 0.764277
O O12 0.108899 0.000000 0.683913
O O13 0.490902 0.630539 0.938567
O O14 0.107427 0.000000 0.096502
O O15 0.122747 0.275746 0.040883
O O16 0.690788 0.500000 0.823075
O O17 0.673106 0.749740 0.898840
O O18 0.309025 0.000000 0.031514
O O19 0.250000 0.250000 0.000000
#
# Coordination Sequence:
#
# PCOD9192351 Si02
#       8
#     8   8   8   8   2   8   8   8
#     4   9  18  34  55  81 108 140 180 223 267 317
#     4   9  17  32  56  79 104 139 178 220 265 318
#     4  10  20  36  58  82 111 140 174 216 262 316
#     4   9  19  34  58  85 107 136 175 212 259 320
#     4   8  20  32  58  76 108 148 192 218 276 334
#     4   9  19  33  55  76 106 145 185 224 273 333
#     4  10  20  33  55  78 105 139 180 226 274 331
#     4  12  24  36  51  75 104 142 189 241 289 330
#
# _framework density 18.034146
#
# number of rings (size 3 to 8) (size 9 to 14) (size 15 to 20)
#    0.414    1.931    0.000    2.897    1.931    2.207 
#    0.000    2.414    0.000    4.138    0.000    0.000 
#    0.000    0.000    0.000    0.000    0.000    0.000 
#
# Total GULP energy -161435.003210 kJ/mol
# GULP energy per Si atom -5566.724249 kJ/mol
# Density = 1.799310 g / cm^3
# Si number density = 18.034146 Si / 1000 Ang^3
#
#
#
# Elastic Constant Matrix: (Units=GPa)
#
#
# Indices 1 2 3 4 5 6 
#
# 1 124.5730 26.3544 64.2785 0.0000 -15.0689 0.0000
# 2 26.3544 41.0388 32.4125 0.0000 -5.1208 0.0000
# 3 64.2785 32.4125 129.5317 0.0000 -12.3902 0.0000
# 4 0.0000 0.0000 0.0000 27.2424 0.0000 -2.4346
# 5 -15.0689 -5.1208 -12.3902 0.0000 15.0183 0.0000
# 6 0.0000 0.0000 0.0000 -2.4346 0.0000 18.3314
#
#
#
# Elastic Compliance Matrix: (Units=1/GPa)
#
#
# Indices 1 2 3 4 5 6 
#
# 1 0.011840 -0.003254 -0.004376 0.000000 0.007160 0.000000
# 2 -0.003254 0.031538 -0.006037 0.000000 0.002508 0.000000
# 3 -0.004376 -0.006037 0.011710 0.000000 0.003211 0.000000
# 4 0.000000 0.000000 0.000000 0.037148 0.000000 0.004934
# 5 0.007160 0.002508 0.003211 0.000000 0.077274 0.000000
# 6 0.000000 0.000000 0.000000 0.004934 0.000000 0.055207
#
#
# Mechanical properties :
#
#
# Convention : Reuss Voigt Hill
#
# Bulk Modulus (GPa) = 36.03201 60.13713 48.08457
# Shear Modulus (GPa) = 19.13498 23.59162 21.36330
#
# Velocity S-wave (km/s) = 3.26090 3.62078 3.44554
# Velocity P-wave (km/s) = 5.84818 7.13433 6.52303
#
# Compressibility (1/GPa) = 0.02775310
#
# Stress axis : x y z
#
# Youngs Moduli (GPa) = 84.45908 31.70806 85.39936
#
# Poissons Ratio (x) = 0.10316 0.37375
# Poissons Ratio (y) = 0.27479 0.51557
# Poissons Ratio (z) = 0.36963 0.19143
#
# Static dielectric constant tensor:
#      x y z
#    x 1.646990 0.000000 0.011050 
#    y 0.000000 1.613370 0.000000 
#    z 0.011050 0.000000 1.582420 
# 
# From -- ./inp_files/281099.got.cif
#   From: 2010.05.17/outbox.cif.g08.bks.cpg/sg12_141_cif.got.tgz:281099.got - 2010.06.03 13:09:07.
