data_PCOD9192563
_publ_section_title
;
Structure prediction by ZEFSAII (Michael W. Deem and Ramdas Pophale) SiO2 
 PCOD9192563
Probable space group: C 2/M
;
_chemical_formula_sum "Si O2"
_cell_formula_units_Z 48
_cell_length_a 12.561890
_cell_length_b 19.476487
_cell_length_c 13.143500
_cell_angle_alpha 90.000000
_cell_angle_beta 123.881331
_cell_angle_gamma 90.000000
_cell_volume 2669.661619
_symmetry_space_group_name_H-M "C 2/M"
_symmetry_group_IT_number 12
_symmetry_cell_setting 'monoclinic'
loop_
_space_group_symop_operation_xyz
x,y,z
-x,y,-z
-x,-y,-z
x,-y,z
1/2+x,1/2+y,z
1/2-x,1/2+y,-z
1/2-x,1/2-y,-z
1/2+x,1/2-y,z
loop_
_atom_site_type_symbol
_atom_site_label
_atom_site_fract_x
_atom_site_fract_y
_atom_site_fract_z
Si Si1 0.381840 0.420226 0.002288
Si Si2 0.631690 0.797270 0.314632
Si Si3 0.093963 0.822585 0.458448
Si Si4 0.783200 0.701008 0.858760
Si Si5 0.864880 0.325303 0.122648
Si Si6 0.094812 0.078557 0.745334
O O1 0.361487 0.500000 0.962680
O O2 0.250744 0.378194 0.920533
O O3 0.500000 0.391745 0.000000
O O4 0.422141 0.418543 0.141835
O O5 0.762441 0.831872 0.423248
O O6 0.603221 0.734829 0.375980
O O7 0.655331 0.771189 0.211821
O O8 0.504384 0.843543 0.239246
O O9 0.000000 0.798955 0.500000
O O10 0.027004 0.889835 0.376846
O O11 0.679191 0.754571 0.847227
O O12 0.713016 0.630250 0.790679
O O13 0.870531 0.686619 0.003803
O O14 0.119793 0.000000 0.729440
#
# Coordination Sequence:
#
# PCOD9192563 Si02
#       6
#     8   8   8   8   8   8
#     4   9  20  37  59  86 116 151 185 231 292 345
#     4  11  21  36  56  79 119 145 185 244 286 337
#     4  11  22  38  54  80 112 155 197 237 284 334
#     4  10  20  35  55  87 115 143 193 227 297 342
#     4  10  20  33  58  87 114 146 181 244 286 344
#     4  10  20  38  58  82 115 149 196 237 273 340
#
# _framework density 17.979804999999999
#
# number of rings (size 3 to 8) (size 9 to 14) (size 15 to 20)
#    0.000    1.833    3.333    0.500    2.333    0.333 
#    0.000    1.667    0.000    4.000    0.000    3.500 
#    0.000    0.000    0.000    0.000    0.000    0.000 
#
# Total GULP energy -133809.816611 kJ/mol
# GULP energy per Si atom -5575.409025 kJ/mol
# Density = 1.793888 g / cm^3
# Si number density = 17.979805 Si / 1000 Ang^3
#
#
#
# Elastic Constant Matrix: (Units=GPa)
#
#
# Indices 1 2 3 4 5 6 
#
# 1 108.3915 37.2305 70.4716 0.0000 4.6374 0.0000
# 2 37.2305 78.7860 46.9873 0.0000 -0.5536 0.0000
# 3 70.4716 46.9873 114.0614 0.0000 23.7401 0.0000
# 4 0.0000 0.0000 0.0000 24.8917 0.0000 1.5399
# 5 4.6374 -0.5536 23.7401 0.0000 42.1654 0.0000
# 6 0.0000 0.0000 0.0000 1.5399 0.0000 17.6745
#
#
#
# Elastic Compliance Matrix: (Units=1/GPa)
#
#
# Indices 1 2 3 4 5 6 
#
# 1 0.016226 -0.001554 -0.010205 0.000000 0.003941 0.000000
# 2 -0.001554 0.017829 -0.007328 0.000000 0.004531 0.000000
# 3 -0.010205 -0.007328 0.020250 0.000000 -0.010375 0.000000
# 4 0.000000 0.000000 0.000000 0.040392 0.000000 -0.003519
# 5 0.003941 0.004531 -0.010375 0.000000 0.029184 0.000000
# 6 0.000000 0.000000 0.000000 -0.003519 0.000000 0.056885
#
#
# Mechanical properties :
#
#
# Convention : Reuss Voigt Hill
#
# Bulk Modulus (GPa) = 61.98769 67.84641 64.91705
# Shear Modulus (GPa) = 22.28999 26.71627 24.50313
#
# Velocity S-wave (km/s) = 3.52479 3.85892 3.69564
# Velocity P-wave (km/s) = 7.14959 7.59419 7.37524
#
# Compressibility (1/GPa) = 0.01613224
#
# Stress axis : x y z
#
# Youngs Moduli (GPa) = 61.63016 56.08937 49.38173
#
# Poissons Ratio (x) = 0.08714 0.50395
# Poissons Ratio (y) = 0.09575 0.36185
# Poissons Ratio (z) = 0.62895 0.41100
#
# Static dielectric constant tensor:
#      x y z
#    x 1.635190 0.000000 0.001590 
#    y 0.000000 1.602950 0.000000 
#    z 0.001590 0.000000 1.639750 
# 
# From -- ./inp_files/132976.got.cif
#   From: 2010.05.17/outbox.cif.g08.bks.cpg/sg12_67_cif.got.tgz:132976.got - 2010.06.03 13:09:07.
