data_PCOD9192033
_publ_section_title
;
Structure prediction by ZEFSAII (Michael W. Deem and Ramdas Pophale) SiO2 
 PCOD9192033
Probable space group: C 2/M
;
_chemical_formula_sum "Si O2"
_cell_formula_units_Z 40
_cell_length_a 23.499611
_cell_length_b 10.918514
_cell_length_c 19.494002
_cell_angle_alpha 90.000000
_cell_angle_beta 155.179003
_cell_angle_gamma 90.000000
_cell_volume 2099.673882
_symmetry_space_group_name_H-M "C 2/M"
_symmetry_group_IT_number 12
_symmetry_cell_setting 'monoclinic'
loop_
_space_group_symop_operation_xyz
x,y,z
-x,y,-z
-x,-y,-z
x,-y,z
1/2+x,1/2+y,z
1/2-x,1/2+y,-z
1/2-x,1/2-y,-z
1/2+x,1/2-y,z
loop_
_atom_site_type_symbol
_atom_site_label
_atom_site_fract_x
_atom_site_fract_y
_atom_site_fract_z
Si Si1 0.145667 0.362067 0.873776
Si Si2 0.810381 0.355383 0.862760
Si Si3 0.048658 0.710629 0.625645
Si Si4 0.287317 0.354858 0.392220
Si Si5 0.447731 0.852467 0.777063
O O1 0.193182 0.500000 0.947195
O O2 0.107014 0.367166 0.751813
O O3 0.012477 0.332047 0.773588
O O4 0.250000 0.250000 0.000000
O O5 0.806603 0.500000 0.870823
O O6 0.670984 0.299761 0.737887
O O7 0.810952 0.338942 0.781604
O O8 0.938062 0.305671 0.044587
O O9 0.000000 0.652998 0.500000
O O10 0.923119 0.784350 0.521140
O O11 0.318057 0.500000 0.432087
O O12 0.200708 0.308755 0.362492
O O13 0.438775 0.000000 0.775666
#
# Coordination Sequence:
#
# PCOD9192033 Si02
#       5
#     8   8   8   8   8
#     4  11  23  39  60  83 111 148 191 234 277 327
#     4   9  15  27  49  78 112 147 183 226 273 325
#     4  10  20  33  52  81 111 148 184 225 271 335
#     4   9  17  28  48  81 116 146 179 226 281 328
#     4   9  17  30  50  77 109 144 186 231 275 324
#
# _framework density 19.050577000000001
#
# number of rings (size 3 to 8) (size 9 to 14) (size 15 to 20)
#    0.000    2.400    2.000    1.200    0.000    6.800 
#    0.000    0.000    0.000    1.200    0.000    2.800 
#    0.000    0.000    0.000    0.000    0.000    0.000 
#
# Total GULP energy -111353.890684 kJ/mol
# GULP energy per Si atom -5567.694534 kJ/mol
# Density = 1.900722 g / cm^3
# Si number density = 19.050577 Si / 1000 Ang^3
#
#
#
# Elastic Constant Matrix: (Units=GPa)
#
#
# Indices 1 2 3 4 5 6 
#
# 1 124.4942 43.9598 36.9454 0.0003 17.6469 -0.0002
# 2 43.9598 50.6884 22.8096 0.0000 1.1933 0.0000
# 3 36.9454 22.8096 57.1562 0.0002 4.9855 -0.0002
# 4 0.0003 0.0000 0.0002 438.4993 0.0003 -272.9631
# 5 17.6469 1.1933 4.9855 0.0003 37.4170 -0.0002
# 6 -0.0002 0.0000 -0.0002 -272.9631 -0.0002 194.1466
#
#
#
# Elastic Compliance Matrix: (Units=1/GPa)
#
#
# Indices 1 2 3 4 5 6 
#
# 1 0.013511 -0.009597 -0.004426 0.000000 -0.005476 0.000000
# 2 -0.009597 0.030873 -0.006502 0.000000 0.004408 0.000000
# 3 -0.004426 -0.006502 0.023019 0.000000 -0.000772 0.000000
# 4 0.000000 0.000000 0.000000 0.018274 0.000000 0.025692
# 5 -0.005476 0.004408 -0.000772 0.000000 0.029271 0.000000
# 6 0.000000 0.000000 0.000000 0.025692 0.000000 0.041273
#
#
# Mechanical properties :
#
#
# Convention : Reuss Voigt Hill
#
# Bulk Modulus (GPa) = 37.94495 48.86316 43.40406
# Shear Modulus (GPa) = 24.26531 142.58750 83.42640
#
# Velocity S-wave (km/s) = 3.57281 8.66079 6.62474
# Velocity P-wave (km/s) = 6.08122 11.21237 9.01938
#
# Compressibility (1/GPa) = 0.02635397
#
# Stress axis : x y z
#
# Youngs Moduli (GPa) = 74.01413 32.39028 43.44263
#
# Poissons Ratio (x) = 0.31085 0.19227
# Poissons Ratio (y) = 0.71031 0.28246
# Poissons Ratio (z) = 0.32757 0.21060
#
# Static dielectric constant tensor:
#      x y z
#    x 1.698500 0.000000 -0.031330 
#    y 0.000000 1.638930 0.000000 
#    z -0.031330 0.000000 1.692230 
# 
# From -- ./inp_files/83371.got.cif
#   From: 2010.05.17/outbox.cif.g08.bks.cpg/sg12_42_cif.got.tgz:83371.got - 2010.06.03 13:09:07.
