data_PCOD9192452
_publ_section_title
;
Structure prediction by ZEFSAII (Michael W. Deem and Ramdas Pophale) SiO2 
 PCOD9192452
Probable space group: C 2/M
;
_chemical_formula_sum "Si O2"
_cell_formula_units_Z 64
_cell_length_a 11.405604
_cell_length_b 14.633412
_cell_length_c 20.547436
_cell_angle_alpha 90.000000
_cell_angle_beta 67.778171
_cell_angle_gamma 90.000000
_cell_volume 3174.711404
_symmetry_space_group_name_H-M "C 2/M"
_symmetry_group_IT_number 12
_symmetry_cell_setting 'monoclinic'
loop_
_space_group_symop_operation_xyz
x,y,z
-x,y,-z
-x,-y,-z
x,-y,z
1/2+x,1/2+y,z
1/2-x,1/2+y,-z
1/2-x,1/2-y,-z
1/2+x,1/2-y,z
loop_
_atom_site_type_symbol
_atom_site_label
_atom_site_fract_x
_atom_site_fract_y
_atom_site_fract_z
Si Si1 0.004280 0.395736 0.292250
Si Si2 0.770488 0.900112 0.613080
Si Si3 0.071361 0.796927 0.322837
Si Si4 0.112073 0.205438 0.520406
Si Si5 0.229512 0.599888 0.886920
Si Si6 0.928639 0.296927 0.177163
Si Si7 0.387927 0.205438 0.979594
Si Si8 0.995720 0.104264 0.207750
O O1 0.054767 0.500000 0.280632
O O2 0.879736 0.396006 0.364584
O O3 0.953476 0.364222 0.232171
O O4 0.084608 0.308393 0.298275
O O5 0.811036 0.826503 0.657895
O O6 0.850607 0.881647 0.531557
O O7 0.801228 0.000000 0.633285
O O8 0.046524 0.864222 0.267829
O O9 0.951482 0.808119 0.396585
O O10 0.250000 0.250000 0.500000
O O11 0.000000 0.252666 0.500000
O O12 0.198771 0.500000 0.866715
O O13 0.188964 0.673497 0.842105
O O14 0.379736 0.603994 0.864584
O O15 0.149393 0.618353 0.968443
O O16 0.048518 0.308120 0.103415
O O17 0.915392 0.191607 0.201725
O O18 0.500000 0.252666 0.000000
O O19 0.250000 0.250000 0.000000
O O20 0.945233 0.000000 0.219368
#
# Coordination Sequence:
#
# PCOD9192452 Si02
#       8
#     8   8   8   8   8   8   8   8
#     4  10  20  35  56  83 114 150 192 238 294 351
#     4  10  20  35  59  85 113 149 196 243 289 344
#     4  10  20  33  56  83 113 150 190 242 288 339
#     4  10  20  36  58  87 117 152 193 239 294 344
#     4  10  20  35  59  85 113 149 196 243 289 344
#     4  10  20  33  56  83 113 150 190 242 288 339
#     4  10  20  36  58  87 117 152 193 239 294 344
#     4  10  20  35  56  83 114 150 192 238 294 351
#
# _framework density 20.159313000000001
#
# number of rings (size 3 to 8) (size 9 to 14) (size 15 to 20)
#    0.000    2.000    2.500    1.500    0.000    7.500 
#    0.000    0.000    0.000   27.000    0.000    0.000 
#    0.000    0.000    0.000    0.000    0.000    0.000 
#
# Total GULP energy -178181.390580 kJ/mol
# GULP energy per Si atom -5568.168456 kJ/mol
# Density = 2.011343 g / cm^3
# Si number density = 20.159313 Si / 1000 Ang^3
#
#
#
# Elastic Constant Matrix: (Units=GPa)
#
#
# Indices 1 2 3 4 5 6 
#
# 1 71.7369 16.3898 -0.4276 0.0000 -13.7302 0.0000
# 2 16.3898 137.6492 4.2630 0.0000 11.1701 0.0000
# 3 -0.4276 4.2630 80.2568 0.0000 -13.2902 0.0000
# 4 0.0000 0.0000 0.0000 23.4437 0.0000 -3.0064
# 5 -13.7302 11.1701 -13.2902 0.0000 18.9077 0.0000
# 6 0.0000 0.0000 0.0000 -3.0064 0.0000 19.1158
#
#
#
# Elastic Compliance Matrix: (Units=1/GPa)
#
#
# Indices 1 2 3 4 5 6 
#
# 1 0.018181 -0.003696 0.003215 0.000000 0.017646 0.000000
# 2 -0.003696 0.008505 -0.001978 0.000000 -0.009099 0.000000
# 3 0.003215 -0.001978 0.014896 0.000000 0.013974 0.000000
# 4 0.000000 0.000000 0.000000 0.043533 0.000000 0.006847
# 5 0.017646 -0.009099 0.013974 0.000000 0.080900 0.000000
# 6 0.000000 0.000000 0.000000 0.006847 0.000000 0.053390
#
#
# Mechanical properties :
#
#
# Convention : Reuss Voigt Hill
#
# Bulk Modulus (GPa) = 27.27517 36.67704 31.97611
# Shear Modulus (GPa) = 21.13768 30.25461 25.69615
#
# Velocity S-wave (km/s) = 3.24162 3.87819 3.57410
# Velocity P-wave (km/s) = 5.25071 6.18764 5.73833
#
# Compressibility (1/GPa) = 0.03666338
#
# Stress axis : x y z
#
# Youngs Moduli (GPa) = 55.00280 117.58359 67.13101
#
# Poissons Ratio (x) = 0.43463 -0.21585
# Poissons Ratio (y) = 0.20331 0.13280
# Poissons Ratio (z) = -0.17685 0.23260
#
# Static dielectric constant tensor:
#      x y z
#    x 1.755150 0.000000 -0.023410 
#    y 0.000000 1.725050 0.000000 
#    z -0.023410 0.000000 1.745060 
# 
# From -- ./inp_files/305430.got.cif
#   From: 2010.05.17/outbox.cif.g08.bks.cpg/sg12_153_cif.got.tgz:305430.got - 2010.06.03 13:09:07.
