data_PCOD9192268
_publ_section_title
;
Structure prediction by ZEFSAII (Michael W. Deem and Ramdas Pophale) SiO2 
 PCOD9192268
Probable space group: C 2/M
;
_chemical_formula_sum "Si O2"
_cell_formula_units_Z 48
_cell_length_a 25.837693
_cell_length_b 15.253418
_cell_length_c 11.635775
_cell_angle_alpha 90.000000
_cell_angle_beta 145.458648
_cell_angle_gamma 90.000000
_cell_volume 2600.159304
_symmetry_space_group_name_H-M "C 2/M"
_symmetry_group_IT_number 12
_symmetry_cell_setting 'monoclinic'
loop_
_space_group_symop_operation_xyz
x,y,z
-x,y,-z
-x,-y,-z
x,-y,z
1/2+x,1/2+y,z
1/2-x,1/2+y,-z
1/2-x,1/2-y,-z
1/2+x,1/2-y,z
loop_
_atom_site_type_symbol
_atom_site_label
_atom_site_fract_x
_atom_site_fract_y
_atom_site_fract_z
Si Si1 0.874517 0.603427 0.841062
Si Si2 0.101606 0.896503 0.664050
Si Si3 0.431071 0.898783 0.465436
Si Si4 0.437434 0.820996 0.728664
Si Si5 0.241344 0.824693 0.081125
Si Si6 0.300712 0.695635 0.375001
O O1 0.891117 0.500000 0.897950
O O2 0.882583 0.618884 0.718974
O O3 0.777116 0.635039 0.711147
O O4 0.956675 0.666210 0.039008
O O5 0.148400 0.851090 0.639186
O O6 0.000000 0.863325 0.500000
O O7 0.100119 0.000000 0.639130
O O8 0.154723 0.877672 0.879873
O O9 0.500000 0.858360 0.500000
O O10 0.437675 0.854865 0.599856
O O11 0.329421 0.886188 0.234001
O O12 0.454465 0.000000 0.522936
O O13 0.377563 0.731713 0.604669
O O14 0.247385 0.777176 0.215520
O O15 0.250000 0.750000 0.000000
#
# Coordination Sequence:
#
# PCOD9192268 Si02
#       6
#     8   8   8   8   8   8
#     4  11  22  39  63  88 117 153 201 247 291 344
#     4  10  21  36  55  81 116 154 193 237 288 346
#     4  10  20  33  54  81 112 145 182 231 291 348
#     4  10  22  38  57  88 119 151 191 243 295 342
#     4   9  20  33  49  78 110 145 183 226 282 340
#     4  10  22  36  60  85 114 153 198 240 293 354
#
# _framework density 18.460408000000001
#
# number of rings (size 3 to 8) (size 9 to 14) (size 15 to 20)
#    0.000    2.000    0.000    3.500    7.000    4.667 
#    0.000    0.000    0.000    0.000    0.000    5.833 
#    0.000    0.000    0.000    0.000    0.000    0.000 
#
# Total GULP energy -133639.095636 kJ/mol
# GULP energy per Si atom -5568.295652 kJ/mol
# Density = 1.841839 g / cm^3
# Si number density = 18.460408 Si / 1000 Ang^3
#
#
#
# Elastic Constant Matrix: (Units=GPa)
#
#
# Indices 1 2 3 4 5 6 
#
# 1 116.8500 24.2959 47.5820 0.0000 19.2651 0.0000
# 2 24.2959 55.6256 20.0971 0.0000 8.8524 0.0000
# 3 47.5820 20.0971 100.6934 0.0000 12.8016 0.0000
# 4 0.0000 0.0000 0.0000 21.9083 0.0000 -2.8351
# 5 19.2651 8.8524 12.8016 0.0000 27.7164 0.0000
# 6 0.0000 0.0000 0.0000 -2.8351 0.0000 19.2085
#
#
#
# Elastic Compliance Matrix: (Units=1/GPa)
#
#
# Indices 1 2 3 4 5 6 
#
# 1 0.011767 -0.002727 -0.004342 0.000000 -0.005303 0.000000
# 2 -0.002727 0.020594 -0.002365 0.000000 -0.003590 0.000000
# 3 -0.004342 -0.002365 0.012722 0.000000 -0.002103 0.000000
# 4 0.000000 0.000000 0.000000 0.046534 0.000000 0.006868
# 5 -0.005303 -0.003590 -0.002103 0.000000 0.041883 0.000000
# 6 0.000000 0.000000 0.000000 0.006868 0.000000 0.053074
#
#
# Mechanical properties :
#
#
# Convention : Reuss Voigt Hill
#
# Bulk Modulus (GPa) = 38.14608 50.79102 44.46855
# Shear Modulus (GPa) = 23.34459 25.84623 24.59541
#
# Velocity S-wave (km/s) = 3.55995 3.74584 3.65407
# Velocity P-wave (km/s) = 6.13239 6.80306 6.47641
#
# Compressibility (1/GPa) = 0.02621502
#
# Stress axis : x y z
#
# Youngs Moduli (GPa) = 84.98046 48.55710 78.60149
#
# Poissons Ratio (x) = 0.13242 0.34130
# Poissons Ratio (y) = 0.23174 0.18592
# Poissons Ratio (z) = 0.36900 0.11485
#
# Static dielectric constant tensor:
#      x y z
#    x 1.632420 0.000000 0.014960 
#    y 0.000000 1.654490 0.000000 
#    z 0.014960 0.000000 1.692140 
# 
# From -- ./inp_files/177429.got.cif
#   From: 2010.05.17/outbox.cif.g08.bks.cpg/sg12_89_cif.got.tgz:177429.got - 2010.06.03 13:09:07.
