data_PCOD9192593
_publ_section_title
;
Structure prediction by ZEFSAII (Michael W. Deem and Ramdas Pophale) SiO2 
 PCOD9192593
Probable space group: C 2/M
;
_chemical_formula_sum "Si O2"
_cell_formula_units_Z 56
_cell_length_a 11.103101
_cell_length_b 33.171995
_cell_length_c 7.080758
_cell_angle_alpha 90.000000
_cell_angle_beta 104.693322
_cell_angle_gamma 90.000000
_cell_volume 2522.641982
_symmetry_space_group_name_H-M "C 2/M"
_symmetry_group_IT_number 12
_symmetry_cell_setting 'monoclinic'
loop_
_space_group_symop_operation_xyz
x,y,z
-x,y,-z
-x,-y,-z
x,-y,z
1/2+x,1/2+y,z
1/2-x,1/2+y,-z
1/2-x,1/2-y,-z
1/2+x,1/2-y,z
loop_
_atom_site_type_symbol
_atom_site_label
_atom_site_fract_x
_atom_site_fract_y
_atom_site_fract_z
Si Si1 0.667447 0.956823 0.928791
Si Si2 0.023174 0.621059 0.781419
Si Si3 0.439679 0.617636 0.273656
Si Si4 0.898157 0.706395 0.131827
Si Si5 0.208261 0.574071 0.338603
Si Si6 0.892328 0.206724 0.111393
Si Si7 0.884347 0.955376 0.745476
O O1 0.613323 0.917221 0.809163
O O2 0.808721 0.957248 0.909985
O O3 0.614072 0.000000 0.843137
O O4 0.653025 0.953749 0.149595
O O5 0.897026 0.605188 0.634870
O O6 0.071992 0.665105 0.744646
O O7 0.000000 0.624038 0.000000
O O8 0.500000 0.622754 0.500000
O O9 0.303862 0.600220 0.253492
O O10 0.427194 0.662284 0.192364
O O11 0.525062 0.582850 0.217190
O O12 0.903648 0.750802 0.230775
O O13 0.753724 0.703825 0.005970
O O14 0.000000 0.706358 0.000000
O O15 0.285036 0.552389 0.534580
O O16 0.000000 0.213111 0.000000
O O17 0.941973 0.000000 0.735785
#
# Coordination Sequence:
#
# PCOD9192593 Si02
#       7
#     8   8   8   8   8   8   8
#     4  10  21  35  56  84 111 147 194 241 288 341
#     4   9  18  33  57  81 113 149 193 240 286 347
#     4  10  22  37  56  81 115 149 189 233 293 346
#     4   9  18  35  57  88 118 150 195 237 297 355
#     4  10  21  37  58  79 111 157 189 237 291 348
#     4  10  20  33  62  90 112 150 196 243 292 352
#     4  10  23  39  55  82 119 153 195 242 286 346
#
# _framework density 22.198948000000001
#
# number of rings (size 3 to 8) (size 9 to 14) (size 15 to 20)
#    0.000    2.286    0.000    3.000    4.000    6.857 
#    0.000    2.857    3.143    9.429    0.000    0.000 
#    0.000    0.000    0.000    0.000    0.000    0.000 
#
# Total GULP energy -155929.423284 kJ/mol
# GULP energy per Si atom -5568.907974 kJ/mol
# Density = 2.214842 g / cm^3
# Si number density = 22.198948 Si / 1000 Ang^3
#
#
#
# Elastic Constant Matrix: (Units=GPa)
#
#
# Indices 1 2 3 4 5 6 
#
# 1 107.2481 61.9332 12.4753 0.0000 13.0870 0.0000
# 2 61.9332 265.8546 34.8880 0.0000 13.9684 0.0000
# 3 12.4753 34.8880 62.7994 0.0000 5.8354 0.0000
# 4 0.0000 0.0000 0.0000 65.2656 0.0000 22.2905
# 5 13.0870 13.9684 5.8354 0.0000 21.4084 0.0000
# 6 0.0000 0.0000 0.0000 22.2905 0.0000 73.1638
#
#
#
# Elastic Compliance Matrix: (Units=1/GPa)
#
#
# Indices 1 2 3 4 5 6 
#
# 1 0.011359 -0.002304 -0.000483 0.000000 -0.005309 0.000000
# 2 -0.002304 0.004617 -0.002009 0.000000 -0.001057 0.000000
# 3 -0.000483 -0.002009 0.017428 0.000000 -0.003144 0.000000
# 4 0.000000 0.000000 0.000000 0.017101 0.000000 -0.005210
# 5 -0.005309 -0.001057 -0.003144 0.000000 0.051502 0.000000
# 6 0.000000 0.000000 0.000000 -0.005210 0.000000 0.015255
#
#
# Mechanical properties :
#
#
# Convention : Reuss Voigt Hill
#
# Bulk Modulus (GPa) = 41.99680 72.72167 57.35923
# Shear Modulus (GPa) = 37.09396 53.74127 45.41761
#
# Velocity S-wave (km/s) = 4.09219 4.92559 4.52811
# Velocity P-wave (km/s) = 6.42554 8.07334 7.29611
#
# Compressibility (1/GPa) = 0.02381134
#
# Stress axis : x y z
#
# Youngs Moduli (GPa) = 88.03966 216.57534 57.37846
#
# Poissons Ratio (x) = 0.49893 0.02773
# Poissons Ratio (y) = 0.20282 0.11529
# Poissons Ratio (z) = 0.04255 0.43517
#
# Static dielectric constant tensor:
#      x y z
#    x 1.804130 0.000000 -0.080640 
#    y 0.000000 1.936110 0.000000 
#    z -0.080640 0.000000 1.809580 
# 
# From -- ./inp_files/54300.got.cif
#   From: 2010.05.17/outbox.cif.g08.bks.cpg/sg12_28_cif.got.tgz:54300.got - 2010.06.03 13:09:07.
