data_PCOD9192390
_publ_section_title
;
Structure prediction by ZEFSAII (Michael W. Deem and Ramdas Pophale) SiO2 
 PCOD9192390
Probable space group: C 2/M
;
_chemical_formula_sum "Si O2"
_cell_formula_units_Z 44
_cell_length_a 30.630703
_cell_length_b 16.783852
_cell_length_c 11.592534
_cell_angle_alpha 90.000000
_cell_angle_beta 159.865958
_cell_angle_gamma 90.000000
_cell_volume 2051.445795
_symmetry_space_group_name_H-M "C 2/M"
_symmetry_group_IT_number 12
_symmetry_cell_setting 'monoclinic'
loop_
_space_group_symop_operation_xyz
x,y,z
-x,y,-z
-x,-y,-z
x,-y,z
1/2+x,1/2+y,z
1/2-x,1/2+y,-z
1/2-x,1/2-y,-z
1/2+x,1/2-y,z
loop_
_atom_site_type_symbol
_atom_site_label
_atom_site_fract_x
_atom_site_fract_y
_atom_site_fract_z
Si Si1 0.996421 0.678769 0.760803
Si Si2 0.049424 0.162217 0.495384
Si Si3 0.677361 0.093170 0.840303
Si Si4 0.500000 0.732249 0.000000
Si Si5 0.008317 0.089358 0.871090
Si Si6 0.295242 0.907825 0.833189
O O1 0.975103 0.753828 0.625083
O O2 0.915181 0.610897 0.495248
O O3 0.955652 0.707885 0.787468
O O4 0.141216 0.648848 0.104180
O O5 0.982270 0.100326 0.242011
O O6 0.000000 0.158787 0.500000
O O7 0.197782 0.144864 0.867951
O O8 0.710871 0.000000 0.924195
O O9 0.639796 0.110082 0.880765
O O10 0.568564 0.664909 0.087227
O O11 0.856020 0.098444 0.518212
O O12 0.049547 0.000000 0.006751
O O13 0.319361 0.000000 0.863822
#
# Coordination Sequence:
#
# PCOD9192390 Si02
#       6
#     8   8   8   4   8   8
#     4  11  21  35  54  78 108 142 175 217 262 307
#     4  10  20  33  55  85 111 133 164 217 275 319
#     4  10  20  35  56  80 107 138 174 216 264 318
#     4  10  23  36  51  74 108 146 182 212 251 310
#     4   9  19  37  58  78 105 140 177 216 255 309
#     4   9  18  34  58  83 103 132 176 220 265 314
#
# _framework density 21.448288000000002
#
# number of rings (size 3 to 8) (size 9 to 14) (size 15 to 20)
#    0.000    2.182    0.000    4.636    0.000    6.545 
#    0.000    3.636    0.000    4.364    0.000    0.000 
#    0.000    0.000    0.000    0.000    0.000    0.000 
#
# Total GULP energy -122506.186495 kJ/mol
# GULP energy per Si atom -5568.463023 kJ/mol
# Density = 2.139947 g / cm^3
# Si number density = 21.448288 Si / 1000 Ang^3
#
#
#
# Elastic Constant Matrix: (Units=GPa)
#
#
# Indices 1 2 3 4 5 6 
#
# 1 139.9702 30.7985 23.7834 0.0000 -25.3507 0.0000
# 2 30.7985 74.8608 23.0802 0.0000 4.5507 0.0000
# 3 23.7834 23.0802 47.3981 0.0000 -6.5470 0.0000
# 4 0.0000 0.0000 0.0000 56.4352 0.0000 -24.3896
# 5 -25.3507 4.5507 -6.5470 0.0000 25.8748 0.0000
# 6 0.0000 0.0000 0.0000 -24.3896 0.0000 37.9739
#
#
#
# Elastic Compliance Matrix: (Units=1/GPa)
#
#
# Indices 1 2 3 4 5 6 
#
# 1 0.010262 -0.004367 -0.001583 0.000000 0.010421 0.000000
# 2 -0.004367 0.018192 -0.007979 0.000000 -0.009497 0.000000
# 3 -0.001583 -0.007979 0.026690 0.000000 0.006606 0.000000
# 4 0.000000 0.000000 0.000000 0.024528 0.000000 0.015753
# 5 0.010421 -0.009497 0.006606 0.000000 0.052200 0.000000
# 6 0.000000 0.000000 0.000000 0.015753 0.000000 0.036452
#
#
# Mechanical properties :
#
#
# Convention : Reuss Voigt Hill
#
# Bulk Modulus (GPa) = 36.64970 46.39478 41.52224
# Shear Modulus (GPa) = 24.35737 36.36125 30.35931
#
# Velocity S-wave (km/s) = 3.37357 4.12187 3.76635
# Velocity P-wave (km/s) = 5.68324 6.65815 6.18992
#
# Compressibility (1/GPa) = 0.02728536
#
# Stress axis : x y z
#
# Youngs Moduli (GPa) = 97.44877 54.96871 37.46722
#
# Poissons Ratio (x) = 0.24006 0.05931
# Poissons Ratio (y) = 0.42558 0.29895
# Poissons Ratio (z) = 0.15427 0.43859
#
# Static dielectric constant tensor:
#      x y z
#    x 1.827840 0.000000 -0.005900 
#    y 0.000000 1.796220 0.000000 
#    z -0.005900 0.000000 1.933200 
# 
# From -- ./inp_files/190114.got.cif
#   From: 2010.05.17/outbox.cif.g08.bks.cpg/sg12_96_cif.got.tgz:190114.got - 2010.06.03 13:09:07.
