data_PCOD9192169
_publ_section_title
;
Structure prediction by ZEFSAII (Michael W. Deem and Ramdas Pophale) SiO2 
 PCOD9192169
Probable space group: C 2/M
;
_chemical_formula_sum "Si O2"
_cell_formula_units_Z 52
_cell_length_a 20.083149
_cell_length_b 11.924315
_cell_length_c 16.010637
_cell_angle_alpha 90.000000
_cell_angle_beta 133.598742
_cell_angle_gamma 90.000000
_cell_volume 2776.672044
_symmetry_space_group_name_H-M "C 2/M"
_symmetry_group_IT_number 12
_symmetry_cell_setting 'monoclinic'
loop_
_space_group_symop_operation_xyz
x,y,z
-x,y,-z
-x,-y,-z
x,-y,z
1/2+x,1/2+y,z
1/2-x,1/2+y,-z
1/2-x,1/2-y,-z
1/2+x,1/2-y,z
loop_
_atom_site_type_symbol
_atom_site_label
_atom_site_fract_x
_atom_site_fract_y
_atom_site_fract_z
Si Si1 0.609841 0.246126 0.407185
Si Si2 0.548147 0.365916 0.631436
Si Si3 0.872124 0.500000 0.217606
Si Si4 0.790183 0.628305 0.011807
Si Si5 0.778032 0.500000 0.305909
Si Si6 0.260256 0.870165 0.799551
Si Si7 0.288052 0.271992 0.671167
Si Si8 0.925022 0.500000 0.569789
O O1 0.516954 0.303078 0.359316
O O2 0.639144 0.281648 0.340122
O O3 0.694243 0.271458 0.544268
O O4 0.602709 0.111796 0.405403
O O5 0.500000 0.346995 0.500000
O O6 0.547734 0.500000 0.647469
O O7 0.654646 0.326722 0.720934
O O8 0.793332 0.500000 0.219806
O O9 0.966929 0.500000 0.346461
O O10 0.865356 0.604262 0.147944
O O11 0.741545 0.500000 0.974086
O O12 0.811714 0.638418 0.932607
O O13 0.750000 0.750000 0.000000
O O14 0.729259 0.390164 0.299135
O O15 0.875229 0.500000 0.438127
O O16 0.308933 0.810377 0.765142
O O17 0.249900 0.000000 0.769006
#
# Coordination Sequence:
#
# PCOD9192169 Si02
#       8
#     8   8   4   8   4   8   8   4
#     4  10  22  35  53  81 117 154 188 226 286 354
#     4  10  20  33  53  82 106 142 183 235 283 327
#     4  10  21  36  61  85 116 145 187 253 297 350
#     4   9  20  34  55  85 111 151 192 245 291 338
#     4  10  21  36  56  87 114 148 189 234 296 351
#     4  10  20  36  57  83 112 147 195 238 283 335
#     4  10  21  35  55  79 117 155 188 227 280 354
#     4  10  23  36  53  88 116 150 183 236 305 344
#
# _framework density 18.727454999999999
#
# number of rings (size 3 to 8) (size 9 to 14) (size 15 to 20)
#    0.462    1.692    1.538    1.154    6.462    0.000 
#    0.000    0.000    0.000    1.846    0.000    1.077 
#    0.000    0.000    0.000    0.000    0.000    0.000 
#
# Total GULP energy -144740.340627 kJ/mol
# GULP energy per Si atom -5566.936178 kJ/mol
# Density = 1.868483 g / cm^3
# Si number density = 18.727455 Si / 1000 Ang^3
#
#
#
# Elastic Constant Matrix: (Units=GPa)
#
#
# Indices 1 2 3 4 5 6 
#
# 1 67.0966 10.4254 37.8493 0.0000 -27.2788 0.0000
# 2 10.4254 64.6118 32.9310 0.0000 -15.4450 0.0000
# 3 37.8493 32.9310 61.6610 0.0000 -34.9943 0.0000
# 4 0.0000 0.0000 0.0000 19.7344 0.0000 0.8373
# 5 -27.2788 -15.4450 -34.9943 0.0000 27.2908 0.0000
# 6 0.0000 0.0000 0.0000 0.8373 0.0000 -2.4240
#
#
#
# Elastic Compliance Matrix: (Units=1/GPa)
#
#
# Indices 1 2 3 4 5 6 
#
# 1 0.026189 0.004167 -0.007736 0.000000 0.018616 0.000000
# 2 0.004167 0.022589 -0.018374 0.000000 -0.006611 0.000000
# 3 -0.007736 -0.018374 0.075252 0.000000 0.078363 0.000000
# 4 0.000000 0.000000 0.000000 0.049941 0.000000 0.017251
# 5 0.018616 -0.006611 0.078363 0.000000 0.151992 0.000000
# 6 0.000000 0.000000 0.000000 0.017251 0.000000 -0.406585
#
#
# Mechanical properties :
#
#
# Convention : Reuss Voigt Hill
#
# Bulk Modulus (GPa) = 12.47738 39.53121 26.00429
# Shear Modulus (GPa) = -498.83809 16.39783 -241.22013
#
# Velocity S-wave (km/s) = -16.33847 2.96227 -11.36157
# Velocity P-wave (km/s) = 18.68824 5.73189 12.57767
#
# Compressibility (1/GPa) = 0.08014502
#
# Stress axis : x y z
#
# Youngs Moduli (GPa) = 38.18436 44.26925 13.28868
#
# Poissons Ratio (x) = -0.18448 0.10280
# Poissons Ratio (y) = -0.15912 0.24416
# Poissons Ratio (z) = 0.29538 0.81339
#
# Static dielectric constant tensor:
#      x y z
#    x 1.638820 0.000000 0.021330 
#    y 0.000000 1.708990 0.000000 
#    z 0.021330 0.000000 1.681970 
# 
# From -- ./inp_files/232039.got.cif
#   From: 2010.05.17/outbox.cif.g08.bks.cpg/sg12_117_cif.got.tgz:232039.got - 2010.06.03 13:09:07.
