data_PCOD9192547
_publ_section_title
;
Structure prediction by ZEFSAII (Michael W. Deem and Ramdas Pophale) SiO2 
 PCOD9192547
Probable space group: C 2/M
;
_chemical_formula_sum "Si O2"
_cell_formula_units_Z 52
_cell_length_a 20.206680
_cell_length_b 21.420041
_cell_length_c 7.963476
_cell_angle_alpha 90.000000
_cell_angle_beta 45.552809
_cell_angle_gamma 90.000000
_cell_volume 2460.667810
_symmetry_space_group_name_H-M "C 2/M"
_symmetry_group_IT_number 12
_symmetry_cell_setting 'monoclinic'
loop_
_space_group_symop_operation_xyz
x,y,z
-x,y,-z
-x,-y,-z
x,-y,z
1/2+x,1/2+y,z
1/2-x,1/2+y,-z
1/2-x,1/2-y,-z
1/2+x,1/2-y,z
loop_
_atom_site_type_symbol
_atom_site_label
_atom_site_fract_x
_atom_site_fract_y
_atom_site_fract_z
Si Si1 0.389443 0.931826 0.833674
Si Si2 0.703167 0.573165 0.315748
Si Si3 0.570180 0.929621 0.722885
Si Si4 0.649335 0.171082 0.373857
Si Si5 0.000000 0.761929 0.500000
Si Si6 0.344205 0.345212 0.930442
Si Si7 0.110424 0.926990 0.827257
O O1 0.494314 0.930953 0.707294
O O2 0.367474 0.876982 0.748225
O O3 0.368629 0.000000 0.794524
O O4 0.315377 0.925599 0.116858
O O5 0.675654 0.500000 0.340253
O O6 0.672938 0.614391 0.209224
O O7 0.659481 0.595044 0.568094
O O8 0.638019 0.872887 0.557805
O O9 0.610335 0.000000 0.667278
O O10 0.500000 0.918119 0.000000
O O11 0.568498 0.221326 0.496158
O O12 0.753289 0.193855 0.150731
O O13 0.932237 0.802734 0.735353
O O14 0.361435 0.390980 0.055612
O O15 0.134240 0.000000 0.804947
O O16 0.000000 0.921757 0.000000
#
# Coordination Sequence:
#
# PCOD9192547 Si02
#       7
#     8   8   8   8   4   8   8
#     4   9  17  33  58  87 119 153 187 240 308 373
#     4   9  19  36  61  94 126 153 194 249 309 379
#     4  10  20  33  57  93 128 156 188 242 313 381
#     4  11  22  40  63  86 117 164 209 250 306 367
#     4  12  24  44  62  82 120 164 218 272 294 346
#     4  11  24  40  67  90 121 166 211 257 311 365
#     4  10  21  38  63  95 128 160 197 250 315 377
#
# _framework density 21.132474999999999
#
# number of rings (size 3 to 8) (size 9 to 14) (size 15 to 20)
#    0.000    1.846    1.538    2.308    2.154    3.077 
#    0.000    5.385    0.000    6.462    0.000    0.000 
#    0.000    0.000    0.000    0.000    0.000    0.000 
#
# Total GULP energy -145158.686503 kJ/mol
# GULP energy per Si atom -5583.026404 kJ/mol
# Density = 2.108438 g / cm^3
# Si number density = 21.132475 Si / 1000 Ang^3
#
#
#
# Elastic Constant Matrix: (Units=GPa)
#
#
# Indices 1 2 3 4 5 6 
#
# 1 58.8992 28.9602 42.4783 0.0000 -1.6648 0.0000
# 2 28.9602 61.9646 61.2331 0.0000 -5.5114 0.0000
# 3 42.4783 61.2331 186.9762 0.0000 -7.8856 0.0000
# 4 0.0000 0.0000 0.0000 15.3031 0.0000 -4.5945
# 5 -1.6648 -5.5114 -7.8856 0.0000 38.3156 0.0000
# 6 0.0000 0.0000 0.0000 -4.5945 0.0000 19.4031
#
#
#
# Elastic Compliance Matrix: (Units=1/GPa)
#
#
# Indices 1 2 3 4 5 6 
#
# 1 0.022827 -0.008246 -0.002515 0.000000 -0.000712 0.000000
# 2 -0.008246 0.026968 -0.006870 0.000000 0.002107 0.000000
# 3 -0.002515 -0.006870 0.008194 0.000000 0.000589 0.000000
# 4 0.000000 0.000000 0.000000 0.070348 0.000000 0.016658
# 5 -0.000712 0.002107 0.000589 0.000000 0.026492 0.000000
# 6 0.000000 0.000000 0.000000 0.016658 0.000000 0.055482
#
#
# Mechanical properties :
#
#
# Convention : Reuss Voigt Hill
#
# Bulk Modulus (GPa) = 44.00056 63.68704 53.84380
# Shear Modulus (GPa) = 19.75120 26.28225 23.01673
#
# Velocity S-wave (km/s) = 3.06050 3.53043 3.30383
# Velocity P-wave (km/s) = 5.77541 6.84259 6.33152
#
# Compressibility (1/GPa) = 0.02272698
#
# Stress axis : x y z
#
# Youngs Moduli (GPa) = 43.80844 37.08085 122.03590
#
# Poissons Ratio (x) = 0.30577 0.30697
# Poissons Ratio (y) = 0.36125 0.83834
# Poissons Ratio (z) = 0.11020 0.25473
#
# Static dielectric constant tensor:
#      x y z
#    x 1.802660 0.000000 -0.007220 
#    y 0.000000 1.759320 0.000000 
#    z -0.007220 0.000000 1.818850 
# 
# From -- ./inp_files/99021.got.cif
#   From: 2010.05.17/outbox.cif.g08.bks.cpg/sg12_50_cif.got.tgz:99021.got - 2010.06.03 13:09:07.
