data_PCOD9192004
_publ_section_title
;
Structure prediction by ZEFSAII (Michael W. Deem and Ramdas Pophale) SiO2 
 PCOD9192004
Probable space group: C 2/M
;
_chemical_formula_sum "Si O2"
_cell_formula_units_Z 64
_cell_length_a 15.605628
_cell_length_b 7.851482
_cell_length_c 34.600392
_cell_angle_alpha 90.000000
_cell_angle_beta 132.936221
_cell_angle_gamma 90.000000
_cell_volume 3103.785369
_symmetry_space_group_name_H-M "C 2/M"
_symmetry_group_IT_number 12
_symmetry_cell_setting 'monoclinic'
loop_
_space_group_symop_operation_xyz
x,y,z
-x,y,-z
-x,-y,-z
x,-y,z
1/2+x,1/2+y,z
1/2-x,1/2+y,-z
1/2-x,1/2-y,-z
1/2+x,1/2-y,z
loop_
_atom_site_type_symbol
_atom_site_label
_atom_site_fract_x
_atom_site_fract_y
_atom_site_fract_z
Si Si1 0.791987 0.296243 0.555335
Si Si2 0.249738 0.203273 0.255530
Si Si3 0.382301 0.791352 0.941138
Si Si4 0.813241 0.203600 0.059543
Si Si5 0.396436 0.193734 0.443237
Si Si6 0.988229 0.704044 0.670214
Si Si7 0.918187 0.299823 0.865423
Si Si8 0.710223 0.705827 0.328964
O O1 0.777011 0.500000 0.556406
O O2 0.750000 0.250000 0.500000
O O3 0.709238 0.194479 0.558913
O O4 0.922809 0.252294 0.609740
O O5 0.380189 0.272750 0.287160
O O6 0.161355 0.232134 0.193439
O O7 0.203191 0.266761 0.282751
O O8 0.261051 0.000000 0.263412
O O9 0.269193 0.735910 0.930679
O O10 0.387416 0.729861 0.898608
O O11 0.382570 0.000000 0.940900
O O12 0.500000 0.739843 0.000000
O O13 0.944621 0.271708 0.100154
O O14 0.819909 0.000000 0.063924
O O15 0.750000 0.250000 0.000000
O O16 0.500000 0.277807 0.500000
O O17 0.331787 0.269734 0.386025
O O18 0.435741 0.000000 0.445552
O O19 0.995459 0.500000 0.673392
O O20 0.901069 0.750992 0.678518
O O21 0.896361 0.500000 0.860490
O O22 0.718519 0.500000 0.332186
#
# Coordination Sequence:
#
# PCOD9192004 Si02
#       8
#     8   8   8   8   8   8   8   8
#     4  10  20  33  52  79 111 144 182 233 290 348
#     4  10  22  40  60  82 112 154 195 233 283 344
#     4   9  18  36  60  84 117 157 188 224 280 338
#     4  11  21  37  62  90 122 157 192 234 285 339
#     4   9  18  32  54  80 107 141 184 231 284 350
#     4   9  20  38  59  80 111 149 190 240 291 340
#     4  11  23  40  60  87 118 152 197 239 280 336
#     4   9  19  36  58  81 110 148 190 233 286 351
#
# _framework density 20.619982
#
# number of rings (size 3 to 8) (size 9 to 14) (size 15 to 20)
#    0.000    2.250    1.250    1.125    1.750    2.750 
#    0.000    6.875    0.000    0.000    0.000    0.000 
#    0.000    0.000    0.000    0.000    0.000    0.000 
#
# Total GULP energy -178490.896876 kJ/mol
# GULP energy per Si atom -5577.840527 kJ/mol
# Density = 2.057305 g / cm^3
# Si number density = 20.619982 Si / 1000 Ang^3
#
#
#
# Elastic Constant Matrix: (Units=GPa)
#
#
# Indices 1 2 3 4 5 6 
#
# 1 126.0959 -4.1032 89.0833 0.0000 -8.1596 0.0000
# 2 -4.1032 29.6309 0.9859 0.0000 -2.7237 0.0000
# 3 89.0833 0.9859 188.9229 0.0000 -10.4163 0.0000
# 4 0.0000 0.0000 0.0000 -7.9249 0.0000 -6.9424
# 5 -8.1596 -2.7237 -10.4163 0.0000 36.6687 0.0000
# 6 0.0000 0.0000 0.0000 -6.9424 0.0000 19.8211
#
#
#
# Elastic Compliance Matrix: (Units=1/GPa)
#
#
# Indices 1 2 3 4 5 6 
#
# 1 0.012046 0.001968 -0.005623 0.000000 0.001230 0.000000
# 2 0.001968 0.034302 -0.000957 0.000000 0.002714 0.000000
# 3 -0.005623 -0.000957 0.008002 0.000000 0.000951 0.000000
# 4 0.000000 0.000000 0.000000 -0.096557 0.000000 -0.033820
# 5 0.001230 0.002714 0.000951 0.000000 0.028016 0.000000
# 6 0.000000 0.000000 0.000000 -0.033820 0.000000 0.038606
#
#
# Mechanical properties :
#
#
# Convention : Reuss Voigt Hill
#
# Bulk Modulus (GPa) = 22.15976 57.39794 39.77885
# Shear Modulus (GPa) = 102.70772 26.95855 64.83314
#
# Velocity S-wave (km/s) = 7.06526 3.61972 5.61339
# Velocity P-wave (km/s) = 8.79360 6.73545 7.83242
#
# Compressibility (1/GPa) = 0.04512683
#
# Stress axis : x y z
#
# Youngs Moduli (GPa) = 83.01227 29.15245 124.97043
#
# Poissons Ratio (x) = -0.05738 0.70268
# Poissons Ratio (y) = -0.16339 0.11966
# Poissons Ratio (z) = 0.46676 0.02791
#
# Static dielectric constant tensor:
#      x y z
#    x 1.730920 0.000000 -0.008040 
#    y 0.000000 1.780540 0.000000 
#    z -0.008040 0.000000 1.736960 
# 
# From -- ./inp_files/375575.got.cif
#   From: 2010.05.17/outbox.cif.g08.bks.cpg/sg12_188_cif.got.tgz:375575.got - 2010.06.03 13:09:07.
