data_PCOD9192215
_publ_section_title
;
Structure prediction by ZEFSAII (Michael W. Deem and Ramdas Pophale) SiO2 
 PCOD9192215
Probable space group: C 2/M
;
_chemical_formula_sum "Si O2"
_cell_formula_units_Z 58
_cell_length_a 19.881346
_cell_length_b 14.734366
_cell_length_c 9.306554
_cell_angle_alpha 90.000000
_cell_angle_beta 59.346170
_cell_angle_gamma 90.000000
_cell_volume 2345.295571
_symmetry_space_group_name_H-M "C 2/M"
_symmetry_group_IT_number 12
_symmetry_cell_setting 'monoclinic'
loop_
_space_group_symop_operation_xyz
x,y,z
-x,y,-z
-x,-y,-z
x,-y,z
1/2+x,1/2+y,z
1/2-x,1/2+y,-z
1/2-x,1/2-y,-z
1/2+x,1/2-y,z
loop_
_atom_site_type_symbol
_atom_site_label
_atom_site_fract_x
_atom_site_fract_y
_atom_site_fract_z
Si Si1 0.677896 0.109026 0.471543
Si Si2 0.250815 0.893645 0.915368
Si Si3 0.661217 0.391949 0.599280
Si Si4 0.500000 0.500000 0.500000
Si Si5 0.497768 0.136594 0.344800
Si Si6 0.390382 0.304426 0.051538
Si Si7 0.999980 0.835299 0.692001
Si Si8 0.376929 0.099577 0.026003
O O1 0.698641 0.131860 0.282641
O O2 0.748449 0.137859 0.500759
O O3 0.592084 0.140700 0.603766
O O4 0.677526 0.000000 0.476823
O O5 0.301519 0.890669 0.004646
O O6 0.227711 0.000000 0.921183
O O7 0.176509 0.828125 0.993618
O O8 0.655694 0.500000 0.577753
O O9 0.594136 0.345802 0.578792
O O10 0.634781 0.367133 0.789098
O O11 0.467929 0.420559 0.643396
O O12 0.500000 0.093669 0.500000
O O13 0.528547 0.238642 0.330182
O O14 0.550525 0.094873 0.164190
O O15 0.470633 0.332537 0.887754
O O16 0.388222 0.196987 0.090488
O O17 0.372555 0.000000 0.106271
#
# Coordination Sequence:
#
# PCOD9192215 Si02
#       8
#     8   8   8   2   8   8   8   8
#     4   9  18  32  56  87 114 149 200 246 285 338
#     4   9  17  30  52  85 118 152 195 247 299 339
#     4  10  21  39  63  88 115 155 199 243 291 352
#     4  12  24  40  58  88 122 156 184 244 296 360
#     4  11  20  34  55  85 116 155 203 240 289 348
#     4  10  21  35  58  87 117 153 205 243 287 353
#     4  11  24  38  59  86 121 157 192 239 299 357
#     4  10  20  33  53  83 120 158 194 247 301 343
#
# _framework density 24.730357000000001
#
# number of rings (size 3 to 8) (size 9 to 14) (size 15 to 20)
#    0.000    1.931    2.759    2.483    1.931    1.655 
#    0.000    0.000    0.000    7.448    0.000    0.000 
#    0.000    0.000    0.000    0.000    0.000    0.000 
#
# Total GULP energy -161782.702680 kJ/mol
# GULP energy per Si atom -5578.713886 kJ/mol
# Density = 2.467407 g / cm^3
# Si number density = 24.730357 Si / 1000 Ang^3
#
#
#
# Elastic Constant Matrix: (Units=GPa)
#
#
# Indices 1 2 3 4 5 6 
#
# 1 78.4664 7.4679 13.4755 0.0000 -24.1441 0.0000
# 2 7.4679 146.9740 -5.2460 0.0000 -2.6242 0.0000
# 3 13.4755 -5.2460 35.1846 0.0000 1.0037 0.0000
# 4 0.0000 0.0000 0.0000 -2.8777 0.0000 -34.6501
# 5 -24.1441 -2.6242 1.0037 0.0000 34.6973 0.0000
# 6 0.0000 0.0000 0.0000 -34.6501 0.0000 -14.9929
#
#
#
# Elastic Compliance Matrix: (Units=1/GPa)
#
#
# Indices 1 2 3 4 5 6 
#
# 1 0.018004 -0.000953 -0.007399 0.000000 0.012670 0.000000
# 2 -0.000953 0.006899 0.001399 0.000000 -0.000182 0.000000
# 3 -0.007399 0.001399 0.031634 0.000000 -0.005958 0.000000
# 4 0.000000 0.000000 0.000000 0.012953 0.000000 -0.029936
# 5 0.012670 -0.000182 -0.005958 0.000000 0.037796 0.000000
# 6 0.000000 0.000000 0.000000 -0.029936 0.000000 0.002486
#
#
# Mechanical properties :
#
#
# Convention : Reuss Voigt Hill
#
# Bulk Modulus (GPa) = 23.45709 32.44667 27.95188
# Shear Modulus (GPa) = 36.26115 19.69384 27.97749
#
# Velocity S-wave (km/s) = 3.83333 2.82502 3.36713
# Velocity P-wave (km/s) = 5.39429 4.87746 5.14237
#
# Compressibility (1/GPa) = 0.04263103
#
# Stress axis : x y z
#
# Youngs Moduli (GPa) = 55.54235 144.94833 31.61170
#
# Poissons Ratio (x) = 0.13809 0.23390
# Poissons Ratio (y) = 0.05291 -0.04421
# Poissons Ratio (z) = 0.41096 -0.20274
#
# Static dielectric constant tensor:
#      x y z
#    x 2.088180 0.000000 0.044170 
#    y 0.000000 1.918170 0.000000 
#    z 0.044170 0.000000 1.983060 
# 
# From -- ./inp_files/167201.got.cif
#   From: 2010.05.17/outbox.cif.g08.bks.cpg/sg12_84_cif.got.tgz:167201.got - 2010.06.03 13:09:07.
