data_PCOD9192049
_publ_section_title
;
Structure prediction by ZEFSAII (Michael W. Deem and Ramdas Pophale) SiO2 
 PCOD9192049
Probable space group: C 2/M
;
_chemical_formula_sum "Si O2"
_cell_formula_units_Z 56
_cell_length_a 19.162163
_cell_length_b 17.200073
_cell_length_c 9.395033
_cell_angle_alpha 90.000000
_cell_angle_beta 64.833935
_cell_angle_gamma 90.000000
_cell_volume 2802.590552
_symmetry_space_group_name_H-M "C 2/M"
_symmetry_group_IT_number 12
_symmetry_cell_setting 'monoclinic'
loop_
_space_group_symop_operation_xyz
x,y,z
-x,y,-z
-x,-y,-z
x,-y,z
1/2+x,1/2+y,z
1/2-x,1/2+y,-z
1/2-x,1/2-y,-z
1/2+x,1/2-y,z
loop_
_atom_site_type_symbol
_atom_site_label
_atom_site_fract_x
_atom_site_fract_y
_atom_site_fract_z
Si Si1 0.425528 0.139130 0.632686
Si Si2 0.768627 0.829153 0.895641
Si Si3 0.912657 0.814478 0.559854
Si Si4 0.822059 0.410704 0.268895
Si Si5 0.826737 0.909494 0.401547
Si Si6 0.249374 0.589284 0.198177
Si Si7 0.492263 0.907916 0.174667
O O1 0.500000 0.096554 0.500000
O O2 0.419024 0.221322 0.558885
O O3 0.340772 0.104804 0.699576
O O4 0.451178 0.141975 0.776008
O O5 0.849263 0.829381 0.739321
O O6 0.703832 0.854058 0.836418
O O7 0.750000 0.750000 0.000000
O O8 0.770296 0.891313 0.019795
O O9 0.880835 0.853281 0.444846
O O10 0.000000 0.844386 0.500000
O O11 0.830920 0.500000 0.205240
O O12 0.753530 0.411324 0.441785
O O13 0.901910 0.391624 0.277994
O O14 0.804903 0.872871 0.267708
O O15 0.855367 0.000000 0.373908
O O16 0.261486 0.500000 0.216685
O O17 0.508222 0.000000 0.186512
O O18 0.500000 0.893903 0.000000
#
# Coordination Sequence:
#
# PCOD9192049 Si02
#       7
#     8   8   8   8   8   8   8
#     4  11  22  37  56  90 129 165 199 237 297 364
#     4  11  21  39  60  89 120 160 202 247 300 352
#     4  10  23  43  61  87 121 160 206 244 304 366
#     4   9  18  35  58  83 117 161 203 241 289 360
#     4   9  20  39  62  87 113 153 208 256 303 355
#     4  11  22  38  63  93 122 155 201 258 305 356
#     4  10  20  33  52  81 120 162 198 236 289 353
#
# _framework density 19.981514000000001
#
# number of rings (size 3 to 8) (size 9 to 14) (size 15 to 20)
#    0.000    1.857    1.429    2.571    0.000    4.857 
#    5.143    0.714    0.000    1.714    0.000    0.000 
#    0.000    0.000    0.000    0.000    0.000    0.000 
#
# Total GULP energy -156121.109508 kJ/mol
# GULP energy per Si atom -5575.753911 kJ/mol
# Density = 1.993604 g / cm^3
# Si number density = 19.981514 Si / 1000 Ang^3
#
#
#
# Elastic Constant Matrix: (Units=GPa)
#
#
# Indices 1 2 3 4 5 6 
#
# 1 111.2607 31.8911 26.4569 0.0000 11.0550 0.0000
# 2 31.8911 44.7375 2.0825 0.0000 13.2397 0.0000
# 3 26.4569 2.0825 61.4441 0.0000 7.9659 0.0000
# 4 0.0000 0.0000 0.0000 58.1975 0.0000 27.7987
# 5 11.0550 13.2397 7.9659 0.0000 38.4133 0.0000
# 6 0.0000 0.0000 0.0000 27.7987 0.0000 37.6018
#
#
#
# Elastic Compliance Matrix: (Units=1/GPa)
#
#
# Indices 1 2 3 4 5 6 
#
# 1 0.012770 -0.009013 -0.005261 0.000000 0.000522 0.000000
# 2 -0.009013 0.031257 0.003989 0.000000 -0.009007 0.000000
# 3 -0.005261 0.003989 0.018895 0.000000 -0.003779 0.000000
# 4 0.000000 0.000000 0.000000 0.026563 0.000000 -0.019638
# 5 0.000522 -0.009007 -0.003779 0.000000 0.029770 0.000000
# 6 0.000000 0.000000 0.000000 -0.019638 0.000000 0.041113
#
#
# Mechanical properties :
#
#
# Convention : Reuss Voigt Hill
#
# Bulk Modulus (GPa) = 23.61107 37.58925 30.60016
# Shear Modulus (GPa) = 25.63358 37.30997 31.47177
#
# Velocity S-wave (km/s) = 3.58560 4.32583 3.97299
# Velocity P-wave (km/s) = 5.38369 6.61840 6.03272
#
# Compressibility (1/GPa) = 0.04235301
#
# Stress axis : x y z
#
# Youngs Moduli (GPa) = 78.30551 31.99246 52.92403
#
# Poissons Ratio (x) = 0.28835 0.27843
# Poissons Ratio (y) = 0.70577 -0.21112
# Poissons Ratio (z) = 0.41197 -0.12762
#
# Static dielectric constant tensor:
#      x y z
#    x 1.715980 0.000000 -0.056300 
#    y 0.000000 1.743450 0.000000 
#    z -0.056300 0.000000 0.903490 
# 
# From -- ./inp_files/75893.got.cif
#   From: 2010.05.17/outbox.cif.g08.bks.cpg/sg12_38_cif.got.tgz:75893.got - 2010.06.03 13:09:07.
