data_PCOD9192138
_publ_section_title
;
Structure prediction by ZEFSAII (Michael W. Deem and Ramdas Pophale) SiO2 
 PCOD9192138
Probable space group: C 2/M
;
_chemical_formula_sum "Si O2"
_cell_formula_units_Z 56
_cell_length_a 25.633559
_cell_length_b 8.651623
_cell_length_c 17.341435
_cell_angle_alpha 90.000000
_cell_angle_beta 59.949681
_cell_angle_gamma 90.000000
_cell_volume 3328.907500
_symmetry_space_group_name_H-M "C 2/M"
_symmetry_group_IT_number 12
_symmetry_cell_setting 'monoclinic'
loop_
_space_group_symop_operation_xyz
x,y,z
-x,y,-z
-x,-y,-z
x,-y,z
1/2+x,1/2+y,z
1/2-x,1/2+y,-z
1/2-x,1/2-y,-z
1/2+x,1/2-y,z
loop_
_atom_site_type_symbol
_atom_site_label
_atom_site_fract_x
_atom_site_fract_y
_atom_site_fract_z
Si Si1 0.756734 0.686702 0.282691
Si Si2 0.078838 0.183768 0.586703
Si Si3 0.158270 0.686701 0.101398
Si Si4 0.723501 0.813501 0.902657
Si Si5 0.621227 0.185243 0.393545
Si Si6 0.306367 0.185783 0.409766
Si Si7 0.948753 0.313405 0.712184
O O1 0.752121 0.500000 0.286358
O O2 0.784029 0.735818 0.180168
O O3 0.689390 0.752927 0.339642
O O4 0.795134 0.731123 0.329155
O O5 0.089137 0.248305 0.492861
O O6 0.132492 0.249521 0.599628
O O7 0.013997 0.238034 0.664524
O O8 0.082687 0.000000 0.581839
O O9 0.160634 0.500000 0.103473
O O10 0.212916 0.750652 0.112804
O O11 0.095067 0.734329 0.185336
O O12 0.173371 0.734545 0.002534
O O13 0.725889 0.000000 0.902108
O O14 0.585603 0.227342 0.342008
O O15 0.622588 0.000000 0.397872
O O16 0.250000 0.250000 0.500000
O O17 0.306687 0.000000 0.414949
O O18 0.955304 0.500000 0.708771
#
# Coordination Sequence:
#
# PCOD9192138 Si02
#       7
#     8   8   8   8   8   8   8
#     4  10  20  33  53  80 109 138 172 215 262 311
#     4  12  25  38  53  75 104 141 183 222 264 313
#     4   9  17  31  51  77 108 140 172 208 256 313
#     4   9  17  30  51  79 109 137 169 212 259 309
#     4  11  21  34  54  78 108 142 174 212 261 317
#     4  11  22  37  56  77 104 139 179 222 264 310
#     4  10  21  36  53  77 108 143 178 213 260 317
#
# _framework density 16.822334999999999
#
# number of rings (size 3 to 8) (size 9 to 14) (size 15 to 20)
#    0.000    1.714    2.857    2.571    0.000    4.000 
#    0.000    0.000    0.000    0.857    0.000    6.000 
#    0.000    0.000    0.000    0.000    0.000    0.000 
#
# Total GULP energy -156311.302531 kJ/mol
# GULP energy per Si atom -5582.546519 kJ/mol
# Density = 1.678405 g / cm^3
# Si number density = 16.822335 Si / 1000 Ang^3
#
#
#
# Elastic Constant Matrix: (Units=GPa)
#
#
# Indices 1 2 3 4 5 6 
#
# 1 90.4995 28.0339 73.0441 0.0000 -11.4997 0.0002
# 2 28.0339 23.6823 32.7868 0.0001 0.5735 0.0006
# 3 73.0441 32.7868 174.4608 0.0000 -0.2289 0.0001
# 4 0.0000 0.0001 0.0000 19.7671 0.0000 -5.4781
# 5 -11.4997 0.5735 -0.2289 0.0000 23.6974 0.0000
# 6 0.0002 0.0006 0.0001 -5.4781 0.0000 25.3546
#
#
#
# Elastic Compliance Matrix: (Units=1/GPa)
#
#
# Indices 1 2 3 4 5 6 
#
# 1 0.023671 -0.019747 -0.006184 0.000000 0.011905 0.000000
# 2 -0.019747 0.073602 -0.005579 -0.000001 -0.011418 -0.000002
# 3 -0.006184 -0.005579 0.009366 0.000000 -0.002775 0.000000
# 4 0.000000 -0.000001 0.000000 0.053811 0.000000 0.011627
# 5 0.011905 -0.011418 -0.002775 0.000000 0.048225 0.000000
# 6 0.000000 -0.000002 0.000000 0.011627 0.000000 0.041953
#
#
# Mechanical properties :
#
#
# Convention : Reuss Voigt Hill
#
# Bulk Modulus (GPa) = 22.92635 61.81913 42.37274
# Shear Modulus (GPa) = 15.23516 24.08234 19.65875
#
# Velocity S-wave (km/s) = 3.01267 3.78771 3.42220
# Velocity P-wave (km/s) = 5.07540 7.48044 6.39205
#
# Compressibility (1/GPa) = 0.04361794
#
# Stress axis : x y z
#
# Youngs Moduli (GPa) = 42.24634 13.58655 106.77040
#
# Poissons Ratio (x) = 0.26830 0.66024
# Poissons Ratio (y) = 0.83425 0.59571
# Poissons Ratio (z) = 0.26124 0.07580
#
# Static dielectric constant tensor:
#      x y z
#    x 1.531070 0.000000 0.017840 
#    y 0.000000 1.566070 0.000000 
#    z 0.017840 0.000000 1.589830 
# 
# From -- ./inp_files/287376.got.cif
#   From: 2010.05.17/outbox.cif.g08.bks.cpg/sg12_144_cif.got.tgz:287376.got - 2010.06.03 13:09:07.
