data_PCOD9192695
_publ_section_title
;
Structure prediction by ZEFSAII (Michael W. Deem and Ramdas Pophale) SiO2 
 PCOD9192695
Probable space group: C 2/M
;
_chemical_formula_sum "Si O2"
_cell_formula_units_Z 56
_cell_length_a 18.072324
_cell_length_b 12.493920
_cell_length_c 24.642549
_cell_angle_alpha 90.000000
_cell_angle_beta 142.474860
_cell_angle_gamma 90.000000
_cell_volume 3389.172771
_symmetry_space_group_name_H-M "C 2/M"
_symmetry_group_IT_number 12
_symmetry_cell_setting 'monoclinic'
loop_
_space_group_symop_operation_xyz
x,y,z
-x,y,-z
-x,-y,-z
x,-y,z
1/2+x,1/2+y,z
1/2-x,1/2+y,-z
1/2-x,1/2-y,-z
1/2+x,1/2-y,z
loop_
_atom_site_type_symbol
_atom_site_label
_atom_site_fract_x
_atom_site_fract_y
_atom_site_fract_z
Si Si1 0.764023 0.626421 0.071164
Si Si2 0.835270 0.239433 0.217359
Si Si3 0.909743 0.374849 0.896251
Si Si4 0.576597 0.129559 0.627907
Si Si5 0.045723 0.761083 0.886906
Si Si6 0.549502 0.371094 0.276647
Si Si7 0.177813 0.629103 0.568616
O O1 0.773801 0.500000 0.080280
O O2 0.788164 0.681794 0.142754
O O3 0.864629 0.674311 0.088694
O O4 0.633355 0.661809 0.972385
O O5 0.726023 0.158156 0.166345
O O6 0.870467 0.307852 0.290461
O O7 0.951741 0.177824 0.261005
O O8 0.916180 0.500000 0.885184
O O9 0.954338 0.299872 0.873341
O O10 0.000000 0.358488 0.000000
O O11 0.647499 0.157232 0.613435
O O12 0.436132 0.161183 0.534726
O O13 0.583004 0.000000 0.638885
O O14 0.983248 0.826666 0.802157
O O15 0.542595 0.500000 0.272788
O O16 0.687754 0.336210 0.369738
O O17 0.177364 0.500000 0.567225
#
# Coordination Sequence:
#
# PCOD9192695 Si02
#       7
#     8   8   8   8   8   8   8
#     4  10  20  34  50  73 102 131 170 216 256 300
#     4  11  21  33  51  78 105 137 173 207 262 306
#     4  11  22  37  53  72 102 136 173 214 251 302
#     4   9  17  32  55  79 106 135 169 214 255 305
#     4  10  20  35  53  73  96 138 178 205 254 305
#     4  10  20  34  53  77 106 136 173 217 254 301
#     4   8  16  32  53  77 102 135 173 209 257 304
#
# _framework density 16.523205000000001
#
# number of rings (size 3 to 8) (size 9 to 14) (size 15 to 20)
#    0.000    2.143    1.429    3.429    0.000    0.571 
#    0.000    2.857    0.000    0.000    0.000   20.000 
#    0.000    0.000    0.000    0.000    0.000    0.000 
#
# Total GULP energy -156191.790145 kJ/mol
# GULP energy per Si atom -5578.278219 kJ/mol
# Density = 1.648560 g / cm^3
# Si number density = 16.523205 Si / 1000 Ang^3
#
#
#
# Elastic Constant Matrix: (Units=GPa)
#
#
# Indices 1 2 3 4 5 6 
#
# 1 57.2876 1.9319 22.1642 0.0000 12.5706 0.0000
# 2 1.9319 49.6016 -0.3880 0.0000 2.4662 0.0000
# 3 22.1642 -0.3880 67.7434 -0.0001 10.6569 0.0000
# 4 0.0000 0.0000 -0.0001 21.6012 0.0000 1.9084
# 5 12.5706 2.4662 10.6569 0.0000 29.7871 0.0000
# 6 0.0000 0.0000 0.0000 1.9084 0.0000 17.6302
#
#
#
# Elastic Compliance Matrix: (Units=1/GPa)
#
#
# Indices 1 2 3 4 5 6 
#
# 1 0.021245 -0.000535 -0.005882 0.000000 -0.006817 0.000000
# 2 -0.000535 0.020268 0.000550 0.000000 -0.001649 0.000000
# 3 -0.005882 0.000550 0.017278 0.000000 -0.003745 0.000000
# 4 0.000000 0.000000 0.000000 0.046741 0.000000 -0.005060
# 5 -0.006817 -0.001649 -0.003745 0.000000 0.037925 0.000000
# 6 0.000000 0.000000 0.000000 -0.005060 0.000000 0.057269
#
#
# Mechanical properties :
#
#
# Convention : Reuss Voigt Hill
#
# Bulk Modulus (GPa) = 21.24954 24.67211 22.96082
# Shear Modulus (GPa) = 21.91601 23.86533 22.89067
#
# Velocity S-wave (km/s) = 3.64590 3.80459 3.72609
# Velocity P-wave (km/s) = 5.53279 5.85355 5.69543
#
# Compressibility (1/GPa) = 0.04705985
#
# Stress axis : x y z
#
# Youngs Moduli (GPa) = 47.06932 49.33941 57.87632
#
# Poissons Ratio (x) = 0.02637 0.34041
# Poissons Ratio (y) = 0.02516 -0.03186
# Poissons Ratio (z) = 0.27684 -0.02716
#
# Static dielectric constant tensor:
#      x y z
#    x 1.550750 0.000000 0.016440 
#    y 0.000000 1.517350 0.000000 
#    z 0.016440 0.000000 1.551460 
# 
# From -- ./inp_files/343010.got.cif
#   From: 2010.05.17/outbox.cif.g08.bks.cpg/sg12_172_cif.got.tgz:343010.got - 2010.06.03 13:09:07.
