data_PCOD9192303
_publ_section_title
;
Structure prediction by ZEFSAII (Michael W. Deem and Ramdas Pophale) SiO2 
 PCOD9192303
Probable space group: C 2/M
;
_chemical_formula_sum "Si O2"
_cell_formula_units_Z 40
_cell_length_a 9.717126
_cell_length_b 13.274715
_cell_length_c 23.272972
_cell_angle_alpha 90.000000
_cell_angle_beta 29.982731
_cell_angle_gamma 90.000000
_cell_volume 1500.230853
_symmetry_space_group_name_H-M "C 2/M"
_symmetry_group_IT_number 12
_symmetry_cell_setting 'monoclinic'
loop_
_space_group_symop_operation_xyz
x,y,z
-x,y,-z
-x,-y,-z
x,-y,z
1/2+x,1/2+y,z
1/2-x,1/2+y,-z
1/2-x,1/2-y,-z
1/2+x,1/2-y,z
loop_
_atom_site_type_symbol
_atom_site_label
_atom_site_fract_x
_atom_site_fract_y
_atom_site_fract_z
Si Si1 0.810756 0.666365 0.398565
Si Si2 0.436433 0.609327 0.817636
Si Si3 0.446710 0.156765 0.230310
Si Si4 0.318641 0.611244 0.432403
Si Si5 0.635346 0.138112 0.042357
O O1 0.500000 0.628389 0.500000
O O2 0.008814 0.634672 0.274861
O O3 0.861307 0.630943 0.445007
O O4 0.790304 0.788152 0.405192
O O5 0.567454 0.500000 0.755982
O O6 0.569450 0.721047 0.769891
O O7 0.176839 0.623602 0.867621
O O8 0.315792 0.596261 0.925321
O O9 0.632391 0.114290 0.111532
O O10 0.141075 0.115679 0.331474
O O11 0.263060 0.500000 0.430269
O O12 0.750000 0.250000 0.000000
#
# Coordination Sequence:
#
# PCOD9192303 Si02
#       5
#     8   8   8   8   8
#     4   9  20  37  56  82 112 141 181 227 271 325
#     4  10  20  36  57  81 111 147 187 227 272 324
#     4  10  20  33  54  84 112 141 183 229 271 321
#     4  10  21  38  58  80 110 146 181 223 277 331
#     4   9  18  32  53  81 111 141 176 223 271 317
#
# _framework density 26.662562999999999
#
# number of rings (size 3 to 8) (size 9 to 14) (size 15 to 20)
#    0.000    2.400    0.000    2.400    0.000    8.000 
#    0.000    8.000    0.000   15.600    0.000   60.200 
#    0.000    0.000    0.000    0.000    0.000    0.000 
#
# Total GULP energy -111569.907691 kJ/mol
# GULP energy per Si atom -5578.495385 kJ/mol
# Density = 2.660188 g / cm^3
# Si number density = 26.662563 Si / 1000 Ang^3
#
#
#
# Elastic Constant Matrix: (Units=GPa)
#
#
# Indices 1 2 3 4 5 6 
#
# 1 74.7381 23.9250 65.2281 0.0013 44.8990 -0.0087
# 2 23.9250 196.7069 24.9273 -0.0286 -5.8163 0.0935
# 3 65.2281 24.9273 121.5613 -0.2256 70.0276 1.0838
# 4 0.0013 -0.0286 -0.2256 81.0993 -0.1342 -393.0528
# 5 44.8990 -5.8163 70.0276 -0.1342 87.3294 0.7041
# 6 -0.0087 0.0935 1.0838 -393.0528 0.7041 1875.4863
#
#
#
# Elastic Compliance Matrix: (Units=1/GPa)
#
#
# Indices 1 2 3 4 5 6 
#
# 1 0.026616 -0.001992 -0.010991 -0.000062 -0.005004 -0.000005
# 2 -0.001992 0.005616 -0.001650 -0.000013 0.002722 -0.000003
# 3 -0.010991 -0.001650 0.020946 -0.000076 -0.011255 -0.000024
# 4 -0.000062 -0.000013 -0.000076 -0.784755 0.000212 -0.164464
# 5 -0.005004 0.002722 -0.011255 0.000212 0.023230 0.000042
# 6 -0.000005 -0.000003 -0.000024 -0.164464 0.000042 -0.033934
#
#
# Mechanical properties :
#
#
# Convention : Reuss Voigt Hill
#
# Bulk Modulus (GPa) = 41.82242 69.01856 55.42049
# Shear Modulus (GPa) = -7.09177 427.37807 210.14315
#
# Velocity S-wave (km/s) = -1.63267 12.67436 8.88746
# Velocity P-wave (km/s) = 3.48794 15.49607 11.23151
#
# Compressibility (1/GPa) = 0.02391062
#
# Stress axis : x y z
#
# Youngs Moduli (GPa) = 37.57112 178.07362 47.74124
#
# Poissons Ratio (x) = 0.35480 0.52472
# Poissons Ratio (y) = 0.07486 0.07879
# Poissons Ratio (z) = 0.41294 0.29389
#
# Static dielectric constant tensor:
#      x y z
#    x 2.131000 0.000000 0.020260 
#    y 0.000000 2.038930 -0.000010 
#    z 0.020260 -0.000010 2.072350 
# 
# From -- ./inp_files/358025.got.cif
#   From: 2010.05.17/outbox.cif.g08.bks.cpg/sg12_180_cif.got.tgz:358025.got - 2010.06.03 13:09:07.
