data_PCOD9192736
_publ_section_title
;
Structure prediction by ZEFSAII (Michael W. Deem and Ramdas Pophale) SiO2 
 PCOD9192736
Probable space group: C 2/M
;
_chemical_formula_sum "Si O2"
_cell_formula_units_Z 56
_cell_length_a 24.356639
_cell_length_b 9.361690
_cell_length_c 14.416358
_cell_angle_alpha 90.000000
_cell_angle_beta 129.987452
_cell_angle_gamma 90.000000
_cell_volume 2518.610046
_symmetry_space_group_name_H-M "C 2/M"
_symmetry_group_IT_number 12
_symmetry_cell_setting 'monoclinic'
loop_
_space_group_symop_operation_xyz
x,y,z
-x,y,-z
-x,-y,-z
x,-y,z
1/2+x,1/2+y,z
1/2-x,1/2+y,-z
1/2-x,1/2-y,-z
1/2+x,1/2-y,z
loop_
_atom_site_type_symbol
_atom_site_label
_atom_site_fract_x
_atom_site_fract_y
_atom_site_fract_z
Si Si1 0.077311 0.160804 0.107382
Si Si2 0.750690 0.339253 0.876597
Si Si3 0.290704 0.835602 0.699389
Si Si4 0.620739 0.659376 0.941847
Si Si5 0.496119 0.169962 0.297675
Si Si6 0.866240 0.168165 0.516989
Si Si7 0.090355 0.164065 0.651974
O O1 0.137223 0.243541 0.230970
O O2 0.064717 0.000000 0.131861
O O3 0.109478 0.148016 0.039639
O O4 0.000000 0.229458 0.000000
O O5 0.767079 0.500000 0.927196
O O6 0.770709 0.337114 0.787915
O O7 0.665951 0.315063 0.786415
O O8 0.800492 0.225218 0.980434
O O9 0.217198 0.786040 0.569671
O O10 0.129404 0.000000 0.453133
O O11 0.613594 0.500000 0.895177
O O12 0.559884 0.761841 0.835306
O O13 0.574606 0.237123 0.368091
O O14 0.464926 0.227508 0.362204
O O15 0.497404 0.000000 0.295451
O O16 0.803970 0.500000 0.686957
O O17 0.889572 0.178902 0.433826
O O18 0.065438 0.000000 0.638386
#
# Coordination Sequence:
#
# PCOD9192736 Si02
#       7
#     8   8   8   8   8   8   8
#     4   9  18  33  55  82 105 123 149 191 242 294
#     4   8  15  30  50  71  96 124 159 203 243 284
#     4   8  15  29  51  77 100 125 157 194 238 286
#     4  10  20  34  51  70  97 132 162 192 241 299
#     4  12  24  33  45  68  99 133 169 210 245 278
#     4   9  18  34  53  71  96 131 170 206 240 284
#     4   9  18  33  52  71  94 129 169 207 247 287
#
# _framework density 22.234487000000001
#
# number of rings (size 3 to 8) (size 9 to 14) (size 15 to 20)
#    0.000    2.714    0.000    3.857    0.000    4.857 
#    0.000    2.857    0.000    0.857    0.000    0.000 
#    0.000    0.000    0.000    0.000    0.000    0.000 
#
# Total GULP energy -156361.864495 kJ/mol
# GULP energy per Si atom -5584.352303 kJ/mol
# Density = 2.218388 g / cm^3
# Si number density = 22.234487 Si / 1000 Ang^3
#
#
#
# Elastic Constant Matrix: (Units=GPa)
#
#
# Indices 1 2 3 4 5 6 
#
# 1 64.8006 36.8483 33.1962 0.0000 20.7598 0.0000
# 2 36.8483 126.4189 80.6491 0.0000 43.5894 0.0000
# 3 33.1962 80.6491 126.1384 0.0000 54.0910 0.0000
# 4 0.0000 0.0000 0.0000 30.8242 0.0000 13.1189
# 5 20.7598 43.5894 54.0910 0.0000 54.3005 0.0000
# 6 0.0000 0.0000 0.0000 13.1189 0.0000 15.7421
#
#
#
# Elastic Compliance Matrix: (Units=1/GPa)
#
#
# Indices 1 2 3 4 5 6 
#
# 1 0.019200 -0.003650 -0.001445 0.000000 -0.002971 0.000000
# 2 -0.003650 0.014535 -0.006857 0.000000 -0.003442 0.000000
# 3 -0.001445 -0.006857 0.017623 0.000000 -0.011498 0.000000
# 4 0.000000 0.000000 0.000000 0.050273 0.000000 -0.041895
# 5 -0.002971 -0.003442 -0.011498 0.000000 0.033769 0.000000
# 6 0.000000 0.000000 0.000000 -0.041895 0.000000 0.098438
#
#
# Mechanical properties :
#
#
# Convention : Reuss Voigt Hill
#
# Bulk Modulus (GPa) = 36.42489 68.74945 52.58717
# Shear Modulus (GPa) = 18.73416 31.28431 25.00923
#
# Velocity S-wave (km/s) = 2.90586 3.75509 3.35743
# Velocity P-wave (km/s) = 5.26084 7.05608 6.22353
#
# Compressibility (1/GPa) = 0.02745376
#
# Stress axis : x y z
#
# Youngs Moduli (GPa) = 52.08465 68.79818 56.74496
#
# Poissons Ratio (x) = 0.25111 0.08201
# Poissons Ratio (y) = 0.19011 0.38908
# Poissons Ratio (z) = 0.07528 0.47172
#
# Static dielectric constant tensor:
#      x y z
#    x 1.887000 0.000000 -0.035860 
#    y 0.000000 1.766390 0.000000 
#    z -0.035860 0.000000 1.859170 
# 
# From -- ./inp_files/281638.got.cif
#   From: 2010.05.17/outbox.cif.g08.bks.cpg/sg12_141_cif.got.tgz:281638.got - 2010.06.03 13:09:07.
