data_PCOD9192337
_publ_section_title
;
Structure prediction by ZEFSAII (Michael W. Deem and Ramdas Pophale) SiO2 
 PCOD9192337
Probable space group: C 2/M
;
_chemical_formula_sum "Si O2"
_cell_formula_units_Z 32
_cell_length_a 5.193484
_cell_length_b 25.151506
_cell_length_c 11.242995
_cell_angle_alpha 90.000000
_cell_angle_beta 72.939039
_cell_angle_gamma 90.000000
_cell_volume 1403.975683
_symmetry_space_group_name_H-M "C 2/M"
_symmetry_group_IT_number 12
_symmetry_cell_setting 'monoclinic'
loop_
_space_group_symop_operation_xyz
x,y,z
-x,y,-z
-x,-y,-z
x,-y,z
1/2+x,1/2+y,z
1/2-x,1/2+y,-z
1/2-x,1/2-y,-z
1/2+x,1/2-y,z
loop_
_atom_site_type_symbol
_atom_site_label
_atom_site_fract_x
_atom_site_fract_y
_atom_site_fract_z
Si Si1 0.969939 0.767687 0.330302
Si Si2 0.209856 0.937201 0.364791
Si Si3 0.782262 0.882862 0.274672
Si Si4 0.799902 0.307594 0.916138
O O1 0.713634 0.731436 0.388059
O O2 0.866432 0.826918 0.324202
O O3 0.098104 0.735070 0.197744
O O4 0.492854 0.907344 0.347748
O O5 0.000000 0.926363 0.500000
O O6 0.036458 0.919680 0.272509
O O7 0.265782 0.000000 0.354034
O O8 0.737090 0.863577 0.145925
O O9 0.500000 0.293288 0.000000
O O10 0.000000 0.313920 0.000000
#
# Coordination Sequence:
#
# PCOD9192337 Si02
#       4
#     8   8   8   8
#     4  10  20  33  54  86 128 160 193 235 281 343
#     4  11  24  44  69  90 109 148 210 270 318 362
#     4  11  22  38  63  93 125 155 197 256 307 351
#     4  11  22  36  60  94 131 169 205 235 276 352
#
# _framework density 22.792415999999999
#
# number of rings (size 3 to 8) (size 9 to 14) (size 15 to 20)
#    0.000    1.250    0.000    9.000    0.000   14.000 
#    0.000    0.000    0.000   75.000    0.000    0.000 
#    0.000    0.000    0.000    0.000    0.000    0.000 
#
# Total GULP energy -89291.029602 kJ/mol
# GULP energy per Si atom -5580.689350 kJ/mol
# Density = 2.274054 g / cm^3
# Si number density = 22.792416 Si / 1000 Ang^3
#
#
#
# Elastic Constant Matrix: (Units=GPa)
#
#
# Indices 1 2 3 4 5 6 
#
# 1 224.0241 59.7136 50.4570 0.0000 -20.9421 0.0000
# 2 59.7136 103.6385 42.5040 0.0000 -11.4783 0.0000
# 3 50.4570 42.5040 80.9223 0.0000 -12.5600 0.0000
# 4 0.0000 0.0000 0.0000 25.5781 0.0000 -7.0536
# 5 -20.9421 -11.4783 -12.5600 0.0000 54.6499 0.0000
# 6 0.0000 0.0000 0.0000 -7.0536 0.0000 32.1822
#
#
#
# Elastic Compliance Matrix: (Units=1/GPa)
#
#
# Indices 1 2 3 4 5 6 
#
# 1 0.005661 -0.002240 -0.002167 0.000000 0.001201 0.000000
# 2 -0.002240 0.013253 -0.005460 0.000000 0.000670 0.000000
# 3 -0.002167 -0.005460 0.016872 0.000000 0.001900 0.000000
# 4 0.000000 0.000000 0.000000 0.041611 0.000000 0.009120
# 5 0.001201 0.000670 0.001900 0.000000 0.019336 0.000000
# 6 0.000000 0.000000 0.000000 0.009120 0.000000 0.033072
#
#
# Mechanical properties :
#
#
# Convention : Reuss Voigt Hill
#
# Bulk Modulus (GPa) = 62.30041 79.32602 70.81322
# Shear Modulus (GPa) = 32.28087 39.54272 35.91179
#
# Velocity S-wave (km/s) = 3.76746 4.16974 3.97369
# Velocity P-wave (km/s) = 6.80574 7.61981 7.22425
#
# Compressibility (1/GPa) = 0.01605126
#
# Stress axis : x y z
#
# Youngs Moduli (GPa) = 176.64010 75.45299 59.27110
#
# Poissons Ratio (x) = 0.16903 0.12843
# Poissons Ratio (y) = 0.39570 0.32364
# Poissons Ratio (z) = 0.38276 0.41200
#
# Static dielectric constant tensor:
#      x y z
#    x 2.006540 0.000000 0.104980 
#    y 0.000000 1.846520 0.000000 
#    z 0.104980 0.000000 2.182770 
# 
# From -- ./inp_files/114518.got.cif
#   From: 2010.05.17/outbox.cif.g08.bks.cpg/sg12_58_cif.got.tgz:114518.got - 2010.06.03 13:09:07.
