data_PCOD9192888
_publ_section_title
;
Structure prediction by ZEFSAII (Michael W. Deem and Ramdas Pophale) SiO2 
 PCOD9192888
Probable space group: C 2/M
;
_chemical_formula_sum "Si O2"
_cell_formula_units_Z 48
_cell_length_a 23.072854
_cell_length_b 9.083887
_cell_length_c 34.680726
_cell_angle_alpha 90.000000
_cell_angle_beta 156.287032
_cell_angle_gamma 90.000000
_cell_volume 2923.174270
_symmetry_space_group_name_H-M "C 2/M"
_symmetry_group_IT_number 12
_symmetry_cell_setting 'monoclinic'
loop_
_space_group_symop_operation_xyz
x,y,z
-x,y,-z
-x,-y,-z
x,-y,z
1/2+x,1/2+y,z
1/2-x,1/2+y,-z
1/2-x,1/2-y,-z
1/2+x,1/2-y,z
loop_
_atom_site_type_symbol
_atom_site_label
_atom_site_fract_x
_atom_site_fract_y
_atom_site_fract_z
Si Si1 0.913228 0.824689 0.555529
Si Si2 0.099937 0.676389 0.826448
Si Si3 0.585861 0.824183 0.591455
Si Si4 0.394766 0.824483 0.774507
Si Si5 0.424033 0.824008 0.643432
Si Si6 0.331397 0.824328 0.013531
O O1 0.742212 0.793650 0.446266
O O2 0.954073 0.761358 0.622302
O O3 0.004162 0.748568 0.577561
O O4 0.933222 0.000000 0.566565
O O5 0.121854 0.500000 0.841316
O O6 0.985566 0.711602 0.791000
O O7 0.029019 0.715382 0.742497
O O8 0.249731 0.756932 0.927218
O O9 0.500000 0.787179 0.500000
O O10 0.747332 0.762867 0.686839
O O11 0.587356 0.000000 0.596658
O O12 0.500960 0.794233 0.875432
O O13 0.366238 0.000000 0.756133
O O14 0.434735 0.000000 0.643263
O O15 0.312042 0.000000 0.002969
O O16 0.250000 0.750000 0.000000
#
# Coordination Sequence:
#
# PCOD9192888 Si02
#       6
#     8   8   8   8   8   8
#     4  10  20  34  52  72  97 131 165 198 240 286
#     4   9  17  30  50  75 101 129 161 198 242 289
#     4  11  23  35  49  72 100 129 162 200 241 287
#     4   9  18  32  49  71 100 132 163 196 239 289
#     4   9  18  33  52  74 100 128 161 201 240 284
#     4   9  17  29  46  70  99 128 161 201 242 286
#
# _framework density 16.420507000000001
#
# number of rings (size 3 to 8) (size 9 to 14) (size 15 to 20)
#    0.000    2.500    0.000    3.500    0.000    7.333 
#    0.000    0.000    0.000    1.000    0.000    7.000 
#    0.000    0.000    0.000    0.000    0.000    0.000 
#
# Total GULP energy -133816.998100 kJ/mol
# GULP energy per Si atom -5575.708254 kJ/mol
# Density = 1.638313 g / cm^3
# Si number density = 16.420507 Si / 1000 Ang^3
#
#
#
# Elastic Constant Matrix: (Units=GPa)
#
#
# Indices 1 2 3 4 5 6 
#
# 1 89.0437 51.3122 73.4490 -0.0005 -9.8548 -0.0002
# 2 51.3122 55.4973 73.8235 0.0002 -6.4289 0.0000
# 3 73.4490 73.8235 156.4829 -0.0017 -24.0421 0.0004
# 4 -0.0005 0.0002 -0.0017 31.9259 0.0002 -0.3057
# 5 -9.8548 -6.4289 -24.0421 0.0002 27.0263 0.0001
# 6 -0.0002 0.0000 0.0004 -0.3057 0.0001 22.5168
#
#
#
# Elastic Compliance Matrix: (Units=1/GPa)
#
#
# Indices 1 2 3 4 5 6 
#
# 1 0.024480 -0.020397 -0.001438 0.000000 0.002795 0.000000
# 2 -0.020397 0.067924 -0.024476 -0.000002 -0.013054 0.000000
# 3 -0.001438 -0.024476 0.020430 0.000001 0.011827 0.000000
# 4 0.000000 -0.000002 0.000001 0.031327 0.000001 0.000425
# 5 0.002795 -0.013054 0.011827 0.000001 0.045436 0.000000
# 6 0.000000 0.000000 0.000000 0.000425 0.000000 0.044417
#
#
# Mechanical properties :
#
#
# Convention : Reuss Voigt Hill
#
# Bulk Modulus (GPa) = 49.47766 77.57703 63.52735
# Shear Modulus (GPa) = 14.99816 23.12308 19.06062
#
# Velocity S-wave (km/s) = 3.02550 3.75665 3.41072
# Velocity P-wave (km/s) = 6.51167 8.13407 7.36766
#
# Compressibility (1/GPa) = 0.02021114
#
# Stress axis : x y z
#
# Youngs Moduli (GPa) = 40.84938 14.72228 48.94839
#
# Poissons Ratio (x) = 0.30029 0.07040
# Poissons Ratio (y) = 0.83321 1.19806
# Poissons Ratio (z) = 0.05875 0.36034
#
# Static dielectric constant tensor:
#      x y z
#    x 1.529140 0.000000 -0.020100 
#    y 0.000000 1.544170 0.000000 
#    z -0.020100 0.000000 1.564860 
# 
# From -- ./inp_files/244857.got.cif
#   From: 2010.05.17/outbox.cif.g08.bks.cpg/sg12_123_cif.got.tgz:244857.got - 2010.06.03 13:09:07.
