data_PCOD9192313
_publ_section_title
;
Structure prediction by ZEFSAII (Michael W. Deem and Ramdas Pophale) SiO2 
 PCOD9192313
Probable space group: C 2/M
;
_chemical_formula_sum "Si O2"
_cell_formula_units_Z 56
_cell_length_a 10.152869
_cell_length_b 13.765483
_cell_length_c 24.188571
_cell_angle_alpha 90.000000
_cell_angle_beta 39.666531
_cell_angle_gamma 90.000000
_cell_volume 2157.882152
_symmetry_space_group_name_H-M "C 2/M"
_symmetry_group_IT_number 12
_symmetry_cell_setting 'monoclinic'
loop_
_space_group_symop_operation_xyz
x,y,z
-x,y,-z
-x,-y,-z
x,-y,z
1/2+x,1/2+y,z
1/2-x,1/2+y,-z
1/2-x,1/2-y,-z
1/2+x,1/2-y,z
loop_
_atom_site_type_symbol
_atom_site_label
_atom_site_fract_x
_atom_site_fract_y
_atom_site_fract_z
Si Si1 0.978897 0.381551 0.861591
Si Si2 0.727518 0.107678 0.615451
Si Si3 0.237699 0.329391 0.370530
Si Si4 0.349601 0.616729 0.814015
Si Si5 0.802487 0.615753 0.801323
Si Si6 0.169235 0.881624 0.058242
Si Si7 0.722879 0.137930 0.496605
O O1 0.980094 0.500000 0.860046
O O2 0.908170 0.349153 0.824042
O O3 0.203362 0.351357 0.811027
O O4 0.812635 0.350747 0.961380
O O5 0.805491 0.212597 0.611954
O O6 0.478554 0.128417 0.698204
O O7 0.198463 0.095368 0.471492
O O8 0.754092 0.000000 0.634652
O O9 0.418047 0.348855 0.269606
O O10 0.311010 0.372861 0.406550
O O11 0.021346 0.380828 0.428815
O O12 0.354430 0.500000 0.811998
O O13 0.260645 0.644988 0.902604
O O14 0.777724 0.500000 0.814441
O O15 0.568899 0.650476 0.870184
O O16 0.173690 0.000000 0.054844
O O17 0.750000 0.250000 0.500000
#
# Coordination Sequence:
#
# PCOD9192313 Si02
#       7
#     8   8   8   8   8   8   8
#     4   9  17  30  50  79 115 153 196 246 298 354
#     4  10  21  38  61  88 118 155 200 246 297 359
#     4  10  21  38  60  85 119 155 193 245 304 360
#     4  10  20  33  54  84 117 157 201 243 297 363
#     4   9  17  29  50  80 111 149 197 244 294 351
#     4   9  16  29  51  79 112 152 198 247 298 353
#     4   9  20  39  59  83 114 150 191 240 297 359
#
# _framework density 25.951370000000001
#
# number of rings (size 3 to 8) (size 9 to 14) (size 15 to 20)
#    0.000    2.571    0.000    1.714    0.000    8.000 
#    0.000    7.143    0.000    5.143    0.000    0.000 
#    0.000    0.000    0.000    0.000    0.000    0.571 
#
# Total GULP energy -156491.878715 kJ/mol
# GULP energy per Si atom -5588.995668 kJ/mol
# Density = 2.589230 g / cm^3
# Si number density = 25.951370 Si / 1000 Ang^3
#
#
#
# Elastic Constant Matrix: (Units=GPa)
#
#
# Indices 1 2 3 4 5 6 
#
# 1 89.3227 -14.4851 14.5494 0.0003 4.5290 -0.0003
# 2 -14.4851 111.8860 -9.3830 0.0002 -1.7343 -0.0002
# 3 14.5494 -9.3830 113.4140 0.0001 5.1543 -0.0003
# 4 0.0003 0.0002 0.0001 32.6918 -0.0002 0.6831
# 5 4.5290 -1.7343 5.1543 -0.0002 46.3429 0.0004
# 6 -0.0003 -0.0002 -0.0003 0.6831 0.0004 -7.2170
#
#
#
# Elastic Compliance Matrix: (Units=1/GPa)
#
#
# Indices 1 2 3 4 5 6 
#
# 1 0.011686 0.001386 -0.001342 0.000000 -0.000941 0.000000
# 2 0.001386 0.009167 0.000574 0.000000 0.000144 0.000000
# 3 -0.001342 0.000574 0.009076 0.000000 -0.000857 0.000000
# 4 0.000000 0.000000 0.000000 0.030528 0.000000 0.002889
# 5 -0.000941 0.000144 -0.000857 0.000000 0.021771 0.000001
# 6 0.000000 0.000000 0.000000 0.002889 0.000001 -0.138287
#
#
# Mechanical properties :
#
#
# Convention : Reuss Voigt Hill
#
# Bulk Modulus (GPa) = 32.08623 32.88727 32.48675
# Shear Modulus (GPa) = -106.59538 35.95964 -35.31787
#
# Velocity S-wave (km/s) = -6.41593 3.72648 -3.69307
# Velocity P-wave (km/s) = 6.51880 5.58710 2.37478
#
# Compressibility (1/GPa) = 0.03116602
#
# Stress axis : x y z
#
# Youngs Moduli (GPa) = 85.56985 109.08152 110.18287
#
# Poissons Ratio (x) = -0.15117 0.14784
# Poissons Ratio (y) = -0.11859 -0.06326
# Poissons Ratio (z) = 0.11482 -0.06263
#
# Static dielectric constant tensor:
#      x y z
#    x 2.050440 0.000000 -0.011040 
#    y 0.000000 2.078480 0.000000 
#    z -0.011040 0.000000 1.953260 
# 
# From -- ./inp_files/374197.got.cif
#   From: 2010.05.17/outbox.cif.g08.bks.cpg/sg12_188_cif.got.tgz:374197.got - 2010.06.03 13:09:07.
