data_PCOD9192411
_publ_section_title
;
Structure prediction by ZEFSAII (Michael W. Deem and Ramdas Pophale) SiO2 
 PCOD9192411
Probable space group: C 2/M
;
_chemical_formula_sum "Si O2"
_cell_formula_units_Z 56
_cell_length_a 17.141231
_cell_length_b 18.538804
_cell_length_c 13.760837
_cell_angle_alpha 90.000000
_cell_angle_beta 37.662566
_cell_angle_gamma 90.000000
_cell_volume 2671.879485
_symmetry_space_group_name_H-M "C 2/M"
_symmetry_group_IT_number 12
_symmetry_cell_setting 'monoclinic'
loop_
_space_group_symop_operation_xyz
x,y,z
-x,y,-z
-x,-y,-z
x,-y,z
1/2+x,1/2+y,z
1/2-x,1/2+y,-z
1/2-x,1/2-y,-z
1/2+x,1/2-y,z
loop_
_atom_site_type_symbol
_atom_site_label
_atom_site_fract_x
_atom_site_fract_y
_atom_site_fract_z
Si Si1 0.123434 0.918773 0.129008
Si Si2 0.260700 0.718644 0.639305
Si Si3 0.126404 0.662270 0.102391
Si Si4 0.138550 0.321084 0.320616
Si Si5 0.861578 0.080166 0.116837
Si Si6 0.420188 0.084704 0.178877
Si Si7 0.047907 0.209729 0.723283
O O1 0.995671 0.871488 0.253221
O O2 0.114612 0.000000 0.177780
O O3 0.238825 0.872291 0.061737
O O4 0.151294 0.925686 0.986561
O O5 0.306693 0.744020 0.699366
O O6 0.200349 0.638813 0.699511
O O7 0.148584 0.769826 0.707199
O O8 0.378641 0.730399 0.448759
O O9 0.131557 0.667091 0.213434
O O10 0.015391 0.610594 0.170665
O O11 0.077962 0.743123 0.124854
O O12 0.238080 0.376798 0.269837
O O13 0.000000 0.331671 0.500000
O O14 0.864838 0.000000 0.157573
O O15 0.000000 0.114671 0.000000
O O16 0.388754 0.000000 0.217801
O O17 0.500000 0.095781 0.000000
#
# Coordination Sequence:
#
# PCOD9192411 Si02
#       7
#     8   8   8   8   8   8   8
#     4  10  20  33  55  86 120 156 203 256 314 371
#     4  10  22  38  60  89 123 164 216 252 305 376
#     4  10  21  39  63  90 119 158 203 262 315 371
#     4  11  21  37  62  91 127 162 200 262 318 376
#     4   9  19  35  53  80 121 164 206 252 306 377
#     4  10  23  44  67  90 122 165 215 263 309 370
#     4  10  20  37  58  84 122 167 209 255 302 368
#
# _framework density 20.959029000000001
#
# number of rings (size 3 to 8) (size 9 to 14) (size 15 to 20)
#    0.000    2.000    1.429    1.714    0.000    7.714 
#    0.000    0.000    0.000    0.429    0.000    0.000 
#    0.000    0.000    0.000    0.000    0.000    0.000 
#
# Total GULP energy -156130.026541 kJ/mol
# GULP energy per Si atom -5576.072376 kJ/mol
# Density = 2.091133 g / cm^3
# Si number density = 20.959029 Si / 1000 Ang^3
#
#
#
# Elastic Constant Matrix: (Units=GPa)
#
#
# Indices 1 2 3 4 5 6 
#
# 1 85.7855 48.9907 35.0571 0.0000 -3.7960 0.0000
# 2 48.9907 118.5535 50.2803 0.0000 -24.4151 0.0000
# 3 35.0571 50.2803 46.0881 0.0000 -20.3085 0.0000
# 4 0.0000 0.0000 0.0000 -2.3278 0.0000 5.4097
# 5 -3.7960 -24.4151 -20.3085 0.0000 32.1750 0.0000
# 6 0.0000 0.0000 0.0000 5.4097 0.0000 22.5142
#
#
#
# Elastic Compliance Matrix: (Units=1/GPa)
#
#
# Indices 1 2 3 4 5 6 
#
# 1 0.019588 -0.003665 -0.015388 0.000000 -0.010183 0.000000
# 2 -0.003665 0.016439 -0.013631 0.000000 0.003438 0.000000
# 3 -0.015388 -0.013631 0.059451 0.000000 0.025366 0.000000
# 4 0.000000 0.000000 0.000000 -0.275663 0.000000 0.066236
# 5 -0.010183 0.003438 0.025366 0.000000 0.048498 0.000000
# 6 0.000000 0.000000 0.000000 0.066236 0.000000 0.028501
#
#
# Mechanical properties :
#
#
# Convention : Reuss Voigt Hill
#
# Bulk Modulus (GPa) = 33.21317 57.67595 45.44456
# Shear Modulus (GPa) = -179.99011 18.21221 -80.88895
#
# Velocity S-wave (km/s) = -9.27704 2.95098 -6.21913
# Velocity P-wave (km/s) = 9.94335 6.26013 5.46265
#
# Compressibility (1/GPa) = 0.03010854
#
# Stress axis : x y z
#
# Youngs Moduli (GPa) = 51.05117 60.83136 16.82045
#
# Poissons Ratio (x) = 0.22296 0.25884
# Poissons Ratio (y) = 0.18712 0.22928
# Poissons Ratio (z) = 0.78560 0.82921
#
# Static dielectric constant tensor:
#      x y z
#    x 1.783880 0.000000 -0.010160 
#    y 0.000000 1.800570 0.000000 
#    z -0.010160 0.000000 1.747410 
# 
# From -- ./inp_files/226553.got.cif
#   From: 2010.05.17/outbox.cif.g08.bks.cpg/sg12_114_cif.got.tgz:226553.got - 2010.06.03 13:09:07.
