data_PCOD9192075
_publ_section_title
;
Structure prediction by ZEFSAII (Michael W. Deem and Ramdas Pophale) SiO2 
 PCOD9192075
Probable space group: C 2/M
;
_chemical_formula_sum "Si O2"
_cell_formula_units_Z 64
_cell_length_a 10.639728
_cell_length_b 31.199282
_cell_length_c 10.887363
_cell_angle_alpha 90.000000
_cell_angle_beta 66.529646
_cell_angle_gamma 90.000000
_cell_volume 3315.074198
_symmetry_space_group_name_H-M "C 2/M"
_symmetry_group_IT_number 12
_symmetry_cell_setting 'monoclinic'
loop_
_space_group_symop_operation_xyz
x,y,z
-x,y,-z
-x,-y,-z
x,-y,z
1/2+x,1/2+y,z
1/2-x,1/2+y,-z
1/2-x,1/2-y,-z
1/2+x,1/2-y,z
loop_
_atom_site_type_symbol
_atom_site_label
_atom_site_fract_x
_atom_site_fract_y
_atom_site_fract_z
Si Si1 0.776466 0.451554 0.116147
Si Si2 0.624291 0.299254 0.133942
Si Si3 0.577466 0.793731 0.095944
Si Si4 0.665256 0.190255 0.439992
Si Si5 0.355018 0.868302 0.766491
Si Si6 0.480254 0.951221 0.799232
Si Si7 0.159986 0.788604 0.397682
Si Si8 0.606979 0.612424 0.047157
O O1 0.723104 0.500000 0.146822
O O2 0.660959 0.416712 0.135999
O O3 0.872756 0.442731 0.195219
O O4 0.875719 0.450728 0.956965
O O5 0.543400 0.254416 0.154088
O O6 0.670173 0.305627 0.256037
O O7 0.550389 0.342000 0.116604
O O8 0.760939 0.294389 0.998901
O O9 0.555168 0.830462 0.204917
O O10 0.500000 0.803128 0.000000
O O11 0.500000 0.188036 0.500000
O O12 0.705647 0.152038 0.333179
O O13 0.741961 0.189231 0.540593
O O14 0.699059 0.238044 0.377467
O O15 0.437713 0.912733 0.726136
O O16 0.235286 0.877586 0.909813
O O17 0.477279 0.000000 0.751149
O O18 0.000000 0.791345 0.500000
O O19 0.500000 0.589594 0.000000
#
# Coordination Sequence:
#
# PCOD9192075 Si02
#       8
#     8   8   8   8   8   8   8   8
#     4   8  15  29  47  73 106 136 169 204 259 321
#     4  10  21  35  46  74 102 138 177 211 256 315
#     4  10  21  31  51  74 103 140 168 216 262 306
#     4  10  22  37  53  77  97 136 184 230 256 299
#     4  10  20  33  53  76 106 134 174 216 264 316
#     4   8  15  28  50  76 103 132 163 213 268 316
#     4  10  22  37  55  71 101 143 182 221 265 301
#     4  10  21  31  48  75 106 141 168 211 259 314
#
# _framework density 19.30575
#
# number of rings (size 3 to 8) (size 9 to 14) (size 15 to 20)
#    0.000    2.500    1.250    1.125    8.750    1.250 
#    0.000    0.000    0.000    0.375    0.000    0.875 
#    0.000    1.000    0.000    0.000    0.000    0.000 
#
# Total GULP energy -178395.229762 kJ/mol
# GULP energy per Si atom -5574.850930 kJ/mol
# Density = 1.926181 g / cm^3
# Si number density = 19.305750 Si / 1000 Ang^3
#
#
#
# Elastic Constant Matrix: (Units=GPa)
#
#
# Indices 1 2 3 4 5 6 
#
# 1 64.6074 45.8336 14.1836 0.0000 15.2194 0.0000
# 2 45.8336 112.7246 31.2596 0.0000 14.2637 0.0000
# 3 14.1836 31.2596 43.2189 0.0000 22.1260 0.0000
# 4 0.0000 0.0000 0.0000 13.9993 0.0000 16.6101
# 5 15.2194 14.2637 22.1260 0.0000 28.2993 0.0000
# 6 0.0000 0.0000 0.0000 16.6101 0.0000 18.9404
#
#
#
# Elastic Compliance Matrix: (Units=1/GPa)
#
#
# Indices 1 2 3 4 5 6 
#
# 1 0.024098 -0.009751 0.005441 0.000000 -0.012299 0.000000
# 2 -0.009751 0.015064 -0.010827 0.000000 0.006116 0.000000
# 3 0.005441 -0.010827 0.046501 0.000000 -0.033826 0.000000
# 4 0.000000 0.000000 0.000000 -1.763090 0.000000 1.546169
# 5 -0.012299 0.006116 -0.033826 0.000000 0.065315 0.000000
# 6 0.000000 0.000000 0.000000 1.546169 0.000000 -1.303140
#
#
# Mechanical properties :
#
#
# Convention : Reuss Voigt Hill
#
# Bulk Modulus (GPa) = 18.05420 44.78940 31.42180
# Shear Modulus (GPa) = -1.74428 20.86607 9.56090
#
# Velocity S-wave (km/s) = -0.95156 3.29115 2.22780
# Velocity P-wave (km/s) = 2.85740 6.13943 4.78839
#
# Compressibility (1/GPa) = 0.05538879
#
# Stress axis : x y z
#
# Youngs Moduli (GPa) = 41.49659 66.38193 21.50509
#
# Poissons Ratio (x) = 0.64728 -0.11700
# Poissons Ratio (y) = 0.40462 0.23284
# Poissons Ratio (z) = -0.22576 0.71872
#
# Static dielectric constant tensor:
#      x y z
#    x 1.717640 0.000000 -0.014750 
#    y 0.000000 1.707980 0.000000 
#    z -0.014750 0.000000 1.684370 
# 
# From -- ./inp_files/137423.got.cif
#   From: 2010.05.17/outbox.cif.g08.bks.cpg/sg12_69_cif.got.tgz:137423.got - 2010.06.03 13:09:07.
