data_PCOD9192335
_publ_section_title
;
Structure prediction by ZEFSAII (Michael W. Deem and Ramdas Pophale) SiO2 
 PCOD9192335
Probable space group: C 2/M
;
_chemical_formula_sum "Si O2"
_cell_formula_units_Z 64
_cell_length_a 15.552240
_cell_length_b 19.797084
_cell_length_c 11.627583
_cell_angle_alpha 90.000000
_cell_angle_beta 117.575213
_cell_angle_gamma 90.000000
_cell_volume 3173.330414
_symmetry_space_group_name_H-M "C 2/M"
_symmetry_group_IT_number 12
_symmetry_cell_setting 'monoclinic'
loop_
_space_group_symop_operation_xyz
x,y,z
-x,y,-z
-x,-y,-z
x,-y,z
1/2+x,1/2+y,z
1/2-x,1/2+y,-z
1/2-x,1/2-y,-z
1/2+x,1/2-y,z
loop_
_atom_site_type_symbol
_atom_site_label
_atom_site_fract_x
_atom_site_fract_y
_atom_site_fract_z
Si Si1 0.145889 0.424218 0.357083
Si Si2 0.637250 0.676674 0.138214
Si Si3 0.825760 0.247911 0.221704
Si Si4 0.229632 0.430032 0.665966
Si Si5 0.945891 0.922384 0.590270
Si Si6 0.551708 0.649989 0.855979
Si Si7 0.453525 0.125747 0.345157
Si Si8 0.712040 0.310323 0.560242
O O1 0.156009 0.500000 0.312307
O O2 0.193671 0.427422 0.513550
O O3 0.201848 0.359716 0.340376
O O4 0.035307 0.404770 0.314280
O O5 0.711644 0.733524 0.137837
O O6 0.705552 0.632513 0.261432
O O7 0.541888 0.693120 0.154777
O O8 0.602520 0.631999 0.008090
O O9 0.869386 0.192143 0.165652
O O10 0.897311 0.311646 0.254979
O O11 0.835276 0.224795 0.359405
O O12 0.282701 0.500000 0.720844
O O13 0.131778 0.426043 0.678761
O O14 0.866749 0.862576 0.538955
O O15 0.000000 0.917944 0.500000
O O16 0.011968 0.905922 0.742593
O O17 0.908683 0.000000 0.574206
O O18 0.500000 0.143452 0.500000
O O19 0.750000 0.250000 0.500000
#
# Coordination Sequence:
#
# PCOD9192335 Si02
#       8
#     8   8   8   8   8   8   8   8
#     4  10  20  33  54  86 122 157 197 245 304 368
#     4  10  23  40  59  89 118 154 211 259 302 368
#     4  11  23  37  58  87 124 159 201 257 308 360
#     4   9  17  34  55  78 114 151 189 244 302 354
#     4  11  24  42  61  89 128 169 209 251 311 383
#     4  11  23  41  63  84 119 163 205 255 311 366
#     4   9  18  31  52  84 115 149 190 240 304 358
#     4  12  23  35  60  90 126 162 205 253 308 368
#
# _framework density 20.168085000000001
#
# number of rings (size 3 to 8) (size 9 to 14) (size 15 to 20)
#    0.000    1.625    1.250    4.875    5.250    3.500 
#    0.000    1.250    0.000    0.000    0.000    0.000 
#    0.000    4.250    0.000    0.000    0.000    0.000 
#
# Total GULP energy -178330.028548 kJ/mol
# GULP energy per Si atom -5572.813392 kJ/mol
# Density = 2.012218 g / cm^3
# Si number density = 20.168085 Si / 1000 Ang^3
#
#
#
# Elastic Constant Matrix: (Units=GPa)
#
#
# Indices 1 2 3 4 5 6 
#
# 1 105.8471 31.8267 18.0182 0.0000 -4.1836 0.0000
# 2 31.8267 86.0682 12.5694 0.0000 -4.1962 0.0000
# 3 18.0182 12.5694 64.1981 0.0000 -6.4931 0.0000
# 4 0.0000 0.0000 0.0000 10.3880 0.0000 -6.9135
# 5 -4.1836 -4.1962 -6.4931 0.0000 25.8900 0.0000
# 6 0.0000 0.0000 0.0000 -6.9135 0.0000 -21.5713
#
#
#
# Elastic Compliance Matrix: (Units=1/GPa)
#
#
# Indices 1 2 3 4 5 6 
#
# 1 0.010973 -0.003693 -0.002296 0.000000 0.000599 0.000000
# 2 -0.003693 0.013252 -0.001438 0.000000 0.001191 0.000000
# 3 -0.002296 -0.001438 0.016870 0.000000 0.003627 0.000000
# 4 0.000000 0.000000 0.000000 0.079342 0.000000 -0.025429
# 5 0.000599 0.001191 0.003627 0.000000 0.039824 0.000000
# 6 0.000000 0.000000 0.000000 -0.025429 0.000000 -0.038208
#
#
# Mechanical properties :
#
#
# Convention : Reuss Voigt Hill
#
# Bulk Modulus (GPa) = 38.10854 42.32690 40.21772
# Shear Modulus (GPa) = 34.32822 15.85460 25.09141
#
# Velocity S-wave (km/s) = 4.13013 2.80683 3.53103
# Velocity P-wave (km/s) = 6.45604 5.61578 6.05052
#
# Compressibility (1/GPa) = 0.02624084
#
# Stress axis : x y z
#
# Youngs Moduli (GPa) = 91.13673 75.45854 59.27856
#
# Poissons Ratio (x) = 0.27867 0.13610
# Poissons Ratio (y) = 0.33657 0.08523
# Poissons Ratio (z) = 0.20925 0.10849
#
# Static dielectric constant tensor:
#      x y z
#    x 1.779760 0.000000 0.019560 
#    y 0.000000 1.758410 0.000000 
#    z 0.019560 0.000000 1.721530 
# 
# From -- ./inp_files/147645.got.cif
#   From: 2010.05.17/outbox.cif.g08.bks.cpg/sg12_74_cif.got.tgz:147645.got - 2010.06.03 13:09:07.
