data_PCOD9192938
_publ_section_title
;
Structure prediction by ZEFSAII (Michael W. Deem and Ramdas Pophale) SiO2 
 PCOD9192938
Probable space group: C 2/M
;
_chemical_formula_sum "Si O2"
_cell_formula_units_Z 48
_cell_length_a 8.154858
_cell_length_b 12.457612
_cell_length_c 27.124766
_cell_angle_alpha 90.000000
_cell_angle_beta 116.534612
_cell_angle_gamma 90.000000
_cell_volume 2465.343752
_symmetry_space_group_name_H-M "C 2/M"
_symmetry_group_IT_number 12
_symmetry_cell_setting 'monoclinic'
loop_
_space_group_symop_operation_xyz
x,y,z
-x,y,-z
-x,-y,-z
x,-y,z
1/2+x,1/2+y,z
1/2-x,1/2+y,-z
1/2-x,1/2-y,-z
1/2+x,1/2-y,z
loop_
_atom_site_type_symbol
_atom_site_label
_atom_site_fract_x
_atom_site_fract_y
_atom_site_fract_z
Si Si1 0.216374 0.189122 0.380616
Si Si2 0.178783 0.621179 0.808719
Si Si3 0.423220 0.709800 0.126877
Si Si4 0.474584 0.122180 0.938293
Si Si5 0.572609 0.681000 0.460546
Si Si6 0.433142 0.119770 0.319536
O O1 0.408500 0.238044 0.425044
O O2 0.127640 0.128303 0.415654
O O3 0.271017 0.128798 0.338096
O O4 0.081727 0.287969 0.349691
O O5 0.125215 0.500000 0.815714
O O6 0.392749 0.640663 0.848982
O O7 0.072954 0.710910 0.825608
O O8 0.142695 0.633015 0.745787
O O9 0.419578 0.789092 0.079274
O O10 0.239409 0.640391 0.103055
O O11 0.530055 0.000000 0.933731
O O12 0.500000 0.137822 0.000000
O O13 0.500000 0.621836 0.500000
O O14 0.750000 0.750000 0.500000
O O15 0.515151 0.000000 0.334847
#
# Coordination Sequence:
#
# PCOD9192938 Si02
#       6
#     8   8   8   8   8   8
#     4   9  17  31  52  73 100 132 164 203 248 294
#     4  10  20  34  52  74 101 132 167 208 252 299
#     4  10  20  34  53  75 101 133 171 208 252 302
#     4  10  20  34  52  75 103 134 169 210 254 300
#     4   8  14  27  51  74  96 133 165 197 250 293
#     4  10  20  34  52  75 102 132 167 207 251 299
#
# _framework density 19.469901
#
# number of rings (size 3 to 8) (size 9 to 14) (size 15 to 20)
#    0.000    2.500    0.000    2.500    0.000    0.000 
#    0.000    3.333    0.000   85.000    0.000    0.000 
#    0.000    0.000    0.000    0.000    0.000    0.000 
#
# Total GULP energy -133720.489283 kJ/mol
# GULP energy per Si atom -5571.687053 kJ/mol
# Density = 1.942559 g / cm^3
# Si number density = 19.469901 Si / 1000 Ang^3
#
#
#
# Elastic Constant Matrix: (Units=GPa)
#
#
# Indices 1 2 3 4 5 6 
#
# 1 44.4409 4.7796 6.1993 0.0000 -9.6878 0.0000
# 2 4.7796 72.4037 30.7865 0.0000 -2.1131 0.0000
# 3 6.1993 30.7865 90.8783 0.0000 -24.4956 0.0000
# 4 0.0000 0.0000 0.0000 17.3305 0.0000 -5.4713
# 5 -9.6878 -2.1131 -24.4956 0.0000 34.4629 0.0000
# 6 0.0000 0.0000 0.0000 -5.4713 0.0000 5.6184
#
#
#
# Elastic Compliance Matrix: (Units=1/GPa)
#
#
# Indices 1 2 3 4 5 6 
#
# 1 0.024165 -0.001778 0.000935 0.000000 0.007348 0.000000
# 2 -0.001778 0.016632 -0.006646 0.000000 -0.004204 0.000000
# 3 0.000935 -0.006646 0.016269 0.000000 0.011419 0.000000
# 4 0.000000 0.000000 0.000000 0.083317 0.000000 0.081135
# 5 0.007348 -0.004204 0.011419 0.000000 0.038941 0.000000
# 6 0.000000 0.000000 0.000000 0.081135 0.000000 0.256995
#
#
# Mechanical properties :
#
#
# Convention : Reuss Voigt Hill
#
# Bulk Modulus (GPa) = 23.76058 32.36152 28.06105
# Shear Modulus (GPa) = 10.74512 22.54620 16.64566
#
# Velocity S-wave (km/s) = 2.35177 3.40664 2.92711
# Velocity P-wave (km/s) = 4.42772 5.66842 5.08604
#
# Compressibility (1/GPa) = 0.04208652
#
# Stress axis : x y z
#
# Youngs Moduli (GPa) = 41.38301 60.12440 61.46475
#
# Poissons Ratio (x) = 0.10691 -0.05745
# Poissons Ratio (y) = 0.07358 0.40851
# Poissons Ratio (z) = -0.03868 0.39961
#
# Static dielectric constant tensor:
#      x y z
#    x 1.676200 0.000000 -0.047850 
#    y 0.000000 1.666690 0.000000 
#    z -0.047850 0.000000 1.691570 
# 
# From -- ./inp_files/299908.got.cif
#   From: 2010.05.17/outbox.cif.g08.bks.cpg/sg12_150_cif.got.tgz:299908.got - 2010.06.03 13:09:07.
