data_PCOD9192761
_publ_section_title
;
Structure prediction by ZEFSAII (Michael W. Deem and Ramdas Pophale) SiO2 
 PCOD9192761
Probable space group: C 2/M
;
_chemical_formula_sum "Si O2"
_cell_formula_units_Z 56
_cell_length_a 14.384881
_cell_length_b 7.564618
_cell_length_c 23.917056
_cell_angle_alpha 90.000000
_cell_angle_beta 74.541000
_cell_angle_gamma 90.000000
_cell_volume 2508.404538
_symmetry_space_group_name_H-M "C 2/M"
_symmetry_group_IT_number 12
_symmetry_cell_setting 'monoclinic'
loop_
_space_group_symop_operation_xyz
x,y,z
-x,y,-z
-x,-y,-z
x,-y,z
1/2+x,1/2+y,z
1/2-x,1/2+y,-z
1/2-x,1/2-y,-z
1/2+x,1/2-y,z
loop_
_atom_site_type_symbol
_atom_site_label
_atom_site_fract_x
_atom_site_fract_y
_atom_site_fract_z
Si Si1 0.170305 0.207198 0.224615
Si Si2 0.293081 0.712340 0.904723
Si Si3 0.598506 0.288735 0.548663
Si Si4 0.996421 0.784263 0.327724
Si Si5 0.896225 0.787621 0.999273
Si Si6 0.293484 0.287133 0.302926
Si Si7 0.699933 0.788596 0.426721
O O1 0.181701 0.282188 0.160740
O O2 0.266677 0.222040 0.246094
O O3 0.086069 0.283877 0.277511
O O4 0.147660 0.000000 0.221523
O O5 0.303538 0.500000 0.901416
O O6 0.184232 0.749338 0.941407
O O7 0.358560 0.780168 0.945407
O O8 0.596373 0.500000 0.553382
O O9 0.518783 0.221860 0.605572
O O10 0.609901 0.253798 0.480894
O O11 0.701346 0.225361 0.558323
O O12 0.897887 0.738850 0.310426
O O13 0.002177 0.000000 0.328648
O O14 0.902688 0.000000 0.993296
O O15 0.000000 0.718238 0.000000
O O16 0.290812 0.500000 0.301817
O O17 0.213448 0.223283 0.361247
O O18 0.705051 0.000000 0.424048
#
# Coordination Sequence:
#
# PCOD9192761 Si02
#       7
#     8   8   8   8   8   8   8
#     4  10  20  34  51  72 101 134 166 201 242 289
#     4   9  19  34  51  76 108 135 160 198 246 286
#     4   8  13  24  44  66  86 116 160 202 244 298
#     4   8  16  32  51  69  94 130 167 204 249 299
#     4   9  18  34  57  82 104 130 167 202 232 279
#     4   9  18  33  51  70  95 130 170 208 249 298
#     4   8  14  25  42  65  91 118 153 203 257 297
#
# _framework density 22.324947999999999
#
# number of rings (size 3 to 8) (size 9 to 14) (size 15 to 20)
#    0.000    3.286    0.000    1.714    0.000    2.571 
#    0.000    7.143    0.000    4.286    0.000    0.000 
#    0.000    0.000    0.000    0.000    0.000    0.000 
#
# Total GULP energy -156177.631048 kJ/mol
# GULP energy per Si atom -5577.772537 kJ/mol
# Density = 2.227414 g / cm^3
# Si number density = 22.324948 Si / 1000 Ang^3
#
#
#
# Elastic Constant Matrix: (Units=GPa)
#
#
# Indices 1 2 3 4 5 6 
#
# 1 92.1204 -0.6372 68.0025 0.0000 -5.7252 0.0000
# 2 -0.6372 50.5566 5.1433 0.0000 -0.0711 0.0000
# 3 68.0025 5.1433 192.7682 0.0000 10.8169 0.0000
# 4 0.0000 0.0000 0.0000 19.7517 0.0000 1.6722
# 5 -5.7252 -0.0711 10.8169 0.0000 8.7809 0.0000
# 6 0.0000 0.0000 0.0000 1.6722 0.0000 3.5385
#
#
#
# Elastic Compliance Matrix: (Units=1/GPa)
#
#
# Indices 1 2 3 4 5 6 
#
# 1 0.017596 0.001002 -0.007389 0.000000 0.020583 0.000000
# 2 0.001002 0.019897 -0.000999 0.000000 0.002046 0.000000
# 3 -0.007389 -0.000999 0.008693 0.000000 -0.015534 0.000000
# 4 0.000000 0.000000 0.000000 0.052738 0.000000 -0.024923
# 5 0.020583 0.002046 -0.015534 0.000000 0.146456 0.000000
# 6 0.000000 0.000000 0.000000 -0.024923 0.000000 0.294384
#
#
# Mechanical properties :
#
#
# Convention : Reuss Voigt Hill
#
# Bulk Modulus (GPa) = 31.83321 53.38470 42.60896
# Shear Modulus (GPa) = 8.84944 23.94333 16.39639
#
# Velocity S-wave (km/s) = 1.99312 3.27845 2.71300
# Velocity P-wave (km/s) = 4.42569 6.18833 5.37969
#
# Compressibility (1/GPa) = 0.03141373
#
# Stress axis : x y z
#
# Youngs Moduli (GPa) = 56.83088 50.25886 115.04139
#
# Poissons Ratio (x) = -0.05038 0.85005
# Poissons Ratio (y) = -0.05697 0.11496
# Poissons Ratio (z) = 0.41993 0.05022
#
# Static dielectric constant tensor:
#      x y z
#    x 1.842770 0.000000 0.007160 
#    y 0.000000 1.828400 0.000000 
#    z 0.007160 0.000000 1.841400 
# 
# From -- ./inp_files/337838.got.cif
#   From: 2010.05.17/outbox.cif.g08.bks.cpg/sg12_169_cif.got.tgz:337838.got - 2010.06.03 13:09:07.
