data_PCOD9192532
_publ_section_title
;
Structure prediction by ZEFSAII (Michael W. Deem and Ramdas Pophale) SiO2 
 PCOD9192532
Probable space group: C 2/M
;
_chemical_formula_sum "Si O2"
_cell_formula_units_Z 58
_cell_length_a 22.266202
_cell_length_b 28.627059
_cell_length_c 5.062680
_cell_angle_alpha 90.000000
_cell_angle_beta 63.976054
_cell_angle_gamma 90.000000
_cell_volume 2899.846223
_symmetry_space_group_name_H-M "C 2/M"
_symmetry_group_IT_number 12
_symmetry_cell_setting 'monoclinic'
loop_
_space_group_symop_operation_xyz
x,y,z
-x,y,-z
-x,-y,-z
x,-y,z
1/2+x,1/2+y,z
1/2-x,1/2+y,-z
1/2-x,1/2-y,-z
1/2+x,1/2-y,z
loop_
_atom_site_type_symbol
_atom_site_label
_atom_site_fract_x
_atom_site_fract_y
_atom_site_fract_z
Si Si1 0.826632 0.262934 0.271681
Si Si2 0.043911 0.946038 0.676379
Si Si3 0.816550 0.167995 0.023884
Si Si4 0.841492 0.322668 0.722585
Si Si5 0.000000 0.500000 0.500000
Si Si6 0.114295 0.425987 0.364579
Si Si7 0.798992 0.552763 0.299966
Si Si8 0.169712 0.885505 0.504258
O O1 0.750000 0.250000 0.500000
O O2 0.846692 0.215617 0.081373
O O3 0.860797 0.282904 0.470642
O O4 0.834954 0.302486 0.030903
O O5 0.112336 0.919124 0.515596
O O6 0.000000 0.944129 0.500000
O O7 0.059063 0.000000 0.710291
O O8 0.000000 0.926224 0.000000
O O9 0.735704 0.166253 0.206776
O O10 0.842178 0.127986 0.169800
O O11 0.830363 0.158873 0.690696
O O12 0.886452 0.369303 0.620371
O O13 0.950570 0.458223 0.471501
O O14 0.170013 0.440283 0.471493
O O15 0.141750 0.439364 0.022760
O O16 0.773295 0.500000 0.323470
O O17 0.740966 0.589263 0.349516
#
# Coordination Sequence:
#
# PCOD9192532 Si02
#       8
#     8   8   8   8   2   8   8   8
#     4  10  20  33  57  89 128 159 193 245 325 387
#     4  10  22  40  58  83 120 164 209 246 283 361
#     4  11  20  33  56  94 127 156 192 259 310 387
#     4  11  19  37  56  88 125 164 196 251 318 384
#     4  12  28  50  64  98 124 182 228 274 320 386
#     4  12  25  41  64  87 126 164 215 266 319 380
#     4  12  22  40  59  89 125 163 202 264 320 373
#     4  12  21  35  60  92 125 157 205 244 322 366
#
# _framework density 20.001061
#
# number of rings (size 3 to 8) (size 9 to 14) (size 15 to 20)
#    0.000    0.828    4.138    6.207    0.000    1.103 
#    0.000    4.138    0.000    0.000   17.931    0.000 
#    0.000    0.000    0.000    0.000    0.000    0.000 
#
# Total GULP energy -161583.869238 kJ/mol
# GULP energy per Si atom -5571.857560 kJ/mol
# Density = 1.995554 g / cm^3
# Si number density = 20.001061 Si / 1000 Ang^3
#
#
#
# Elastic Constant Matrix: (Units=GPa)
#
#
# Indices 1 2 3 4 5 6 
#
# 1 47.3487 23.3691 5.8916 0.0000 -3.6633 0.0000
# 2 23.3691 89.0073 16.0320 0.0000 4.5591 0.0000
# 3 5.8916 16.0320 50.5241 0.0000 20.8983 0.0000
# 4 0.0000 0.0000 0.0000 48.1015 0.0000 27.4659
# 5 -3.6633 4.5591 20.8983 0.0000 18.3862 0.0000
# 6 0.0000 0.0000 0.0000 27.4659 0.0000 53.5497
#
#
#
# Elastic Compliance Matrix: (Units=1/GPa)
#
#
# Indices 1 2 3 4 5 6 
#
# 1 0.026348 -0.006376 -0.007313 0.000000 0.015142 0.000000
# 2 -0.006376 0.013522 -0.003085 0.000000 -0.001116 0.000000
# 3 -0.007313 -0.003085 0.041352 0.000000 -0.047694 0.000000
# 4 0.000000 0.000000 0.000000 0.029400 0.000000 -0.015079
# 5 0.015142 -0.001116 -0.047694 0.000000 0.111893 0.000000
# 6 0.000000 0.000000 0.000000 -0.015079 0.000000 0.026408
#
#
# Mechanical properties :
#
#
# Convention : Reuss Voigt Hill
#
# Bulk Modulus (GPa) = 20.97585 30.82949 25.90267
# Shear Modulus (GPa) = 16.75808 33.44663 25.10236
#
# Velocity S-wave (km/s) = 2.89772 4.09374 3.54651
# Velocity P-wave (km/s) = 4.65895 6.14755 5.45427
#
# Compressibility (1/GPa) = 0.04767387
#
# Stress axis : x y z
#
# Youngs Moduli (GPa) = 37.95295 73.95305 24.18262
#
# Poissons Ratio (x) = 0.47155 0.17684
# Poissons Ratio (y) = 0.24200 0.07461
# Poissons Ratio (z) = 0.27753 0.22818
#
# Static dielectric constant tensor:
#      x y z
#    x 1.656470 0.000000 0.014300 
#    y 0.000000 1.769630 0.000000 
#    z 0.014300 0.000000 1.733640 
# 
# From -- ./inp_files/22443.got.cif
#   From: 2010.05.17/outbox.cif.g08.bks.cpg/sg12_12_cif.got.tgz:22443.got - 2010.06.03 13:09:07.
