data_PCOD9192865
_publ_section_title
;
Structure prediction by ZEFSAII (Michael W. Deem and Ramdas Pophale) SiO2 
 PCOD9192865
Probable space group: C 2/M
;
_chemical_formula_sum "Si O2"
_cell_formula_units_Z 64
_cell_length_a 29.002181
_cell_length_b 8.814357
_cell_length_c 19.322071
_cell_angle_alpha 90.000000
_cell_angle_beta 138.270174
_cell_angle_gamma 90.000000
_cell_volume 3287.764010
_symmetry_space_group_name_H-M "C 2/M"
_symmetry_group_IT_number 12
_symmetry_cell_setting 'monoclinic'
loop_
_space_group_symop_operation_xyz
x,y,z
-x,y,-z
-x,-y,-z
x,-y,z
1/2+x,1/2+y,z
1/2-x,1/2+y,-z
1/2-x,1/2-y,-z
1/2+x,1/2-y,z
loop_
_atom_site_type_symbol
_atom_site_label
_atom_site_fract_x
_atom_site_fract_y
_atom_site_fract_z
Si Si1 0.074642 0.815844 0.166006
Si Si2 0.447996 0.181055 0.112586
Si Si3 0.185462 0.828766 0.393389
Si Si4 0.143812 0.816851 0.102088
Si Si5 0.927655 0.316733 0.381187
Si Si6 0.794943 0.681645 0.325468
Si Si7 0.377668 0.673220 0.531876
Si Si8 0.468525 0.316807 0.287717
O O1 0.011963 0.741695 0.137374
O O2 0.145413 0.763769 0.283349
O O3 0.087871 0.783374 0.100323
O O4 0.068910 0.000000 0.166826
O O5 0.450745 0.251697 0.192445
O O6 0.450999 0.000000 0.120498
O O7 0.380731 0.236816 0.995090
O O8 0.250000 0.750000 0.500000
O O9 0.130853 0.830445 0.395219
O O10 0.205532 0.000000 0.398043
O O11 0.220313 0.769036 0.213258
O O12 0.143803 0.000000 0.093109
O O13 0.928619 0.500000 0.375912
O O14 0.860405 0.273533 0.350986
O O15 0.923065 0.242440 0.300383
O O16 0.000000 0.271525 0.500000
O O17 0.792661 0.500000 0.325243
O O18 0.816173 0.740246 0.424918
O O19 0.375073 0.500000 0.503874
O O20 0.453732 0.738047 0.604870
O O21 0.469237 0.500000 0.285209
#
# Coordination Sequence:
#
# PCOD9192865 Si02
#       8
#     8   8   8   8   8   8   8   8
#     4  10  20  38  60  83 116 156 201 244 288 351
#     4  12  25  40  61  87 117 153 199 254 302 344
#     4  10  20  34  51  79 117 155 194 237 287 344
#     4  10  22  40  62  85 115 160 203 240 289 352
#     4  10  20  36  60  93 127 153 187 240 295 347
#     4  10  21  38  61  88 121 158 194 235 291 356
#     4  10  20  34  55  82 117 153 190 239 287 342
#     4  11  22  39  62  87 117 154 198 239 288 353
#
# _framework density 19.466118000000002
#
# number of rings (size 3 to 8) (size 9 to 14) (size 15 to 20)
#    0.000    1.625    2.500    2.625    0.000    5.750 
#    0.000    0.625    0.000    0.000    0.000    0.000 
#    0.000    0.000    0.000    0.000    0.000    0.000 
#
# Total GULP energy -178632.053826 kJ/mol
# GULP energy per Si atom -5582.251682 kJ/mol
# Density = 1.942181 g / cm^3
# Si number density = 19.466118 Si / 1000 Ang^3
#
#
#
# Elastic Constant Matrix: (Units=GPa)
#
#
# Indices 1 2 3 4 5 6 
#
# 1 79.6296 23.7983 37.3711 0.0000 -14.0439 0.0000
# 2 23.7983 33.6735 32.9225 0.0000 -8.4180 0.0000
# 3 37.3711 32.9225 134.5325 0.0000 -16.6240 0.0000
# 4 0.0000 0.0000 0.0000 28.6466 0.0000 -3.8131
# 5 -14.0439 -8.4180 -16.6240 0.0000 29.1609 0.0000
# 6 0.0000 0.0000 0.0000 -3.8131 0.0000 21.3946
#
#
#
# Elastic Compliance Matrix: (Units=1/GPa)
#
#
# Indices 1 2 3 4 5 6 
#
# 1 0.016937 -0.008932 -0.001969 0.000000 0.004456 0.000000
# 2 -0.008932 0.044840 -0.007987 0.000000 0.004090 0.000000
# 3 -0.001969 -0.007987 0.010255 0.000000 0.002592 0.000000
# 4 0.000000 0.000000 0.000000 0.035756 0.000000 0.006373
# 5 0.004456 0.004090 0.002592 0.000000 0.039097 0.000000
# 6 0.000000 0.000000 0.000000 0.006373 0.000000 0.047877
#
#
# Mechanical properties :
#
#
# Convention : Reuss Voigt Hill
#
# Bulk Modulus (GPa) = 29.18973 48.44660 38.81816
# Shear Modulus (GPa) = 20.49551 26.08998 23.29274
#
# Velocity S-wave (km/s) = 3.24833 3.66495 3.46291
# Velocity P-wave (km/s) = 5.39413 6.54605 5.99781
#
# Compressibility (1/GPa) = 0.03425863
#
# Stress axis : x y z
#
# Youngs Moduli (GPa) = 59.04138 22.30141 97.51491
#
# Poissons Ratio (x) = 0.19919 0.19196
# Poissons Ratio (y) = 0.52733 0.77883
# Poissons Ratio (z) = 0.11623 0.17812
#
# Static dielectric constant tensor:
#      x y z
#    x 1.708270 0.000000 0.021450 
#    y 0.000000 1.667230 0.000000 
#    z 0.021450 0.000000 1.685320 
# 
# From -- ./inp_files/295769.got.cif
#   From: 2010.05.17/outbox.cif.g08.bks.cpg/sg12_148_cif.got.tgz:295769.got - 2010.06.03 13:09:07.
