data_PCOD9192170
_publ_section_title
;
Structure prediction by ZEFSAII (Michael W. Deem and Ramdas Pophale) SiO2 
 PCOD9192170
Probable space group: C 2/M
;
_chemical_formula_sum "Si O2"
_cell_formula_units_Z 56
_cell_length_a 25.202455
_cell_length_b 8.715304
_cell_length_c 13.988025
_cell_angle_alpha 90.000000
_cell_angle_beta 95.235581
_cell_angle_gamma 90.000000
_cell_volume 3059.610115
_symmetry_space_group_name_H-M "C 2/M"
_symmetry_group_IT_number 12
_symmetry_cell_setting 'monoclinic'
loop_
_space_group_symop_operation_xyz
x,y,z
-x,y,-z
-x,-y,-z
x,-y,z
1/2+x,1/2+y,z
1/2-x,1/2+y,-z
1/2-x,1/2-y,-z
1/2+x,1/2-y,z
loop_
_atom_site_type_symbol
_atom_site_label
_atom_site_fract_x
_atom_site_fract_y
_atom_site_fract_z
Si Si1 0.473149 0.316393 0.774138
Si Si2 0.691634 0.812997 0.756092
Si Si3 0.196182 0.316714 0.536626
Si Si4 0.583113 0.185320 0.839089
Si Si5 0.873564 0.816736 0.635921
Si Si6 0.690722 0.315871 0.179840
Si Si7 0.908018 0.316649 0.939881
O O1 0.474474 0.500000 0.775715
O O2 0.531987 0.249760 0.776099
O O3 0.431570 0.269270 0.684370
O O4 0.447171 0.258744 0.869097
O O5 0.690182 0.764315 0.645155
O O6 0.639043 0.762979 0.803278
O O7 0.747922 0.765894 0.811461
O O8 0.692091 0.000000 0.756811
O O9 0.200348 0.500000 0.537835
O O10 0.250000 0.250000 0.500000
O O11 0.147753 0.265290 0.461369
O O12 0.581551 0.000000 0.835545
O O13 0.580116 0.231373 0.949889
O O14 0.833082 0.786833 0.717790
O O15 0.873433 0.000000 0.620287
O O16 0.687328 0.500000 0.164147
O O17 0.651534 0.232541 0.100133
O O18 0.913492 0.500000 0.934354
#
# Coordination Sequence:
#
# PCOD9192170 Si02
#       7
#     8   8   8   8   8   8   8
#     4  10  21  37  57  78 105 140 178 219 264 315
#     4   9  19  36  54  75 108 146 176 209 264 321
#     4  11  20  33  56  82 107 137 174 215 259 313
#     4  10  21  37  55  75 106 144 179 219 262 309
#     4   9  18  34  54  79 106 135 173 219 264 308
#     4   9  17  33  54  76 107 144 176 212 262 318
#     4  10  20  33  53  82 108 134 177 226 264 304
#
# _framework density 18.302985
#
# number of rings (size 3 to 8) (size 9 to 14) (size 15 to 20)
#    0.000    2.286    1.429    2.571    0.000    6.286 
#    0.000    2.857    0.000    4.286    0.000    0.000 
#    0.000    0.000    0.000    0.000    0.000    0.000 
#
# Total GULP energy -156279.124961 kJ/mol
# GULP energy per Si atom -5581.397320 kJ/mol
# Density = 1.826133 g / cm^3
# Si number density = 18.302985 Si / 1000 Ang^3
#
#
#
# Elastic Constant Matrix: (Units=GPa)
#
#
# Indices 1 2 3 4 5 6 
#
# 1 116.3179 6.2060 6.5085 0.0000 16.8178 0.0000
# 2 6.2060 11.4535 3.4928 0.0000 5.2740 0.0000
# 3 6.5085 3.4928 26.2554 0.0000 14.9131 0.0000
# 4 0.0000 0.0000 0.0000 19.0096 0.0000 7.4045
# 5 16.8178 5.2740 14.9131 0.0000 20.6078 0.0000
# 6 0.0000 0.0000 0.0000 7.4045 0.0000 32.0459
#
#
#
# Elastic Compliance Matrix: (Units=1/GPa)
#
#
# Indices 1 2 3 4 5 6 
#
# 1 0.009980 -0.001763 0.003617 0.000000 -0.010311 0.000000
# 2 -0.001763 0.099350 0.001435 0.000000 -0.025026 0.000000
# 3 0.003617 0.001435 0.066023 0.000000 -0.051098 0.000000
# 4 0.000000 0.000000 0.000000 0.057808 0.000000 -0.013357
# 5 -0.010311 -0.025026 -0.051098 0.000000 0.100321 0.000000
# 6 0.000000 0.000000 0.000000 -0.013357 0.000000 0.034291
#
#
# Mechanical properties :
#
#
# Convention : Reuss Voigt Hill
#
# Bulk Modulus (GPa) = 5.49657 20.71571 13.10614
# Shear Modulus (GPa) = 11.85284 23.52064 17.68674
#
# Velocity S-wave (km/s) = 2.54754 3.58868 3.11196
# Velocity P-wave (km/s) = 3.41510 5.33987 4.48203
#
# Compressibility (1/GPa) = 0.18193166
#
# Stress axis : x y z
#
# Youngs Moduli (GPa) = 100.20511 10.06538 15.14613
#
# Poissons Ratio (x) = 0.01774 -0.05478
# Poissons Ratio (y) = 0.17663 -0.02173
# Poissons Ratio (z) = -0.36245 -0.01444
#
# Static dielectric constant tensor:
#      x y z
#    x 1.635800 0.000000 0.010890 
#    y 0.000000 1.616810 0.000000 
#    z 0.010890 0.000000 1.613940 
# 
# From -- ./inp_files/230924.got.cif
#   From: 2010.05.17/outbox.cif.g08.bks.cpg/sg12_116_cif.got.tgz:230924.got - 2010.06.03 13:09:07.
