data_PCOD9192719
_publ_section_title
;
Structure prediction by ZEFSAII (Michael W. Deem and Ramdas Pophale) SiO2 
 PCOD9192719
Probable space group: C 2/M
;
_chemical_formula_sum "Si O2"
_cell_formula_units_Z 50
_cell_length_a 19.291599
_cell_length_b 8.023088
_cell_length_c 14.765329
_cell_angle_alpha 90.000000
_cell_angle_beta 81.491002
_cell_angle_gamma 90.000000
_cell_volume 2260.195308
_symmetry_space_group_name_H-M "C 2/M"
_symmetry_group_IT_number 12
_symmetry_cell_setting 'monoclinic'
loop_
_space_group_symop_operation_xyz
x,y,z
-x,y,-z
-x,-y,-z
x,-y,z
1/2+x,1/2+y,z
1/2-x,1/2+y,-z
1/2-x,1/2-y,-z
1/2+x,1/2-y,z
loop_
_atom_site_type_symbol
_atom_site_label
_atom_site_fract_x
_atom_site_fract_y
_atom_site_fract_z
Si Si1 0.588664 0.814950 0.941067
Si Si2 0.874293 0.699745 0.358147
Si Si3 0.858331 0.192626 0.739171
Si Si4 0.495400 0.190391 0.777665
Si Si5 0.000000 0.000000 0.000000
Si Si6 0.921136 0.199827 0.536374
Si Si7 0.792064 0.809530 0.199934
O O1 0.539520 0.813858 0.860762
O O2 0.665944 0.793745 0.883700
O O3 0.582386 0.000000 0.985989
O O4 0.560760 0.649974 0.995309
O O5 0.875504 0.500000 0.354809
O O6 0.870962 0.757934 0.461734
O O7 0.817548 0.757990 0.295997
O O8 0.949745 0.761884 0.306049
O O9 0.924684 0.207218 0.792139
O O10 0.887903 0.258883 0.637140
O O11 0.790767 0.287534 0.787384
O O12 0.837711 0.000000 0.731287
O O13 0.477551 0.000000 0.757445
O O14 0.000000 0.265610 0.500000
O O15 0.926862 0.000000 0.542823
O O16 0.813327 0.000000 0.182911
#
# Coordination Sequence:
#
# PCOD9192719 Si02
#       7
#     8   8   8   8   2   8   8
#     4  10  22  41  66  99 130 153 196 247 290 359
#     4  10  20  34  55  78 114 153 202 261 308 347
#     4  11  22  34  56  83 117 160 207 253 305 358
#     4   9  19  35  56  86 117 155 199 248 294 351
#     4  12  22  40  72 106 120 162 192 230 308 366
#     4  10  20  34  50  78 113 155 206 260 307 351
#     4  11  22  39  59  85 118 160 204 245 304 365
#
# _framework density 22.121981999999999
#
# number of rings (size 3 to 8) (size 9 to 14) (size 15 to 20)
#    0.000    1.760    2.400    3.600    1.120    2.880 
#    0.000    0.000    0.000    0.960    0.000    0.000 
#    0.000    0.000    0.000    0.000    0.000    0.000 
#
# Total GULP energy -139362.262706 kJ/mol
# GULP energy per Si atom -5574.490508 kJ/mol
# Density = 2.207163 g / cm^3
# Si number density = 22.121982 Si / 1000 Ang^3
#
#
#
# Elastic Constant Matrix: (Units=GPa)
#
#
# Indices 1 2 3 4 5 6 
#
# 1 72.1215 2.8714 4.5001 0.0000 -22.1928 0.0000
# 2 2.8714 93.9983 21.7729 0.0000 -12.4567 0.0000
# 3 4.5001 21.7729 42.6151 0.0000 -14.9888 0.0000
# 4 0.0000 0.0000 0.0000 21.1588 0.0000 -4.9706
# 5 -22.1928 -12.4567 -14.9888 0.0000 25.9733 0.0000
# 6 0.0000 0.0000 0.0000 -4.9706 0.0000 22.7159
#
#
#
# Elastic Compliance Matrix: (Units=1/GPa)
#
#
# Indices 1 2 3 4 5 6 
#
# 1 0.019642 0.001010 0.004370 0.000000 0.019790 0.000000
# 2 0.001010 0.012283 -0.005027 0.000000 0.003853 0.000000
# 3 0.004370 -0.005027 0.032669 0.000000 0.020176 0.000000
# 4 0.000000 0.000000 0.000000 0.049823 0.000000 0.010902
# 5 0.019790 0.003853 0.020176 0.000000 0.068901 0.000000
# 6 0.000000 0.000000 0.000000 0.010902 0.000000 0.046407
#
#
# Mechanical properties :
#
#
# Convention : Reuss Voigt Hill
#
# Bulk Modulus (GPa) = 15.31377 29.66931 22.49154
# Shear Modulus (GPa) = 19.93736 25.94229 22.93982
#
# Velocity S-wave (km/s) = 3.00533 3.42818 3.22369
# Velocity P-wave (km/s) = 4.35662 5.39543 4.90361
#
# Compressibility (1/GPa) = 0.06530071
#
# Stress axis : x y z
#
# Youngs Moduli (GPa) = 50.91105 81.41585 30.60990
#
# Poissons Ratio (x) = -0.08225 -0.13377
# Poissons Ratio (y) = -0.05143 0.15388
# Poissons Ratio (z) = -0.22249 0.40928
#
# Static dielectric constant tensor:
#      x y z
#    x 1.794900 0.000000 -0.009470 
#    y 0.000000 1.826310 0.000000 
#    z -0.009470 0.000000 1.846590 
# 
# From -- ./inp_files/274221.got.cif
#   From: 2010.05.17/outbox.cif.g08.bks.cpg/sg12_138_cif.got.tgz:274221.got - 2010.06.03 13:09:07.
