data_PCOD9192794
_publ_section_title
;
Structure prediction by ZEFSAII (Michael W. Deem and Ramdas Pophale) SiO2 
 PCOD9192794
Probable space group: C 2/M
;
_chemical_formula_sum "Si O2"
_cell_formula_units_Z 56
_cell_length_a 14.157053
_cell_length_b 14.195818
_cell_length_c 14.919607
_cell_angle_alpha 90.000000
_cell_angle_beta 77.100432
_cell_angle_gamma 90.000000
_cell_volume 2922.736381
_symmetry_space_group_name_H-M "C 2/M"
_symmetry_group_IT_number 12
_symmetry_cell_setting 'monoclinic'
loop_
_space_group_symop_operation_xyz
x,y,z
-x,y,-z
-x,-y,-z
x,-y,z
1/2+x,1/2+y,z
1/2-x,1/2+y,-z
1/2-x,1/2-y,-z
1/2+x,1/2-y,z
loop_
_atom_site_type_symbol
_atom_site_label
_atom_site_fract_x
_atom_site_fract_y
_atom_site_fract_z
Si Si1 0.214023 0.250160 0.799409
Si Si2 0.039790 0.349768 0.581889
Si Si3 0.929828 0.284289 0.774442
Si Si4 0.434689 0.607397 0.254393
Si Si5 0.557632 0.110257 0.894984
Si Si6 0.596576 0.360745 0.532117
Si Si7 0.768646 0.398917 0.361275
O O1 0.316231 0.217834 0.816447
O O2 0.148174 0.161744 0.783985
O O3 0.151025 0.321615 0.873122
O O4 0.236673 0.312343 0.705769
O O5 0.088679 0.252033 0.539593
O O6 0.124632 0.399073 0.618664
O O7 0.000000 0.395557 0.500000
O O8 0.955303 0.322803 0.669739
O O9 0.973768 0.178404 0.769900
O O10 0.989312 0.348954 0.830714
O O11 0.452124 0.500000 0.221628
O O12 0.403945 0.605867 0.365485
O O13 0.580657 0.000000 0.874668
O O14 0.500000 0.117830 0.000000
O O15 0.500000 0.392558 0.500000
O O16 0.690086 0.388091 0.456090
O O17 0.750627 0.500000 0.319695
#
# Coordination Sequence:
#
# PCOD9192794 Si02
#       7
#     8   8   8   8   8   8   8
#     4  11  22  38  61  87 117 154 193 243 295 352
#     4  10  20  35  55  77 117 161 196 242 291 343
#     4  10  22  39  61  89 119 157 195 246 290 345
#     4  10  21  37  54  81 116 156 199 240 293 344
#     4  10  22  43  68  92 120 151 189 242 301 359
#     4  10  20  34  51  73 108 154 203 251 289 333
#     4  12  22  33  54  81 115 159 206 251 290 341
#
# _framework density 19.160126999999999
#
# number of rings (size 3 to 8) (size 9 to 14) (size 15 to 20)
#    0.000    1.571    4.286    3.857    2.000    4.857 
#    0.000    0.000    0.000    6.857    0.000    0.000 
#    0.000    0.000    0.000    0.000    0.000    0.000 
#
# Total GULP energy -156336.001886 kJ/mol
# GULP energy per Si atom -5583.428639 kJ/mol
# Density = 1.911652 g / cm^3
# Si number density = 19.160127 Si / 1000 Ang^3
#
#
#
# Elastic Constant Matrix: (Units=GPa)
#
#
# Indices 1 2 3 4 5 6 
#
# 1 93.9858 11.0410 13.2686 0.0000 -22.0079 0.0000
# 2 11.0410 105.8000 22.6712 0.0000 -7.0772 0.0000
# 3 13.2686 22.6712 65.3934 0.0000 -15.4479 0.0000
# 4 0.0000 0.0000 0.0000 -32.7146 0.0000 -99.3456
# 5 -22.0079 -7.0772 -15.4479 0.0000 19.8667 0.0000
# 6 0.0000 0.0000 0.0000 -99.3456 0.0000 57.3032
#
#
#
# Elastic Compliance Matrix: (Units=1/GPa)
#
#
# Indices 1 2 3 4 5 6 
#
# 1 0.014466 -0.000657 0.001253 0.000000 0.016766 0.000000
# 2 -0.000657 0.010259 -0.003347 0.000000 0.000325 0.000000
# 3 0.001253 -0.003347 0.019900 0.000000 0.015669 0.000000
# 4 0.000000 0.000000 0.000000 -0.004879 0.000000 -0.008459
# 5 0.016766 0.000325 0.015669 0.000000 0.081208 0.000000
# 6 0.000000 0.000000 0.000000 -0.008459 0.000000 0.002786
#
#
# Mechanical properties :
#
#
# Convention : Reuss Voigt Hill
#
# Bulk Modulus (GPa) = 25.55974 39.90453 32.73214
# Shear Modulus (GPa) = 35.14159 23.43761 29.28960
#
# Velocity S-wave (km/s) = 4.28729 3.50129 3.91407
# Velocity P-wave (km/s) = 6.15441 6.10061 6.12757
#
# Compressibility (1/GPa) = 0.03912402
#
# Stress axis : x y z
#
# Youngs Moduli (GPa) = 69.12747 97.47335 50.25208
#
# Poissons Ratio (x) = 0.06400 -0.06296
# Poissons Ratio (y) = 0.04539 0.16818
# Poissons Ratio (z) = -0.08661 0.32622
#
# Static dielectric constant tensor:
#      x y z
#    x 1.672010 0.000000 0.010180 
#    y 0.000000 1.709730 0.000000 
#    z 0.010180 0.000000 1.652980 
# 
# From -- ./inp_files/214187.got.cif
#   From: 2010.05.17/outbox.cif.g08.bks.cpg/sg12_108_cif.got.tgz:214187.got - 2010.06.03 13:09:07.
