data_PCOD9192388
_publ_section_title
;
Structure prediction by ZEFSAII (Michael W. Deem and Ramdas Pophale) SiO2 
 PCOD9192388
Probable space group: C 2/M
;
_chemical_formula_sum "Si O2"
_cell_formula_units_Z 58
_cell_length_a 28.420948
_cell_length_b 9.415165
_cell_length_c 25.593462
_cell_angle_alpha 90.000000
_cell_angle_beta 153.102995
_cell_angle_gamma 90.000000
_cell_volume 3098.180360
_symmetry_space_group_name_H-M "C 2/M"
_symmetry_group_IT_number 12
_symmetry_cell_setting 'monoclinic'
loop_
_space_group_symop_operation_xyz
x,y,z
-x,y,-z
-x,-y,-z
x,-y,z
1/2+x,1/2+y,z
1/2-x,1/2+y,-z
1/2-x,1/2-y,-z
1/2+x,1/2-y,z
loop_
_atom_site_type_symbol
_atom_site_label
_atom_site_fract_x
_atom_site_fract_y
_atom_site_fract_z
Si Si1 0.890940 0.667655 0.865121
Si Si2 0.608120 0.834394 0.468138
Si Si3 0.052322 0.665100 0.291217
Si Si4 0.814998 0.666041 0.678542
Si Si5 0.500000 0.000000 0.500000
Si Si6 0.351229 0.337401 0.114416
Si Si7 0.705713 0.842064 0.733666
Si Si8 0.596361 0.663780 0.711037
O O1 0.872321 0.500000 0.858445
O O2 0.893507 0.680953 0.804777
O O3 0.793839 0.760608 0.788666
O O4 0.000000 0.707896 0.000000
O O5 0.598745 0.823412 0.395619
O O6 0.716677 0.765591 0.590847
O O7 0.512508 0.747817 0.397337
O O8 0.598879 0.000000 0.474003
O O9 0.021520 0.500000 0.253607
O O10 0.132668 0.700580 0.325023
O O11 0.952431 0.764544 0.190049
O O12 0.781701 0.500000 0.643725
O O13 0.405564 0.122037 0.403806
O O14 0.341502 0.500000 0.088030
O O15 0.367552 0.333973 0.193041
O O16 0.250000 0.250000 0.000000
O O17 0.676952 0.746893 0.754928
O O18 0.744729 0.000000 0.787516
O O19 0.584057 0.500000 0.682702
#
# Coordination Sequence:
#
# PCOD9192388 Si02
#       8
#     8   8   8   8   2   8   8   8
#     4  10  23  42  60  83 116 157 205 249 291 347
#     4  10  20  33  55  84 118 149 183 233 291 350
#     4   9  19  36  54  80 114 148 186 230 282 341
#     4  10  21  36  57  81 109 151 192 234 286 343
#     4   8  24  40  60  92 124 148 186 254 308 368
#     4  10  21  36  56  82 114 147 189 233 282 340
#     4  10  22  40  62  86 121 151 191 245 304 354
#     4  10  21  37  58  85 114 152 192 238 291 352
#
# _framework density 18.720666000000001
#
# number of rings (size 3 to 8) (size 9 to 14) (size 15 to 20)
#    0.414    1.793    0.000    2.069    1.931    4.690 
#    0.000    3.448    0.000    0.000    0.000    0.000 
#    0.000    0.000    0.000    0.000    0.000    0.000 
#
# Total GULP energy -161555.006016 kJ/mol
# GULP energy per Si atom -5570.862276 kJ/mol
# Density = 1.867806 g / cm^3
# Si number density = 18.720666 Si / 1000 Ang^3
#
#
#
# Elastic Constant Matrix: (Units=GPa)
#
#
# Indices 1 2 3 4 5 6 
#
# 1 73.5366 38.7097 3.1860 0.0000 7.3931 0.0000
# 2 38.7097 104.9697 48.8408 0.0000 10.3339 0.0000
# 3 3.1860 48.8408 83.7701 0.0000 15.1733 0.0000
# 4 0.0000 0.0000 0.0000 32.5513 0.0000 9.2333
# 5 7.3931 10.3339 15.1733 0.0000 15.2378 0.0000
# 6 0.0000 0.0000 0.0000 9.2333 0.0000 30.4923
#
#
#
# Elastic Compliance Matrix: (Units=1/GPa)
#
#
# Indices 1 2 3 4 5 6 
#
# 1 0.018984 -0.008965 0.006188 0.000000 -0.009293 0.000000
# 2 -0.008965 0.017337 -0.010279 0.000000 0.002828 0.000000
# 3 0.006188 -0.010279 0.020712 0.000000 -0.016656 0.000000
# 4 0.000000 0.000000 0.000000 0.033607 0.000000 -0.010177
# 5 -0.009293 0.002828 -0.016656 0.000000 0.084802 0.000000
# 6 0.000000 0.000000 0.000000 -0.010177 0.000000 0.035877
#
#
# Mechanical properties :
#
#
# Convention : Reuss Voigt Hill
#
# Bulk Modulus (GPa) = 32.34088 49.30548 40.82318
# Shear Modulus (GPa) = 20.18250 27.09227 23.63738
#
# Velocity S-wave (km/s) = 3.28698 3.80832 3.55721
# Velocity P-wave (km/s) = 5.63193 6.76257 6.22298
#
# Compressibility (1/GPa) = 0.03092062
#
# Stress axis : x y z
#
# Youngs Moduli (GPa) = 52.67561 57.67981 48.28080
#
# Poissons Ratio (x) = 0.51711 -0.29877
# Poissons Ratio (y) = 0.47225 0.49630
# Poissons Ratio (z) = -0.32597 0.59291
#
# Static dielectric constant tensor:
#      x y z
#    x 1.655850 0.000000 -0.031730 
#    y 0.000000 1.639960 0.000000 
#    z -0.031730 0.000000 1.635470 
# 
# From -- ./inp_files/351472.got.cif
#   From: 2010.05.17/outbox.cif.g08.bks.cpg/sg12_176_cif.got.tgz:351472.got - 2010.06.03 13:09:07.
