data_PCOD9192339
_publ_section_title
;
Structure prediction by ZEFSAII (Michael W. Deem and Ramdas Pophale) SiO2 
 PCOD9192339
Probable space group: C 2/M
;
_chemical_formula_sum "Si O2"
_cell_formula_units_Z 40
_cell_length_a 14.263654
_cell_length_b 11.974867
_cell_length_c 18.189417
_cell_angle_alpha 90.000000
_cell_angle_beta 42.075995
_cell_angle_gamma 90.000000
_cell_volume 2081.948895
_symmetry_space_group_name_H-M "C 2/M"
_symmetry_group_IT_number 12
_symmetry_cell_setting 'monoclinic'
loop_
_space_group_symop_operation_xyz
x,y,z
-x,y,-z
-x,-y,-z
x,-y,z
1/2+x,1/2+y,z
1/2-x,1/2+y,-z
1/2-x,1/2-y,-z
1/2+x,1/2-y,z
loop_
_atom_site_type_symbol
_atom_site_label
_atom_site_fract_x
_atom_site_fract_y
_atom_site_fract_z
Si Si1 0.168186 0.314425 0.709072
Si Si2 0.650670 0.127926 0.887729
Si Si3 0.816382 0.125863 0.481604
Si Si4 0.624748 0.130008 0.374581
Si Si5 0.435812 0.256208 0.734205
O O1 0.155948 0.368750 0.795804
O O2 0.276655 0.375151 0.590846
O O3 0.235971 0.193775 0.684392
O O4 0.023735 0.294539 0.750090
O O5 0.783399 0.195913 0.840131
O O6 0.660219 0.000000 0.907483
O O7 0.500000 0.173674 0.000000
O O8 0.750000 0.250000 0.500000
O O9 0.972420 0.147372 0.360551
O O10 0.770922 0.000000 0.480746
O O11 0.500000 0.169681 0.500000
O O12 0.583306 0.161468 0.316305
O O13 0.641223 0.000000 0.374393
#
# Coordination Sequence:
#
# PCOD9192339 Si02
#       5
#     8   8   8   8   8
#     4  10  21  37  57  84 115 152 190 235 289 348
#     4  10  22  39  58  80 107 145 195 247 291 337
#     4  10  20  33  54  87 120 152 186 231 287 353
#     4  10  20  34  53  83 122 155 190 229 281 349
#     4  10  21  37  57  84 115 152 190 235 289 348
#
# _framework density 19.212766999999999
#
# number of rings (size 3 to 8) (size 9 to 14) (size 15 to 20)
#    0.000    2.000    2.000    1.200    0.000    8.800 
#    0.000    3.000    0.000    9.600    0.000    0.000 
#    0.000    0.000    0.000    0.000    0.000    0.000 
#
# Total GULP energy -111416.681771 kJ/mol
# GULP energy per Si atom -5570.834089 kJ/mol
# Density = 1.916904 g / cm^3
# Si number density = 19.212767 Si / 1000 Ang^3
#
#
#
# Elastic Constant Matrix: (Units=GPa)
#
#
# Indices 1 2 3 4 5 6 
#
# 1 76.6652 8.2491 -12.1545 0.0000 -13.9703 0.0000
# 2 8.2491 82.7351 9.9678 0.0000 -11.4455 0.0000
# 3 -12.1545 9.9678 49.3099 0.0000 -24.2249 0.0000
# 4 0.0000 0.0000 0.0000 12.9976 0.0000 1.2802
# 5 -13.9703 -11.4455 -24.2249 0.0000 31.7241 0.0000
# 6 0.0000 0.0000 0.0000 1.2802 0.0000 4.7567
#
#
#
# Elastic Compliance Matrix: (Units=1/GPa)
#
#
# Indices 1 2 3 4 5 6 
#
# 1 0.018729 -0.000982 0.013912 0.000000 0.018517 0.000000
# 2 -0.000982 0.012781 -0.001237 0.000000 0.003234 0.000000
# 3 0.013912 -0.001237 0.042809 0.000000 0.038370 0.000000
# 4 0.000000 0.000000 0.000000 0.079032 0.000000 -0.021270
# 5 0.018517 0.003234 0.038370 0.000000 0.070143 0.000000
# 6 0.000000 0.000000 0.000000 -0.021270 0.000000 0.215955
#
#
# Mechanical properties :
#
#
# Convention : Reuss Voigt Hill
#
# Bulk Modulus (GPa) = 10.23471 24.53723 17.38597
# Shear Modulus (GPa) = 11.14500 23.40554 17.27527
#
# Velocity S-wave (km/s) = 2.41110 3.49410 3.00185
# Velocity P-wave (km/s) = 3.61799 5.39234 4.59169
#
# Compressibility (1/GPa) = 0.09770674
#
# Stress axis : x y z
#
# Youngs Moduli (GPa) = 53.39255 78.24043 23.35931
#
# Poissons Ratio (x) = 0.07682 -0.32498
# Poissons Ratio (y) = 0.05243 0.02889
# Poissons Ratio (z) = -0.74280 0.09676
#
# Static dielectric constant tensor:
#      x y z
#    x 1.751210 0.000000 -0.001640 
#    y 0.000000 1.681470 0.000000 
#    z -0.001640 0.000000 1.690040 
# 
# From -- ./inp_files/140410.got.cif
#   From: 2010.05.17/outbox.cif.g08.bks.cpg/sg12_71_cif.got.tgz:140410.got - 2010.06.03 13:09:07.
