data_PCOD9192455
_publ_section_title
;
Structure prediction by ZEFSAII (Michael W. Deem and Ramdas Pophale) SiO2 
 PCOD9192455
Probable space group: C 2/M
;
_chemical_formula_sum "Si O2"
_cell_formula_units_Z 56
_cell_length_a 10.759943
_cell_length_b 19.684044
_cell_length_c 12.351162
_cell_angle_alpha 90.000000
_cell_angle_beta 88.622277
_cell_angle_gamma 90.000000
_cell_volume 2615.209885
_symmetry_space_group_name_H-M "C 2/M"
_symmetry_group_IT_number 12
_symmetry_cell_setting 'monoclinic'
loop_
_space_group_symop_operation_xyz
x,y,z
-x,y,-z
-x,-y,-z
x,-y,z
1/2+x,1/2+y,z
1/2-x,1/2+y,-z
1/2-x,1/2-y,-z
1/2+x,1/2-y,z
loop_
_atom_site_type_symbol
_atom_site_label
_atom_site_fract_x
_atom_site_fract_y
_atom_site_fract_z
Si Si1 0.949634 0.577247 0.620773
Si Si2 0.148670 0.425792 0.006381
Si Si3 0.716407 0.328960 0.635072
Si Si4 0.024872 0.765692 0.749387
Si Si5 0.369010 0.780053 0.936498
Si Si6 0.161710 0.814410 0.401738
Si Si7 0.666607 0.123485 0.766273
O O1 0.902854 0.500000 0.617362
O O2 0.840584 0.629001 0.652797
O O3 0.000000 0.595889 0.500000
O O4 0.063190 0.581393 0.702370
O O5 0.196793 0.500000 0.039720
O O6 0.192865 0.406072 0.884150
O O7 0.163924 0.359253 0.079845
O O8 0.000000 0.431650 0.000000
O O9 0.625452 0.326011 0.740572
O O10 0.744018 0.249291 0.610656
O O11 0.664502 0.350122 0.518125
O O12 0.096736 0.696608 0.777093
O O13 0.905826 0.762931 0.830260
O O14 0.964714 0.777350 0.632297
O O15 0.500000 0.777113 0.000000
O O16 0.250000 0.750000 0.000000
O O17 0.213002 0.867143 0.311516
#
# Coordination Sequence:
#
# PCOD9192455 Si02
#       7
#     8   8   8   8   8   8   8
#     4  11  22  37  58  86 126 165 206 256 305 375
#     4  10  20  37  58  88 125 162 204 257 319 384
#     4  10  21  34  55  84 121 158 201 246 310 368
#     4  11  21  34  59  85 119 155 202 251 311 369
#     4  11  23  40  64  94 126 163 210 271 325 379
#     4  10  20  33  56  84 118 153 194 256 300 368
#     4  11  19  34  57  88 120 156 203 247 308 367
#
# _framework density 21.413195000000002
#
# number of rings (size 3 to 8) (size 9 to 14) (size 15 to 20)
#    0.000    1.429    5.714    1.714    2.000    0.000 
#    0.000    0.000    0.000    6.429    0.000    0.000 
#    0.000    0.000    0.000    0.000    0.000    0.000 
#
# Total GULP energy -156047.413130 kJ/mol
# GULP energy per Si atom -5573.121898 kJ/mol
# Density = 2.136446 g / cm^3
# Si number density = 21.413195 Si / 1000 Ang^3
#
#
#
# Elastic Constant Matrix: (Units=GPa)
#
#
# Indices 1 2 3 4 5 6 
#
# 1 66.7346 36.9394 28.9787 0.0000 -14.3401 0.0000
# 2 36.9394 90.0697 32.4448 0.0000 -21.2084 0.0000
# 3 28.9787 32.4448 96.5011 0.0000 -18.2500 0.0000
# 4 0.0000 0.0000 0.0000 8.5950 0.0000 2.2734
# 5 -14.3401 -21.2084 -18.2500 0.0000 45.9641 0.0000
# 6 0.0000 0.0000 0.0000 2.2734 0.0000 15.0366
#
#
#
# Elastic Compliance Matrix: (Units=1/GPa)
#
#
# Indices 1 2 3 4 5 6 
#
# 1 0.020684 -0.006740 -0.003582 0.000000 0.001921 0.000000
# 2 -0.006740 0.015743 -0.002479 0.000000 0.004177 0.000000
# 3 -0.003582 -0.002479 0.012806 0.000000 0.002823 0.000000
# 4 0.000000 0.000000 0.000000 0.121193 0.000000 -0.018323
# 5 0.001921 0.004177 0.002823 0.000000 0.025404 0.000000
# 6 0.000000 0.000000 0.000000 -0.018323 0.000000 0.069275
#
#
# Mechanical properties :
#
#
# Convention : Reuss Voigt Hill
#
# Bulk Modulus (GPa) = 42.31846 50.00347 46.16096
# Shear Modulus (GPa) = 16.74576 24.24863 20.49720
#
# Velocity S-wave (km/s) = 2.79951 3.36879 3.09726
# Velocity P-wave (km/s) = 5.50049 6.20758 5.86470
#
# Compressibility (1/GPa) = 0.02363035
#
# Stress axis : x y z
#
# Youngs Moduli (GPa) = 48.34703 63.51861 78.09104
#
# Poissons Ratio (x) = 0.42814 0.27971
# Poissons Ratio (y) = 0.32587 0.19360
# Poissons Ratio (z) = 0.17317 0.15747
#
# Static dielectric constant tensor:
#      x y z
#    x 1.855120 0.000000 -0.025000 
#    y 0.000000 1.779500 0.000000 
#    z -0.025000 0.000000 1.922660 
# 
# From -- ./inp_files/133153.got.cif
#   From: 2010.05.17/outbox.cif.g08.bks.cpg/sg12_67_cif.got.tgz:133153.got - 2010.06.03 13:09:07.
