data_PCOD9192307
_publ_section_title
;
Structure prediction by ZEFSAII (Michael W. Deem and Ramdas Pophale) SiO2 
 PCOD9192307
Probable space group: C 2/M
;
_chemical_formula_sum "Si O2"
_cell_formula_units_Z 64
_cell_length_a 15.948120
_cell_length_b 21.611148
_cell_length_c 8.535262
_cell_angle_alpha 90.000000
_cell_angle_beta 94.719743
_cell_angle_gamma 90.000000
_cell_volume 2931.764182
_symmetry_space_group_name_H-M "C 2/M"
_symmetry_group_IT_number 12
_symmetry_cell_setting 'monoclinic'
loop_
_space_group_symop_operation_xyz
x,y,z
-x,y,-z
-x,-y,-z
x,-y,z
1/2+x,1/2+y,z
1/2-x,1/2+y,-z
1/2-x,1/2-y,-z
1/2+x,1/2-y,z
loop_
_atom_site_type_symbol
_atom_site_label
_atom_site_fract_x
_atom_site_fract_y
_atom_site_fract_z
Si Si1 0.301184 0.260924 0.236665
Si Si2 0.949830 0.166598 0.756193
Si Si3 0.066594 0.067025 0.655192
Si Si4 0.515755 0.204464 0.813602
Si Si5 0.511371 0.067653 0.812690
Si Si6 0.198359 0.862716 0.508048
Si Si7 0.295598 0.070230 0.269809
Si Si8 0.691168 0.660137 0.063234
O O1 0.386926 0.221505 0.214940
O O2 0.294141 0.298572 0.396618
O O3 0.227119 0.213373 0.185764
O O4 0.292866 0.314210 0.104705
O O5 0.878807 0.144524 0.624695
O O6 0.906915 0.156374 0.916440
O O7 0.031400 0.125363 0.743478
O O8 0.967171 0.238315 0.731919
O O9 0.160296 0.084138 0.614686
O O10 0.000000 0.063011 0.500000
O O11 0.064228 0.000000 0.734097
O O12 0.483426 0.136606 0.756459
O O13 0.500000 0.207448 0.000000
O O14 0.608920 0.069217 0.775357
O O15 0.477116 0.000000 0.752186
O O16 0.500000 0.067502 0.000000
O O17 0.276973 0.887713 0.420070
O O18 0.239608 0.098842 0.121420
O O19 0.269459 0.000000 0.300941
#
# Coordination Sequence:
#
# PCOD9192307 Si02
#       8
#     8   8   8   8   8   8   8   8
#     4  11  21  36  57  84 122 149 197 242 306 342
#     4  10  20  33  54  84 115 150 199 236 294 341
#     4   9  17  31  51  76 109 151 192 228 274 334
#     4  11  19  34  60  85 115 155 187 252 294 345
#     4   9  19  35  59  89 113 145 198 243 293 356
#     4  10  21  35  56  85 120 153 194 242 286 358
#     4  10  20  37  58  84 118 158 197 239 294 354
#     4  10  22  37  56  86 115 155 194 251 292 355
#
# _framework density 21.82986
#
# number of rings (size 3 to 8) (size 9 to 14) (size 15 to 20)
#    0.000    2.000    3.750    0.375    0.000    5.000 
#    0.000    1.250    0.000    1.125    0.000    7.875 
#    0.000    0.375    0.000    0.000    0.000    0.000 
#
# Total GULP energy -178394.363444 kJ/mol
# GULP energy per Si atom -5574.823858 kJ/mol
# Density = 2.178017 g / cm^3
# Si number density = 21.829860 Si / 1000 Ang^3
#
#
#
# Elastic Constant Matrix: (Units=GPa)
#
#
# Indices 1 2 3 4 5 6 
#
# 1 50.5069 4.2123 22.0521 0.0000 -28.2155 0.0000
# 2 4.2123 149.7912 34.4091 0.0000 -14.6382 0.0000
# 3 22.0521 34.4091 54.6003 0.0000 -20.9452 0.0000
# 4 0.0000 0.0000 0.0000 18.2542 0.0000 -1.3828
# 5 -28.2155 -14.6382 -20.9452 0.0000 29.0195 0.0000
# 6 0.0000 0.0000 0.0000 -1.3828 0.0000 25.5126
#
#
#
# Elastic Compliance Matrix: (Units=1/GPa)
#
#
# Indices 1 2 3 4 5 6 
#
# 1 0.045354 0.003911 -0.004300 0.000000 0.042966 0.000000
# 2 0.003911 0.008149 -0.005089 0.000000 0.004241 0.000000
# 3 -0.004300 -0.005089 0.028584 0.000000 0.013883 0.000000
# 4 0.000000 0.000000 0.000000 0.055008 0.000000 0.002981
# 5 0.042966 0.004241 0.013883 0.000000 0.088395 0.000000
# 6 0.000000 0.000000 0.000000 0.002981 0.000000 0.039358
#
#
# Mechanical properties :
#
#
# Convention : Reuss Voigt Hill
#
# Bulk Modulus (GPa) = 14.05831 41.80503 27.93167
# Shear Modulus (GPa) = 16.69373 27.50557 22.09965
#
# Velocity S-wave (km/s) = 2.76836 3.55350 3.18521
# Velocity P-wave (km/s) = 4.08318 6.00237 5.13326
#
# Compressibility (1/GPa) = 0.07113230
#
# Stress axis : x y z
#
# Youngs Moduli (GPa) = 22.04899 122.70964 34.98431
#
# Poissons Ratio (x) = -0.47995 0.15044
# Poissons Ratio (y) = -0.08624 0.17802
# Poissons Ratio (z) = 0.09481 0.62441
#
# Static dielectric constant tensor:
#      x y z
#    x 1.815150 0.000000 -0.035800 
#    y 0.000000 1.838410 0.000000 
#    z -0.035800 0.000000 1.850920 
# 
# From -- ./inp_files/77491.got.cif
#   From: 2010.05.17/outbox.cif.g08.bks.cpg/sg12_39_cif.got.tgz:77491.got - 2010.06.03 13:09:07.
