data_PCOD9192332
_publ_section_title
;
Structure prediction by ZEFSAII (Michael W. Deem and Ramdas Pophale) SiO2 
 PCOD9192332
Probable space group: C 2/M
;
_chemical_formula_sum "Si O2"
_cell_formula_units_Z 56
_cell_length_a 22.774815
_cell_length_b 8.531878
_cell_length_c 20.936763
_cell_angle_alpha 90.000000
_cell_angle_beta 42.205678
_cell_angle_gamma 90.000000
_cell_volume 2733.034739
_symmetry_space_group_name_H-M "C 2/M"
_symmetry_group_IT_number 12
_symmetry_cell_setting 'monoclinic'
loop_
_space_group_symop_operation_xyz
x,y,z
-x,y,-z
-x,-y,-z
x,-y,z
1/2+x,1/2+y,z
1/2-x,1/2+y,-z
1/2-x,1/2-y,-z
1/2+x,1/2-y,z
loop_
_atom_site_type_symbol
_atom_site_label
_atom_site_fract_x
_atom_site_fract_y
_atom_site_fract_z
Si Si1 0.024324 0.186319 0.276505
Si Si2 0.341725 0.184113 0.450717
Si Si3 0.884616 0.686750 0.188225
Si Si4 0.637077 0.813969 0.297714
Si Si5 0.059517 0.811454 0.110078
Si Si6 0.331148 0.689006 0.097533
Si Si7 0.812900 0.814175 0.610306
O O1 0.922453 0.227889 0.353242
O O2 0.062604 0.267168 0.308352
O O3 0.070351 0.243392 0.174157
O O4 0.035361 0.000000 0.273804
O O5 0.250000 0.250000 0.500000
O O6 0.345458 0.219639 0.523138
O O7 0.347702 0.000000 0.432793
O O8 0.893600 0.500000 0.183846
O O9 0.883065 0.741797 0.115951
O O10 0.789011 0.727137 0.293832
O O11 0.964118 0.764119 0.161518
O O12 0.729881 0.770011 0.190118
O O13 0.635211 0.727734 0.367126
O O14 0.636884 0.000000 0.309136
O O15 0.063985 0.000000 0.108172
O O16 0.129317 0.755505 0.001398
O O17 0.338419 0.500000 0.094409
O O18 0.818209 0.000000 0.593097
#
# Coordination Sequence:
#
# PCOD9192332 Si02
#       7
#     8   8   8   8   8   8   8
#     4  11  24  41  60  84 116 153 194 239 286 339
#     4  12  25  42  64  91 120 150 188 232 285 344
#     4  10  20  33  54  86 118 147 186 237 288 339
#     4  10  21  39  61  86 116 151 194 240 287 339
#     4  10  21  36  55  80 113 155 196 234 283 341
#     4   9  19  36  57  81 113 153 193 234 283 340
#     4  10  21  39  62  87 117 153 192 237 289 341
#
# _framework density 20.490043
#
# number of rings (size 3 to 8) (size 9 to 14) (size 15 to 20)
#    0.000    1.714    0.000    4.286    0.000    9.143 
#    0.000    2.857    0.000    0.000    0.000    0.000 
#    0.000    0.000    0.000    0.000    0.000    0.000 
#
# Total GULP energy -156558.342509 kJ/mol
# GULP energy per Si atom -5591.369375 kJ/mol
# Density = 2.044341 g / cm^3
# Si number density = 20.490043 Si / 1000 Ang^3
#
#
#
# Elastic Constant Matrix: (Units=GPa)
#
#
# Indices 1 2 3 4 5 6 
#
# 1 62.8850 -7.3919 -0.3113 0.0002 4.1184 -0.0006
# 2 -7.3919 16.9678 -0.8362 -0.0004 0.7465 -0.0008
# 3 -0.3113 -0.8362 58.5783 0.0000 21.5688 -0.0004
# 4 0.0002 -0.0004 0.0000 22.4642 0.0001 -1.7272
# 5 4.1184 0.7465 21.5688 0.0001 24.0707 0.0002
# 6 -0.0006 -0.0008 -0.0004 -1.7272 0.0002 29.1956
#
#
#
# Elastic Compliance Matrix: (Units=1/GPa)
#
#
# Indices 1 2 3 4 5 6 
#
# 1 0.017157 0.007796 0.002048 0.000000 -0.005012 0.000001
# 2 0.007796 0.062760 0.003201 0.000001 -0.006149 0.000002
# 3 0.002048 0.003201 0.025808 0.000000 -0.023576 0.000001
# 4 0.000000 0.000001 0.000000 0.044719 -0.000001 0.002645
# 5 -0.005012 -0.006149 -0.023576 -0.000001 0.063718 -0.000001
# 6 0.000001 0.000002 0.000001 0.002645 -0.000001 0.034408
#
#
# Mechanical properties :
#
#
# Convention : Reuss Voigt Hill
#
# Bulk Modulus (GPa) = 7.58638 13.48357 10.53498
# Shear Modulus (GPa) = 18.76752 24.94414 21.85583
#
# Velocity S-wave (km/s) = 3.02972 3.49288 3.26951
# Velocity P-wave (km/s) = 3.99368 4.78140 4.40518
#
# Compressibility (1/GPa) = 0.13181510
#
# Stress axis : x y z
#
# Youngs Moduli (GPa) = 58.28594 15.93378 38.74707
#
# Poissons Ratio (x) = -0.12421 -0.07936
# Poissons Ratio (y) = -0.45438 -0.12404
# Poissons Ratio (z) = -0.11937 -0.05101
#
# Static dielectric constant tensor:
#      x y z
#    x 1.716950 0.000000 -0.008600 
#    y 0.000000 1.684160 0.000000 
#    z -0.008600 0.000000 1.769130 
# 
# From -- ./inp_files/319684.got.cif
#   From: 2010.05.17/outbox.cif.g08.bks.cpg/sg12_160_cif.got.tgz:319684.got - 2010.06.03 13:09:07.
