data_PCOD9192279
_publ_section_title
;
Structure prediction by ZEFSAII (Michael W. Deem and Ramdas Pophale) SiO2 
 PCOD9192279
Probable space group: C 2/M
;
_chemical_formula_sum "Si O2"
_cell_formula_units_Z 32
_cell_length_a 11.762169
_cell_length_b 20.285226
_cell_length_c 7.171616
_cell_angle_alpha 90.000000
_cell_angle_beta 59.226182
_cell_angle_gamma 90.000000
_cell_volume 1470.196631
_symmetry_space_group_name_H-M "C 2/M"
_symmetry_group_IT_number 12
_symmetry_cell_setting 'monoclinic'
loop_
_space_group_symop_operation_xyz
x,y,z
-x,y,-z
-x,-y,-z
x,-y,z
1/2+x,1/2+y,z
1/2-x,1/2+y,-z
1/2-x,1/2-y,-z
1/2+x,1/2-y,z
loop_
_atom_site_type_symbol
_atom_site_label
_atom_site_fract_x
_atom_site_fract_y
_atom_site_fract_z
Si Si1 0.046719 0.425348 0.678987
Si Si2 0.267753 0.324075 0.404893
Si Si3 0.321828 0.835554 0.950737
Si Si4 0.951421 0.793472 0.740838
O O1 0.079793 0.500000 0.702553
O O2 0.169504 0.375055 0.589003
O O3 0.000000 0.425431 0.500000
O O4 0.918857 0.396476 0.892102
O O5 0.250000 0.250000 0.500000
O O6 0.225698 0.330234 0.224852
O O7 0.425598 0.334912 0.286261
O O8 0.408167 0.768951 0.901597
O O9 0.184260 0.833324 0.175261
O O10 0.000000 0.767092 0.500000
#
# Coordination Sequence:
#
# PCOD9192279 Si02
#       4
#     8   8   8   8
#     4   9  18  35  58  81 109 143 182 226 270 321
#     4  11  18  33  55  84 111 137 181 230 271 320
#     4  10  20  33  54  82 110 140 180 226 278 317
#     4  11  20  33  52  83 109 140 180 230 275 314
#
# _framework density 21.765795000000001
#
# number of rings (size 3 to 8) (size 9 to 14) (size 15 to 20)
#    0.000    1.750    5.000    1.500    0.000    0.000 
#    0.000    2.500    0.000   10.500    0.000    0.000 
#    0.000    0.000    0.000    0.000    0.000    0.000 
#
# Total GULP energy -89420.700087 kJ/mol
# GULP energy per Si atom -5588.793755 kJ/mol
# Density = 2.171626 g / cm^3
# Si number density = 21.765795 Si / 1000 Ang^3
#
#
#
# Elastic Constant Matrix: (Units=GPa)
#
#
# Indices 1 2 3 4 5 6 
#
# 1 139.2251 51.3415 42.8075 0.0000 -31.8701 0.0000
# 2 51.3415 146.8093 44.2069 0.0000 -42.7871 0.0000
# 3 42.8075 44.2069 112.8424 0.0000 -50.6875 0.0000
# 4 0.0000 0.0000 0.0000 23.2640 0.0000 -7.2939
# 5 -31.8701 -42.7871 -50.6875 0.0000 52.5964 0.0000
# 6 0.0000 0.0000 0.0000 -7.2939 0.0000 30.2635
#
#
#
# Elastic Compliance Matrix: (Units=1/GPa)
#
#
# Indices 1 2 3 4 5 6 
#
# 1 0.008920 -0.001982 -0.001594 0.000000 0.002257 0.000000
# 2 -0.001982 0.009380 -0.000061 0.000000 0.006371 0.000000
# 3 -0.001594 -0.000061 0.015930 0.000000 0.014337 0.000000
# 4 0.000000 0.000000 0.000000 0.046498 0.000000 0.011207
# 5 0.002257 0.006371 0.014337 0.000000 0.039379 0.000000
# 6 0.000000 0.000000 0.000000 0.011207 0.000000 0.035744
#
#
# Mechanical properties :
#
#
# Convention : Reuss Voigt Hill
#
# Bulk Modulus (GPa) = 37.09635 75.06542 56.08089
# Shear Modulus (GPa) = 29.05102 38.59284 33.82193
#
# Velocity S-wave (km/s) = 3.65733 4.21538 3.94623
# Velocity P-wave (km/s) = 5.90891 7.63251 6.82534
#
# Compressibility (1/GPa) = 0.02695683
#
# Stress axis : x y z
#
# Youngs Moduli (GPa) = 112.10638 106.61265 62.77311
#
# Poissons Ratio (x) = 0.21129 0.10004
# Poissons Ratio (y) = 0.22218 0.00384
# Poissons Ratio (z) = 0.17867 0.00652
#
# Static dielectric constant tensor:
#      x y z
#    x 1.889430 0.000000 0.032400 
#    y 0.000000 1.755090 0.000000 
#    z 0.032400 0.000000 1.899680 
# 
# From -- ./inp_files/47776.got.cif
#   From: 2010.05.17/outbox.cif.g08.bks.cpg/sg12_24_cif.got.tgz:47776.got - 2010.06.03 13:09:07.
