data_PCOD9192777
_publ_section_title
;
Structure prediction by ZEFSAII (Michael W. Deem and Ramdas Pophale) SiO2 
 PCOD9192777
Probable space group: C 2/M
;
_chemical_formula_sum "Si O2"
_cell_formula_units_Z 56
_cell_length_a 19.909024
_cell_length_b 8.306380
_cell_length_c 22.705071
_cell_angle_alpha 90.000000
_cell_angle_beta 123.738195
_cell_angle_gamma 90.000000
_cell_volume 3122.416167
_symmetry_space_group_name_H-M "C 2/M"
_symmetry_group_IT_number 12
_symmetry_cell_setting 'monoclinic'
loop_
_space_group_symop_operation_xyz
x,y,z
-x,y,-z
-x,-y,-z
x,-y,z
1/2+x,1/2+y,z
1/2-x,1/2+y,-z
1/2-x,1/2-y,-z
1/2+x,1/2-y,z
loop_
_atom_site_type_symbol
_atom_site_label
_atom_site_fract_x
_atom_site_fract_y
_atom_site_fract_z
Si Si1 0.574270 0.693519 0.857094
Si Si2 0.284993 0.810683 0.579040
Si Si3 0.751447 0.692938 0.932763
Si Si4 0.573391 0.305797 0.992987
Si Si5 0.989679 0.695461 0.400301
Si Si6 0.038420 0.694923 0.298998
Si Si7 0.370299 0.805277 0.442383
O O1 0.576945 0.500000 0.861451
O O2 0.660579 0.745530 0.870273
O O3 0.564618 0.750795 0.920334
O O4 0.501690 0.744893 0.779983
O O5 0.250000 0.750000 0.500000
O O6 0.370993 0.746297 0.642723
O O7 0.216472 0.770161 0.592581
O O8 0.295679 0.000000 0.576857
O O9 0.755578 0.500000 0.932160
O O10 0.750000 0.750000 0.000000
O O11 0.834365 0.758439 0.944785
O O12 0.570203 0.500000 0.991150
O O13 0.500000 0.249945 0.000000
O O14 0.989846 0.500000 0.400900
O O15 0.916383 0.746425 0.405937
O O16 0.988467 0.747752 0.332546
O O17 0.071946 0.741861 0.474535
O O18 0.038919 0.500000 0.297227
O O19 0.364324 0.000000 0.440354
#
# Coordination Sequence:
#
# PCOD9192777 Si02
#       7
#     8   8   8   8   8   8   8
#     4   9  19  34  51  75 104 134 169 211 258 302
#     4  11  21  33  50  73 100 131 171 216 259 307
#     4   9  17  31  52  77 104 133 169 208 246 299
#     4   9  18  34  56  81 108 137 172 214 253 297
#     4   8  15  30  51  71  92 124 163 204 249 299
#     4  10  20  34  51  72  99 134 174 210 253 310
#     4   9  16  31  53  71  92 122 162 211 254 297
#
# _framework density 17.934830000000002
#
# number of rings (size 3 to 8) (size 9 to 14) (size 15 to 20)
#    0.000    2.714    1.429    2.571    0.000    4.286 
#    0.000    3.571    0.000    8.571    0.000    0.000 
#    0.000    0.000    0.000    0.000    0.000    0.000 
#
# Total GULP energy -155894.919418 kJ/mol
# GULP energy per Si atom -5567.675694 kJ/mol
# Density = 1.789401 g / cm^3
# Si number density = 17.934830 Si / 1000 Ang^3
#
#
#
# Elastic Constant Matrix: (Units=GPa)
#
#
# Indices 1 2 3 4 5 6 
#
# 1 138.8708 12.9772 61.9991 0.0000 13.8566 0.0000
# 2 12.9772 6.3498 11.7781 0.0000 2.0039 0.0000
# 3 61.9991 11.7781 103.2744 0.0000 12.3951 0.0000
# 4 0.0000 0.0000 0.0000 21.2278 0.0000 3.1130
# 5 13.8566 2.0039 12.3951 0.0000 24.2052 0.0000
# 6 0.0000 0.0000 0.0000 3.1130 0.0000 25.5673
#
#
#
# Elastic Compliance Matrix: (Units=1/GPa)
#
#
# Indices 1 2 3 4 5 6 
#
# 1 0.010725 -0.012334 -0.004707 0.000000 -0.002708 0.000000
# 2 -0.012334 0.214537 -0.016812 0.000000 -0.002091 0.000000
# 3 -0.004707 -0.016812 0.014848 0.000000 -0.003517 0.000000
# 4 0.000000 0.000000 0.000000 0.047964 0.000000 -0.005840
# 5 -0.002708 -0.002091 -0.003517 0.000000 0.044838 0.000000
# 6 0.000000 0.000000 0.000000 -0.005840 0.000000 0.039824
#
#
# Mechanical properties :
#
#
# Convention : Reuss Voigt Hill
#
# Bulk Modulus (GPa) = 5.80029 46.88930 26.34479
# Shear Modulus (GPa) = 10.04196 24.98276 17.51236
#
# Velocity S-wave (km/s) = 2.36882 3.73631 3.12820
# Velocity P-wave (km/s) = 3.27457 6.69435 5.26959
#
# Compressibility (1/GPa) = 0.17240532
#
# Stress axis : x y z
#
# Youngs Moduli (GPa) = 93.23832 4.66119 67.34823
#
# Poissons Ratio (x) = 0.05749 0.31701
# Poissons Ratio (y) = 1.14998 1.13226
# Poissons Ratio (z) = 0.43887 0.07836
#
# Static dielectric constant tensor:
#      x y z
#    x 1.654910 0.000000 0.014450 
#    y 0.000000 1.648540 0.000000 
#    z 0.014450 0.000000 1.613540 
# 
# From -- ./inp_files/345643.got.cif
#   From: 2010.05.17/outbox.cif.g08.bks.cpg/sg12_173_cif.got.tgz:345643.got - 2010.06.03 13:09:07.
