data_PCOD9192704
_publ_section_title
;
Structure prediction by ZEFSAII (Michael W. Deem and Ramdas Pophale) SiO2 
 PCOD9192704
Probable space group: C 2/M
;
_chemical_formula_sum "Si O2"
_cell_formula_units_Z 44
_cell_length_a 29.986578
_cell_length_b 12.996251
_cell_length_c 11.500210
_cell_angle_alpha 90.000000
_cell_angle_beta 149.673116
_cell_angle_gamma 90.000000
_cell_volume 2262.998437
_symmetry_space_group_name_H-M "C 2/M"
_symmetry_group_IT_number 12
_symmetry_cell_setting 'monoclinic'
loop_
_space_group_symop_operation_xyz
x,y,z
-x,y,-z
-x,-y,-z
x,-y,z
1/2+x,1/2+y,z
1/2-x,1/2+y,-z
1/2-x,1/2-y,-z
1/2+x,1/2-y,z
loop_
_atom_site_type_symbol
_atom_site_label
_atom_site_fract_x
_atom_site_fract_y
_atom_site_fract_z
Si Si1 0.134322 0.775435 0.988250
Si Si2 0.276797 0.617228 0.400020
Si Si3 0.500000 0.300602 0.500000
Si Si4 0.145183 0.164943 0.660807
Si Si5 0.920156 0.876239 0.903981
Si Si6 0.721194 0.116462 0.839466
O O1 0.068841 0.741290 0.737543
O O2 0.195823 0.687006 0.178628
O O3 0.080245 0.825203 0.971370
O O4 0.201846 0.856988 0.080925
O O5 0.248609 0.500000 0.352110
O O6 0.346371 0.622712 0.449224
O O7 0.329088 0.651010 0.632429
O O8 0.439267 0.363994 0.452878
O O9 0.152201 0.289866 0.672104
O O10 0.230811 0.129167 0.927388
O O11 0.923517 0.000000 0.922151
O O12 0.000000 0.843706 0.000000
O O13 0.689069 0.000000 0.753232
#
# Coordination Sequence:
#
# PCOD9192704 Si02
#       6
#     8   8   4   8   8   8
#     4  10  20  35  53  75 104 136 170 210 252 298
#     4  10  20  35  55  76 101 135 173 209 250 303
#     4  10  20  34  50  74 106 136 168 206 254 300
#     4   9  18  31  48  71  99 131 165 207 253 295
#     4  10  20  34  55  81 105 131 165 209 261 309
#     4   9  17  31  50  70  96 131 170 208 248 298
#
# _framework density 19.44323
#
# number of rings (size 3 to 8) (size 9 to 14) (size 15 to 20)
#    0.000    2.364    0.000    3.818    0.000    0.000 
#    0.000   17.273    0.000    0.545    0.000    0.000 
#    0.000    0.000    0.000    0.000    0.000    0.000 
#
# Total GULP energy -122721.059159 kJ/mol
# GULP energy per Si atom -5578.229962 kJ/mol
# Density = 1.939898 g / cm^3
# Si number density = 19.443230 Si / 1000 Ang^3
#
#
#
# Elastic Constant Matrix: (Units=GPa)
#
#
# Indices 1 2 3 4 5 6 
#
# 1 103.8069 6.0467 17.9878 0.0000 -3.9131 0.0000
# 2 6.0467 79.9279 25.9299 0.0000 -7.0964 0.0000
# 3 17.9878 25.9299 89.1678 0.0000 -16.8537 0.0000
# 4 0.0000 0.0000 0.0000 9.4333 0.0000 -1.0465
# 5 -3.9131 -7.0964 -16.8537 0.0000 33.4117 0.0000
# 6 0.0000 0.0000 0.0000 -1.0465 0.0000 12.6784
#
#
#
# Elastic Compliance Matrix: (Units=1/GPa)
#
#
# Indices 1 2 3 4 5 6 
#
# 1 0.009984 -0.000108 -0.001952 0.000000 0.000162 0.000000
# 2 -0.000108 0.013846 -0.003815 0.000000 0.001004 0.000000
# 3 -0.001952 -0.003815 0.013841 0.000000 0.005943 0.000000
# 4 0.000000 0.000000 0.000000 0.106988 0.000000 0.008831
# 5 0.000162 0.001004 0.005943 0.000000 0.033160 0.000000
# 6 0.000000 0.000000 0.000000 0.008831 0.000000 0.079603
#
#
# Mechanical properties :
#
#
# Convention : Reuss Voigt Hill
#
# Bulk Modulus (GPa) = 38.57763 41.42572 40.00168
# Shear Modulus (GPa) = 17.99778 25.96722 21.98250
#
# Velocity S-wave (km/s) = 3.04576 3.65847 3.36609
# Velocity P-wave (km/s) = 5.67918 6.26084 5.97709
#
# Compressibility (1/GPa) = 0.02592176
#
# Stress axis : x y z
#
# Youngs Moduli (GPa) = 100.16116 72.22195 72.24747
#
# Poissons Ratio (x) = 0.00777 0.14104
# Poissons Ratio (y) = 0.01078 0.27563
# Poissons Ratio (z) = 0.19553 0.27553
#
# Static dielectric constant tensor:
#      x y z
#    x 1.703010 0.000000 0.018380 
#    y 0.000000 1.659220 0.000000 
#    z 0.018380 0.000000 1.707310 
# 
# From -- ./inp_files/189279.got.cif
#   From: 2010.05.17/outbox.cif.g08.bks.cpg/sg12_95_cif.got.tgz:189279.got - 2010.06.03 13:09:07.
