data_PCOD9192155
_publ_section_title
;
Structure prediction by ZEFSAII (Michael W. Deem and Ramdas Pophale) SiO2 
 PCOD9192155
Probable space group: C 2/M
;
_chemical_formula_sum "Si O2"
_cell_formula_units_Z 56
_cell_length_a 31.523056
_cell_length_b 7.393525
_cell_length_c 21.070641
_cell_angle_alpha 90.000000
_cell_angle_beta 27.679367
_cell_angle_gamma 90.000000
_cell_volume 2281.208551
_symmetry_space_group_name_H-M "C 2/M"
_symmetry_group_IT_number 12
_symmetry_cell_setting 'monoclinic'
loop_
_space_group_symop_operation_xyz
x,y,z
-x,y,-z
-x,-y,-z
x,-y,z
1/2+x,1/2+y,z
1/2-x,1/2+y,-z
1/2-x,1/2-y,-z
1/2+x,1/2-y,z
loop_
_atom_site_type_symbol
_atom_site_label
_atom_site_fract_x
_atom_site_fract_y
_atom_site_fract_z
Si Si1 0.691541 0.280696 0.163917
Si Si2 0.608524 0.295153 0.150793
Si Si3 0.096371 0.220906 0.904240
Si Si4 0.585619 0.208520 0.425719
Si Si5 0.699890 0.208708 0.389788
Si Si6 0.031762 0.779962 0.123827
Si Si7 0.657035 0.286987 0.587717
O O1 0.696145 0.500000 0.156073
O O2 0.616068 0.220014 0.211722
O O3 0.666277 0.217022 0.266892
O O4 0.787418 0.205074 0.012737
O O5 0.574132 0.500000 0.203167
O O6 0.557099 0.209486 0.159949
O O7 0.195717 0.281698 0.747313
O O8 0.094757 0.000000 0.901496
O O9 0.000000 0.279235 0.000000
O O10 0.090058 0.276785 0.986481
O O11 0.500000 0.291275 0.500000
O O12 0.628327 0.288504 0.433577
O O13 0.559841 0.000000 0.473057
O O14 0.659864 0.210693 0.513293
O O15 0.710383 0.000000 0.355252
O O16 0.926216 0.729421 0.257202
O O17 0.040883 0.000000 0.113129
O O18 0.646225 0.500000 0.593215
O O19 0.750000 0.250000 0.500000
#
# Coordination Sequence:
#
# PCOD9192155 Si02
#       7
#     8   8   8   8   8   8   8
#     4  10  20  33  53  81 112 145 186 239 293 339
#     4   9  18  34  55  78 107 145 189 235 286 344
#     4   9  16  29  54  83 106 136 184 238 284 336
#     4  10  22  38  56  79 112 158 202 239 287 349
#     4  10  21  38  60  85 115 152 194 241 294 350
#     4   9  18  33  56  82 107 145 195 238 279 338
#     4  11  23  39  61  87 119 154 192 239 294 352
#
# _framework density 24.548390000000001
#
# number of rings (size 3 to 8) (size 9 to 14) (size 15 to 20)
#    0.000    2.286    0.000    2.571    2.000    6.000 
#    0.000    1.429    0.000    4.714    0.000    0.000 
#    0.000    0.000    0.000    0.000    0.000    0.000 
#
# Total GULP energy -156347.570687 kJ/mol
# GULP energy per Si atom -5583.841810 kJ/mol
# Density = 2.449252 g / cm^3
# Si number density = 24.548390 Si / 1000 Ang^3
#
#
#
# Elastic Constant Matrix: (Units=GPa)
#
#
# Indices 1 2 3 4 5 6 
#
# 1 108.3347 -1.6828 1.1365 0.0146 -0.7571 -0.0033
# 2 -1.6828 93.0924 -2.5114 0.0125 -5.2821 -0.0090
# 3 1.1365 -2.5114 70.2657 0.0299 4.1512 -0.0063
# 4 0.0146 0.0125 0.0299 7.0589 -0.0055 5.2366
# 5 -0.7571 -5.2821 4.1512 -0.0055 42.8630 0.0019
# 6 -0.0033 -0.0090 -0.0063 5.2366 0.0019 -6.7047
#
#
#
# Elastic Compliance Matrix: (Units=1/GPa)
#
#
# Indices 1 2 3 4 5 6 
#
# 1 0.009236 0.000174 -0.000155 -0.000010 0.000200 -0.000012
# 2 0.000174 0.010828 0.000307 -0.000006 0.001308 -0.000019
# 3 -0.000155 0.000307 0.014325 -0.000033 -0.001352 -0.000040
# 4 -0.000010 -0.000006 -0.000033 0.089695 0.000011 0.070055
# 5 0.000200 0.001308 -0.001352 0.000011 0.023626 0.000014
# 6 -0.000012 -0.000019 -0.000040 0.070055 0.000014 -0.094433
#
#
# Mechanical properties :
#
#
# Convention : Reuss Voigt Hill
#
# Bulk Modulus (GPa) = 28.53780 29.50860 29.02320
# Shear Modulus (GPa) = 77.75494 26.96013 52.35753
#
# Velocity S-wave (km/s) = 5.63408 3.31757 4.62327
# Velocity P-wave (km/s) = 7.34672 5.16931 6.35201
#
# Compressibility (1/GPa) = 0.03504124
#
# Stress axis : x y z
#
# Youngs Moduli (GPa) = 108.26750 92.35621 69.80766
#
# Poissons Ratio (x) = -0.01608 0.01082
# Poissons Ratio (y) = -0.01885 -0.02143
# Poissons Ratio (z) = 0.01678 -0.02835
#
# Static dielectric constant tensor:
#      x y z
#    x 1.964730 0.000010 -0.056650 
#    y 0.000010 1.584780 0.000030 
#    z -0.056650 0.000030 1.907250 
# 
# From -- ./inp_files/329521.got.cif
#   From: 2010.05.17/outbox.cif.g08.bks.cpg/sg12_165_cif.got.tgz:329521.got - 2010.06.03 13:09:07.
