data_PCOD9192617
_publ_section_title
;
Structure prediction by ZEFSAII (Michael W. Deem and Ramdas Pophale) SiO2 
 PCOD9192617
Probable space group: C 2/M
;
_chemical_formula_sum "Si O2"
_cell_formula_units_Z 40
_cell_length_a 17.982372
_cell_length_b 14.248771
_cell_length_c 8.598210
_cell_angle_alpha 90.000000
_cell_angle_beta 46.033456
_cell_angle_gamma 90.000000
_cell_volume 1585.664380
_symmetry_space_group_name_H-M "C 2/M"
_symmetry_group_IT_number 12
_symmetry_cell_setting 'monoclinic'
loop_
_space_group_symop_operation_xyz
x,y,z
-x,y,-z
-x,-y,-z
x,-y,z
1/2+x,1/2+y,z
1/2-x,1/2+y,-z
1/2-x,1/2-y,-z
1/2+x,1/2-y,z
loop_
_atom_site_type_symbol
_atom_site_label
_atom_site_fract_x
_atom_site_fract_y
_atom_site_fract_z
Si Si1 0.876132 0.393578 0.819862
Si Si2 0.911841 0.309778 0.446950
Si Si3 0.332708 0.391830 0.979991
Si Si4 0.923665 0.896885 0.443130
Si Si5 0.379278 0.294756 0.216102
O O1 0.894818 0.500000 0.842584
O O2 0.966057 0.329736 0.759308
O O3 0.756155 0.369624 0.016619
O O4 0.885909 0.383925 0.617343
O O5 0.898932 0.206851 0.542587
O O6 0.855731 0.294964 0.362017
O O7 0.312724 0.500000 0.058144
O O8 0.323400 0.321239 0.139142
O O9 0.451247 0.393976 0.751759
O O10 0.878589 0.883609 0.334367
O O11 0.893530 0.000000 0.547196
O O12 0.500000 0.284362 0.000000
#
# Coordination Sequence:
#
# PCOD9192617 Si02
#       5
#     8   8   8   8   8
#     4  10  20  34  48  66  93 127 167 197 220 266
#     4   9  18  30  48  68  95 128 158 185 233 277
#     4   9  16  28  50  75  94 118 153 197 236 269
#     4   8  15  28  47  72  96 117 148 187 234 284
#     4   8  15  28  47  73  95 117 148 189 236 283
#
# _framework density 25.226018
#
# number of rings (size 3 to 8) (size 9 to 14) (size 15 to 20)
#    1.200    2.000    0.000    1.800    0.000    4.000 
#    0.000    2.000    0.000    2.400    0.000    5.600 
#    0.000    0.000    0.000    0.000    0.000    0.000 
#
# Total GULP energy -111415.702232 kJ/mol
# GULP energy per Si atom -5570.785112 kJ/mol
# Density = 2.516860 g / cm^3
# Si number density = 25.226018 Si / 1000 Ang^3
#
#
#
# Elastic Constant Matrix: (Units=GPa)
#
#
# Indices 1 2 3 4 5 6 
#
# 1 99.3634 30.5528 16.7160 0.0000 -14.9293 0.0000
# 2 30.5528 125.0890 33.2646 0.0000 2.3335 0.0000
# 3 16.7160 33.2646 42.7872 0.0000 -10.3788 0.0000
# 4 0.0000 0.0000 0.0000 35.5630 0.0000 -0.2965
# 5 -14.9293 2.3335 -10.3788 0.0000 35.8604 0.0000
# 6 0.0000 0.0000 0.0000 -0.2965 0.0000 37.7156
#
#
#
# Elastic Compliance Matrix: (Units=1/GPa)
#
#
# Indices 1 2 3 4 5 6 
#
# 1 0.011804 -0.002577 -0.001480 0.000000 0.004654 0.000000
# 2 -0.002577 0.010981 -0.008565 0.000000 -0.004266 0.000000
# 3 -0.001480 -0.008565 0.032904 0.000000 0.009465 0.000000
# 4 0.000000 0.000000 0.000000 0.028121 0.000000 0.000221
# 5 0.004654 -0.004266 0.009465 0.000000 0.032840 0.000000
# 6 0.000000 0.000000 0.000000 0.000221 0.000000 0.026516
#
#
# Mechanical properties :
#
#
# Convention : Reuss Voigt Hill
#
# Bulk Modulus (GPa) = 32.84435 47.58957 40.21696
# Shear Modulus (GPa) = 28.00192 34.27488 31.13840
#
# Velocity S-wave (km/s) = 3.33534 3.69007 3.51718
# Velocity P-wave (km/s) = 5.28024 6.08783 5.69836
#
# Compressibility (1/GPa) = 0.03044663
#
# Stress axis : x y z
#
# Youngs Moduli (GPa) = 84.71360 91.06671 30.39103
#
# Poissons Ratio (x) = 0.23464 0.04497
# Poissons Ratio (y) = 0.21827 0.26031
# Poissons Ratio (z) = 0.12536 0.78002
#
# Static dielectric constant tensor:
#      x y z
#    x 1.997980 0.000000 -0.023390 
#    y 0.000000 1.898990 0.000000 
#    z -0.023390 0.000000 2.223460 
# 
# From -- ./inp_files/154672.got.cif
#   From: 2010.05.17/outbox.cif.g08.bks.cpg/sg12_78_cif.got.tgz:154672.got - 2010.06.03 13:09:07.
