data_PCOD9192779
_publ_section_title
;
Structure prediction by ZEFSAII (Michael W. Deem and Ramdas Pophale) SiO2 
 PCOD9192779
Probable space group: C 2/M
;
_chemical_formula_sum "Si O2"
_cell_formula_units_Z 40
_cell_length_a 27.497911
_cell_length_b 9.141521
_cell_length_c 26.997797
_cell_angle_alpha 90.000000
_cell_angle_beta 164.451777
_cell_angle_gamma 90.000000
_cell_volume 1819.119387
_symmetry_space_group_name_H-M "C 2/M"
_symmetry_group_IT_number 12
_symmetry_cell_setting 'monoclinic'
loop_
_space_group_symop_operation_xyz
x,y,z
-x,y,-z
-x,-y,-z
x,-y,z
1/2+x,1/2+y,z
1/2-x,1/2+y,-z
1/2-x,1/2-y,-z
1/2+x,1/2-y,z
loop_
_atom_site_type_symbol
_atom_site_label
_atom_site_fract_x
_atom_site_fract_y
_atom_site_fract_z
Si Si1 0.686701 0.823244 0.886752
Si Si2 0.721765 0.665646 0.717103
Si Si3 0.807801 0.827423 0.506199
Si Si4 0.730646 0.164198 0.821539
Si Si5 0.214627 0.333447 0.612589
O O1 0.514560 0.723023 0.705755
O O2 0.796316 0.812139 0.942474
O O3 0.650750 0.000000 0.857812
O O4 0.750000 0.750000 0.000000
O O5 0.500000 0.666912 0.500000
O O6 0.779143 0.500000 0.764324
O O7 0.784324 0.723048 0.831848
O O8 0.776637 0.768792 0.725614
O O9 0.750000 0.750000 0.500000
O O10 0.723869 0.763011 0.373671
O O11 0.783247 0.000000 0.485408
O O12 0.507912 0.165736 0.604246
O O13 0.782336 0.000000 0.857011
O O14 0.271812 0.500000 0.661392
#
# Coordination Sequence:
#
# PCOD9192779 Si02
#       5
#     8   8   8   8   8
#     4  10  20  34  51  73 100 131 166 203 245 290
#     4   9  15  22  36  60  88 118 152 190 235 284
#     4  11  21  34  51  72  99 130 165 204 245 290
#     4   8  15  26  40  60  89 122 154 191 236 284
#     4   9  16  27  42  62  90 122 155 193 239 287
#
# _framework density 21.988661
#
# number of rings (size 3 to 8) (size 9 to 14) (size 15 to 20)
#    0.000    2.600    0.000    4.800    0.000    8.000 
#    0.000    0.000    0.000    0.000    0.000    1.400 
#    0.000   11.200    0.000    0.000    0.000    0.000 
#
# Total GULP energy -111543.899599 kJ/mol
# GULP energy per Si atom -5577.194980 kJ/mol
# Density = 2.193861 g / cm^3
# Si number density = 21.988661 Si / 1000 Ang^3
#
#
#
# Elastic Constant Matrix: (Units=GPa)
#
#
# Indices 1 2 3 4 5 6 
#
# 1 149.2514 100.8338 5.1484 -0.0122 -42.3363 -0.0049
# 2 100.8338 199.5159 8.7552 -0.0199 -20.5749 -0.0105
# 3 5.1484 8.7552 47.2787 -0.0132 -8.2387 -0.0100
# 4 -0.0122 -0.0199 -0.0132 10.5523 -0.0088 -9.6520
# 5 -42.3363 -20.5749 -8.2387 -0.0088 22.1728 -0.0048
# 6 -0.0049 -0.0105 -0.0100 -9.6520 -0.0048 48.0341
#
#
#
# Elastic Compliance Matrix: (Units=1/GPa)
#
#
# Indices 1 2 3 4 5 6 
#
# 1 0.022371 -0.007665 0.005546 0.000067 0.037662 0.000019
# 2 -0.007665 0.008170 -0.002040 -0.000003 -0.007813 -0.000001
# 3 0.005546 -0.002040 0.023994 0.000066 0.017613 0.000020
# 4 0.000067 -0.000003 0.000066 0.116106 0.000201 0.023330
# 5 0.037662 -0.007813 0.017613 0.000201 0.116306 0.000058
# 6 0.000019 -0.000001 0.000020 0.023330 0.000058 0.025507
#
#
# Mechanical properties :
#
#
# Convention : Reuss Voigt Hill
#
# Bulk Modulus (GPa) = 21.63689 69.50231 45.56960
# Shear Modulus (GPa) = 14.87313 34.90575 24.88944
#
# Velocity S-wave (km/s) = 2.60359 3.98860 3.36805
# Velocity P-wave (km/s) = 4.34737 7.27246 5.99117
#
# Compressibility (1/GPa) = 0.04621737
#
# Stress axis : x y z
#
# Youngs Moduli (GPa) = 44.70139 122.39895 41.67675
#
# Poissons Ratio (x) = 0.93825 -0.23116
# Poissons Ratio (y) = 0.34266 0.08501
# Poissons Ratio (z) = -0.24793 0.24966
#
# Static dielectric constant tensor:
#      x y z
#    x 1.829170 0.000000 -0.015030 
#    y 0.000000 1.736820 0.000000 
#    z -0.015030 0.000000 1.868100 
# 
# From -- ./inp_files/101011.got.cif
#   From: 2010.05.17/outbox.cif.g08.bks.cpg/sg12_51_cif.got.tgz:101011.got - 2010.06.03 13:09:07.
