data_PCOD9192249
_publ_section_title
;
Structure prediction by ZEFSAII (Michael W. Deem and Ramdas Pophale) SiO2 
 PCOD9192249
Probable space group: C 2/M
;
_chemical_formula_sum "Si O2"
_cell_formula_units_Z 58
_cell_length_a 18.061304
_cell_length_b 13.325801
_cell_length_c 24.346800
_cell_angle_alpha 90.000000
_cell_angle_beta 30.962776
_cell_angle_gamma 90.000000
_cell_volume 3014.766793
_symmetry_space_group_name_H-M "C 2/M"
_symmetry_group_IT_number 12
_symmetry_cell_setting 'monoclinic'
loop_
_space_group_symop_operation_xyz
x,y,z
-x,y,-z
-x,-y,-z
x,-y,z
1/2+x,1/2+y,z
1/2-x,1/2+y,-z
1/2-x,1/2-y,-z
1/2+x,1/2-y,z
loop_
_atom_site_type_symbol
_atom_site_label
_atom_site_fract_x
_atom_site_fract_y
_atom_site_fract_z
Si Si1 0.234647 0.260590 0.877175
Si Si2 0.769845 0.255144 0.240884
Si Si3 0.941281 0.688935 0.459171
Si Si4 0.932068 0.884305 0.829080
Si Si5 0.166030 0.710953 0.680707
Si Si6 0.500000 0.000000 0.500000
Si Si7 0.476284 0.385373 0.927761
Si Si8 0.994339 0.385297 0.310505
O O1 0.207443 0.303275 0.833446
O O2 0.299247 0.340726 0.878721
O O3 0.360406 0.178135 0.788806
O O4 0.103191 0.197405 0.985277
O O5 0.601968 0.234604 0.357154
O O6 0.831074 0.309126 0.256008
O O7 0.857692 0.149437 0.182813
O O8 0.824290 0.762917 0.558832
O O9 0.945086 0.588336 0.492436
O O10 0.910195 0.661685 0.415610
O O11 0.908195 0.880659 0.909979
O O12 0.067669 0.810627 0.733351
O O13 0.962683 0.000000 0.795255
O O14 0.094996 0.626845 0.688373
O O15 0.464542 0.500000 0.954948
O O16 0.028776 0.500000 0.300600
#
# Coordination Sequence:
#
# PCOD9192249 Si02
#       8
#     8   8   8   8   8   2   8   8
#     4  10  20  35  53  77 106 135 167 213 259 302
#     4  10  21  33  51  75 106 137 168 210 257 303
#     4  11  21  33  52  79 108 135 165 212 262 308
#     4   9  20  35  55  77 102 134 174 212 251 303
#     4  10  20  36  53  77 106 137 170 212 254 304
#     4  12  20  28  56  80 104 136 166 208 268 312
#     4  10  20  33  54  79 105 134 167 209 261 311
#     4  10  21  35  54  77 105 137 176 208 251 307
#
# _framework density 19.238634999999999
#
# number of rings (size 3 to 8) (size 9 to 14) (size 15 to 20)
#    0.000    1.931    2.069    1.655    1.931    1.655 
#    0.000    0.690    0.000    3.310    0.000    0.000 
#    0.000    0.000    0.000    0.000    0.000    0.000 
#
# Total GULP energy -161506.275353 kJ/mol
# GULP energy per Si atom -5569.181909 kJ/mol
# Density = 1.919485 g / cm^3
# Si number density = 19.238635 Si / 1000 Ang^3
#
#
#
# Elastic Constant Matrix: (Units=GPa)
#
#
# Indices 1 2 3 4 5 6 
#
# 1 128.0191 11.5269 18.5603 0.0000 12.2091 0.0000
# 2 11.5269 23.8579 7.0892 0.0003 5.0075 0.0000
# 3 18.5603 7.0892 67.0680 0.0008 -1.3202 -0.0001
# 4 0.0000 0.0003 0.0008 7.3169 -0.0002 3.5187
# 5 12.2091 5.0075 -1.3202 -0.0002 19.9213 0.0000
# 6 0.0000 0.0000 -0.0001 3.5187 0.0000 12.3684
#
#
#
# Elastic Compliance Matrix: (Units=1/GPa)
#
#
# Indices 1 2 3 4 5 6 
#
# 1 0.008841 -0.002563 -0.002273 0.000000 -0.004925 0.000000
# 2 -0.002563 0.046663 -0.004429 -0.000002 -0.010452 0.000001
# 3 -0.002273 -0.004429 0.016078 -0.000002 0.003572 0.000001
# 4 0.000000 -0.000002 -0.000002 0.158331 0.000001 -0.045043
# 5 -0.004925 -0.010452 0.003572 0.000001 0.056080 0.000000
# 6 0.000000 0.000001 0.000001 -0.045043 0.000000 0.093666
#
#
# Mechanical properties :
#
#
# Convention : Reuss Voigt Hill
#
# Bulk Modulus (GPa) = 18.84905 32.58865 25.71885
# Shear Modulus (GPa) = 12.02294 20.03922 16.03108
#
# Velocity S-wave (km/s) = 2.50259 3.23091 2.88978
# Velocity P-wave (km/s) = 4.26255 5.55826 4.95296
#
# Compressibility (1/GPa) = 0.05305307
#
# Stress axis : x y z
#
# Youngs Moduli (GPa) = 113.10576 21.43039 62.19811
#
# Poissons Ratio (x) = 0.05492 0.14136
# Poissons Ratio (y) = 0.28985 0.27547
# Poissons Ratio (z) = 0.25707 0.09491
#
# Static dielectric constant tensor:
#      x y z
#    x 1.730580 0.000000 0.023090 
#    y 0.000000 1.608900 0.000000 
#    z 0.023090 0.000000 1.682650 
# 
# From -- ./inp_files/156057.got.cif
#   From: 2010.05.17/outbox.cif.g08.bks.cpg/sg12_79_cif.got.tgz:156057.got - 2010.06.03 13:09:07.
