data_PCOD9192422
_publ_section_title
;
Structure prediction by ZEFSAII (Michael W. Deem and Ramdas Pophale) SiO2 
 PCOD9192422
Probable space group: C 2/M
;
_chemical_formula_sum "Si O2"
_cell_formula_units_Z 64
_cell_length_a 23.081398
_cell_length_b 18.326664
_cell_length_c 14.784755
_cell_angle_alpha 90.000000
_cell_angle_beta 150.251350
_cell_angle_gamma 90.000000
_cell_volume 3103.222816
_symmetry_space_group_name_H-M "C 2/M"
_symmetry_group_IT_number 12
_symmetry_cell_setting 'monoclinic'
loop_
_space_group_symop_operation_xyz
x,y,z
-x,y,-z
-x,-y,-z
x,-y,z
1/2+x,1/2+y,z
1/2-x,1/2+y,-z
1/2-x,1/2-y,-z
1/2+x,1/2-y,z
loop_
_atom_site_type_symbol
_atom_site_label
_atom_site_fract_x
_atom_site_fract_y
_atom_site_fract_z
Si Si1 0.701412 0.584126 0.087556
Si Si2 0.960304 0.083281 0.308026
Si Si3 0.297204 0.311135 0.180758
Si Si4 0.593969 0.185944 0.199171
Si Si5 0.110982 0.336196 0.770462
Si Si6 0.814950 0.180334 0.406125
Si Si7 0.116111 0.340397 0.433841
Si Si8 0.131240 0.147817 0.177197
O O1 0.704146 0.500000 0.123992
O O2 0.822103 0.607330 0.203451
O O3 0.666295 0.640388 0.118877
O O4 0.607867 0.589303 0.879852
O O5 0.877198 0.119205 0.269754
O O6 0.077501 0.127762 0.458073
O O7 0.982398 0.000000 0.358175
O O8 0.378447 0.241137 0.267637
O O9 0.258146 0.308228 0.230822
O O10 0.189618 0.318394 0.965954
O O11 0.719002 0.152296 0.345118
O O12 0.568107 0.167280 0.267179
O O13 0.610053 0.273072 0.197115
O O14 0.500000 0.159044 0.000000
O O15 0.985846 0.364164 0.635296
O O16 0.859085 0.257905 0.500667
O O17 0.244342 0.378665 0.610946
O O18 0.000000 0.112837 0.000000
#
# Coordination Sequence:
#
# PCOD9192422 Si02
#       8
#     8   8   8   8   8   8   8   8
#     4  10  23  41  61  88 123 167 208 249 311 374
#     4  10  22  36  56  86 122 158 199 250 304 365
#     4  10  20  33  55  88 114 162 198 252 308 367
#     4  10  22  36  58  88 120 155 199 256 312 359
#     4  10  20  37  60  83 126 155 206 257 311 361
#     4  11  20  32  56  82 118 152 202 248 307 360
#     4  11  22  36  58  91 119 158 204 258 313 363
#     4  10  22  36  61  85 123 161 201 254 308 364
#
# _framework density 20.623721
#
# number of rings (size 3 to 8) (size 9 to 14) (size 15 to 20)
#    0.000    1.750    1.250    4.125    5.250    2.750 
#    0.000    1.250    0.000    1.125    0.000    0.000 
#    0.000    0.000    0.000    0.000    0.000    0.000 
#
# Total GULP energy -178438.355407 kJ/mol
# GULP energy per Si atom -5576.198606 kJ/mol
# Density = 2.057678 g / cm^3
# Si number density = 20.623721 Si / 1000 Ang^3
#
#
#
# Elastic Constant Matrix: (Units=GPa)
#
#
# Indices 1 2 3 4 5 6 
#
# 1 100.2174 0.2498 25.4823 0.0000 5.3026 0.0000
# 2 0.2498 31.9335 -2.1423 0.0000 -4.0359 0.0000
# 3 25.4823 -2.1423 65.3674 0.0000 13.9232 0.0000
# 4 0.0000 0.0000 0.0000 6.4216 0.0000 0.0081
# 5 5.3026 -4.0359 13.9232 0.0000 39.6934 0.0000
# 6 0.0000 0.0000 0.0000 0.0081 0.0000 11.3233
#
#
#
# Elastic Compliance Matrix: (Units=1/GPa)
#
#
# Indices 1 2 3 4 5 6 
#
# 1 0.011081 -0.000377 -0.004332 0.000000 0.000001 0.000000
# 2 -0.000377 0.031744 0.000529 0.000000 0.003093 0.000000
# 3 -0.004332 0.000529 0.018232 0.000000 -0.005763 0.000000
# 4 0.000000 0.000000 0.000000 0.155724 0.000000 -0.000111
# 5 0.000001 0.003093 -0.005763 0.000000 0.027529 0.000000
# 6 0.000000 0.000000 0.000000 -0.000111 0.000000 0.088314
#
#
# Mechanical properties :
#
#
# Convention : Reuss Voigt Hill
#
# Bulk Modulus (GPa) = 18.97697 27.18865 23.08281
# Shear Modulus (GPa) = 13.94507 23.08290 18.51398
#
# Velocity S-wave (km/s) = 2.60314 3.34913 2.99942
# Velocity P-wave (km/s) = 4.27278 5.30730 4.81789
#
# Compressibility (1/GPa) = 0.05269546
#
# Stress axis : x y z
#
# Youngs Moduli (GPa) = 90.24663 31.50166 54.84937
#
# Poissons Ratio (x) = 0.01188 0.23762
# Poissons Ratio (y) = 0.03404 -0.02900
# Poissons Ratio (z) = 0.39097 -0.01665
#
# Static dielectric constant tensor:
#      x y z
#    x 1.732750 0.000000 0.003350 
#    y 0.000000 1.711780 0.000000 
#    z 0.003350 0.000000 1.807320 
# 
# From -- ./inp_files/241527.got.cif
#   From: 2010.05.17/outbox.cif.g08.bks.cpg/sg12_121_cif.got.tgz:241527.got - 2010.06.03 13:09:07.
