data_PCOD9192616
_publ_section_title
;
Structure prediction by ZEFSAII (Michael W. Deem and Ramdas Pophale) SiO2 
 PCOD9192616
Probable space group: C 2/M
;
_chemical_formula_sum "Si O2"
_cell_formula_units_Z 56
_cell_length_a 20.600050
_cell_length_b 23.616114
_cell_length_c 9.775834
_cell_angle_alpha 90.000000
_cell_angle_beta 138.156987
_cell_angle_gamma 90.000000
_cell_volume 3172.606525
_symmetry_space_group_name_H-M "C 2/M"
_symmetry_group_IT_number 12
_symmetry_cell_setting 'monoclinic'
loop_
_space_group_symop_operation_xyz
x,y,z
-x,y,-z
-x,-y,-z
x,-y,z
1/2+x,1/2+y,z
1/2-x,1/2+y,-z
1/2-x,1/2-y,-z
1/2+x,1/2-y,z
loop_
_atom_site_type_symbol
_atom_site_label
_atom_site_fract_x
_atom_site_fract_y
_atom_site_fract_z
Si Si1 0.915500 0.744466 0.169330
Si Si2 0.910001 0.837080 0.941494
Si Si3 0.303315 0.158056 0.830338
Si Si4 0.467406 0.432573 0.231560
Si Si5 0.223301 0.685471 0.502977
Si Si6 0.135361 0.252367 0.599205
Si Si7 0.660840 0.432654 0.705009
O O1 0.877216 0.794025 0.009685
O O2 0.868143 0.738434 0.244055
O O3 0.027057 0.760949 0.375325
O O4 0.891517 0.686822 0.050806
O O5 0.945423 0.894381 0.067183
O O6 0.822781 0.845196 0.699328
O O7 0.000000 0.810238 0.000000
O O8 0.325951 0.156369 0.704293
O O9 0.211808 0.201829 0.698292
O O10 0.257842 0.101400 0.821516
O O11 0.462501 0.500000 0.199128
O O12 0.574116 0.419781 0.460844
O O13 0.388107 0.418432 0.225276
O O14 0.250000 0.750000 0.500000
O O15 0.164861 0.694438 0.551347
O O16 0.676558 0.500000 0.727352
#
# Coordination Sequence:
#
# PCOD9192616 Si02
#       7
#     8   8   8   8   8   8   8
#     4  11  22  32  54  75 106 144 178 220 273 320
#     4  12  21  31  52  77 109 152 180 219 264 324
#     4  11  20  34  54  77 105 146 174 217 271 324
#     4   9  19  34  52  78 108 146 183 222 270 320
#     4  10  20  34  47  72 111 140 177 217 262 319
#     4  10  21  35  47  79 109 134 180 221 262 332
#     4   9  18  34  55  78 108 140 185 228 262 323
#
# _framework density 17.651102000000002
#
# number of rings (size 3 to 8) (size 9 to 14) (size 15 to 20)
#    0.000    1.714    2.857    5.571    2.000    2.571 
#    0.000    0.714    0.000    0.000    0.000    5.000 
#    0.000    0.000    0.000    0.000    0.000    0.000 
#
# Total GULP energy -156137.307179 kJ/mol
# GULP energy per Si atom -5576.332399 kJ/mol
# Density = 1.761093 g / cm^3
# Si number density = 17.651102 Si / 1000 Ang^3
#
#
#
# Elastic Constant Matrix: (Units=GPa)
#
#
# Indices 1 2 3 4 5 6 
#
# 1 47.5175 3.9609 9.8271 0.0000 -18.7292 0.0000
# 2 3.9609 39.0167 12.9841 0.0000 -6.4729 0.0000
# 3 9.8271 12.9841 76.9303 0.0000 -18.8673 0.0000
# 4 0.0000 0.0000 0.0000 27.5173 0.0000 -0.5360
# 5 -18.7292 -6.4729 -18.8673 0.0000 24.9602 0.0000
# 6 0.0000 0.0000 0.0000 -0.5360 0.0000 21.2191
#
#
#
# Elastic Compliance Matrix: (Units=1/GPa)
#
#
# Indices 1 2 3 4 5 6 
#
# 1 0.030156 0.000280 0.002048 0.000000 0.024248 0.000000
# 2 0.000280 0.027556 -0.003538 0.000000 0.004681 0.000000
# 3 0.002048 -0.003538 0.016555 0.000000 0.013133 0.000000
# 4 0.000000 0.000000 0.000000 0.036359 0.000000 0.000918
# 5 0.024248 0.004681 0.013133 0.000000 0.069400 0.000000
# 6 0.000000 0.000000 0.000000 0.000918 0.000000 0.047151
#
#
# Mechanical properties :
#
#
# Convention : Reuss Voigt Hill
#
# Bulk Modulus (GPa) = 13.91887 24.11207 19.01547
# Shear Modulus (GPa) = 19.72031 23.85214 21.78623
#
# Velocity S-wave (km/s) = 3.34612 3.68001 3.51703
# Velocity P-wave (km/s) = 4.77822 5.63442 5.22389
#
# Compressibility (1/GPa) = 0.07184493
#
# Stress axis : x y z
#
# Youngs Moduli (GPa) = 33.16139 36.29000 60.40358
#
# Poissons Ratio (x) = -0.01016 -0.12368
# Poissons Ratio (y) = -0.00929 0.21373
# Poissons Ratio (z) = -0.06790 0.12841
#
# Static dielectric constant tensor:
#      x y z
#    x 1.668630 0.000000 -0.008770 
#    y 0.000000 1.585140 0.000000 
#    z -0.008770 0.000000 1.585840 
# 
# From -- ./inp_files/90444.got.cif
#   From: 2010.05.17/outbox.cif.g08.bks.cpg/sg12_46_cif.got.tgz:90444.got - 2010.06.03 13:09:07.
