data_PCOD9192626
_publ_section_title
;
Structure prediction by ZEFSAII (Michael W. Deem and Ramdas Pophale) SiO2 
 PCOD9192626
Probable space group: C 2/M
;
_chemical_formula_sum "Si O2"
_cell_formula_units_Z 56
_cell_length_a 24.844671
_cell_length_b 7.661023
_cell_length_c 10.577102
_cell_angle_alpha 90.000000
_cell_angle_beta 87.955650
_cell_angle_gamma 90.000000
_cell_volume 2011.917639
_symmetry_space_group_name_H-M "C 2/M"
_symmetry_group_IT_number 12
_symmetry_cell_setting 'monoclinic'
loop_
_space_group_symop_operation_xyz
x,y,z
-x,y,-z
-x,-y,-z
x,-y,z
1/2+x,1/2+y,z
1/2-x,1/2+y,-z
1/2-x,1/2-y,-z
1/2+x,1/2-y,z
loop_
_atom_site_type_symbol
_atom_site_label
_atom_site_fract_x
_atom_site_fract_y
_atom_site_fract_z
Si Si1 0.559817 0.801077 0.940050
Si Si2 0.185468 0.213729 0.760783
Si Si3 0.510827 0.705206 0.679924
Si Si4 0.712718 0.206264 0.379357
Si Si5 0.388152 0.708810 0.462506
Si Si6 0.311822 0.708517 0.964845
Si Si7 0.398883 0.700592 0.796165
O O1 0.548080 0.718556 0.803216
O O2 0.579669 0.000000 0.927167
O O3 0.500000 0.820405 0.000000
O O4 0.583597 0.693789 0.056231
O O5 0.246082 0.279487 0.729548
O O6 0.147829 0.276282 0.650928
O O7 0.163749 0.261414 0.899730
O O8 0.186411 0.000000 0.757057
O O9 0.501052 0.500000 0.656045
O O10 0.551030 0.773677 0.566487
O O11 0.451040 0.778410 0.718756
O O12 0.750000 0.250000 0.500000
O O13 0.650639 0.259251 0.413680
O O14 0.711718 0.000000 0.370462
O O15 0.391594 0.500000 0.451458
O O16 0.314409 0.500000 0.951231
O O17 0.250000 0.750000 0.000000
O O18 0.341220 0.788228 0.838618
O O19 0.392808 0.500000 0.755042
#
# Coordination Sequence:
#
# PCOD9192626 Si02
#       7
#     8   8   8   8   8   8   8
#     4   9  16  24  36  58  87 115 144 178 212 250
#     4   8  15  28  44  61  87 120 145 173 217 261
#     4   9  16  26  41  61  87 120 150 173 209 266
#     4   9  16  27  43  64  91 121 149 177 213 259
#     4   9  16  27  44  67  93 119 147 177 211 258
#     4  10  20  34  49  65  85 112 151 193 229 266
#     4   9  17  29  44  60  82 115 149 179 217 271
#
# _framework density 27.834142
#
# number of rings (size 3 to 8) (size 9 to 14) (size 15 to 20)
#    0.000    3.000    0.000    2.571    0.000    5.143 
#    0.000    3.571    0.000    0.000    0.000    1.000 
#    0.000    8.000    0.000    0.000    0.000    0.000 
#
# Total GULP energy -156239.725366 kJ/mol
# GULP energy per Si atom -5579.990192 kJ/mol
# Density = 2.777079 g / cm^3
# Si number density = 27.834142 Si / 1000 Ang^3
#
#
#
# Elastic Constant Matrix: (Units=GPa)
#
#
# Indices 1 2 3 4 5 6 
#
# 1 149.0739 22.7367 60.5964 0.0000 -60.2098 0.0000
# 2 22.7367 95.8097 7.2040 0.0000 -4.5456 0.0000
# 3 60.5964 7.2040 223.9059 0.0000 -69.1322 0.0000
# 4 0.0000 0.0000 0.0000 6.1306 0.0000 -8.1678
# 5 -60.2098 -4.5456 -69.1322 0.0000 77.2362 0.0000
# 6 0.0000 0.0000 0.0000 -8.1678 0.0000 33.6288
#
#
#
# Elastic Compliance Matrix: (Units=1/GPa)
#
#
# Indices 1 2 3 4 5 6 
#
# 1 0.010198 -0.002036 -0.000383 0.000000 0.007488 0.000000
# 2 -0.002036 0.010880 -0.000126 0.000000 -0.001060 0.000000
# 3 -0.000383 -0.000126 0.006190 0.000000 0.005235 0.000000
# 4 0.000000 0.000000 0.000000 0.241151 0.000000 0.058571
# 5 0.007488 -0.001060 0.005235 0.000000 0.023408 0.000000
# 6 0.000000 0.000000 0.000000 0.058571 0.000000 0.043962
#
#
# Mechanical properties :
#
#
# Convention : Reuss Voigt Hill
#
# Bulk Modulus (GPa) = 45.08924 72.20707 58.64816
# Shear Modulus (GPa) = 14.35659 48.61595 31.48627
#
# Velocity S-wave (km/s) = 2.27357 4.18380 3.36700
# Velocity P-wave (km/s) = 4.80901 7.02404 6.01929
#
# Compressibility (1/GPa) = 0.02217824
#
# Stress axis : x y z
#
# Youngs Moduli (GPa) = 98.05366 91.91372 161.54914
#
# Poissons Ratio (x) = 0.18715 0.06180
# Poissons Ratio (y) = 0.19966 0.02040
# Poissons Ratio (z) = 0.03751 0.01161
#
# Static dielectric constant tensor:
#      x y z
#    x 2.681220 0.000000 0.204330 
#    y 0.000000 2.132050 0.000000 
#    z 0.204330 0.000000 2.397980 
# 
# From -- ./inp_files/242990.got.cif
#   From: 2010.05.17/outbox.cif.g08.bks.cpg/sg12_122_cif.got.tgz:242990.got - 2010.06.03 13:09:07.
