data_PCOD9192336
_publ_section_title
;
Structure prediction by ZEFSAII (Michael W. Deem and Ramdas Pophale) SiO2 
 PCOD9192336
Probable space group: C 2/M
;
_chemical_formula_sum "Si O2"
_cell_formula_units_Z 60
_cell_length_a 5.826308
_cell_length_b 30.087039
_cell_length_c 14.354011
_cell_angle_alpha 90.000000
_cell_angle_beta 99.344246
_cell_angle_gamma 90.000000
_cell_volume 2482.817345
_symmetry_space_group_name_H-M "C 2/M"
_symmetry_group_IT_number 12
_symmetry_cell_setting 'monoclinic'
loop_
_space_group_symop_operation_xyz
x,y,z
-x,y,-z
-x,-y,-z
x,-y,z
1/2+x,1/2+y,z
1/2-x,1/2+y,-z
1/2-x,1/2-y,-z
1/2+x,1/2-y,z
loop_
_atom_site_type_symbol
_atom_site_label
_atom_site_fract_x
_atom_site_fract_y
_atom_site_fract_z
Si Si1 0.000000 0.091259 0.500000
Si Si2 0.360358 0.548602 0.197378
Si Si3 0.597344 0.950539 0.901631
Si Si4 0.463730 0.769551 0.384196
Si Si5 0.787305 0.549253 0.365990
Si Si6 0.057905 0.871605 0.110504
Si Si7 0.918238 0.633307 0.602275
Si Si8 0.055050 0.228793 0.115997
O O1 0.188754 0.060688 0.462249
O O2 0.143467 0.122652 0.580242
O O3 0.395458 0.500000 0.150761
O O4 0.553651 0.549459 0.288521
O O5 0.373904 0.595919 0.146595
O O6 0.088095 0.545720 0.193587
O O7 0.736888 0.907250 0.883508
O O8 0.705012 0.000000 0.914461
O O9 0.500000 0.944185 0.000000
O O10 0.500000 0.766799 0.500000
O O11 0.689041 0.743286 0.355967
O O12 0.510058 0.819728 0.351983
O O13 0.890753 0.500000 0.370534
O O14 0.947217 0.590763 0.351256
O O15 0.080986 0.822409 0.151521
O O16 0.000000 0.863214 0.000000
O O17 0.000000 0.637179 0.500000
O O18 0.313429 0.251201 0.143743
O O19 0.000000 0.231021 0.000000
#
# Coordination Sequence:
#
# PCOD9192336 Si02
#       8
#     4   8   8   8   8   8   8   8
#     4  10  21  36  60  86 118 158 206 252 311 364
#     4  10  22  38  56  86 122 157 201 253 309 377
#     4  10  20  33  54  86 123 159 204 253 305 375
#     4   9  18  29  53  86 122 154 190 242 308 367
#     4  10  22  39  58  83 119 159 205 256 310 369
#     4  11  21  33  60  85 118 160 201 246 313 372
#     4   9  20  34  56  85 116 147 195 248 299 365
#     4   9  20  35  56  87 121 157 207 263 307 364
#
# _framework density 24.166094999999999
#
# number of rings (size 3 to 8) (size 9 to 14) (size 15 to 20)
#    0.000    2.267    1.333    0.600    8.400    5.067 
#    0.000    2.667    0.000    1.600    0.000    0.000 
#    0.000    0.000    0.000    0.000    0.000    0.000 
#
# Total GULP energy -167052.357445 kJ/mol
# GULP energy per Si atom -5568.411915 kJ/mol
# Density = 2.411109 g / cm^3
# Si number density = 24.166095 Si / 1000 Ang^3
#
#
#
# Elastic Constant Matrix: (Units=GPa)
#
#
# Indices 1 2 3 4 5 6 
#
# 1 121.5881 96.1288 19.6111 0.0000 21.8623 0.0000
# 2 96.1288 254.1504 23.3321 0.0000 13.1933 0.0000
# 3 19.6111 23.3321 39.7591 0.0000 9.3727 0.0000
# 4 0.0000 0.0000 0.0000 25.6710 0.0000 -10.1839
# 5 21.8623 13.1933 9.3727 0.0000 41.5946 0.0000
# 6 0.0000 0.0000 0.0000 -10.1839 0.0000 74.0960
#
#
#
# Elastic Compliance Matrix: (Units=1/GPa)
#
#
# Indices 1 2 3 4 5 6 
#
# 1 0.013031 -0.004431 -0.002687 0.000000 -0.004838 0.000000
# 2 -0.004431 0.005692 -0.001350 0.000000 0.000828 0.000000
# 3 -0.002687 -0.001350 0.028340 0.000000 -0.004546 0.000000
# 4 0.000000 0.000000 0.000000 0.041201 0.000000 0.005663
# 5 -0.004838 0.000828 -0.004546 0.000000 0.027346 0.000000
# 6 0.000000 0.000000 0.000000 0.005663 0.000000 0.014274
#
#
# Mechanical properties :
#
#
# Convention : Reuss Voigt Hill
#
# Bulk Modulus (GPa) = 33.19132 77.07129 55.13131
# Shear Modulus (GPa) = 31.87522 46.70069 39.28795
#
# Velocity S-wave (km/s) = 3.63575 4.40078 4.03643
# Velocity P-wave (km/s) = 5.60262 7.60158 6.67733
#
# Compressibility (1/GPa) = 0.03012836
#
# Stress axis : x y z
#
# Youngs Moduli (GPa) = 76.74048 175.69894 35.28544
#
# Poissons Ratio (x) = 0.77851 0.09480
# Poissons Ratio (y) = 0.34003 0.04762
# Poissons Ratio (z) = 0.20618 0.23712
#
# Static dielectric constant tensor:
#      x y z
#    x 2.012100 0.000000 -0.013760 
#    y 0.000000 1.905600 0.000000 
#    z -0.013760 0.000000 2.013010 
# 
# From -- ./inp_files/254033.got.cif
#   From: 2010.05.17/outbox.cif.g08.bks.cpg/sg12_128_cif.got.tgz:254033.got - 2010.06.03 13:09:07.
