data_PCOD9192811
_publ_section_title
;
Structure prediction by ZEFSAII (Michael W. Deem and Ramdas Pophale) SiO2 
 PCOD9192811
Probable space group: C 2/M
;
_chemical_formula_sum "Si O2"
_cell_formula_units_Z 64
_cell_length_a 17.629067
_cell_length_b 15.015847
_cell_length_c 16.012096
_cell_angle_alpha 90.000000
_cell_angle_beta 103.217370
_cell_angle_gamma 90.000000
_cell_volume 4126.364611
_symmetry_space_group_name_H-M "C 2/M"
_symmetry_group_IT_number 12
_symmetry_cell_setting 'monoclinic'
loop_
_space_group_symop_operation_xyz
x,y,z
-x,y,-z
-x,-y,-z
x,-y,z
1/2+x,1/2+y,z
1/2-x,1/2+y,-z
1/2-x,1/2-y,-z
1/2+x,1/2-y,z
loop_
_atom_site_type_symbol
_atom_site_label
_atom_site_fract_x
_atom_site_fract_y
_atom_site_fract_z
Si Si1 0.083831 0.601008 0.625098
Si Si2 0.093103 0.896601 0.298354
Si Si3 0.913790 0.107613 0.215052
Si Si4 0.688594 0.760235 0.735113
Si Si5 0.192513 0.105098 0.154392
Si Si6 0.601898 0.899820 0.436328
Si Si7 0.421191 0.607353 0.022670
Si Si8 0.204117 0.247899 0.400708
O O1 0.108256 0.500000 0.653188
O O2 0.118059 0.674444 0.693430
O O3 0.113205 0.618280 0.537956
O O4 0.990680 0.603879 0.600222
O O5 0.128775 0.889173 0.213500
O O6 0.148087 0.837037 0.370923
O O7 0.001209 0.873518 0.272272
O O8 0.099402 0.000000 0.324263
O O9 0.847995 0.168510 0.241058
O O10 0.901356 0.000000 0.219506
O O11 0.913629 0.133086 0.116935
O O12 0.742786 0.820867 0.808800
O O13 0.738160 0.745667 0.663097
O O14 0.150589 0.126307 0.056542
O O15 0.218319 0.000000 0.160412
O O16 0.646708 0.831460 0.390841
O O17 0.628706 0.000000 0.427184
O O18 0.428078 0.500000 0.025799
O O19 0.500000 0.642980 0.000000
O O20 0.250000 0.250000 0.500000
#
# Coordination Sequence:
#
# PCOD9192811 Si02
#       8
#     8   8   8   8   8   8   8   8
#     4   9  17  32  52  70  87 116 161 213 251 274
#     4   9  18  33  52  72  96 127 169 212 243 281
#     4  10  20  34  51  74 103 135 165 197 245 302
#     4  11  21  31  48  73 107 131 154 204 254 299
#     4   9  17  30  51  79 101 123 161 208 251 288
#     4   9  18  32  50  67  86 119 167 208 238 283
#     4   9  15  29  54  77  99 128 164 202 241 293
#     4  11  21  33  47  69  98 132 166 199 249 298
#
# _framework density 15.510021
#
# number of rings (size 3 to 8) (size 9 to 14) (size 15 to 20)
#    0.000    2.375    2.500    1.875    0.000    2.000 
#    0.000    0.000    0.000    1.500    0.000    0.000 
#    0.000    1.500    0.000    0.000    0.000    0.000 
#
# Total GULP energy -178203.760196 kJ/mol
# GULP energy per Si atom -5568.867506 kJ/mol
# Density = 1.547472 g / cm^3
# Si number density = 15.510021 Si / 1000 Ang^3
#
#
#
# Elastic Constant Matrix: (Units=GPa)
#
#
# Indices 1 2 3 4 5 6 
#
# 1 73.6266 56.3252 42.8635 0.0000 2.0770 0.0000
# 2 56.3252 79.2069 43.6432 0.0000 2.3173 0.0000
# 3 42.8635 43.6432 87.9034 0.0000 9.7427 0.0000
# 4 0.0000 0.0000 0.0000 13.9932 0.0000 2.7736
# 5 2.0770 2.3173 9.7427 0.0000 14.0650 0.0000
# 6 0.0000 0.0000 0.0000 2.7736 0.0000 27.8296
#
#
#
# Elastic Compliance Matrix: (Units=1/GPa)
#
#
# Indices 1 2 3 4 5 6 
#
# 1 0.031968 -0.019346 -0.006296 0.000000 0.002828 0.000000
# 2 -0.019346 0.029237 -0.005269 0.000000 0.001690 0.000000
# 3 -0.006296 -0.005269 0.018266 0.000000 -0.010855 0.000000
# 4 0.000000 0.000000 0.000000 0.072904 0.000000 -0.007266
# 5 0.002828 0.001690 -0.010855 0.000000 0.077921 0.000000
# 6 0.000000 0.000000 0.000000 -0.007266 0.000000 0.036657
#
#
# Mechanical properties :
#
#
# Convention : Reuss Voigt Hill
#
# Bulk Modulus (GPa) = 56.67000 58.48894 57.57947
# Shear Modulus (GPa) = 14.94061 17.70457 16.32259
#
# Velocity S-wave (km/s) = 3.10705 3.38226 3.24758
# Velocity P-wave (km/s) = 7.03482 7.28322 7.16010
#
# Compressibility (1/GPa) = 0.01764602
#
# Stress axis : x y z
#
# Youngs Moduli (GPa) = 31.28123 34.20371 54.74763
#
# Poissons Ratio (x) = 0.66172 0.34472
# Poissons Ratio (y) = 0.60518 0.28848
# Poissons Ratio (z) = 0.19696 0.18023
#
# Static dielectric constant tensor:
#      x y z
#    x 1.535180 0.000000 0.012150 
#    y 0.000000 1.509220 0.000000 
#    z 0.012150 0.000000 1.524360 
# 
# From -- ./inp_files/224814.got.cif
#   From: 2010.05.17/outbox.cif.g08.bks.cpg/sg12_113_cif.got.tgz:224814.got - 2010.06.03 13:09:07.
