data_PCOD9192097
_publ_section_title
;
Structure prediction by ZEFSAII (Michael W. Deem and Ramdas Pophale) SiO2 
 PCOD9192097
Probable space group: C 2/M
;
_chemical_formula_sum "Si O2"
_cell_formula_units_Z 56
_cell_length_a 10.847124
_cell_length_b 12.726157
_cell_length_c 17.602428
_cell_angle_alpha 90.000000
_cell_angle_beta 82.082482
_cell_angle_gamma 90.000000
_cell_volume 2406.714870
_symmetry_space_group_name_H-M "C 2/M"
_symmetry_group_IT_number 12
_symmetry_cell_setting 'monoclinic'
loop_
_space_group_symop_operation_xyz
x,y,z
-x,y,-z
-x,-y,-z
x,-y,z
1/2+x,1/2+y,z
1/2-x,1/2+y,-z
1/2-x,1/2-y,-z
1/2+x,1/2-y,z
loop_
_atom_site_type_symbol
_atom_site_label
_atom_site_fract_x
_atom_site_fract_y
_atom_site_fract_z
Si Si1 0.682664 0.613816 0.042278
Si Si2 0.147974 0.882385 0.303941
Si Si3 0.357086 0.838544 0.171022
Si Si4 0.127489 0.383811 0.534742
Si Si5 0.601028 0.381285 0.768903
Si Si6 0.764422 0.790687 0.384367
Si Si7 0.916558 0.659241 0.936079
O O1 0.621335 0.500000 0.050185
O O2 0.774492 0.625956 0.106826
O O3 0.595495 0.714468 0.055163
O O4 0.776700 0.620940 0.962500
O O5 0.281502 0.878612 0.249970
O O6 0.155611 0.787372 0.363108
O O7 0.039848 0.865036 0.250574
O O8 0.125956 0.000000 0.336905
O O9 0.361431 0.712185 0.178316
O O10 0.500611 0.869891 0.143793
O O11 0.147600 0.500000 0.565248
O O12 0.133689 0.293859 0.596828
O O13 0.228082 0.356561 0.461293
O O14 0.000000 0.382750 0.500000
O O15 0.612755 0.500000 0.796251
O O16 0.687247 0.362715 0.687426
O O17 0.000000 0.622536 0.000000
#
# Coordination Sequence:
#
# PCOD9192097 Si02
#       7
#     8   8   8   8   8   8   8
#     4  10  20  36  57  79 106 140 175 215 265 316
#     4  10  20  34  54  78 104 138 179 221 265 312
#     4  10  20  33  53  78 105 135 174 216 262 315
#     4  10  20  34  54  80 110 143 176 214 263 314
#     4  10  21  37  56  77 105 140 176 218 266 312
#     4  10  20  35  55  79 108 140 178 220 260 311
#     4   9  20  36  54  80 109 136 174 220 263 313
#
# _framework density 23.268231
#
# number of rings (size 3 to 8) (size 9 to 14) (size 15 to 20)
#    0.000    2.143    0.000    3.000    0.000    5.143 
#    0.000    5.714    0.000   34.286    0.000    0.000 
#    0.000    0.000    0.000    0.000    0.000    0.000 
#
# Total GULP energy -156362.470137 kJ/mol
# GULP energy per Si atom -5584.373933 kJ/mol
# Density = 2.321527 g / cm^3
# Si number density = 23.268231 Si / 1000 Ang^3
#
#
#
# Elastic Constant Matrix: (Units=GPa)
#
#
# Indices 1 2 3 4 5 6 
#
# 1 48.8275 18.6282 -0.1465 0.0000 1.8132 0.0000
# 2 18.6282 141.3575 -8.3691 0.0000 7.2052 0.0000
# 3 -0.1465 -8.3691 36.6998 0.0000 -6.9637 0.0000
# 4 0.0000 0.0000 0.0000 12.0213 0.0000 23.3763
# 5 1.8132 7.2052 -6.9637 0.0000 29.7121 0.0000
# 6 0.0000 0.0000 0.0000 23.3763 0.0000 56.4275
#
#
#
# Elastic Compliance Matrix: (Units=1/GPa)
#
#
# Indices 1 2 3 4 5 6 
#
# 1 0.021594 -0.002847 -0.000714 0.000000 -0.000795 0.000000
# 2 -0.002847 0.007604 0.001471 0.000000 -0.001325 0.000000
# 3 -0.000714 0.001471 0.028802 0.000000 0.006437 0.000000
# 4 0.000000 0.000000 0.000000 0.427866 0.000000 -0.177252
# 5 -0.000795 -0.001325 0.006437 0.000000 0.035535 0.000000
# 6 0.000000 0.000000 0.000000 -0.177252 0.000000 0.091152
#
#
# Mechanical properties :
#
#
# Convention : Reuss Voigt Hill
#
# Bulk Modulus (GPa) = 18.58044 27.45666 23.01855
# Shear Modulus (GPa) = 7.87806 34.08365 20.98086
#
# Velocity S-wave (km/s) = 1.84204 3.83144 3.00608
# Velocity P-wave (km/s) = 3.53932 5.60348 4.68646
#
# Compressibility (1/GPa) = 0.05382005
#
# Stress axis : x y z
#
# Youngs Moduli (GPa) = 46.30926 131.50698 34.71958
#
# Poissons Ratio (x) = 0.37446 0.02479
# Poissons Ratio (y) = 0.13186 -0.05108
# Poissons Ratio (z) = 0.03306 -0.19347
#
# Static dielectric constant tensor:
#      x y z
#    x 1.876680 0.000000 -0.013570 
#    y 0.000000 1.875740 0.000000 
#    z -0.013570 0.000000 1.896750 
# 
# From -- ./inp_files/304291.got.cif
#   From: 2010.05.17/outbox.cif.g08.bks.cpg/sg12_153_cif.got.tgz:304291.got - 2010.06.03 13:09:07.
