data_PCOD9192965
_publ_section_title
;
Structure prediction by ZEFSAII (Michael W. Deem and Ramdas Pophale) SiO2 
 PCOD9192965
Probable space group: C 2/M
;
_chemical_formula_sum "Si O2"
_cell_formula_units_Z 58
_cell_length_a 7.850763
_cell_length_b 13.222704
_cell_length_c 27.487614
_cell_angle_alpha 90.000000
_cell_angle_beta 93.754751
_cell_angle_gamma 90.000000
_cell_volume 2847.317977
_symmetry_space_group_name_H-M "C 2/M"
_symmetry_group_IT_number 12
_symmetry_cell_setting 'monoclinic'
loop_
_space_group_symop_operation_xyz
x,y,z
-x,y,-z
-x,-y,-z
x,-y,z
1/2+x,1/2+y,z
1/2-x,1/2+y,-z
1/2-x,1/2-y,-z
1/2+x,1/2-y,z
loop_
_atom_site_type_symbol
_atom_site_label
_atom_site_fract_x
_atom_site_fract_y
_atom_site_fract_z
Si Si1 0.007958 0.117275 0.660699
Si Si2 0.603238 0.721922 0.178142
Si Si3 0.307417 0.140044 0.014275
Si Si4 0.201125 0.722343 0.392731
Si Si5 0.909968 0.617119 0.446045
Si Si6 0.000000 0.000000 0.000000
Si Si7 0.602758 0.884529 0.873376
Si Si8 0.688185 0.382781 0.768545
O O1 0.146815 0.151655 0.623137
O O2 0.098067 0.125430 0.714614
O O3 0.859555 0.199924 0.650549
O O4 0.955338 0.000000 0.653196
O O5 0.542893 0.799190 0.134627
O O6 0.756538 0.651512 0.163052
O O7 0.450856 0.651528 0.193940
O O8 0.662972 0.800422 0.221215
O O9 0.313188 0.119535 0.072077
O O10 0.500000 0.117124 0.000000
O O11 0.250000 0.250000 0.000000
O O12 0.146491 0.082530 0.989882
O O13 0.261869 0.800001 0.436033
O O14 0.049011 0.651677 0.408578
O O15 0.856845 0.500000 0.438274
O O16 0.000000 0.624548 0.500000
O O17 0.546084 0.000000 0.863605
O O18 0.740302 0.500000 0.775882
#
# Coordination Sequence:
#
# PCOD9192965 Si02
#       8
#     8   8   8   8   8   2   8   8
#     4  10  20  34  55  79 108 139 180 226 275 332
#     4  10  22  38  59  83 115 145 187 231 276 342
#     4  12  25  45  67  95 128 164 208 254 305 364
#     4  10  20  34  52  78 106 139 179 227 274 322
#     4  10  20  34  52  74 105 142 181 222 271 327
#     4  12  26  44  68  92 128 168 202 256 308 356
#     4  11  23  41  60  87 116 152 190 236 287 339
#     4  10  20  37  57  82 109 146 181 224 281 334
#
# _framework density 20.370045999999999
#
# number of rings (size 3 to 8) (size 9 to 14) (size 15 to 20)
#    0.000    1.517    1.379    3.931    0.000    0.000 
#    0.000    0.000    0.000   19.862    0.000    0.000 
#    0.000    0.000    0.000    0.000    0.000    0.000 
#
# Total GULP energy -161479.866219 kJ/mol
# GULP energy per Si atom -5568.271249 kJ/mol
# Density = 2.032368 g / cm^3
# Si number density = 20.370046 Si / 1000 Ang^3
#
#
#
# Elastic Constant Matrix: (Units=GPa)
#
#
# Indices 1 2 3 4 5 6 
#
# 1 51.7186 4.0371 -26.7415 0.0000 -11.5037 0.0000
# 2 4.0371 116.2012 15.8629 0.0000 -1.9318 0.0000
# 3 -26.7415 15.8629 35.8418 0.0000 4.5925 0.0000
# 4 0.0000 0.0000 0.0000 -12.3115 0.0000 -7.9518
# 5 -11.5037 -1.9318 4.5925 0.0000 18.6303 0.0000
# 6 0.0000 0.0000 0.0000 -7.9518 0.0000 4.9126
#
#
#
# Elastic Compliance Matrix: (Units=1/GPa)
#
#
# Indices 1 2 3 4 5 6 
#
# 1 0.038000 -0.004946 0.028500 0.000000 0.015926 0.000000
# 2 -0.004946 0.009877 -0.008056 0.000000 -0.000044 0.000000
# 3 0.028500 -0.008056 0.052232 0.000000 0.003887 0.000000
# 4 0.000000 0.000000 0.000000 -0.039710 0.000000 -0.064277
# 5 0.015926 -0.000044 0.003887 0.000000 0.062547 0.000000
# 6 0.000000 0.000000 0.000000 -0.064277 0.000000 0.099517
#
#
# Mechanical properties :
#
#
# Convention : Reuss Voigt Hill
#
# Bulk Modulus (GPa) = 7.62745 21.11983 14.37364
# Shear Modulus (GPa) = 21.26140 16.28648 18.77394
#
# Velocity S-wave (km/s) = 3.23423 2.83067 3.03915
# Velocity P-wave (km/s) = 4.20708 4.59066 4.40305
#
# Compressibility (1/GPa) = 0.13110548
#
# Stress axis : x y z
#
# Youngs Moduli (GPa) = 26.31564 101.24954 19.14544
#
# Poissons Ratio (x) = 0.50079 -0.54565
# Poissons Ratio (y) = 0.13016 0.15423
# Poissons Ratio (z) = -0.75001 0.81565
#
# Static dielectric constant tensor:
#      x y z
#    x 1.738830 0.000000 0.043740 
#    y 0.000000 1.681900 0.000000 
#    z 0.043740 0.000000 1.727800 
# 
# From -- ./inp_files/355843.got.cif
#   From: 2010.05.17/outbox.cif.g08.bks.cpg/sg12_178_cif.got.tgz:355843.got - 2010.06.03 13:09:07.
