data_PCOD9192081
_publ_section_title
;
Structure prediction by ZEFSAII (Michael W. Deem and Ramdas Pophale) SiO2 
 PCOD9192081
Probable space group: C 2/M
;
_chemical_formula_sum "Si O2"
_cell_formula_units_Z 32
_cell_length_a 23.960322
_cell_length_b 10.843431
_cell_length_c 23.245248
_cell_angle_alpha 90.000000
_cell_angle_beta 162.968685
_cell_angle_gamma 90.000000
_cell_volume 1768.905034
_symmetry_space_group_name_H-M "C 2/M"
_symmetry_group_IT_number 12
_symmetry_cell_setting 'monoclinic'
loop_
_space_group_symop_operation_xyz
x,y,z
-x,y,-z
-x,-y,-z
x,-y,z
1/2+x,1/2+y,z
1/2-x,1/2+y,-z
1/2-x,1/2-y,-z
1/2+x,1/2-y,z
loop_
_atom_site_type_symbol
_atom_site_label
_atom_site_fract_x
_atom_site_fract_y
_atom_site_fract_z
Si Si1 0.368387 0.859293 0.716289
Si Si2 0.286259 0.000000 0.740049
Si Si3 0.070381 0.808297 0.744700
Si Si4 0.133467 0.864944 0.938096
Si Si5 0.343581 0.500000 0.264101
O O1 0.501982 0.748998 0.828265
O O2 0.154360 0.824843 0.485649
O O3 0.411645 0.000000 0.736582
O O4 0.365770 0.883031 0.782698
O O5 0.292519 0.000000 0.814751
O O6 0.060927 0.000000 0.501345
O O7 0.125298 0.863549 0.860809
O O8 0.170352 0.883143 0.791643
O O9 0.155553 0.671338 0.832254
O O10 0.074084 0.000000 0.899983
#
# Coordination Sequence:
#
# PCOD9192081 Si02
#       5
#     8   4   8   8   4
#     4   9  19  35  55  80 103 135 180 226 266 305
#     4   7  16  31  57  85  96 131 184 233 267 294
#     4  10  20  33  53  77 108 140 179 218 265 308
#     4  11  22  33  50  79 114 145 171 209 267 331
#     4   9  14  33  57  79 106 129 183 234 260 300
#
# _framework density 18.090288000000001
#
# number of rings (size 3 to 8) (size 9 to 14) (size 15 to 20)
#    0.750    1.750    2.500    0.750    1.750    2.000 
#    0.000    2.500    0.000    3.000    0.000    7.000 
#    0.000    0.000    0.000    0.000    0.000    0.000 
#
# Total GULP energy -89070.933353 kJ/mol
# GULP energy per Si atom -5566.933335 kJ/mol
# Density = 1.804911 g / cm^3
# Si number density = 18.090288 Si / 1000 Ang^3
#
#
#
# Elastic Constant Matrix: (Units=GPa)
#
#
# Indices 1 2 3 4 5 6 
#
# 1 114.6575 58.2427 21.8992 0.0026 -11.8687 0.0014
# 2 58.2427 139.2827 51.2365 0.0062 8.7542 0.0062
# 3 21.8992 51.2365 73.5608 0.0081 -4.3386 0.0055
# 4 0.0026 0.0062 0.0081 26.5775 0.0040 3.2271
# 5 -11.8687 8.7542 -4.3386 0.0040 27.4868 0.0024
# 6 0.0014 0.0062 0.0055 3.2271 0.0024 15.0564
#
#
#
# Elastic Compliance Matrix: (Units=1/GPa)
#
#
# Indices 1 2 3 4 5 6 
#
# 1 0.012336 -0.005957 0.000911 -0.000001 0.007368 0.000000
# 2 -0.005957 0.013028 -0.007770 0.000001 -0.007948 -0.000001
# 3 0.000911 -0.007770 0.019082 -0.000005 0.005880 -0.000004
# 4 -0.000001 0.000001 -0.000005 0.038631 -0.000006 -0.008280
# 5 0.007368 -0.007948 0.005880 -0.000006 0.043022 -0.000005
# 6 0.000000 -0.000001 -0.000004 -0.008280 -0.000005 0.068192
#
#
# Mechanical properties :
#
#
# Convention : Reuss Voigt Hill
#
# Bulk Modulus (GPa) = 53.14941 65.58421 59.36681
# Shear Modulus (GPa) = 22.10498 26.89898 24.50198
#
# Velocity S-wave (km/s) = 3.49940 3.86026 3.68425
# Velocity P-wave (km/s) = 6.76547 7.49675 7.14048
#
# Compressibility (1/GPa) = 0.01881488
#
# Stress axis : x y z
#
# Youngs Moduli (GPa) = 81.06291 76.75633 52.40643
#
# Poissons Ratio (x) = 0.45721 -0.04774
# Poissons Ratio (y) = 0.48286 0.40719
# Poissons Ratio (z) = -0.07385 0.59639
#
# Static dielectric constant tensor:
#      x y z
#    x 1.649260 0.000000 0.039850 
#    y 0.000000 1.616840 0.000000 
#    z 0.039850 0.000000 1.688690 
# 
# From -- ./inp_files/351168.got.cif
#   From: 2010.05.17/outbox.cif.g08.bks.cpg/sg12_176_cif.got.tgz:351168.got - 2010.06.03 13:09:07.
