data_PCOD9192501
_publ_section_title
;
Structure prediction by ZEFSAII (Michael W. Deem and Ramdas Pophale) SiO2 
 PCOD9192501
Probable space group: C 2/M
;
_chemical_formula_sum "Si O2"
_cell_formula_units_Z 48
_cell_length_a 15.194118
_cell_length_b 14.575088
_cell_length_c 13.267895
_cell_angle_alpha 90.000000
_cell_angle_beta 121.411147
_cell_angle_gamma 90.000000
_cell_volume 2507.647530
_symmetry_space_group_name_H-M "C 2/M"
_symmetry_group_IT_number 12
_symmetry_cell_setting 'monoclinic'
loop_
_space_group_symop_operation_xyz
x,y,z
-x,y,-z
-x,-y,-z
x,-y,z
1/2+x,1/2+y,z
1/2-x,1/2+y,-z
1/2-x,1/2-y,-z
1/2+x,1/2-y,z
loop_
_atom_site_type_symbol
_atom_site_label
_atom_site_fract_x
_atom_site_fract_y
_atom_site_fract_z
Si Si1 0.751116 0.611102 0.257921
Si Si2 0.939300 0.243192 0.861167
Si Si3 0.923687 0.899405 0.362935
Si Si4 0.614100 0.890778 0.464199
Si Si5 0.190874 0.398900 0.290179
Si Si6 0.072519 0.712143 0.744469
O O1 0.746761 0.500000 0.244273
O O2 0.637771 0.656595 0.202768
O O3 0.816656 0.633911 0.398548
O O4 0.819247 0.658727 0.209051
O O5 0.860083 0.327993 0.815779
O O6 0.019153 0.278174 0.822155
O O7 0.000000 0.228400 0.000000
O O8 0.810578 0.903924 0.341237
O O9 0.921227 0.817158 0.284644
O O10 0.000000 0.879481 0.500000
O O11 0.951107 0.000000 0.336726
O O12 0.675572 0.872011 0.397397
O O13 0.507792 0.838368 0.379515
O O14 0.592962 0.000000 0.458752
O O15 0.143514 0.500000 0.249769
#
# Coordination Sequence:
#
# PCOD9192501 Si02
#       6
#     8   8   8   8   8   8
#     4  11  23  41  64  93 126 161 200 248 309 370
#     4  11  26  43  62  85 120 163 215 259 300 348
#     4  10  20  33  56  92 128 155 189 240 308 379
#     4   9  19  35  61  93 123 153 191 243 305 374
#     4   9  19  38  61  88 120 155 198 247 302 364
#     4  11  22  38  65  89 123 157 203 249 309 365
#
# _framework density 19.141446999999999
#
# number of rings (size 3 to 8) (size 9 to 14) (size 15 to 20)
#    0.000    1.833    1.667    2.000    2.333    5.333 
#    0.000    0.000    0.000    0.000    0.000    0.000 
#    0.000    0.000    0.000    0.000    0.000    0.000 
#
# Total GULP energy -133763.902073 kJ/mol
# GULP energy per Si atom -5573.495920 kJ/mol
# Density = 1.909788 g / cm^3
# Si number density = 19.141447 Si / 1000 Ang^3
#
#
#
# Elastic Constant Matrix: (Units=GPa)
#
#
# Indices 1 2 3 4 5 6 
#
# 1 44.6715 14.9801 37.5510 0.0000 5.4226 0.0000
# 2 14.9801 60.7536 30.6802 0.0000 0.7872 0.0000
# 3 37.5510 30.6802 74.6960 0.0000 2.3091 0.0000
# 4 0.0000 0.0000 0.0000 27.7665 0.0000 -1.3953
# 5 5.4226 0.7872 2.3091 0.0000 10.3783 0.0000
# 6 0.0000 0.0000 0.0000 -1.3953 0.0000 21.8041
#
#
#
# Elastic Compliance Matrix: (Units=1/GPa)
#
#
# Indices 1 2 3 4 5 6 
#
# 1 0.041617 0.000326 -0.020523 0.000000 -0.017203 0.000000
# 2 0.000326 0.020771 -0.008701 0.000000 0.000190 0.000000
# 3 -0.020523 -0.008701 0.027113 0.000000 0.005351 0.000000
# 4 0.000000 0.000000 0.000000 0.036131 0.000000 0.002312
# 5 -0.017203 0.000190 0.005351 0.000000 0.104138 0.000000
# 6 0.000000 0.000000 0.000000 0.002312 0.000000 0.046011
#
#
# Mechanical properties :
#
#
# Convention : Reuss Voigt Hill
#
# Bulk Modulus (GPa) = 31.54204 38.50487 35.02346
# Shear Modulus (GPa) = 14.52869 18.45044 16.48957
#
# Velocity S-wave (km/s) = 2.75802 3.10804 2.93825
# Velocity P-wave (km/s) = 5.16298 5.74800 5.46333
#
# Compressibility (1/GPa) = 0.03170372
#
# Stress axis : x y z
#
# Youngs Moduli (GPa) = 24.02884 48.14377 36.88204
#
# Poissons Ratio (x) = -0.01568 0.75694
# Poissons Ratio (y) = -0.00782 0.32091
# Poissons Ratio (z) = 0.49315 0.41890
#
# Static dielectric constant tensor:
#      x y z
#    x 1.716370 0.000000 -0.013800 
#    y 0.000000 1.716950 0.000000 
#    z -0.013800 0.000000 1.627480 
# 
# From -- ./inp_files/143873.got.cif
#   From: 2010.05.17/outbox.cif.g08.bks.cpg/sg12_72_cif.got.tgz:143873.got - 2010.06.03 13:09:07.
