data_PCOD9192895
_publ_section_title
;
Structure prediction by ZEFSAII (Michael W. Deem and Ramdas Pophale) SiO2 
 PCOD9192895
Probable space group: C 2/M
;
_chemical_formula_sum "Si O2"
_cell_formula_units_Z 58
_cell_length_a 14.821154
_cell_length_b 7.460370
_cell_length_c 23.463414
_cell_angle_alpha 90.000000
_cell_angle_beta 86.945653
_cell_angle_gamma 90.000000
_cell_volume 2590.694552
_symmetry_space_group_name_H-M "C 2/M"
_symmetry_group_IT_number 12
_symmetry_cell_setting 'monoclinic'
loop_
_space_group_symop_operation_xyz
x,y,z
-x,y,-z
-x,-y,-z
x,-y,z
1/2+x,1/2+y,z
1/2-x,1/2+y,-z
1/2-x,1/2-y,-z
1/2+x,1/2-y,z
loop_
_atom_site_type_symbol
_atom_site_label
_atom_site_fract_x
_atom_site_fract_y
_atom_site_fract_z
Si Si1 0.759925 0.716861 0.625747
Si Si2 0.981272 0.717297 0.935541
Si Si3 0.280031 0.214989 0.934235
Si Si4 0.963532 0.289100 0.639154
Si Si5 0.386826 0.789801 0.457552
Si Si6 0.608540 0.283570 0.721842
Si Si7 0.858168 0.792755 0.152787
Si Si8 0.500000 0.500000 0.500000
O O1 0.762090 0.500000 0.627051
O O2 0.861907 0.781073 0.634970
O O3 0.711268 0.766947 0.567875
O O4 0.689065 0.778006 0.676988
O O5 0.985892 0.500000 0.934384
O O6 0.881510 0.777601 0.923470
O O7 0.052162 0.787454 0.888051
O O8 0.000000 0.772816 0.000000
O O9 0.215768 0.289244 0.887243
O O10 0.279282 0.000000 0.929271
O O11 0.250000 0.250000 0.000000
O O12 0.958872 0.500000 0.627262
O O13 0.041327 0.219795 0.593612
O O14 0.011167 0.266613 0.698848
O O15 0.419662 0.658204 0.505365
O O16 0.398910 0.000000 0.470581
O O17 0.610396 0.500000 0.721763
O O18 0.625329 0.216060 0.785165
O O19 0.832079 0.000000 0.163521
#
# Coordination Sequence:
#
# PCOD9192895 Si02
#       8
#     8   8   8   8   8   8   8   2
#     4   9  17  36  62  85 114 154 195 239 295 354
#     4  10  20  34  52  74  98 134 178 221 275 337
#     4  10  20  34  52  72  99 135 179 219 274 341
#     4   9  19  35  61  88 114 149 200 240 288 350
#     4  10  21  38  61  90 123 164 208 249 289 350
#     4   9  19  34  54  81 110 145 184 232 292 345
#     4  10  21  35  51  77 109 139 181 230 279 341
#     4  12  22  40  64  86 132 170 206 244 310 328
#
# _framework density 22.387817999999999
#
# number of rings (size 3 to 8) (size 9 to 14) (size 15 to 20)
#    0.000    2.345    2.069    0.207    0.966    3.034 
#    0.000    3.448    0.000    0.000    0.000    0.000 
#    0.000    0.000    0.000    0.000    0.000    0.000 
#
# Total GULP energy -161677.442825 kJ/mol
# GULP energy per Si atom -5575.084235 kJ/mol
# Density = 2.233686 g / cm^3
# Si number density = 22.387818 Si / 1000 Ang^3
#
#
#
# Elastic Constant Matrix: (Units=GPa)
#
#
# Indices 1 2 3 4 5 6 
#
# 1 173.2579 8.1646 61.2355 0.0000 43.8707 0.0000
# 2 8.1646 90.8782 -3.4176 0.0000 6.0238 0.0000
# 3 61.2355 -3.4176 128.3425 0.0000 27.5466 0.0000
# 4 0.0000 0.0000 0.0000 58.2292 0.0000 -41.8629
# 5 43.8707 6.0238 27.5466 0.0000 34.6182 0.0000
# 6 0.0000 0.0000 0.0000 -41.8629 0.0000 69.0964
#
#
#
# Elastic Compliance Matrix: (Units=1/GPa)
#
#
# Indices 1 2 3 4 5 6 
#
# 1 0.009003 -0.000259 -0.002247 0.000000 -0.009576 0.000000
# 2 -0.000259 0.011219 0.000930 0.000000 -0.002364 0.000000
# 3 -0.002247 0.000930 0.010024 0.000000 -0.005291 0.000000
# 4 0.000000 0.000000 0.000000 0.030427 0.000000 0.018434
# 5 -0.009576 -0.002364 -0.005291 0.000000 0.045643 0.000000
# 6 0.000000 0.000000 0.000000 0.018434 0.000000 0.025641
#
#
# Mechanical properties :
#
#
# Convention : Reuss Voigt Hill
#
# Bulk Modulus (GPa) = 36.90945 58.27151 47.59048
# Shear Modulus (GPa) = 34.68856 54.15517 44.42187
#
# Velocity S-wave (km/s) = 3.94056 4.92363 4.45927
# Velocity P-wave (km/s) = 6.10133 7.64248 6.91497
#
# Compressibility (1/GPa) = 0.02709333
#
# Stress axis : x y z
#
# Youngs Moduli (GPa) = 111.07558 89.13749 99.76010
#
# Poissons Ratio (x) = 0.02305 0.22417
# Poissons Ratio (y) = 0.02872 -0.09273
# Poissons Ratio (z) = 0.24959 -0.08286
#
# Static dielectric constant tensor:
#      x y z
#    x 1.827290 0.000000 0.025380 
#    y 0.000000 2.047990 0.000000 
#    z 0.025380 0.000000 1.882450 
# 
# From -- ./inp_files/338020.got.cif
#   From: 2010.05.17/outbox.cif.g08.bks.cpg/sg12_170_cif.got.tgz:338020.got - 2010.06.03 13:09:07.
