data_PCOD9192706
_publ_section_title
;
Structure prediction by ZEFSAII (Michael W. Deem and Ramdas Pophale) SiO2 
 PCOD9192706
Probable space group: C 2/M
;
_chemical_formula_sum "Si O2"
_cell_formula_units_Z 56
_cell_length_a 31.042692
_cell_length_b 8.995172
_cell_length_c 12.242329
_cell_angle_alpha 90.000000
_cell_angle_beta 117.196027
_cell_angle_gamma 90.000000
_cell_volume 3040.559387
_symmetry_space_group_name_H-M "C 2/M"
_symmetry_group_IT_number 12
_symmetry_cell_setting 'monoclinic'
loop_
_space_group_symop_operation_xyz
x,y,z
-x,y,-z
-x,-y,-z
x,-y,z
1/2+x,1/2+y,z
1/2-x,1/2+y,-z
1/2-x,1/2-y,-z
1/2+x,1/2-y,z
loop_
_atom_site_type_symbol
_atom_site_label
_atom_site_fract_x
_atom_site_fract_y
_atom_site_fract_z
Si Si1 0.950300 0.678087 0.380501
Si Si2 0.091075 0.820215 0.301633
Si Si3 0.020669 0.178226 0.806647
Si Si4 0.897567 0.178674 0.935925
Si Si5 0.318373 0.175383 0.999657
Si Si6 0.138570 0.321962 0.563516
Si Si7 0.293100 0.675287 0.195214
O O1 0.949667 0.500000 0.365918
O O2 0.951643 0.753142 0.264283
O O3 0.905244 0.719466 0.404352
O O4 0.000000 0.719053 0.500000
O O5 0.104662 0.779684 0.193501
O O6 0.124978 0.746575 0.431296
O O7 0.035199 0.772739 0.256579
O O8 0.093083 0.000000 0.313449
O O9 0.020522 0.000000 0.795765
O O10 0.050184 0.214535 0.950529
O O11 0.857291 0.256336 0.963013
O O12 0.891567 0.000000 0.936139
O O13 0.264368 0.195885 0.888251
O O14 0.326856 0.000000 0.025305
O O15 0.318186 0.254863 0.116974
O O16 0.140984 0.500000 0.559779
O O17 0.186363 0.255789 0.674377
O O18 0.303235 0.500000 0.212070
#
# Coordination Sequence:
#
# PCOD9192706 Si02
#       7
#     8   8   8   8   8   8   8
#     4  10  20  34  50  74 111 145 175 219 273 325
#     4  10  21  37  55  77 111 151 190 229 271 323
#     4  10  20  34  55  81 108 144 189 230 270 321
#     4  10  21  37  57  81 110 147 188 231 275 323
#     4  10  21  38  60  87 114 141 178 226 277 329
#     4  11  22  36  56  82 113 148 186 227 276 328
#     4  10  21  38  61  86 113 143 178 223 277 333
#
# _framework density 18.417662
#
# number of rings (size 3 to 8) (size 9 to 14) (size 15 to 20)
#    0.000    1.857    1.429    2.571    0.000    8.286 
#    0.000    0.714    0.000    2.571    0.000    0.000 
#    0.000    0.000    0.000    0.000    0.000    0.000 
#
# Total GULP energy -156431.859049 kJ/mol
# GULP energy per Si atom -5586.852109 kJ/mol
# Density = 1.837574 g / cm^3
# Si number density = 18.417662 Si / 1000 Ang^3
#
#
#
# Elastic Constant Matrix: (Units=GPa)
#
#
# Indices 1 2 3 4 5 6 
#
# 1 37.5324 20.5868 29.1436 0.0000 -8.4227 0.0000
# 2 20.5868 35.2238 53.0194 0.0000 0.9114 0.0000
# 3 29.1436 53.0194 151.5138 0.0000 -10.8796 0.0000
# 4 0.0000 0.0000 0.0000 5.6491 0.0000 -2.1873
# 5 -8.4227 0.9114 -10.8796 0.0000 21.2167 0.0000
# 6 0.0000 0.0000 0.0000 -2.1873 0.0000 25.7672
#
#
#
# Elastic Compliance Matrix: (Units=1/GPa)
#
#
# Indices 1 2 3 4 5 6 
#
# 1 0.047725 -0.036297 0.005185 0.000000 0.023164 0.000000
# 2 -0.036297 0.091785 -0.027466 0.000000 -0.032436 0.000000
# 3 0.005185 -0.027466 0.016037 0.000000 0.011462 0.000000
# 4 0.000000 0.000000 0.000000 0.183035 0.000000 0.015537
# 5 0.023164 -0.032436 0.011462 0.000000 0.063599 0.000000
# 6 0.000000 0.000000 0.000000 0.015537 0.000000 0.040128
#
#
# Mechanical properties :
#
#
# Convention : Reuss Voigt Hill
#
# Bulk Modulus (GPa) = 26.04761 47.75219 36.89990
# Shear Modulus (GPa) = 8.73726 18.62795 13.68261
#
# Velocity S-wave (km/s) = 2.18043 3.18373 2.72859
# Velocity P-wave (km/s) = 4.52907 6.28479 5.47773
#
# Compressibility (1/GPa) = 0.03839124
#
# Stress axis : x y z
#
# Youngs Moduli (GPa) = 20.95339 10.89501 62.35598
#
# Poissons Ratio (x) = 0.39545 -0.32330
# Poissons Ratio (y) = 0.76054 1.71266
# Poissons Ratio (z) = -0.10864 0.29924
#
# Static dielectric constant tensor:
#      x y z
#    x 1.616400 0.000000 0.022840 
#    y 0.000000 1.610530 0.000000 
#    z 0.022840 0.000000 1.632250 
# 
# From -- ./inp_files/180683.got.cif
#   From: 2010.05.17/outbox.cif.g08.bks.cpg/sg12_91_cif.got.tgz:180683.got - 2010.06.03 13:09:07.
