data_PCOD9192917
_publ_section_title
;
Structure prediction by ZEFSAII (Michael W. Deem and Ramdas Pophale) SiO2 
 PCOD9192917
Probable space group: C 2/M
;
_chemical_formula_sum "Si O2"
_cell_formula_units_Z 64
_cell_length_a 20.721075
_cell_length_b 8.276725
_cell_length_c 23.115471
_cell_angle_alpha 90.000000
_cell_angle_beta 116.636143
_cell_angle_gamma 90.000000
_cell_volume 3543.632674
_symmetry_space_group_name_H-M "C 2/M"
_symmetry_group_IT_number 12
_symmetry_cell_setting 'monoclinic'
loop_
_space_group_symop_operation_xyz
x,y,z
-x,y,-z
-x,-y,-z
x,-y,z
1/2+x,1/2+y,z
1/2-x,1/2+y,-z
1/2-x,1/2-y,-z
1/2+x,1/2-y,z
loop_
_atom_site_type_symbol
_atom_site_label
_atom_site_fract_x
_atom_site_fract_y
_atom_site_fract_z
Si Si1 0.078065 0.195244 0.552761
Si Si2 0.774370 0.193189 0.446965
Si Si3 0.954657 0.804602 0.801421
Si Si4 0.328532 0.193178 0.050316
Si Si5 0.598946 0.804768 0.801925
Si Si6 0.849051 0.304626 0.302447
Si Si7 0.972401 0.805000 0.050853
Si Si8 0.201834 0.804936 0.302432
O O1 0.145162 0.250152 0.539487
O O2 0.097281 0.249366 0.625304
O O3 0.000000 0.253094 0.500000
O O4 0.077351 0.000000 0.551320
O O5 0.750000 0.250000 0.500000
O O6 0.720900 0.252871 0.375094
O O7 0.775094 0.000000 0.446536
O O8 0.875788 0.746717 0.750703
O O9 0.017873 0.750040 0.783696
O O10 0.978726 0.749449 0.875251
O O11 0.953572 0.000000 0.801554
O O12 0.351855 0.250012 0.124092
O O13 0.390948 0.254430 0.032558
O O14 0.329885 0.000000 0.051180
O O15 0.250000 0.250000 0.000000
O O16 0.627324 0.747124 0.751336
O O17 0.600184 0.000000 0.801887
O O18 0.848559 0.500000 0.301482
O O19 0.768936 0.249967 0.289505
O O20 0.975187 0.000000 0.051251
O O21 0.000000 0.745495 0.000000
O O22 0.200944 0.000000 0.300450
#
# Coordination Sequence:
#
# PCOD9192917 Si02
#       8
#     8   8   8   8   8   8   8   8
#     4   9  19  35  52  71  97 128 161 198 240 285
#     4  10  20  34  52  73  98 127 160 199 243 290
#     4   9  18  32  51  74  99 130 166 203 243 291
#     4  10  20  34  52  74 103 136 170 210 254 301
#     4   9  19  34  51  73 101 131 162 203 251 293
#     4   9  18  33  52  73  97 126 162 201 241 287
#     4   9  18  33  53  76 102 133 170 211 254 301
#     4   9  18  33  51  71  97 128 163 201 240 286
#
# _framework density 18.060562999999998
#
# number of rings (size 3 to 8) (size 9 to 14) (size 15 to 20)
#    0.000    2.750    0.000    0.750    0.000    4.500 
#    0.000    7.500    0.000    3.000    0.000    0.000 
#    0.000    0.000    0.000    0.000    0.000    0.000 
#
# Total GULP energy -178453.204733 kJ/mol
# GULP energy per Si atom -5576.662648 kJ/mol
# Density = 1.801946 g / cm^3
# Si number density = 18.060563 Si / 1000 Ang^3
#
#
#
# Elastic Constant Matrix: (Units=GPa)
#
#
# Indices 1 2 3 4 5 6 
#
# 1 159.6641 13.6763 142.5174 0.0000 -0.4897 0.0000
# 2 13.6763 4.0236 13.4776 0.0000 -0.3534 0.0000
# 3 142.5174 13.4776 149.8480 0.0000 -0.3323 0.0000
# 4 0.0000 0.0000 0.0000 21.9699 0.0000 1.5325
# 5 -0.4897 -0.3534 -0.3323 0.0000 45.2324 0.0000
# 6 0.0000 0.0000 0.0000 1.5325 0.0000 25.9248
#
#
#
# Elastic Compliance Matrix: (Units=1/GPa)
#
#
# Indices 1 2 3 4 5 6 
#
# 1 0.041917 -0.012785 -0.038716 0.000000 0.000069 0.000000
# 2 -0.012785 0.359883 -0.020204 0.000000 0.002525 0.000000
# 3 -0.038716 -0.020204 0.045312 0.000000 -0.000244 0.000000
# 4 0.000000 0.000000 0.000000 0.045705 0.000000 -0.002702
# 5 0.000069 0.002525 -0.000244 0.000000 0.022127 0.000000
# 6 0.000000 0.000000 0.000000 -0.002702 0.000000 0.038733
#
#
# Mechanical properties :
#
#
# Convention : Reuss Voigt Hill
#
# Bulk Modulus (GPa) = 3.29270 72.54205 37.91737
# Shear Modulus (GPa) = 6.26315 28.21638 17.23976
#
# Velocity S-wave (km/s) = 1.86424 3.95691 3.09294
# Velocity P-wave (km/s) = 2.54184 7.81853 5.81336
#
# Compressibility (1/GPa) = 0.30370255
#
# Stress axis : x y z
#
# Youngs Moduli (GPa) = 23.85679 2.77868 22.06911
#
# Poissons Ratio (x) = 0.03552 0.85443
# Poissons Ratio (y) = 0.30500 0.44588
# Poissons Ratio (z) = 0.92364 0.05614
#
# Static dielectric constant tensor:
#      x y z
#    x 1.606180 0.000000 -0.000270 
#    y 0.000000 1.632780 0.000000 
#    z -0.000270 0.000000 1.604360 
# 
# From -- ./inp_files/320088.got.cif
#   From: 2010.05.17/outbox.cif.g08.bks.cpg/sg12_161_cif.got.tgz:320088.got - 2010.06.03 13:09:07.
