data_PCOD9192330
_publ_section_title
;
Structure prediction by ZEFSAII (Michael W. Deem and Ramdas Pophale) SiO2 
 PCOD9192330
Probable space group: C 2/M
;
_chemical_formula_sum "Si O2"
_cell_formula_units_Z 56
_cell_length_a 9.276512
_cell_length_b 27.047427
_cell_length_c 13.544306
_cell_angle_alpha 90.000000
_cell_angle_beta 116.188021
_cell_angle_gamma 90.000000
_cell_volume 3049.506829
_symmetry_space_group_name_H-M "C 2/M"
_symmetry_group_IT_number 12
_symmetry_cell_setting 'monoclinic'
loop_
_space_group_symop_operation_xyz
x,y,z
-x,y,-z
-x,-y,-z
x,-y,z
1/2+x,1/2+y,z
1/2-x,1/2+y,-z
1/2-x,1/2-y,-z
1/2+x,1/2-y,z
loop_
_atom_site_type_symbol
_atom_site_label
_atom_site_fract_x
_atom_site_fract_y
_atom_site_fract_z
Si Si1 0.381733 0.219640 0.191500
Si Si2 0.825619 0.585778 0.970122
Si Si3 0.961253 0.865932 0.373407
Si Si4 0.579467 0.268107 0.418511
Si Si5 0.495874 0.443786 0.778511
Si Si6 0.687557 0.183436 0.166604
Si Si7 0.666141 0.624878 0.109951
O O1 0.482162 0.230649 0.321272
O O2 0.516855 0.204261 0.152463
O O3 0.287403 0.271373 0.148597
O O4 0.253718 0.175779 0.163836
O O5 0.673280 0.557007 0.881054
O O6 0.825174 0.638897 0.914190
O O7 0.786464 0.596159 0.072340
O O8 0.000000 0.563667 0.000000
O O9 0.984966 0.915337 0.318732
O O10 0.790133 0.840342 0.289861
O O11 0.000000 0.875081 0.500000
O O12 0.080498 0.822520 0.371015
O O13 0.500000 0.275290 0.500000
O O14 0.750000 0.250000 0.500000
O O15 0.439341 0.500000 0.753334
O O16 0.384511 0.410020 0.815005
O O17 0.500000 0.635008 0.000000
#
# Coordination Sequence:
#
# PCOD9192330 Si02
#       7
#     8   8   8   8   8   8   8
#     4  11  21  34  55  83 121 162 194 238 284 349
#     4  10  20  40  56  81 117 148 194 247 295 348
#     4   9  19  37  60  85 121 147 188 241 289 352
#     4  10  20  33  54  86 115 153 193 227 278 345
#     4  10  23  40  62  87 110 146 201 253 302 353
#     4  10  22  33  55  84 121 155 198 230 282 353
#     4  10  23  37  57  81 116 157 199 242 294 343
#
# _framework density 18.363624999999999
#
# number of rings (size 3 to 8) (size 9 to 14) (size 15 to 20)
#    0.000    2.000    1.429    2.571   10.000    4.286 
#    0.000    0.000    0.000    0.000    0.000    4.000 
#    0.000    0.000    0.000    0.000    0.000    0.000 
#
# Total GULP energy -156133.863341 kJ/mol
# GULP energy per Si atom -5576.209405 kJ/mol
# Density = 1.832183 g / cm^3
# Si number density = 18.363625 Si / 1000 Ang^3
#
#
#
# Elastic Constant Matrix: (Units=GPa)
#
#
# Indices 1 2 3 4 5 6 
#
# 1 78.8361 33.3358 18.4263 0.0000 -6.2542 0.0000
# 2 33.3358 116.0907 35.2920 0.0000 -3.6235 0.0000
# 3 18.4263 35.2920 60.7328 0.0000 -6.8631 0.0000
# 4 0.0000 0.0000 0.0000 9.6701 0.0000 1.7784
# 5 -6.2542 -3.6235 -6.8631 0.0000 27.1693 0.0000
# 6 0.0000 0.0000 0.0000 1.7784 0.0000 11.6393
#
#
#
# Elastic Compliance Matrix: (Units=1/GPa)
#
#
# Indices 1 2 3 4 5 6 
#
# 1 0.014881 -0.003532 -0.002191 0.000000 0.002401 0.000000
# 2 -0.003532 0.011301 -0.005576 0.000000 -0.000714 0.000000
# 3 -0.002191 -0.005576 0.020824 0.000000 0.004012 0.000000
# 4 0.000000 0.000000 0.000000 0.106401 0.000000 -0.016257
# 5 0.002401 -0.000714 0.004012 0.000000 0.038277 0.000000
# 6 0.000000 0.000000 0.000000 -0.016257 0.000000 0.088400
#
#
# Mechanical properties :
#
#
# Convention : Reuss Voigt Hill
#
# Bulk Modulus (GPa) = 40.97133 47.75202 44.36167
# Shear Modulus (GPa) = 16.08660 20.93611 18.51135
#
# Velocity S-wave (km/s) = 2.96295 3.38018 3.17842
# Velocity P-wave (km/s) = 5.83652 6.42606 6.13837
#
# Compressibility (1/GPa) = 0.02440731
#
# Stress axis : x y z
#
# Youngs Moduli (GPa) = 67.20152 88.48721 48.02139
#
# Poissons Ratio (x) = 0.31254 0.10521
# Poissons Ratio (y) = 0.23736 0.26778
# Poissons Ratio (z) = 0.14724 0.49342
#
# Static dielectric constant tensor:
#      x y z
#    x 1.654460 0.000000 -0.014070 
#    y 0.000000 1.679000 0.000000 
#    z -0.014070 0.000000 1.721530 
# 
# From -- ./inp_files/198529.got.cif
#   From: 2010.05.17/outbox.cif.g08.bks.cpg/sg12_100_cif.got.tgz:198529.got - 2010.06.03 13:09:07.
