data_PCOD9192025
_publ_section_title
;
Structure prediction by ZEFSAII (Michael W. Deem and Ramdas Pophale) SiO2 
 PCOD9192025
Probable space group: C 2/M
;
_chemical_formula_sum "Si O2"
_cell_formula_units_Z 40
_cell_length_a 14.725964
_cell_length_b 9.495319
_cell_length_c 30.118705
_cell_angle_alpha 90.000000
_cell_angle_beta 149.960002
_cell_angle_gamma 90.000000
_cell_volume 2108.260601
_symmetry_space_group_name_H-M "C 2/M"
_symmetry_group_IT_number 12
_symmetry_cell_setting 'monoclinic'
loop_
_space_group_symop_operation_xyz
x,y,z
-x,y,-z
-x,-y,-z
x,-y,z
1/2+x,1/2+y,z
1/2-x,1/2+y,-z
1/2-x,1/2-y,-z
1/2+x,1/2-y,z
loop_
_atom_site_type_symbol
_atom_site_label
_atom_site_fract_x
_atom_site_fract_y
_atom_site_fract_z
Si Si1 0.653129 0.159390 0.598999
Si Si2 0.802132 0.666814 0.897532
Si Si3 0.206387 0.163855 0.755835
Si Si4 0.449320 0.166422 0.771083
Si Si5 0.916472 0.657982 0.587699
O O1 0.500000 0.211548 0.500000
O O2 0.821955 0.259434 0.680189
O O3 0.550378 0.147938 0.602318
O O4 0.708573 0.000000 0.608508
O O5 0.769625 0.500000 0.891983
O O6 0.791523 0.689025 0.840005
O O7 0.642698 0.757777 0.851683
O O8 0.000000 0.702196 0.000000
O O9 0.349905 0.186181 0.776648
O O10 0.032995 0.261812 0.673966
O O11 0.149365 0.000000 0.729120
O O12 0.464425 0.000000 0.769357
O O13 0.861339 0.500000 0.577482
O O14 0.750000 0.750000 0.500000
#
# Coordination Sequence:
#
# PCOD9192025 Si02
#       5
#     8   8   8   8   8
#     4   9  19  35  54  77 107 148 189 223 270 334
#     4  10  22  40  62  85 110 149 196 235 282 345
#     4   9  20  39  58  79 114 152 186 230 285 340
#     4  10  21  37  57  84 116 147 183 236 290 334
#     4  10  20  33  52  80 112 147 186 227 276 332
#
# _framework density 18.972987
#
# number of rings (size 3 to 8) (size 9 to 14) (size 15 to 20)
#    0.000    2.400    0.000    1.200    2.800    4.000 
#    0.000    0.000    0.000    0.000    0.000    0.000 
#    0.000    0.000    0.000    0.000    0.000    0.000 
#
# Total GULP energy -111644.964144 kJ/mol
# GULP energy per Si atom -5582.248207 kJ/mol
# Density = 1.892980 g / cm^3
# Si number density = 18.972987 Si / 1000 Ang^3
#
#
#
# Elastic Constant Matrix: (Units=GPa)
#
#
# Indices 1 2 3 4 5 6 
#
# 1 55.3465 50.8312 40.7000 0.0000 2.7059 0.0000
# 2 50.8312 128.1947 112.6460 0.0000 15.4782 0.0000
# 3 40.7000 112.6460 177.5928 -0.0001 8.8726 0.0000
# 4 0.0000 0.0000 -0.0001 21.5605 0.0000 9.1179
# 5 2.7059 15.4782 8.8726 0.0000 30.5854 0.0000
# 6 0.0000 0.0000 0.0000 9.1179 0.0000 21.9867
#
#
#
# Elastic Compliance Matrix: (Units=1/GPa)
#
#
# Indices 1 2 3 4 5 6 
#
# 1 0.028971 -0.013421 0.001687 0.000000 0.003740 0.000000
# 2 -0.013421 0.024900 -0.012327 0.000000 -0.007838 0.000000
# 3 0.001687 -0.012327 0.012947 0.000000 0.002333 0.000000
# 4 0.000000 0.000000 0.000000 0.056245 0.000000 -0.023325
# 5 0.003740 -0.007838 0.002333 0.000000 0.035654 0.000000
# 6 0.000000 0.000000 0.000000 -0.023325 0.000000 0.055155
#
#
# Mechanical properties :
#
#
# Convention : Reuss Voigt Hill
#
# Bulk Modulus (GPa) = 53.48882 85.49871 69.49377
# Shear Modulus (GPa) = 18.64101 25.29030 21.96566
#
# Velocity S-wave (km/s) = 3.13789 3.65494 3.40624
# Velocity P-wave (km/s) = 6.43287 7.93553 7.22338
#
# Compressibility (1/GPa) = 0.01869549
#
# Stress axis : x y z
#
# Youngs Moduli (GPa) = 34.51730 40.16033 77.24078
#
# Poissons Ratio (x) = 0.53899 -0.13027
# Poissons Ratio (y) = 0.46325 0.95212
# Poissons Ratio (z) = -0.05821 0.49504
#
# Static dielectric constant tensor:
#      x y z
#    x 1.671770 0.000000 -0.009420 
#    y 0.000000 1.671090 0.000000 
#    z -0.009420 0.000000 1.622350 
# 
# From -- ./inp_files/151708.got.cif
#   From: 2010.05.17/outbox.cif.g08.bks.cpg/sg12_76_cif.got.tgz:151708.got - 2010.06.03 13:09:07.
