data_PCOD9192527
_publ_section_title
;
Structure prediction by ZEFSAII (Michael W. Deem and Ramdas Pophale) SiO2 
 PCOD9192527
Probable space group: C 2/M
;
_chemical_formula_sum "Si O2"
_cell_formula_units_Z 56
_cell_length_a 9.077901
_cell_length_b 16.463815
_cell_length_c 19.221407
_cell_angle_alpha 90.000000
_cell_angle_beta 118.418504
_cell_angle_gamma 90.000000
_cell_volume 2526.588007
_symmetry_space_group_name_H-M "C 2/M"
_symmetry_group_IT_number 12
_symmetry_cell_setting 'monoclinic'
loop_
_space_group_symop_operation_xyz
x,y,z
-x,y,-z
-x,-y,-z
x,-y,z
1/2+x,1/2+y,z
1/2-x,1/2+y,-z
1/2-x,1/2-y,-z
1/2+x,1/2-y,z
loop_
_atom_site_type_symbol
_atom_site_label
_atom_site_fract_x
_atom_site_fract_y
_atom_site_fract_z
Si Si1 0.787736 0.407304 0.144229
Si Si2 0.896063 0.091308 0.180032
Si Si3 0.699028 0.313803 0.258106
Si Si4 0.176360 0.400787 0.006253
Si Si5 0.011895 0.313365 0.422958
Si Si6 0.832879 0.380516 0.749261
Si Si7 0.358807 0.639469 0.423660
O O1 0.721830 0.500000 0.128787
O O2 0.701876 0.349183 0.180726
O O3 0.978335 0.408498 0.213618
O O4 0.793162 0.375732 0.066322
O O5 0.827493 0.122914 0.091145
O O6 0.735550 0.089116 0.193234
O O7 0.029529 0.147134 0.249057
O O8 0.962628 0.000000 0.187716
O O9 0.861995 0.341616 0.338123
O O10 0.677504 0.217546 0.253956
O O11 0.172141 0.500000 0.005196
O O12 0.000000 0.373343 0.000000
O O13 0.964585 0.217937 0.419960
O O14 0.000000 0.345502 0.500000
O O15 0.194169 0.330348 0.430411
O O16 0.717944 0.406185 0.659209
O O17 0.500000 0.594709 0.500000
#
# Coordination Sequence:
#
# PCOD9192527 Si02
#       7
#     8   8   8   8   8   8   8
#     4  11  21  40  64  85 116 160 202 242 292 357
#     4  11  23  40  63  88 117 159 204 244 293 358
#     4  11  24  38  58  93 126 150 192 252 306 346
#     4   9  18  36  61  86 112 154 208 245 279 351
#     4  10  20  34  57  86 120 159 198 243 291 351
#     4  11  22  38  62  90 120 156 198 246 296 351
#     4  10  20  33  57  88 119 156 202 243 289 350
#
# _framework density 22.164276999999998
#
# number of rings (size 3 to 8) (size 9 to 14) (size 15 to 20)
#    0.000    1.571    2.857    3.429    8.000    0.571 
#    0.000    6.429    0.000    5.143    0.000    0.000 
#    0.000    0.000    0.000    0.000    0.000    0.000 
#
# Total GULP energy -156342.759514 kJ/mol
# GULP energy per Si atom -5583.669983 kJ/mol
# Density = 2.211383 g / cm^3
# Si number density = 22.164277 Si / 1000 Ang^3
#
#
#
# Elastic Constant Matrix: (Units=GPa)
#
#
# Indices 1 2 3 4 5 6 
#
# 1 63.5374 15.9041 9.1739 0.0000 6.9514 0.0000
# 2 15.9041 66.0622 19.7141 0.0000 2.6070 0.0000
# 3 9.1739 19.7141 133.8717 0.0000 1.6115 0.0000
# 4 0.0000 0.0000 0.0000 9.5698 0.0000 -1.0551
# 5 6.9514 2.6070 1.6115 0.0000 43.9709 0.0000
# 6 0.0000 0.0000 0.0000 -1.0551 0.0000 33.5516
#
#
#
# Elastic Compliance Matrix: (Units=1/GPa)
#
#
# Indices 1 2 3 4 5 6 
#
# 1 0.017050 -0.003837 -0.000574 0.000000 -0.002447 0.000000
# 2 -0.003837 0.016729 -0.002197 0.000000 -0.000305 0.000000
# 3 -0.000574 -0.002197 0.007833 0.000000 -0.000066 0.000000
# 4 0.000000 0.000000 0.000000 0.104859 0.000000 0.003297
# 5 -0.002447 -0.000305 -0.000066 0.000000 0.023150 0.000000
# 6 0.000000 0.000000 0.000000 0.003297 0.000000 0.029908
#
#
# Mechanical properties :
#
#
# Convention : Reuss Voigt Hill
#
# Bulk Modulus (GPa) = 35.21548 39.22839 37.22193
# Shear Modulus (GPa) = 22.50131 31.99708 27.24920
#
# Velocity S-wave (km/s) = 3.18969 3.80364 3.51011
# Velocity P-wave (km/s) = 5.43032 6.08503 5.76697
#
# Compressibility (1/GPa) = 0.02839660
#
# Stress axis : x y z
#
# Youngs Moduli (GPa) = 58.65196 59.77802 127.65723
#
# Poissons Ratio (x) = 0.22936 0.07326
# Poissons Ratio (y) = 0.22504 0.28045
# Poissons Ratio (z) = 0.03366 0.13132
#
# Static dielectric constant tensor:
#      x y z
#    x 1.842260 0.000000 0.007930 
#    y 0.000000 1.816510 0.000000 
#    z 0.007930 0.000000 1.857730 
# 
# From -- ./inp_files/258256.got.cif
#   From: 2010.05.17/outbox.cif.g08.bks.cpg/sg12_130_cif.got.tgz:258256.got - 2010.06.03 13:09:07.
