data_PCOD9192710
_publ_section_title
;
Structure prediction by ZEFSAII (Michael W. Deem and Ramdas Pophale) SiO2 
 PCOD9192710
Probable space group: C 2/M
;
_chemical_formula_sum "Si O2"
_cell_formula_units_Z 64
_cell_length_a 29.384953
_cell_length_b 7.471425
_cell_length_c 23.942558
_cell_angle_alpha 90.000000
_cell_angle_beta 148.467135
_cell_angle_gamma 90.000000
_cell_volume 2749.098777
_symmetry_space_group_name_H-M "C 2/M"
_symmetry_group_IT_number 12
_symmetry_cell_setting 'monoclinic'
loop_
_space_group_symop_operation_xyz
x,y,z
-x,y,-z
-x,-y,-z
x,-y,z
1/2+x,1/2+y,z
1/2-x,1/2+y,-z
1/2-x,1/2-y,-z
1/2+x,1/2-y,z
loop_
_atom_site_type_symbol
_atom_site_label
_atom_site_fract_x
_atom_site_fract_y
_atom_site_fract_z
Si Si1 0.134777 0.781692 0.539711
Si Si2 0.647422 0.714106 0.889426
Si Si3 0.692835 0.719285 0.722117
Si Si4 0.065256 0.781532 0.686853
Si Si5 0.517330 0.719381 0.219410
Si Si6 0.066659 0.200844 0.150969
Si Si7 0.617420 0.795101 0.085100
Si Si8 0.828682 0.213343 0.540940
O O1 0.168675 0.719468 0.634788
O O2 0.184548 0.720858 0.535996
O O3 0.034487 0.729343 0.425543
O O4 0.137997 0.000000 0.545400
O O5 0.638996 0.500000 0.880430
O O6 0.607947 0.779437 0.789364
O O7 0.581254 0.776622 0.869115
O O8 0.750000 0.750000 0.000000
O O9 0.694195 0.500000 0.723089
O O10 0.623303 0.775193 0.695189
O O11 0.790530 0.776261 0.838729
O O12 0.065655 0.000000 0.688249
O O13 0.517518 0.500000 0.216181
O O14 0.558936 0.781886 0.204519
O O15 0.581551 0.775044 0.336569
O O16 0.116102 0.293286 0.151519
O O17 0.101687 0.000000 0.191609
O O18 0.966470 0.195083 0.025199
O O19 0.606520 0.000000 0.055667
O O20 0.750000 0.250000 0.500000
O O21 0.837785 0.000000 0.546209
#
# Coordination Sequence:
#
# PCOD9192710 Si02
#       8
#     8   8   8   8   8   8   8   8
#     4   9  16  30  51  73 101 135 169 205 250 307
#     4  10  20  35  55  79 106 138 174 215 260 307
#     4   9  18  28  46  77 105 128 162 209 259 305
#     4   9  16  30  51  73 101 135 169 205 250 307
#     4   9  19  36  55  77 106 141 178 215 256 310
#     4  10  20  35  54  70  97 140 182 207 240 307
#     4  10  20  34  50  76 109 130 159 218 270 300
#     4  10  20  35  55  79 106 138 174 215 260 307
#
# _framework density 23.280355
#
# number of rings (size 3 to 8) (size 9 to 14) (size 15 to 20)
#    0.000    2.500    1.250    1.875    3.500    1.500 
#    0.000    1.875    0.000    0.000    0.000    0.000 
#    0.000    6.000    0.000    0.000    0.000    0.000 
#
# Total GULP energy -178777.601140 kJ/mol
# GULP energy per Si atom -5586.800036 kJ/mol
# Density = 2.322737 g / cm^3
# Si number density = 23.280355 Si / 1000 Ang^3
#
#
#
# Elastic Constant Matrix: (Units=GPa)
#
#
# Indices 1 2 3 4 5 6 
#
# 1 95.8574 -5.7208 -7.5829 0.0000 5.9166 0.0000
# 2 -5.7208 66.8534 -4.3978 0.0000 -2.4140 0.0000
# 3 -7.5829 -4.3978 34.3162 0.0000 9.7616 0.0000
# 4 0.0000 0.0000 0.0000 -8.7340 0.0000 8.2454
# 5 5.9166 -2.4140 9.7616 0.0000 41.4856 0.0000
# 6 0.0000 0.0000 0.0000 8.2454 0.0000 8.4542
#
#
#
# Elastic Compliance Matrix: (Units=1/GPa)
#
#
# Indices 1 2 3 4 5 6 
#
# 1 0.010885 0.001060 0.003178 0.000000 -0.002238 0.000000
# 2 0.001060 0.015196 0.002115 0.000000 0.000236 0.000000
# 3 0.003178 0.002115 0.032375 0.000000 -0.007948 0.000000
# 4 0.000000 0.000000 0.000000 -0.059610 0.000000 0.058138
# 5 -0.002238 0.000236 -0.007948 0.000000 0.026308 0.000000
# 6 0.000000 0.000000 0.000000 0.058138 0.000000 0.061582
#
#
# Mechanical properties :
#
#
# Convention : Reuss Voigt Hill
#
# Bulk Modulus (GPa) = 14.05274 17.95822 16.00548
# Shear Modulus (GPa) = 51.14941 22.55639 36.85290
#
# Velocity S-wave (km/s) = 4.69242 3.11610 3.98302
# Velocity P-wave (km/s) = 5.95044 4.54724 5.29552
#
# Compressibility (1/GPa) = 0.07116049
#
# Stress axis : x y z
#
# Youngs Moduli (GPa) = 91.86986 65.80509 30.88815
#
# Poissons Ratio (x) = -0.06973 -0.09816
# Poissons Ratio (y) = -0.09735 -0.06532
# Poissons Ratio (z) = -0.29195 -0.13915
#
# Static dielectric constant tensor:
#      x y z
#    x 1.899590 0.000000 -0.015710 
#    y 0.000000 1.868690 0.000000 
#    z -0.015710 0.000000 1.836230 
# 
# From -- ./inp_files/353426.got.cif
#   From: 2010.05.17/outbox.cif.g08.bks.cpg/sg12_177_cif.got.tgz:353426.got - 2010.06.03 13:09:07.
