data_PCOD9192361
_publ_section_title
;
Structure prediction by ZEFSAII (Michael W. Deem and Ramdas Pophale) SiO2 
 PCOD9192361
Probable space group: C 2/M
;
_chemical_formula_sum "Si O2"
_cell_formula_units_Z 64
_cell_length_a 24.175570
_cell_length_b 14.386050
_cell_length_c 10.242553
_cell_angle_alpha 90.000000
_cell_angle_beta 95.322154
_cell_angle_gamma 90.000000
_cell_volume 3546.910065
_symmetry_space_group_name_H-M "C 2/M"
_symmetry_group_IT_number 12
_symmetry_cell_setting 'monoclinic'
loop_
_space_group_symop_operation_xyz
x,y,z
-x,y,-z
-x,-y,-z
x,-y,z
1/2+x,1/2+y,z
1/2-x,1/2+y,-z
1/2-x,1/2-y,-z
1/2+x,1/2-y,z
loop_
_atom_site_type_symbol
_atom_site_label
_atom_site_fract_x
_atom_site_fract_y
_atom_site_fract_z
Si Si1 0.856098 0.399420 0.747680
Si Si2 0.514799 0.108029 0.154457
Si Si3 0.885220 0.893426 0.622384
Si Si4 0.285458 0.104912 0.997373
Si Si5 0.603354 0.393741 0.687922
Si Si6 0.698227 0.274423 0.842697
Si Si7 0.004669 0.775213 0.345116
Si Si8 0.212839 0.762967 0.363945
O O1 0.851200 0.500000 0.680806
O O2 0.918796 0.388135 0.809414
O O3 0.832559 0.319343 0.651829
O O4 0.817840 0.400163 0.867748
O O5 0.493821 0.184973 0.252854
O O6 0.502737 0.000000 0.824659
O O7 0.500000 0.129068 0.000000
O O8 0.885123 0.893360 0.464591
O O9 0.935834 0.824203 0.670552
O O10 0.825139 0.854640 0.651436
O O11 0.894805 0.000000 0.667603
O O12 0.318057 0.177292 0.094939
O O13 0.279389 0.000000 0.046252
O O14 0.227177 0.156041 0.953257
O O15 0.607483 0.500000 0.734913
O O16 0.648162 0.328403 0.765860
O O17 0.542440 0.351617 0.693242
O O18 0.745284 0.248616 0.747246
O O19 0.000000 0.753002 0.500000
O O20 0.250000 0.750000 0.500000
#
# Coordination Sequence:
#
# PCOD9192361 Si02
#       8
#     8   8   8   8   8   8   8   8
#     4   9  19  36  58  78 106 148 188 230 280 343
#     4  10  21  37  60  87 114 151 195 234 288 353
#     4  10  20  36  57  81 112 149 188 234 284 341
#     4   9  19  35  53  76 107 144 187 227 275 333
#     4  10  20  35  57  83 109 144 190 234 280 340
#     4  10  20  33  55  80 110 146 183 230 281 331
#     4  10  21  38  61  85 116 150 192 242 292 340
#     4  11  20  34  55  83 117 145 185 230 286 344
#
# _framework density 18.043875
#
# number of rings (size 3 to 8) (size 9 to 14) (size 15 to 20)
#    0.000    2.125    2.500    0.750    1.750    3.250 
#    0.000    0.000    0.000    5.250    0.000    0.000 
#    0.000    0.000    0.000    0.000    0.000    0.000 
#
# Total GULP energy -178329.534148 kJ/mol
# GULP energy per Si atom -5572.797942 kJ/mol
# Density = 1.800281 g / cm^3
# Si number density = 18.043875 Si / 1000 Ang^3
#
#
#
# Elastic Constant Matrix: (Units=GPa)
#
#
# Indices 1 2 3 4 5 6 
#
# 1 71.6923 36.9963 18.7191 0.0000 10.5541 0.0000
# 2 36.9963 145.4912 51.9174 0.0000 9.1162 0.0000
# 3 18.7191 51.9174 49.5269 0.0000 10.8286 0.0000
# 4 0.0000 0.0000 0.0000 29.5297 0.0000 2.4516
# 5 10.5541 9.1162 10.8286 0.0000 13.6313 0.0000
# 6 0.0000 0.0000 0.0000 2.4516 0.0000 24.1982
#
#
#
# Elastic Compliance Matrix: (Units=1/GPa)
#
#
# Indices 1 2 3 4 5 6 
#
# 1 0.017522 -0.003607 -0.000487 0.000000 -0.010767 0.000000
# 2 -0.003607 0.011777 -0.011946 0.000000 0.004406 0.000000
# 3 -0.000487 -0.011946 0.037599 0.000000 -0.021502 0.000000
# 4 0.000000 0.000000 0.000000 0.034151 0.000000 -0.003460
# 5 -0.010767 0.004406 -0.021502 0.000000 0.095831 0.000000
# 6 0.000000 0.000000 0.000000 -0.003460 0.000000 0.041676
#
#
# Mechanical properties :
#
#
# Convention : Reuss Voigt Hill
#
# Bulk Modulus (GPa) = 28.72082 53.55289 41.13685
# Shear Modulus (GPa) = 17.71526 24.07702 20.89614
#
# Velocity S-wave (km/s) = 3.13675 3.65685 3.40674
# Velocity P-wave (km/s) = 5.39172 6.89737 6.19050
#
# Compressibility (1/GPa) = 0.03481795
#
# Stress axis : x y z
#
# Youngs Moduli (GPa) = 57.07034 84.91060 26.59678
#
# Poissons Ratio (x) = 0.30628 0.01296
# Poissons Ratio (y) = 0.20586 0.31771
# Poissons Ratio (z) = 0.02781 1.01430
#
# Static dielectric constant tensor:
#      x y z
#    x 1.617650 0.000000 -0.007810 
#    y 0.000000 1.649130 0.000000 
#    z -0.007810 0.000000 1.609250 
# 
# From -- ./inp_files/96909.got.cif
#   From: 2010.05.17/outbox.cif.g08.bks.cpg/sg12_49_cif.got.tgz:96909.got - 2010.06.03 13:09:07.
