data_PCOD9192156
_publ_section_title
;
Structure prediction by ZEFSAII (Michael W. Deem and Ramdas Pophale) SiO2 
 PCOD9192156
Probable space group: C 2/M
;
_chemical_formula_sum "Si O2"
_cell_formula_units_Z 56
_cell_length_a 11.212363
_cell_length_b 14.285222
_cell_length_c 26.333249
_cell_angle_alpha 90.000000
_cell_angle_beta 34.574237
_cell_angle_gamma 90.000000
_cell_volume 2393.504369
_symmetry_space_group_name_H-M "C 2/M"
_symmetry_group_IT_number 12
_symmetry_cell_setting 'monoclinic'
loop_
_space_group_symop_operation_xyz
x,y,z
-x,y,-z
-x,-y,-z
x,-y,z
1/2+x,1/2+y,z
1/2-x,1/2+y,-z
1/2-x,1/2-y,-z
1/2+x,1/2-y,z
loop_
_atom_site_type_symbol
_atom_site_label
_atom_site_fract_x
_atom_site_fract_y
_atom_site_fract_z
Si Si1 0.008494 0.643124 0.417840
Si Si2 0.223265 0.393846 0.995546
Si Si3 0.315498 0.398701 0.123667
Si Si4 0.814166 0.164219 0.673398
Si Si5 0.953610 0.640771 0.323705
Si Si6 0.850206 0.139236 0.372921
Si Si7 0.090286 0.735238 0.128449
O O1 0.033431 0.756326 0.403693
O O2 0.230646 0.607964 0.363539
O O3 0.945828 0.607378 0.384246
O O4 0.828248 0.625714 0.521855
O O5 0.145633 0.500000 0.014404
O O6 0.440325 0.400825 0.950998
O O7 0.307757 0.336002 0.917588
O O8 0.079601 0.324037 0.079396
O O9 0.249487 0.500000 0.125632
O O10 0.247885 0.318350 0.110096
O O11 0.183383 0.381789 0.221239
O O12 0.707363 0.109439 0.664166
O O13 0.631888 0.223786 0.765781
O O14 0.938310 0.106660 0.672815
O O15 0.907156 0.751898 0.342488
#
# Coordination Sequence:
#
# PCOD9192156 Si02
#       7
#     8   8   8   8   8   8   8
#     4   9  16  26  43  72 105 138 184 236 277 335
#     4  10  20  35  57  83 110 146 193 239 287 348
#     4  10  20  35  56  82 112 149 194 242 289 342
#     4   9  16  26  42  70 107 142 178 230 288 336
#     4   9  16  26  44  73 104 136 180 234 276 324
#     4   9  16  26  43  72 108 141 178 234 289 338
#     4  10  20  33  53  81 112 146 187 238 292 345
#
# _framework density 23.396657000000001
#
# number of rings (size 3 to 8) (size 9 to 14) (size 15 to 20)
#    0.000    2.571    0.000    4.286    0.000    2.857 
#    0.000    0.000    0.000    7.714    0.000   63.000 
#    0.000   27.429    0.000    6.286    0.000    0.000 
#
# Total GULP energy -156150.306995 kJ/mol
# GULP energy per Si atom -5576.796678 kJ/mol
# Density = 2.334341 g / cm^3
# Si number density = 23.396657 Si / 1000 Ang^3
#
#
#
# Elastic Constant Matrix: (Units=GPa)
#
#
# Indices 1 2 3 4 5 6 
#
# 1 144.9920 6.5614 10.9277 -0.0005 11.3128 -0.0003
# 2 6.5614 104.7958 5.6419 -0.0001 15.5266 -0.0001
# 3 10.9277 5.6419 81.5243 0.0016 14.5900 0.0001
# 4 -0.0005 -0.0001 0.0016 -27.0679 0.0009 -7.6077
# 5 11.3128 15.5266 14.5900 0.0009 23.7562 0.0003
# 6 -0.0003 -0.0001 0.0001 -7.6077 0.0003 -3.5734
#
#
#
# Elastic Compliance Matrix: (Units=1/GPa)
#
#
# Indices 1 2 3 4 5 6 
#
# 1 0.007175 0.000047 -0.000391 0.000000 -0.003207 -0.000001
# 2 0.000047 0.010589 0.000566 0.000000 -0.007291 -0.000001
# 3 -0.000391 0.000566 0.013833 0.000002 -0.008679 -0.000004
# 4 0.000000 0.000000 0.000002 -0.091986 0.000000 0.195836
# 5 -0.003207 -0.007291 -0.008679 0.000000 0.053717 0.000005
# 6 -0.000001 -0.000001 -0.000004 0.195836 0.000005 -0.696775
#
#
# Mechanical properties :
#
#
# Convention : Reuss Voigt Hill
#
# Bulk Modulus (GPa) = 31.21115 41.95267 36.58191
# Shear Modulus (GPa) = -7.21281 19.16840 5.97780
#
# Velocity S-wave (km/s) = -1.75771 2.86541 1.60016
# Velocity P-wave (km/s) = 3.04131 5.37749 4.36847
#
# Compressibility (1/GPa) = 0.03203983
#
# Stress axis : x y z
#
# Youngs Moduli (GPa) = 139.38250 94.43617 72.29207
#
# Poissons Ratio (x) = -0.00444 0.02826
# Poissons Ratio (y) = -0.00655 -0.04089
# Poissons Ratio (z) = 0.05450 -0.05342
#
# Static dielectric constant tensor:
#      x y z
#    x 1.968430 0.000000 0.010900 
#    y 0.000000 1.946730 0.000000 
#    z 0.010900 0.000000 1.880240 
# 
# From -- ./inp_files/358158.got.cif
#   From: 2010.05.17/outbox.cif.g08.bks.cpg/sg12_180_cif.got.tgz:358158.got - 2010.06.03 13:09:07.
