data_PCOD9192145
_publ_section_title
;
Structure prediction by ZEFSAII (Michael W. Deem and Ramdas Pophale) SiO2 
 PCOD9192145
Probable space group: C 2/M
;
_chemical_formula_sum "Si O2"
_cell_formula_units_Z 56
_cell_length_a 19.052097
_cell_length_b 7.608476
_cell_length_c 27.964682
_cell_angle_alpha 90.000000
_cell_angle_beta 37.753229
_cell_angle_gamma 90.000000
_cell_volume 2481.918614
_symmetry_space_group_name_H-M "C 2/M"
_symmetry_group_IT_number 12
_symmetry_cell_setting 'monoclinic'
loop_
_space_group_symop_operation_xyz
x,y,z
-x,y,-z
-x,-y,-z
x,-y,z
1/2+x,1/2+y,z
1/2-x,1/2+y,-z
1/2-x,1/2-y,-z
1/2+x,1/2-y,z
loop_
_atom_site_type_symbol
_atom_site_label
_atom_site_fract_x
_atom_site_fract_y
_atom_site_fract_z
Si Si1 0.076985 0.284484 0.794447
Si Si2 0.630781 0.798461 0.663302
Si Si3 0.858583 0.709917 0.972814
Si Si4 0.271408 0.714706 0.760478
Si Si5 0.133426 0.713718 0.927230
Si Si6 0.032977 0.205210 0.614352
Si Si7 0.389307 0.799021 0.530495
O O1 0.074897 0.500000 0.794277
O O2 0.069440 0.222664 0.743698
O O3 0.196569 0.232870 0.754905
O O4 0.973595 0.225378 0.884583
O O5 0.600288 0.718549 0.628256
O O6 0.766180 0.791297 0.602195
O O7 0.595096 0.000000 0.677835
O O8 0.875806 0.500000 0.968336
O O9 0.750000 0.750000 0.000000
O O10 0.827720 0.776709 0.042042
O O11 0.272087 0.500000 0.760798
O O12 0.204133 0.776776 0.843841
O O13 0.402781 0.771126 0.690259
O O14 0.139548 0.500000 0.921421
O O15 0.000000 0.759904 0.000000
O O16 0.086601 0.296116 0.539263
O O17 0.028759 0.000000 0.603649
O O18 0.500000 0.726654 0.500000
O O19 0.375113 0.000000 0.554540
#
# Coordination Sequence:
#
# PCOD9192145 Si02
#       7
#     8   8   8   8   8   8   8
#     4   9  18  34  54  80 112 149 191 235 285 340
#     4  11  23  39  60  85 119 157 193 235 285 341
#     4  10  20  33  53  80 112 149 188 234 287 340
#     4   9  17  31  53  82 111 143 190 240 282 332
#     4   9  15  28  52  80 108 142 189 240 281 323
#     4  11  23  38  60  89 120 151 190 238 286 341
#     4  11  24  43  66  90 117 148 187 233 285 344
#
# _framework density 22.563191
#
# number of rings (size 3 to 8) (size 9 to 14) (size 15 to 20)
#    0.000    2.000    1.429    2.571    2.000    2.286 
#    0.000    0.714    0.000    2.143    0.000    0.000 
#    0.000    0.000    0.000    0.000    0.000    0.000 
#
# Total GULP energy -156388.114501 kJ/mol
# GULP energy per Si atom -5585.289804 kJ/mol
# Density = 2.251184 g / cm^3
# Si number density = 22.563191 Si / 1000 Ang^3
#
#
#
# Elastic Constant Matrix: (Units=GPa)
#
#
# Indices 1 2 3 4 5 6 
#
# 1 113.4292 -7.8102 11.7464 -0.0015 13.6236 -0.0048
# 2 -7.8102 48.7322 -2.6826 0.0009 1.6126 -0.0039
# 3 11.7464 -2.6826 85.5601 -0.0004 15.8955 -0.0004
# 4 -0.0015 0.0009 -0.0004 -20.3166 0.0005 -9.3296
# 5 13.6236 1.6126 15.8955 0.0005 43.1456 0.0010
# 6 -0.0048 -0.0039 -0.0004 -9.3296 0.0010 8.2506
#
#
#
# Elastic Compliance Matrix: (Units=1/GPa)
#
#
# Indices 1 2 3 4 5 6 
#
# 1 0.009326 0.001545 -0.000724 -0.000002 -0.002736 0.000004
# 2 0.001545 0.020859 0.000727 -0.000003 -0.001535 0.000008
# 3 -0.000724 0.000727 0.012637 -0.000001 -0.004454 0.000001
# 4 -0.000002 -0.000003 -0.000001 -0.032398 0.000002 -0.036635
# 5 -0.002736 -0.001535 -0.004454 0.000002 0.025740 -0.000003
# 6 0.000004 0.000008 0.000001 -0.036635 -0.000003 0.079777
#
#
# Mechanical properties :
#
#
# Convention : Reuss Voigt Hill
#
# Bulk Modulus (GPa) = 21.77706 27.80320 24.79013
# Shear Modulus (GPa) = 39.01662 22.64710 30.83186
#
# Velocity S-wave (km/s) = 4.16289 3.17159 3.70059
# Velocity P-wave (km/s) = 5.72528 5.07554 5.41017
#
# Compressibility (1/GPa) = 0.04591988
#
# Stress axis : x y z
#
# Youngs Moduli (GPa) = 107.22690 47.94133 79.13025
#
# Poissons Ratio (x) = -0.07409 0.05726
# Poissons Ratio (y) = -0.16570 -0.05753
# Poissons Ratio (z) = 0.07759 -0.03486
#
# Static dielectric constant tensor:
#      x y z
#    x 1.670450 0.000000 -0.054200 
#    y 0.000000 1.849630 0.000000 
#    z -0.054200 0.000000 1.773950 
# 
# From -- ./inp_files/362919.got.cif
#   From: 2010.05.17/outbox.cif.g08.bks.cpg/sg12_182_cif.got.tgz:362919.got - 2010.06.03 13:09:07.
