data_PCOD9192467
_publ_section_title
;
Structure prediction by ZEFSAII (Michael W. Deem and Ramdas Pophale) SiO2 
 PCOD9192467
Probable space group: C 2/M
;
_chemical_formula_sum "Si O2"
_cell_formula_units_Z 48
_cell_length_a 25.319945
_cell_length_b 11.456443
_cell_length_c 11.037627
_cell_angle_alpha 90.000000
_cell_angle_beta 123.060112
_cell_angle_gamma 90.000000
_cell_volume 2683.387769
_symmetry_space_group_name_H-M "C 2/M"
_symmetry_group_IT_number 12
_symmetry_cell_setting 'monoclinic'
loop_
_space_group_symop_operation_xyz
x,y,z
-x,y,-z
-x,-y,-z
x,-y,z
1/2+x,1/2+y,z
1/2-x,1/2+y,-z
1/2-x,1/2-y,-z
1/2+x,1/2-y,z
loop_
_atom_site_type_symbol
_atom_site_label
_atom_site_fract_x
_atom_site_fract_y
_atom_site_fract_z
Si Si1 0.277246 0.866406 0.188053
Si Si2 0.000000 0.805672 0.000000
Si Si3 0.616043 0.863849 0.084608
Si Si4 0.753879 0.297973 0.639221
Si Si5 0.579673 0.500000 0.723567
Si Si6 0.344811 0.282897 0.097785
Si Si7 0.030911 0.000000 0.241798
Si Si8 0.151196 0.000000 0.551648
O O1 0.253726 0.813014 0.283037
O O2 0.332686 0.787530 0.204938
O O3 0.294639 0.000000 0.218383
O O4 0.219403 0.848348 0.022262
O O5 0.060074 0.721256 0.057017
O O6 0.013411 0.889584 0.133184
O O7 0.677887 0.852927 0.246434
O O8 0.597665 0.000000 0.053187
O O9 0.637697 0.810740 0.982593
O O10 0.750000 0.250000 0.500000
O O11 0.698365 0.389316 0.601467
O O12 0.605670 0.383847 0.820022
O O13 0.507487 0.500000 0.678544
O O14 0.610641 0.500000 0.627005
O O15 0.103182 0.000000 0.377538
#
# Coordination Sequence:
#
# PCOD9192467 Si02
#       8
#     8   4   8   8   4   8   4   4
#     4  10  20  33  56  86 119 159 197 250 306 353
#     4  11  23  42  64  94 123 159 210 254 306 361
#     4  11  22  39  63  89 123 161 201 255 307 361
#     4  11  24  39  58  89 125 161 200 248 306 370
#     4  12  20  41  62  89 120 158 204 261 304 357
#     4  10  20  34  57  88 121 150 202 256 305 353
#     4  11  25  42  64  90 126 162 205 260 302 358
#     4  12  24  43  64  90 123 167 206 245 307 371
#
# _framework density 17.887836
#
# number of rings (size 3 to 8) (size 9 to 14) (size 15 to 20)
#    0.000    1.167    5.000    2.000    1.167    0.000 
#    1.500    0.000    0.000    0.000    0.000    2.333 
#    0.000    0.000    0.000    0.000    0.000    0.000 
#
# Total GULP energy -133842.603111 kJ/mol
# GULP energy per Si atom -5576.775130 kJ/mol
# Density = 1.784712 g / cm^3
# Si number density = 17.887836 Si / 1000 Ang^3
#
#
#
# Elastic Constant Matrix: (Units=GPa)
#
#
# Indices 1 2 3 4 5 6 
#
# 1 79.8463 26.4604 20.0548 0.0000 10.7436 0.0000
# 2 26.4604 127.5706 26.7308 0.0000 6.6415 0.0000
# 3 20.0548 26.7308 70.3192 0.0000 4.4257 0.0000
# 4 0.0000 0.0000 0.0000 12.0089 0.0000 2.9485
# 5 10.7436 6.6415 4.4257 0.0000 33.3716 0.0000
# 6 0.0000 0.0000 0.0000 2.9485 0.0000 28.7700
#
#
#
# Elastic Compliance Matrix: (Units=1/GPa)
#
#
# Indices 1 2 3 4 5 6 
#
# 1 0.014533 -0.002169 -0.003078 0.000000 -0.003839 0.000000
# 2 -0.002169 0.008895 -0.002718 0.000000 -0.000711 0.000000
# 3 -0.003078 -0.002718 0.016171 0.000000 -0.000613 0.000000
# 4 0.000000 0.000000 0.000000 0.085421 0.000000 -0.008754
# 5 -0.003839 -0.000711 -0.000613 0.000000 0.031424 0.000000
# 6 0.000000 0.000000 0.000000 -0.008754 0.000000 0.035656
#
#
# Mechanical properties :
#
#
# Convention : Reuss Voigt Hill
#
# Bulk Modulus (GPa) = 42.25292 47.13646 44.69469
# Shear Modulus (GPa) = 23.15674 28.46277 25.80976
#
# Velocity S-wave (km/s) = 3.60189 3.99329 3.80263
# Velocity P-wave (km/s) = 6.40082 6.90436 6.65735
#
# Compressibility (1/GPa) = 0.02366700
#
# Stress axis : x y z
#
# Youngs Moduli (GPa) = 68.81030 112.41851 61.84082
#
# Poissons Ratio (x) = 0.24389 0.19037
# Poissons Ratio (y) = 0.14928 0.16808
# Poissons Ratio (z) = 0.21183 0.30555
#
# Static dielectric constant tensor:
#      x y z
#    x 1.629570 0.000000 -0.008070 
#    y 0.000000 1.589200 0.000000 
#    z -0.008070 0.000000 1.603030 
# 
# From -- ./inp_files/95044.got.cif
#   From: 2010.05.17/outbox.cif.g08.bks.cpg/sg12_48_cif.got.tgz:95044.got - 2010.06.03 13:09:07.
