data_PCOD9192112
_publ_section_title
;
Structure prediction by ZEFSAII (Michael W. Deem and Ramdas Pophale) SiO2 
 PCOD9192112
Probable space group: C 2/M
;
_chemical_formula_sum "Si O2"
_cell_formula_units_Z 40
_cell_length_a 23.909321
_cell_length_b 9.960117
_cell_length_c 7.943528
_cell_angle_alpha 90.000000
_cell_angle_beta 99.378945
_cell_angle_gamma 90.000000
_cell_volume 1866.381241
_symmetry_space_group_name_H-M "C 2/M"
_symmetry_group_IT_number 12
_symmetry_cell_setting 'monoclinic'
loop_
_space_group_symop_operation_xyz
x,y,z
-x,y,-z
-x,-y,-z
x,-y,z
1/2+x,1/2+y,z
1/2-x,1/2+y,-z
1/2-x,1/2-y,-z
1/2+x,1/2-y,z
loop_
_atom_site_type_symbol
_atom_site_label
_atom_site_fract_x
_atom_site_fract_y
_atom_site_fract_z
Si Si1 0.368040 0.000000 0.434500
Si Si2 0.308540 0.000000 0.769129
Si Si3 0.024930 0.000000 0.736140
Si Si4 0.914652 0.000000 0.869757
Si Si5 0.608884 0.712951 0.653266
Si Si6 0.831219 0.781425 0.953046
Si Si7 0.810331 0.000000 0.462755
Si Si8 0.750976 0.000000 0.797544
O O1 0.341683 0.000000 0.607885
O O2 0.400671 0.862177 0.417343
O O3 0.314853 0.000000 0.277970
O O4 0.324121 0.866132 0.877122
O O5 0.241815 0.000000 0.693206
O O6 0.052029 0.128665 0.658615
O O7 0.958210 0.000000 0.737152
O O8 0.051842 0.000000 0.936702
O O9 0.875769 0.131798 0.862777
O O10 0.650563 0.629090 0.552039
O O11 0.642942 0.717192 0.847577
O O12 0.773909 0.869368 0.905939
O O13 0.781401 0.000000 0.630001
#
# Coordination Sequence:
#
# PCOD9192112 Si02
#       8
#     4   4   4   4   8   8   4   4
#     4  11  22  34  49  72 107 144 169 200 251 303
#     4  11  22  34  49  72 107 144 169 200 251 303
#     4   8  16  34  57  77  97 124 163 210 258 306
#     4   8  16  34  57  77  97 124 163 210 258 306
#     4  10  20  33  53  79 102 130 171 214 250 290
#     4  10  20  33  53  79 102 130 171 214 250 290
#     4  10  20  34  51  72 103 143 175 199 243 304
#     4  10  20  34  51  72 103 143 175 199 243 304
#
# _framework density 21.431847999999999
#
# number of rings (size 3 to 8) (size 9 to 14) (size 15 to 20)
#    0.000    2.200    0.000    4.800    0.000    8.000 
#    0.000    1.000    0.000   27.600    0.000    0.000 
#    0.000    0.000    0.000    0.000    0.000    0.000 
#
# Total GULP energy -111929.454207 kJ/mol
# GULP energy per Si atom -5596.472710 kJ/mol
# Density = 2.138307 g / cm^3
# Si number density = 21.431848 Si / 1000 Ang^3
#
#
#
# Elastic Constant Matrix: (Units=GPa)
#
#
# Indices 1 2 3 4 5 6 
#
# 1 78.5755 42.0416 22.6176 0.0000 -24.0484 0.0000
# 2 42.0416 202.0425 38.6850 0.0000 -21.0126 0.0000
# 3 22.6176 38.6850 93.8123 0.0000 -4.9148 0.0000
# 4 0.0000 0.0000 0.0000 17.1697 0.0000 -1.8896
# 5 -24.0484 -21.0126 -4.9148 0.0000 38.4891 0.0000
# 6 0.0000 0.0000 0.0000 -1.8896 0.0000 4.5297
#
#
#
# Elastic Compliance Matrix: (Units=1/GPa)
#
#
# Indices 1 2 3 4 5 6 
#
# 1 0.017585 -0.002126 -0.002867 0.000000 0.009460 0.000000
# 2 -0.002126 0.005918 -0.001840 0.000000 0.001667 0.000000
# 3 -0.002867 -0.001840 0.012044 0.000000 -0.001258 0.000000
# 4 0.000000 0.000000 0.000000 0.061045 0.000000 0.025465
# 5 0.009460 0.001667 -0.001258 0.000000 0.032642 0.000000
# 6 0.000000 0.000000 0.000000 0.025465 0.000000 0.231386
#
#
# Mechanical properties :
#
#
# Convention : Reuss Voigt Hill
#
# Bulk Modulus (GPa) = 45.70610 64.56876 55.13743
# Shear Modulus (GPa) = 13.10344 30.11012 21.60678
#
# Velocity S-wave (km/s) = 2.47533 3.75230 3.17860
# Velocity P-wave (km/s) = 5.43528 6.99756 6.26531
#
# Compressibility (1/GPa) = 0.02187892
#
# Stress axis : x y z
#
# Youngs Moduli (GPa) = 56.86674 168.98657 83.03036
#
# Poissons Ratio (x) = 0.35931 0.23807
# Poissons Ratio (y) = 0.12091 0.15280
# Poissons Ratio (z) = 0.16305 0.31098
#
# Static dielectric constant tensor:
#      x y z
#    x 1.772810 0.000000 -0.000910 
#    y 0.000000 1.744080 0.000000 
#    z -0.000910 0.000000 1.799380 
# 
# From -- ./inp_files/101171.got.cif
#   From: 2010.05.17/outbox.cif.g08.bks.cpg/sg12_51_cif.got.tgz:101171.got - 2010.06.03 13:09:07.
