data_PCOD9192111
_publ_section_title
;
Structure prediction by ZEFSAII (Michael W. Deem and Ramdas Pophale) SiO2 
 PCOD9192111
Probable space group: C 2/M
;
_chemical_formula_sum "Si O2"
_cell_formula_units_Z 48
_cell_length_a 25.387152
_cell_length_b 7.585997
_cell_length_c 19.669726
_cell_angle_alpha 90.000000
_cell_angle_beta 142.211432
_cell_angle_gamma 90.000000
_cell_volume 2321.174785
_symmetry_space_group_name_H-M "C 2/M"
_symmetry_group_IT_number 12
_symmetry_cell_setting 'monoclinic'
loop_
_space_group_symop_operation_xyz
x,y,z
-x,y,-z
-x,-y,-z
x,-y,z
1/2+x,1/2+y,z
1/2-x,1/2+y,-z
1/2-x,1/2-y,-z
1/2+x,1/2-y,z
loop_
_atom_site_type_symbol
_atom_site_label
_atom_site_fract_x
_atom_site_fract_y
_atom_site_fract_z
Si Si1 0.150845 0.790759 0.976874
Si Si2 0.344264 0.712585 0.517869
Si Si3 0.009499 0.205207 0.934549
Si Si4 0.154729 0.213057 0.826680
Si Si5 0.648437 0.791218 0.319397
Si Si6 0.495058 0.284154 0.572938
O O1 0.083694 0.715709 0.962346
O O2 0.141532 0.720479 0.890463
O O3 0.134216 0.000000 0.954770
O O4 0.249685 0.764772 0.098286
O O5 0.341587 0.500000 0.512292
O O6 0.374379 0.759216 0.624802
O O7 0.246111 0.776831 0.409478
O O8 0.410612 0.773567 0.528271
O O9 0.921219 0.212755 0.802397
O O10 0.033541 0.000000 0.969236
O O11 0.000000 0.283949 0.000000
O O12 0.079232 0.272442 0.700325
O O13 0.152471 0.000000 0.826081
O O14 0.648986 0.000000 0.308191
O O15 0.500000 0.226965 0.500000
O O16 0.493978 0.500000 0.571792
#
# Coordination Sequence:
#
# PCOD9192111 Si02
#       6
#     8   8   8   8   8   8
#     4   9  18  33  51  71  96 128 165 202 243 291
#     4   9  18  34  54  75 102 135 169 206 250 301
#     4  10  21  36  53  73 101 138 171 201 248 307
#     4   9  17  30  51  75  96 124 163 205 243 281
#     4  10  20  33  53  79 102 129 168 213 254 291
#     4   9  17  30  50  75 101 131 166 201 242 296
#
# _framework density 20.679182999999998
#
# number of rings (size 3 to 8) (size 9 to 14) (size 15 to 20)
#    0.000    2.667    0.000    1.500    0.000    5.667 
#    0.000    5.833    0.000    2.000    0.000    0.000 
#    0.000    0.000    0.000    0.000    0.000    0.000 
#
# Total GULP energy -133975.331743 kJ/mol
# GULP energy per Si atom -5582.305489 kJ/mol
# Density = 2.063212 g / cm^3
# Si number density = 20.679183 Si / 1000 Ang^3
#
#
#
# Elastic Constant Matrix: (Units=GPa)
#
#
# Indices 1 2 3 4 5 6 
#
# 1 120.5347 -22.2487 136.9303 -0.0001 -28.0888 -0.0002
# 2 -22.2487 36.5157 -4.2150 -0.0001 -9.3416 -0.0002
# 3 136.9303 -4.2150 106.6782 0.0000 10.2776 -0.0001
# 4 -0.0001 -0.0001 0.0000 64.1621 0.0000 142.5342
# 5 -28.0888 -9.3416 10.2776 0.0000 1.7817 -0.0001
# 6 -0.0002 -0.0002 -0.0001 142.5342 -0.0001 452.7677
#
#
#
# Elastic Compliance Matrix: (Units=1/GPa)
#
#
# Indices 1 2 3 4 5 6 
#
# 1 0.000712 -0.005325 0.001092 0.000000 -0.023004 0.000000
# 2 -0.005325 0.024353 0.008068 0.000000 -0.002809 0.000000
# 3 0.001092 0.008068 0.005753 0.000000 0.026341 0.000000
# 4 0.000000 0.000000 0.000000 0.051837 0.000000 -0.016318
# 5 -0.023004 -0.002809 0.026341 0.000000 0.031921 0.000000
# 6 0.000000 0.000000 0.000000 -0.016318 0.000000 0.007346
#
#
# Mechanical properties :
#
#
# Convention : Reuss Voigt Hill
#
# Bulk Modulus (GPa) = 25.98155 53.85129 39.91642
# Shear Modulus (GPa) = 39.34534 113.95977 76.65256
#
# Velocity S-wave (km/s) = 4.36667 7.43156 6.09491
# Velocity P-wave (km/s) = 6.16565 9.98676 8.29911
#
# Compressibility (1/GPa) = 0.03848886
#
# Stress axis : x y z
#
# Youngs Moduli (GPa) = 1405.28084 41.06196 173.82970
#
# Poissons Ratio (x) = 0.21867 -0.18990
# Poissons Ratio (y) = 7.48359 -1.40253
# Poissons Ratio (z) = -1.53520 -0.33130
#
# Static dielectric constant tensor:
#      x y z
#    x 1.750640 0.000000 0.007000 
#    y 0.000000 1.786220 0.000000 
#    z 0.007000 0.000000 1.697490 
# 
# From -- ./inp_files/327361.got.cif
#   From: 2010.05.17/outbox.cif.g08.bks.cpg/sg12_164_cif.got.tgz:327361.got - 2010.06.03 13:09:07.
