data_PCOD9192863
_publ_section_title
;
Structure prediction by ZEFSAII (Michael W. Deem and Ramdas Pophale) SiO2 
 PCOD9192863
Probable space group: C 2/M
;
_chemical_formula_sum "Si O2"
_cell_formula_units_Z 56
_cell_length_a 15.493994
_cell_length_b 24.738896
_cell_length_c 12.467204
_cell_angle_alpha 90.000000
_cell_angle_beta 148.285842
_cell_angle_gamma 90.000000
_cell_volume 2512.093306
_symmetry_space_group_name_H-M "C 2/M"
_symmetry_group_IT_number 12
_symmetry_cell_setting 'monoclinic'
loop_
_space_group_symop_operation_xyz
x,y,z
-x,y,-z
-x,-y,-z
x,-y,z
1/2+x,1/2+y,z
1/2-x,1/2+y,-z
1/2-x,1/2-y,-z
1/2+x,1/2-y,z
loop_
_atom_site_type_symbol
_atom_site_label
_atom_site_fract_x
_atom_site_fract_y
_atom_site_fract_z
Si Si1 0.086620 0.251614 0.393298
Si Si2 0.897294 0.151471 0.239384
Si Si3 0.135121 0.733861 0.046018
Si Si4 0.250420 0.563551 0.197730
Si Si5 0.255339 0.145007 0.155672
Si Si6 0.888412 0.564497 0.718724
Si Si7 0.870978 0.630722 0.490680
O O1 0.250000 0.250000 0.500000
O O2 0.110354 0.304472 0.487580
O O3 0.045299 0.194068 0.400360
O O4 0.950115 0.263683 0.160234
O O5 0.756043 0.183611 0.157740
O O6 0.897719 0.094586 0.297210
O O7 0.850776 0.139699 0.065258
O O8 0.234448 0.790297 0.154030
O O9 0.000000 0.730422 0.000000
O O10 0.279135 0.500000 0.227476
O O11 0.206992 0.579082 0.273465
O O12 0.081456 0.573206 0.950814
O O13 0.236157 0.119917 0.255375
O O14 0.435029 0.119207 0.322575
O O15 0.868096 0.500000 0.675868
O O16 0.831483 0.601655 0.560183
#
# Coordination Sequence:
#
# PCOD9192863 Si02
#       7
#     8   8   8   8   8   8   8
#     4  11  22  37  55  84 118 154 205 248 302 367
#     4  11  20  37  58  85 118 164 204 246 312 366
#     4  11  21  35  55  81 115 163 201 240 304 371
#     4   9  18  33  56  86 120 159 208 258 305 363
#     4  10  20  34  51  78 119 161 189 249 305 368
#     4   9  18  33  56  88 120 157 208 262 308 354
#     4  11  19  35  54  78 121 157 196 251 306 353
#
# _framework density 22.292166000000002
#
# number of rings (size 3 to 8) (size 9 to 14) (size 15 to 20)
#    0.000    1.714    4.286    2.571    4.000    0.000 
#    0.000    2.143    0.000    0.857    0.000    2.000 
#    0.000    8.000    0.000    0.000    0.000    0.286 
#
# Total GULP energy -156087.575865 kJ/mol
# GULP energy per Si atom -5574.556281 kJ/mol
# Density = 2.224143 g / cm^3
# Si number density = 22.292166 Si / 1000 Ang^3
#
#
#
# Elastic Constant Matrix: (Units=GPa)
#
#
# Indices 1 2 3 4 5 6 
#
# 1 100.8092 55.3779 40.3570 0.0000 -22.2453 0.0000
# 2 55.3779 69.5683 33.3099 0.0000 -18.5162 0.0000
# 3 40.3570 33.3099 93.5031 0.0000 -42.8957 0.0000
# 4 0.0000 0.0000 0.0000 3.0516 0.0000 -4.7297
# 5 -22.2453 -18.5162 -42.8957 0.0000 50.1158 0.0000
# 6 0.0000 0.0000 0.0000 -4.7297 0.0000 42.0498
#
#
#
# Elastic Compliance Matrix: (Units=1/GPa)
#
#
# Indices 1 2 3 4 5 6 
#
# 1 0.018454 -0.013064 -0.002910 0.000000 0.000874 0.000000
# 2 -0.013064 0.026682 -0.003301 0.000000 0.001234 0.000000
# 3 -0.002910 -0.003301 0.019717 0.000000 0.014365 0.000000
# 4 0.000000 0.000000 0.000000 0.396885 0.000000 0.044641
# 5 0.000874 0.001234 0.014365 0.000000 0.033093 0.000000
# 6 0.000000 0.000000 0.000000 0.044641 0.000000 0.028802
#
#
# Mechanical properties :
#
#
# Convention : Reuss Voigt Hill
#
# Bulk Modulus (GPa) = 38.01714 57.99669 48.00692
# Shear Modulus (GPa) = 8.75732 28.03248 18.39490
#
# Velocity S-wave (km/s) = 1.98418 3.54998 2.87570
# Velocity P-wave (km/s) = 4.72656 6.54799 5.71037
#
# Compressibility (1/GPa) = 0.02630392
#
# Stress axis : x y z
#
# Youngs Moduli (GPa) = 54.18906 37.47806 50.71786
#
# Poissons Ratio (x) = 0.48960 0.14760
# Poissons Ratio (y) = 0.70791 0.16740
# Poissons Ratio (z) = 0.15770 0.12370
#
# Static dielectric constant tensor:
#      x y z
#    x 1.855370 0.000000 -0.053600 
#    y 0.000000 2.013360 0.000000 
#    z -0.053600 0.000000 1.727180 
# 
# From -- ./inp_files/149488.got.cif
#   From: 2010.05.17/outbox.cif.g08.bks.cpg/sg12_75_cif.got.tgz:149488.got - 2010.06.03 13:09:07.
