data_PCOD9192137
_publ_section_title
;
Structure prediction by ZEFSAII (Michael W. Deem and Ramdas Pophale) SiO2 
 PCOD9192137
Probable space group: C 2/M
;
_chemical_formula_sum "Si O2"
_cell_formula_units_Z 48
_cell_length_a 25.286556
_cell_length_b 7.808397
_cell_length_c 19.449887
_cell_angle_alpha 90.000000
_cell_angle_beta 146.455360
_cell_angle_gamma 90.000000
_cell_volume 2122.115075
_symmetry_space_group_name_H-M "C 2/M"
_symmetry_group_IT_number 12
_symmetry_cell_setting 'monoclinic'
loop_
_space_group_symop_operation_xyz
x,y,z
-x,y,-z
-x,-y,-z
x,-y,z
1/2+x,1/2+y,z
1/2-x,1/2+y,-z
1/2-x,1/2-y,-z
1/2+x,1/2-y,z
loop_
_atom_site_type_symbol
_atom_site_label
_atom_site_fract_x
_atom_site_fract_y
_atom_site_fract_z
Si Si1 0.432504 0.704694 0.021676
Si Si2 0.865111 0.697417 0.699245
Si Si3 0.555216 0.799871 0.353508
Si Si4 0.148711 0.200668 0.921930
Si Si5 0.582207 0.789115 0.537082
Si Si6 0.209517 0.799121 0.242454
O O1 0.455076 0.500000 0.040077
O O2 0.382010 0.770188 0.897930
O O3 0.529606 0.791152 0.151900
O O4 0.357645 0.728787 0.003003
O O5 0.836804 0.500000 0.662606
O O6 0.881438 0.774447 0.640831
O O7 0.798108 0.781598 0.683681
O O8 0.443864 0.789773 0.211263
O O9 0.565716 0.728928 0.441147
O O10 0.581371 0.000000 0.385045
O O11 0.133281 0.000000 0.893894
O O12 0.250000 0.250000 0.000000
O O13 0.500000 0.733478 0.500000
O O14 0.688736 0.731578 0.672508
O O15 0.581074 0.000000 0.535609
O O16 0.208022 0.000000 0.224471
#
# Coordination Sequence:
#
# PCOD9192137 Si02
#       6
#     8   8   8   8   8   8
#     4   9  19  34  53  79 109 138 177 225 266 311
#     4  10  20  34  53  80 112 143 173 215 275 330
#     4   9  19  36  56  78 107 140 180 225 267 317
#     4  10  20  33  53  80 108 142 179 220 270 319
#     4   9  19  35  58  81 103 138 186 231 266 308
#     4  10  20  34  55  82 106 138 183 226 264 311
#
# _framework density 22.618942000000001
#
# number of rings (size 3 to 8) (size 9 to 14) (size 15 to 20)
#    0.000    2.500    0.000    1.500    2.333    4.667 
#    0.000    0.833    0.000    1.000    0.000    0.000 
#    0.000    0.000    0.000    0.000    0.000    0.000 
#
# Total GULP energy -133990.506856 kJ/mol
# GULP energy per Si atom -5582.937786 kJ/mol
# Density = 2.256746 g / cm^3
# Si number density = 22.618942 Si / 1000 Ang^3
#
#
#
# Elastic Constant Matrix: (Units=GPa)
#
#
# Indices 1 2 3 4 5 6 
#
# 1 102.3483 3.0384 23.2116 0.0000 3.1532 0.0000
# 2 3.0384 29.9589 0.8415 0.0000 -4.3163 0.0000
# 3 23.2116 0.8415 52.5762 0.0000 -11.0324 0.0000
# 4 0.0000 0.0000 0.0000 2.3241 0.0000 0.0672
# 5 3.1532 -4.3163 -11.0324 0.0000 40.2253 0.0000
# 6 0.0000 0.0000 0.0000 0.0672 0.0000 22.3659
#
#
#
# Elastic Compliance Matrix: (Units=1/GPa)
#
#
# Indices 1 2 3 4 5 6 
#
# 1 0.011114 -0.001335 -0.005409 0.000000 -0.002498 0.000000
# 2 -0.001335 0.034066 0.000884 0.000000 0.004003 0.000000
# 3 -0.005409 0.000884 0.022816 0.000000 0.006777 0.000000
# 4 0.000000 0.000000 0.000000 0.430318 0.000000 -0.001294
# 5 -0.002498 0.004003 0.006777 0.000000 0.027344 0.000000
# 6 0.000000 0.000000 0.000000 -0.001294 0.000000 0.044715
#
#
# Mechanical properties :
#
#
# Convention : Reuss Voigt Hill
#
# Bulk Modulus (GPa) = 17.76982 26.56294 22.16638
# Shear Modulus (GPa) = 8.32151 23.50252 15.91201
#
# Velocity S-wave (km/s) = 1.92015 3.22695 2.65520
# Velocity P-wave (km/s) = 3.57620 5.06492 4.38421
#
# Compressibility (1/GPa) = 0.05627520
#
# Stress axis : x y z
#
# Youngs Moduli (GPa) = 89.97683 29.35455 43.82886
#
# Poissons Ratio (x) = 0.03919 0.23709
# Poissons Ratio (y) = 0.12013 -0.03875
# Poissons Ratio (z) = 0.48673 -0.02595
#
# Static dielectric constant tensor:
#      x y z
#    x 1.863270 0.000000 0.004980 
#    y 0.000000 1.832910 0.000000 
#    z 0.004980 0.000000 1.893870 
# 
# From -- ./inp_files/327319.got.cif
#   From: 2010.05.17/outbox.cif.g08.bks.cpg/sg12_164_cif.got.tgz:327319.got - 2010.06.03 13:09:07.
