data_PCOD9192742
_publ_section_title
;
Structure prediction by ZEFSAII (Michael W. Deem and Ramdas Pophale) SiO2 
 PCOD9192742
Probable space group: C 2/M
;
_chemical_formula_sum "Si O2"
_cell_formula_units_Z 56
_cell_length_a 15.035569
_cell_length_b 7.592787
_cell_length_c 30.460139
_cell_angle_alpha 90.000000
_cell_angle_beta 126.540110
_cell_angle_gamma 90.000000
_cell_volume 2793.872316
_symmetry_space_group_name_H-M "C 2/M"
_symmetry_group_IT_number 12
_symmetry_cell_setting 'monoclinic'
loop_
_space_group_symop_operation_xyz
x,y,z
-x,y,-z
-x,-y,-z
x,-y,z
1/2+x,1/2+y,z
1/2-x,1/2+y,-z
1/2-x,1/2-y,-z
1/2+x,1/2-y,z
loop_
_atom_site_type_symbol
_atom_site_label
_atom_site_fract_x
_atom_site_fract_y
_atom_site_fract_z
Si Si1 0.422226 0.287257 0.437793
Si Si2 0.699878 0.711736 0.937499
Si Si3 0.328086 0.210810 0.644990
Si Si4 0.046257 0.792978 0.144300
Si Si5 0.287273 0.287471 0.733228
Si Si6 0.900078 0.286616 0.938762
Si Si7 0.462579 0.789828 0.349462
O O1 0.500000 0.223929 0.500000
O O2 0.418630 0.500000 0.438731
O O3 0.294970 0.222594 0.404053
O O4 0.470003 0.240536 0.403926
O O5 0.694496 0.500000 0.933096
O O6 0.577496 0.783681 0.893406
O O7 0.786758 0.774581 0.927195
O O8 0.750000 0.750000 0.000000
O O9 0.335320 0.245217 0.699217
O O10 0.432571 0.279212 0.647559
O O11 0.325953 0.000000 0.638082
O O12 0.132133 0.719527 0.204954
O O13 0.088321 0.776586 0.107140
O O14 0.035642 0.000000 0.151815
O O15 0.281171 0.500000 0.734559
O O16 0.160291 0.221115 0.699274
O O17 0.902549 0.500000 0.938808
O O18 0.000000 0.229129 0.000000
O O19 0.460380 0.000000 0.341627
#
# Coordination Sequence:
#
# PCOD9192742 Si02
#       7
#     8   8   8   8   8   8   8
#     4   9  18  32  49  73 105 135 166 205 245 287
#     4  10  20  34  51  71  96 125 156 192 237 289
#     4   9  18  33  52  73  98 132 169 203 244 291
#     4  10  21  35  52  74  99 127 161 201 245 294
#     4   9  19  35  51  71  99 128 162 205 248 289
#     4  10  20  34  51  72  98 126 157 195 240 291
#     4   9  18  33  52  72  99 133 167 205 245 289
#
# _framework density 20.043863999999999
#
# number of rings (size 3 to 8) (size 9 to 14) (size 15 to 20)
#    0.000    2.571    1.429    0.000    0.000    4.000 
#    0.000    0.000    0.000    0.000    0.000    0.000 
#    0.000    0.000    0.000    0.000    0.000    0.000 
#
# Total GULP energy -156204.353876 kJ/mol
# GULP energy per Si atom -5578.726924 kJ/mol
# Density = 1.999824 g / cm^3
# Si number density = 20.043864 Si / 1000 Ang^3
#
#
#
# Elastic Constant Matrix: (Units=GPa)
#
#
# Indices 1 2 3 4 5 6 
#
# 1 208.6114 2.4192 115.9300 0.0000 12.6292 0.0000
# 2 2.4192 42.4131 -2.5516 0.0000 6.2318 0.0000
# 3 115.9300 -2.5516 200.0022 0.0000 8.5861 0.0000
# 4 0.0000 0.0000 0.0000 8.1437 0.0000 -15.9237
# 5 12.6292 6.2318 8.5861 0.0000 12.6522 0.0000
# 6 0.0000 0.0000 0.0000 -15.9237 0.0000 10.5572
#
#
#
# Elastic Compliance Matrix: (Units=1/GPa)
#
#
# Indices 1 2 3 4 5 6 
#
# 1 0.007318 0.000010 -0.004046 0.000000 -0.004564 0.000000
# 2 0.000010 0.025571 0.000888 0.000000 -0.013207 0.000000
# 3 -0.004046 0.000888 0.007418 0.000000 -0.001433 0.000000
# 4 0.000000 0.000000 0.000000 -0.062994 0.000000 -0.095016
# 5 -0.004564 -0.013207 -0.001433 0.000000 0.091071 0.000000
# 6 0.000000 0.000000 0.000000 -0.095016 0.000000 -0.048593
#
#
# Mechanical properties :
#
#
# Convention : Reuss Voigt Hill
#
# Bulk Modulus (GPa) = 29.40315 75.84687 52.62501
# Shear Modulus (GPa) = 133.60294 28.61923 81.11108
#
# Velocity S-wave (km/s) = 8.17313 3.78276 6.36825
# Velocity P-wave (km/s) = 10.18665 7.54994 8.96576
#
# Compressibility (1/GPa) = 0.03400997
#
# Stress axis : x y z
#
# Youngs Moduli (GPa) = 136.64608 39.10685 134.80842
#
# Poissons Ratio (x) = -0.00038 0.54542
# Poissons Ratio (y) = -0.00134 -0.11965
# Poissons Ratio (z) = 0.55285 -0.03471
#
# Static dielectric constant tensor:
#      x y z
#    x 1.695760 0.000000 0.041590 
#    y 0.000000 1.779570 0.000000 
#    z 0.041590 0.000000 1.690860 
# 
# From -- ./inp_files/308888.got.cif
#   From: 2010.05.17/outbox.cif.g08.bks.cpg/sg12_155_cif.got.tgz:308888.got - 2010.06.03 13:09:07.
