data_PCOD9192975
_publ_section_title
;
Structure prediction by ZEFSAII (Michael W. Deem and Ramdas Pophale) SiO2 
 PCOD9192975
Probable space group: C 2/M
;
_chemical_formula_sum "Si O2"
_cell_formula_units_Z 56
_cell_length_a 23.903413
_cell_length_b 20.794313
_cell_length_c 5.013753
_cell_angle_alpha 90.000000
_cell_angle_beta 73.293367
_cell_angle_gamma 90.000000
_cell_volume 2386.917300
_symmetry_space_group_name_H-M "C 2/M"
_symmetry_group_IT_number 12
_symmetry_cell_setting 'monoclinic'
loop_
_space_group_symop_operation_xyz
x,y,z
-x,y,-z
-x,-y,-z
x,-y,z
1/2+x,1/2+y,z
1/2-x,1/2+y,-z
1/2-x,1/2-y,-z
1/2+x,1/2-y,z
loop_
_atom_site_type_symbol
_atom_site_label
_atom_site_fract_x
_atom_site_fract_y
_atom_site_fract_z
Si Si1 0.053523 0.075797 0.091784
Si Si2 0.959411 0.261623 0.298335
Si Si3 0.283635 0.335086 0.923284
Si Si4 0.170588 0.765991 0.613148
Si Si5 0.377980 0.130187 0.246567
Si Si6 0.376894 0.423969 0.517939
Si Si7 0.673456 0.073654 0.176151
O O1 0.107483 0.081526 0.813373
O O2 0.040165 0.000000 0.145269
O O3 0.070213 0.098619 0.361094
O O4 0.000000 0.103605 0.000000
O O5 0.897356 0.223718 0.390126
O O6 0.936561 0.334309 0.264039
O O7 0.000000 0.258527 0.500000
O O8 0.000000 0.241452 0.000000
O O9 0.313511 0.308516 0.152254
O O10 0.166414 0.308692 0.699776
O O11 0.321921 0.386181 0.701612
O O12 0.225913 0.374964 0.074554
O O13 0.212557 0.777229 0.301253
O O14 0.375863 0.097083 0.964415
O O15 0.353044 0.081240 0.495319
O O16 0.368957 0.500000 0.579128
O O17 0.691592 0.000000 0.100078
#
# Coordination Sequence:
#
# PCOD9192975 Si02
#       7
#     8   8   8   8   8   8   8
#     4   9  17  31  50  69  94 140 201 263 323 371
#     4  10  20  42  71  97 131 173 212 266 348 396
#     4  12  23  40  59  91 136 170 225 264 324 378
#     4  10  24  40  65  99 126 172 224 272 320 393
#     4  10  24  43  69 103 128 180 219 277 325 400
#     4  10  20  34  52  74 110 158 209 263 315 379
#     4  12  25  43  68  98 139 182 220 269 332 396
#
# _framework density 23.461224000000001
#
# number of rings (size 3 to 8) (size 9 to 14) (size 15 to 20)
#    0.857    0.714    0.000    5.571    0.000    5.143 
#    0.000   11.429    0.000    8.571    0.000    0.000 
#    0.000    1.714    0.000    0.000    0.000    0.000 
#
# Total GULP energy -156442.640178 kJ/mol
# GULP energy per Si atom -5587.237149 kJ/mol
# Density = 2.340783 g / cm^3
# Si number density = 23.461224 Si / 1000 Ang^3
#
#
#
# Elastic Constant Matrix: (Units=GPa)
#
#
# Indices 1 2 3 4 5 6 
#
# 1 77.9695 22.7877 21.8499 0.0000 -1.4392 0.0000
# 2 22.7877 111.7503 19.5138 0.0000 17.1394 0.0000
# 3 21.8499 19.5138 102.7737 0.0000 20.2252 0.0000
# 4 0.0000 0.0000 0.0000 28.8781 0.0000 2.2340
# 5 -1.4392 17.1394 20.2252 0.0000 33.5217 0.0000
# 6 0.0000 0.0000 0.0000 2.2340 0.0000 31.2845
#
#
#
# Elastic Compliance Matrix: (Units=1/GPa)
#
#
# Indices 1 2 3 4 5 6 
#
# 1 0.014750 -0.003067 -0.003389 0.000000 0.004246 0.000000
# 2 -0.003067 0.010436 -0.000288 0.000000 -0.005294 0.000000
# 3 -0.003389 -0.000288 0.011920 0.000000 -0.007191 0.000000
# 4 0.000000 0.000000 0.000000 0.034821 0.000000 -0.002487
# 5 0.004246 -0.005294 -0.007191 0.000000 0.037059 0.000000
# 6 0.000000 0.000000 0.000000 -0.002487 0.000000 0.032142
#
#
# Mechanical properties :
#
#
# Convention : Reuss Voigt Hill
#
# Bulk Modulus (GPa) = 42.33954 46.75514 44.54734
# Shear Modulus (GPa) = 30.77122 33.95966 32.36544
#
# Velocity S-wave (km/s) = 3.62550 3.80870 3.71823
# Velocity P-wave (km/s) = 5.96753 6.27005 6.12066
#
# Compressibility (1/GPa) = 0.02361858
#
# Stress axis : x y z
#
# Youngs Moduli (GPa) = 67.79599 95.82055 83.89034
#
# Poissons Ratio (x) = 0.29391 0.28432
# Poissons Ratio (y) = 0.20795 0.02413
# Poissons Ratio (z) = 0.22977 0.02756
#
# Static dielectric constant tensor:
#      x y z
#    x 1.943130 0.000000 0.017460 
#    y 0.000000 1.940380 0.000000 
#    z 0.017460 0.000000 1.824030 
# 
# From -- ./inp_files/25420.got.cif
#   From: 2010.05.17/outbox.cif.g08.bks.cpg/sg12_13_cif.got.tgz:25420.got - 2010.06.03 13:09:07.
