data_PCOD9192996
_publ_section_title
;
Structure prediction by ZEFSAII (Michael W. Deem and Ramdas Pophale) SiO2 
 PCOD9192996
Probable space group: C 2/M
;
_chemical_formula_sum "Si O2"
_cell_formula_units_Z 56
_cell_length_a 14.418145
_cell_length_b 9.465520
_cell_length_c 21.023737
_cell_angle_alpha 90.000000
_cell_angle_beta 65.495535
_cell_angle_gamma 90.000000
_cell_volume 2610.785937
_symmetry_space_group_name_H-M "C 2/M"
_symmetry_group_IT_number 12
_symmetry_cell_setting 'monoclinic'
loop_
_space_group_symop_operation_xyz
x,y,z
-x,y,-z
-x,-y,-z
x,-y,z
1/2+x,1/2+y,z
1/2-x,1/2+y,-z
1/2-x,1/2-y,-z
1/2+x,1/2-y,z
loop_
_atom_site_type_symbol
_atom_site_label
_atom_site_fract_x
_atom_site_fract_y
_atom_site_fract_z
Si Si1 0.506462 0.666608 0.925568
Si Si2 0.318646 0.348102 0.522135
Si Si3 0.079495 0.657609 0.416567
Si Si4 0.538712 0.340334 0.634337
Si Si5 0.086008 0.663700 0.159888
Si Si6 0.361747 0.166451 0.288005
Si Si7 0.729977 0.667448 0.799569
O O1 0.481869 0.500000 0.931371
O O2 0.431065 0.746604 0.898964
O O3 0.622819 0.681744 0.867967
O O4 0.500000 0.717233 0.000000
O O5 0.270256 0.500000 0.542037
O O6 0.250000 0.250000 0.500000
O O7 0.345564 0.278184 0.580376
O O8 0.417555 0.361188 0.449356
O O9 0.122326 0.500000 0.398440
O O10 0.000000 0.646240 0.500000
O O11 0.038331 0.712988 0.360689
O O12 0.508036 0.500000 0.664582
O O13 0.622742 0.270946 0.656247
O O14 0.107044 0.500000 0.138104
O O15 0.175837 0.710736 0.182069
O O16 0.976606 0.670905 0.225957
O O17 0.286384 0.236732 0.258058
O O18 0.339912 0.000000 0.305673
O O19 0.741732 0.500000 0.780293
#
# Coordination Sequence:
#
# PCOD9192996 Si02
#       7
#     8   8   8   8   8   8   8
#     4   9  18  32  52  80 111 142 177 217 262 313
#     4  10  20  34  52  75 103 133 166 207 258 316
#     4   9  17  31  52  74  97 128 163 203 251 304
#     4  10  20  35  54  75 100 133 169 209 260 318
#     4   9  19  35  54  76 104 141 180 219 265 312
#     4  10  20  35  54  77 103 135 179 227 266 312
#     4   9  18  35  55  74 105 145 178 217 267 317
#
# _framework density 21.449480000000001
#
# number of rings (size 3 to 8) (size 9 to 14) (size 15 to 20)
#    0.000    2.571    0.000    1.714    0.000    5.429 
#    2.571    0.000    0.000    0.000    0.000    0.000 
#    0.000    0.000    0.000    0.000    0.000    0.000 
#
# Total GULP energy -156142.779741 kJ/mol
# GULP energy per Si atom -5576.527848 kJ/mol
# Density = 2.140066 g / cm^3
# Si number density = 21.449480 Si / 1000 Ang^3
#
#
#
# Elastic Constant Matrix: (Units=GPa)
#
#
# Indices 1 2 3 4 5 6 
#
# 1 90.7113 44.7159 36.4352 0.0000 46.4719 0.0000
# 2 44.7159 138.5029 51.4063 0.0000 30.1584 0.0000
# 3 36.4352 51.4063 121.3294 0.0000 33.9350 0.0000
# 4 0.0000 0.0000 0.0000 22.9069 0.0000 13.5667
# 5 46.4719 30.1584 33.9350 0.0000 40.2715 0.0000
# 6 0.0000 0.0000 0.0000 13.5667 0.0000 31.1185
#
#
#
# Elastic Compliance Matrix: (Units=1/GPa)
#
#
# Indices 1 2 3 4 5 6 
#
# 1 0.027813 -0.002734 0.001583 0.000000 -0.031382 0.000000
# 2 -0.002734 0.009474 -0.002736 0.000000 -0.001635 0.000000
# 3 0.001583 -0.002736 0.011597 0.000000 -0.009551 0.000000
# 4 0.000000 0.000000 0.000000 0.058851 0.000000 -0.025657
# 5 -0.031382 -0.001635 -0.009551 0.000000 0.070317 0.000000
# 6 0.000000 0.000000 0.000000 -0.025657 0.000000 0.043321
#
#
# Mechanical properties :
#
#
# Convention : Reuss Voigt Hill
#
# Bulk Modulus (GPa) = 24.32422 68.40648 46.36535
# Shear Modulus (GPa) = 20.58892 33.39178 26.99035
#
# Velocity S-wave (km/s) = 3.10155 3.94987 3.55113
# Velocity P-wave (km/s) = 4.91844 7.26382 6.20299
#
# Compressibility (1/GPa) = 0.04111129
#
# Stress axis : x y z
#
# Youngs Moduli (GPa) = 35.95471 105.55092 86.22964
#
# Poissons Ratio (x) = 0.28856 -0.13654
# Poissons Ratio (y) = 0.09829 0.23592
# Poissons Ratio (z) = -0.05693 0.28878
#
# Static dielectric constant tensor:
#      x y z
#    x 1.894060 0.000000 -0.095810 
#    y 0.000000 1.805380 0.000000 
#    z -0.095810 0.000000 1.809160 
# 
# From -- ./inp_files/309044.got.cif
#   From: 2010.05.17/outbox.cif.g08.bks.cpg/sg12_155_cif.got.tgz:309044.got - 2010.06.03 13:09:07.
