data_PCOD9192265
_publ_section_title
;
Structure prediction by ZEFSAII (Michael W. Deem and Ramdas Pophale) SiO2 
 PCOD9192265
Probable space group: C 2/M
;
_chemical_formula_sum "Si O2"
_cell_formula_units_Z 56
_cell_length_a 19.515174
_cell_length_b 8.666590
_cell_length_c 20.098821
_cell_angle_alpha 90.000000
_cell_angle_beta 121.880999
_cell_angle_gamma 90.000000
_cell_volume 2886.516760
_symmetry_space_group_name_H-M "C 2/M"
_symmetry_group_IT_number 12
_symmetry_cell_setting 'monoclinic'
loop_
_space_group_symop_operation_xyz
x,y,z
-x,y,-z
-x,-y,-z
x,-y,z
1/2+x,1/2+y,z
1/2-x,1/2+y,-z
1/2-x,1/2-y,-z
1/2+x,1/2-y,z
loop_
_atom_site_type_symbol
_atom_site_label
_atom_site_fract_x
_atom_site_fract_y
_atom_site_fract_z
Si Si1 0.805542 0.813681 0.730669
Si Si2 0.751953 0.681310 0.926837
Si Si3 0.166191 0.313132 0.757974
Si Si4 0.010945 0.317980 0.324472
Si Si5 0.316912 0.684299 0.583324
Si Si6 0.920696 0.183142 0.001241
Si Si7 0.986327 0.183003 0.818858
O O1 0.734583 0.756317 0.741763
O O2 0.801390 0.761723 0.651665
O O3 0.896806 0.781251 0.801417
O O4 0.798315 0.000000 0.726397
O O5 0.738643 0.500000 0.923991
O O6 0.688974 0.753542 0.842853
O O7 0.750000 0.750000 0.000000
O O8 0.840906 0.722644 0.944887
O O9 0.167885 0.500000 0.760789
O O10 0.075512 0.266729 0.691087
O O11 0.020284 0.500000 0.339967
O O12 0.092570 0.235622 0.389354
O O13 0.003509 0.281237 0.242048
O O14 0.313340 0.500000 0.581483
O O15 0.250000 0.750000 0.500000
O O16 0.946560 0.206561 0.091121
O O17 0.904482 0.000000 0.982267
O O18 0.000000 0.223246 0.000000
O O19 0.985973 0.000000 0.800828
#
# Coordination Sequence:
#
# PCOD9192265 Si02
#       7
#     8   8   8   8   8   8   8
#     4   8  16  33  57  81 104 137 179 218 261 315
#     4  12  25  38  53  76 109 149 192 238 286 332
#     4  10  20  37  58  79 106 141 184 229 272 325
#     4  10  20  33  54  81 106 135 171 214 264 318
#     4  10  20  37  61  85 111 141 174 213 256 313
#     4  10  20  35  55  77 104 141 184 231 284 337
#     4   9  17  31  52  74  99 136 180 222 263 316
#
# _framework density 19.400545999999999
#
# number of rings (size 3 to 8) (size 9 to 14) (size 15 to 20)
#    0.000    2.143    0.000    4.714    0.000    6.571 
#    0.000    7.143    0.000    4.286    0.000    0.000 
#    0.000    0.000    0.000    0.000    0.000    0.000 
#
# Total GULP energy -156335.455104 kJ/mol
# GULP energy per Si atom -5583.409111 kJ/mol
# Density = 1.935639 g / cm^3
# Si number density = 19.400546 Si / 1000 Ang^3
#
#
#
# Elastic Constant Matrix: (Units=GPa)
#
#
# Indices 1 2 3 4 5 6 
#
# 1 105.5295 20.3381 30.0987 0.0000 20.8521 0.0000
# 2 20.3381 30.9139 22.4018 0.0000 11.9979 0.0000
# 3 30.0987 22.4018 80.1555 0.0000 25.5592 0.0000
# 4 0.0000 0.0000 0.0000 27.7742 0.0000 5.1293
# 5 20.8521 11.9979 25.5592 0.0000 27.2912 0.0000
# 6 0.0000 0.0000 0.0000 5.1293 0.0000 22.8713
#
#
#
# Elastic Compliance Matrix: (Units=1/GPa)
#
#
# Indices 1 2 3 4 5 6 
#
# 1 0.011891 -0.004606 -0.001321 0.000000 -0.005824 0.000000
# 2 -0.004606 0.044479 -0.007968 0.000000 -0.008573 0.000000
# 3 -0.001321 -0.007968 0.019619 0.000000 -0.013861 0.000000
# 4 0.000000 0.000000 0.000000 0.037560 0.000000 -0.008424
# 5 -0.005824 -0.008573 -0.013861 0.000000 0.057842 0.000000
# 6 0.000000 0.000000 0.000000 -0.008424 0.000000 0.045612
#
#
# Mechanical properties :
#
#
# Convention : Reuss Voigt Hill
#
# Bulk Modulus (GPa) = 20.74700 40.25291 30.49995
# Shear Modulus (GPa) = 19.16743 25.17134 22.16939
#
# Velocity S-wave (km/s) = 3.14663 3.60593 3.38408
# Velocity P-wave (km/s) = 4.89070 6.17498 5.56998
#
# Compressibility (1/GPa) = 0.04819974
#
# Stress axis : x y z
#
# Youngs Moduli (GPa) = 84.09625 22.48242 50.97198
#
# Poissons Ratio (x) = 0.10355 0.06733
# Poissons Ratio (y) = 0.38732 0.40614
# Poissons Ratio (z) = 0.11109 0.17914
#
# Static dielectric constant tensor:
#      x y z
#    x 1.731930 0.000000 -0.002490 
#    y 0.000000 1.661190 0.000000 
#    z -0.002490 0.000000 1.657850 
# 
# From -- ./inp_files/319341.got.cif
#   From: 2010.05.17/outbox.cif.g08.bks.cpg/sg12_160_cif.got.tgz:319341.got - 2010.06.03 13:09:07.
