data_PCOD9192207
_publ_section_title
;
Structure prediction by ZEFSAII (Michael W. Deem and Ramdas Pophale) SiO2 
 PCOD9192207
Probable space group: C 2/M
;
_chemical_formula_sum "Si O2"
_cell_formula_units_Z 56
_cell_length_a 24.937301
_cell_length_b 25.974202
_cell_length_c 15.523103
_cell_angle_alpha 90.000000
_cell_angle_beta 161.890741
_cell_angle_gamma 90.000000
_cell_volume 3125.310486
_symmetry_space_group_name_H-M "C 2/M"
_symmetry_group_IT_number 12
_symmetry_cell_setting 'monoclinic'
loop_
_space_group_symop_operation_xyz
x,y,z
-x,y,-z
-x,-y,-z
x,-y,z
1/2+x,1/2+y,z
1/2-x,1/2+y,-z
1/2-x,1/2-y,-z
1/2+x,1/2-y,z
loop_
_atom_site_type_symbol
_atom_site_label
_atom_site_fract_x
_atom_site_fract_y
_atom_site_fract_z
Si Si1 0.854459 0.557254 0.708925
Si Si2 0.076323 0.625892 0.346324
Si Si3 0.963710 0.125865 0.733738
Si Si4 0.356468 0.706898 0.712979
Si Si5 0.288136 0.206459 0.933715
Si Si6 0.996951 0.793541 0.351335
Si Si7 0.645095 0.561216 0.145129
O O1 0.792384 0.500000 0.584639
O O2 0.931842 0.591818 0.751665
O O3 0.707534 0.591692 0.527274
O O4 0.000000 0.549998 0.000000
O O5 0.217836 0.670937 0.549176
O O6 0.170463 0.586222 0.553085
O O7 0.898121 0.654120 0.094107
O O8 0.944528 0.170892 0.775733
O O9 0.993860 0.154120 0.689874
O O10 0.095037 0.086278 0.977834
O O11 0.250000 0.750000 0.500000
O O12 0.500000 0.726009 0.000000
O O13 0.179695 0.217576 0.679674
O O14 0.145000 0.202441 0.790003
O O15 0.423357 0.250004 0.173324
O O16 0.650258 0.500000 0.150209
O O17 0.500000 0.574676 0.000000
#
# Coordination Sequence:
#
# PCOD9192207 Si02
#       7
#     8   8   8   8   8   8   8
#     4  10  20  33  53  83 114 146 188 236 289 350
#     4  11  20  35  57  80 114 149 196 235 297 344
#     4  11  20  35  57  80 114 149 196 235 297 344
#     4  11  22  34  49  79 118 152 185 229 286 350
#     4  10  23  41  61  85 116 157 201 244 292 348
#     4  10  23  41  61  85 116 157 201 244 292 348
#     4  11  20  36  61  87 119 155 198 245 295 356
#
# _framework density 17.918219000000001
#
# number of rings (size 3 to 8) (size 9 to 14) (size 15 to 20)
#    0.000    1.429    4.286    2.571    2.000    5.714 
#    0.000    0.000    0.000    4.286    0.000   10.000 
#    0.000    0.000    0.000    0.000    0.000    0.000 
#
# Total GULP energy -156051.557714 kJ/mol
# GULP energy per Si atom -5573.269918 kJ/mol
# Density = 1.787744 g / cm^3
# Si number density = 17.918219 Si / 1000 Ang^3
#
#
#
# Elastic Constant Matrix: (Units=GPa)
#
#
# Indices 1 2 3 4 5 6 
#
# 1 44.7294 39.9725 43.6965 0.0000 -11.2856 0.0000
# 2 39.9725 129.7614 63.1924 0.0000 -13.0759 0.0000
# 3 43.6965 63.1924 126.9316 -0.0001 -36.1608 0.0000
# 4 0.0000 0.0000 -0.0001 40.0610 0.0000 -7.3734
# 5 -11.2856 -13.0759 -36.1608 0.0000 24.8443 0.0000
# 6 0.0000 0.0000 0.0000 -7.3734 0.0000 27.4073
#
#
#
# Elastic Compliance Matrix: (Units=1/GPa)
#
#
# Indices 1 2 3 4 5 6 
#
# 1 0.038014 -0.007012 -0.009785 0.000000 -0.000664 0.000000
# 2 -0.007012 0.011642 -0.004346 0.000000 -0.003383 0.000000
# 3 -0.009785 -0.004346 0.019633 0.000000 0.021844 0.000000
# 4 0.000000 0.000000 0.000000 0.026262 0.000000 0.007065
# 5 -0.000664 -0.003383 0.021844 0.000000 0.069962 0.000000
# 6 0.000000 0.000000 0.000000 0.007065 0.000000 0.038387
#
#
# Mechanical properties :
#
#
# Convention : Reuss Voigt Hill
#
# Bulk Modulus (GPa) = 37.03127 66.12724 51.57925
# Shear Modulus (GPa) = 19.59340 28.76660 24.18000
#
# Velocity S-wave (km/s) = 3.31038 4.01114 3.67749
# Velocity P-wave (km/s) = 5.94333 7.64444 6.84692
#
# Compressibility (1/GPa) = 0.02700421
#
# Stress axis : x y z
#
# Youngs Moduli (GPa) = 26.30601 85.89661 50.93390
#
# Poissons Ratio (x) = 0.60230 0.49838
# Poissons Ratio (y) = 0.18446 0.22135
# Poissons Ratio (z) = 0.25740 0.37329
#
# Static dielectric constant tensor:
#      x y z
#    x 1.593920 0.000000 0.031590 
#    y 0.000000 1.609640 0.000000 
#    z 0.031590 0.000000 1.541180 
# 
# From -- ./inp_files/242171.got.cif
#   From: 2010.05.17/outbox.cif.g08.bks.cpg/sg12_122_cif.got.tgz:242171.got - 2010.06.03 13:09:07.
