data_PCOD9192816
_publ_section_title
;
Structure prediction by ZEFSAII (Michael W. Deem and Ramdas Pophale) SiO2 
 PCOD9192816
Probable space group: C 2/M
;
_chemical_formula_sum "Si O2"
_cell_formula_units_Z 64
_cell_length_a 28.679770
_cell_length_b 9.196428
_cell_length_c 14.104182
_cell_angle_alpha 90.000000
_cell_angle_beta 72.204761
_cell_angle_gamma 90.000000
_cell_volume 3542.014215
_symmetry_space_group_name_H-M "C 2/M"
_symmetry_group_IT_number 12
_symmetry_cell_setting 'monoclinic'
loop_
_space_group_symop_operation_xyz
x,y,z
-x,y,-z
-x,-y,-z
x,-y,z
1/2+x,1/2+y,z
1/2-x,1/2+y,-z
1/2-x,1/2-y,-z
1/2+x,1/2-y,z
loop_
_atom_site_type_symbol
_atom_site_label
_atom_site_fract_x
_atom_site_fract_y
_atom_site_fract_z
Si Si1 0.207677 0.827246 0.350355
Si Si2 0.946384 0.671066 0.504461
Si Si3 0.131014 0.670728 0.276286
Si Si4 0.688244 0.674419 0.721988
Si Si5 0.427926 0.828060 0.873754
Si Si6 0.886186 0.671463 0.110441
Si Si7 0.479144 0.665384 0.120931
Si Si8 0.368890 0.672612 0.432433
O O1 0.176349 0.767436 0.281397
O O2 0.258616 0.743336 0.325730
O O3 0.173469 0.797681 0.463200
O O4 0.215578 0.000000 0.339203
O O5 0.951243 0.500000 0.478799
O O6 0.911141 0.685472 0.617734
O O7 0.918045 0.748729 0.436448
O O8 0.000000 0.727314 0.500000
O O9 0.145205 0.500000 0.264866
O O10 0.107401 0.711194 0.190697
O O11 0.691333 0.500000 0.725089
O O12 0.662025 0.741796 0.829923
O O13 0.653521 0.714523 0.654548
O O14 0.477834 0.736395 0.844377
O O15 0.439924 0.000000 0.857840
O O16 0.401150 0.807644 0.991342
O O17 0.880512 0.500000 0.131135
O O18 0.931078 0.736547 0.143636
O O19 0.467564 0.500000 0.156826
O O20 0.500000 0.661190 0.000000
O O21 0.377671 0.500000 0.426876
#
# Coordination Sequence:
#
# PCOD9192816 Si02
#       8
#     8   8   8   8   8   8   8   8
#     4  10  20  36  56  78 102 130 168 210 255 309
#     4   9  18  32  51  78 110 139 168 204 247 298
#     4   9  18  34  54  75 102 137 174 211 253 301
#     4  11  22  36  54  77 104 133 167 211 264 311
#     4   9  18  33  53  75 102 139 179 214 251 300
#     4  10  20  34  51  74 104 136 174 218 258 299
#     4   9  17  30  49  73 102 135 170 209 253 300
#     4   9  20  36  54  77 104 134 168 206 251 307
#
# _framework density 18.068816000000002
#
# number of rings (size 3 to 8) (size 9 to 14) (size 15 to 20)
#    0.000    2.500    0.000    1.875    0.000    5.250 
#    0.000    1.875    0.000    0.000    0.000    0.000 
#    0.000    0.000    0.000    0.000    0.000    0.000 
#
# Total GULP energy -178572.794342 kJ/mol
# GULP energy per Si atom -5580.399823 kJ/mol
# Density = 1.802769 g / cm^3
# Si number density = 18.068816 Si / 1000 Ang^3
#
#
#
# Elastic Constant Matrix: (Units=GPa)
#
#
# Indices 1 2 3 4 5 6 
#
# 1 103.2490 45.0138 24.3686 0.0000 7.1436 0.0000
# 2 45.0138 60.4087 26.4173 0.0000 2.6708 0.0000
# 3 24.3686 26.4173 26.4497 0.0000 12.8420 0.0000
# 4 0.0000 0.0000 0.0000 18.2781 0.0000 -0.2777
# 5 7.1436 2.6708 12.8420 0.0000 26.1786 0.0000
# 6 0.0000 0.0000 0.0000 -0.2777 0.0000 35.4529
#
#
#
# Elastic Compliance Matrix: (Units=1/GPa)
#
#
# Indices 1 2 3 4 5 6 
#
# 1 0.014683 -0.009307 -0.003607 0.000000 -0.001288 0.000000
# 2 -0.009307 0.040558 -0.040899 0.000000 0.018465 0.000000
# 3 -0.003607 -0.040899 0.104323 0.000000 -0.046019 0.000000
# 4 0.000000 0.000000 0.000000 0.054717 0.000000 0.000429
# 5 -0.001288 0.018465 -0.046019 0.000000 0.059241 0.000000
# 6 0.000000 0.000000 0.000000 0.000429 0.000000 0.028210
#
#
# Mechanical properties :
#
#
# Convention : Reuss Voigt Hill
#
# Bulk Modulus (GPa) = 19.25356 42.41185 30.83271
# Shear Modulus (GPa) = 11.71860 22.26910 16.99385
#
# Velocity S-wave (km/s) = 2.54944 3.51445 3.07010
# Velocity P-wave (km/s) = 4.39829 6.32391 5.44687
#
# Compressibility (1/GPa) = 0.05193845
#
# Stress axis : x y z
#
# Youngs Moduli (GPa) = 68.10415 24.65600 9.58558
#
# Poissons Ratio (x) = 0.22947 0.03458
# Poissons Ratio (y) = 0.63384 0.39204
# Poissons Ratio (z) = 0.24568 1.00840
#
# Static dielectric constant tensor:
#      x y z
#    x 1.594900 0.000000 -0.003430 
#    y 0.000000 1.606070 0.000000 
#    z -0.003430 0.000000 1.632670 
# 
# From -- ./inp_files/243875.got.cif
#   From: 2010.05.17/outbox.cif.g08.bks.cpg/sg12_122_cif.got.tgz:243875.got - 2010.06.03 13:09:07.
