data_PCOD9192084
_publ_section_title
;
Structure prediction by ZEFSAII (Michael W. Deem and Ramdas Pophale) SiO2 
 PCOD9192084
Probable space group: C 2/M
;
_chemical_formula_sum "Si O2"
_cell_formula_units_Z 56
_cell_length_a 13.504783
_cell_length_b 21.726794
_cell_length_c 11.723351
_cell_angle_alpha 90.000000
_cell_angle_beta 118.379665
_cell_angle_gamma 90.000000
_cell_volume 3026.408398
_symmetry_space_group_name_H-M "C 2/M"
_symmetry_group_IT_number 12
_symmetry_cell_setting 'monoclinic'
loop_
_space_group_symop_operation_xyz
x,y,z
-x,y,-z
-x,-y,-z
x,-y,z
1/2+x,1/2+y,z
1/2-x,1/2+y,-z
1/2-x,1/2-y,-z
1/2+x,1/2-y,z
loop_
_atom_site_type_symbol
_atom_site_label
_atom_site_fract_x
_atom_site_fract_y
_atom_site_fract_z
Si Si1 0.380848 0.930985 0.871060
Si Si2 0.017442 0.653882 0.264074
Si Si3 0.777928 0.833892 0.139097
Si Si4 0.411305 0.740906 0.046827
Si Si5 0.133803 0.793756 0.574262
Si Si6 0.716762 0.169303 0.547519
Si Si7 0.613303 0.070681 0.640318
O O1 0.406626 0.887608 0.777881
O O2 0.290381 0.897263 0.900878
O O3 0.347806 0.000000 0.820345
O O4 0.500000 0.933215 0.000000
O O5 0.103322 0.674743 0.408811
O O6 0.964899 0.710819 0.166969
O O7 0.922397 0.611093 0.269768
O O8 0.866154 0.818029 0.089279
O O9 0.834407 0.829616 0.293776
O O10 0.686848 0.779352 0.070048
O O11 0.500000 0.724180 0.000000
O O12 0.179915 0.825831 0.483786
O O13 0.204444 0.729934 0.617977
O O14 0.000000 0.783772 0.500000
O O15 0.704465 0.108318 0.616307
O O16 0.500000 0.068922 0.500000
O O17 0.642876 0.000000 0.682813
#
# Coordination Sequence:
#
# PCOD9192084 Si02
#       7
#     8   8   8   8   8   8   8
#     4  11  21  36  58  84 114 145 183 227 276 339
#     4  11  17  35  54  85 114 140 178 224 284 337
#     4  11  21  36  54  81 114 146 185 228 282 333
#     4  11  20  33  56  84 117 143 176 231 286 339
#     4  11  21  35  53  78 105 147 189 229 274 328
#     4  10  20  33  53  77 113 143 179 230 276 326
#     4   9  18  30  49  79 111 143 173 211 270 332
#
# _framework density 18.503782000000001
#
# number of rings (size 3 to 8) (size 9 to 14) (size 15 to 20)
#    0.000    1.429    4.286    3.429    0.000    1.714 
#    0.000    0.000    0.000    2.143    0.000    0.000 
#    0.000    0.000    0.000    0.000    0.000    0.000 
#
# Total GULP energy -156278.483015 kJ/mol
# GULP energy per Si atom -5581.374393 kJ/mol
# Density = 1.846167 g / cm^3
# Si number density = 18.503782 Si / 1000 Ang^3
#
#
#
# Elastic Constant Matrix: (Units=GPa)
#
#
# Indices 1 2 3 4 5 6 
#
# 1 136.9190 45.0932 13.6622 0.0000 -19.6377 0.0000
# 2 45.0932 80.3658 3.6033 0.0000 -12.1666 0.0000
# 3 13.6622 3.6033 34.1554 0.0000 -2.5652 0.0000
# 4 0.0000 0.0000 0.0000 6.3467 0.0000 -10.7442
# 5 -19.6377 -12.1666 -2.5652 0.0000 15.4103 0.0000
# 6 0.0000 0.0000 0.0000 -10.7442 0.0000 58.3151
#
#
#
# Elastic Compliance Matrix: (Units=1/GPa)
#
#
# Indices 1 2 3 4 5 6 
#
# 1 0.010340 -0.004257 -0.002987 0.000000 0.009318 0.000000
# 2 -0.004257 0.015900 0.000568 0.000000 0.007222 0.000000
# 3 -0.002987 0.000568 0.030543 0.000000 0.001726 0.000000
# 4 0.000000 0.000000 0.000000 0.228983 0.000000 0.042189
# 5 0.009318 0.007222 0.001726 0.000000 0.082756 0.000000
# 6 0.000000 0.000000 0.000000 0.042189 0.000000 0.024921
#
#
# Mechanical properties :
#
#
# Convention : Reuss Voigt Hill
#
# Bulk Modulus (GPa) = 23.02572 41.79528 32.41050
# Shear Modulus (GPa) = 11.86881 28.61985 20.24433
#
# Velocity S-wave (km/s) = 2.53539 3.93708 3.31125
# Velocity P-wave (km/s) = 4.58713 6.58057 5.67211
#
# Compressibility (1/GPa) = 0.04342970
#
# Stress axis : x y z
#
# Youngs Moduli (GPa) = 96.70935 62.89390 32.74122
#
# Poissons Ratio (x) = 0.26776 0.09780
# Poissons Ratio (y) = 0.41172 -0.01860
# Poissons Ratio (z) = 0.28889 -0.03572
#
# Static dielectric constant tensor:
#      x y z
#    x 1.671480 0.000000 -0.019020 
#    y 0.000000 1.633720 0.000000 
#    z -0.019020 0.000000 1.680180 
# 
# From -- ./inp_files/135505.got.cif
#   From: 2010.05.17/outbox.cif.g08.bks.cpg/sg12_68_cif.got.tgz:135505.got - 2010.06.03 13:09:07.
