data_PCOD9192711
_publ_section_title
;
Structure prediction by ZEFSAII (Michael W. Deem and Ramdas Pophale) SiO2 
 PCOD9192711
Probable space group: C 2/M
;
_chemical_formula_sum "Si O2"
_cell_formula_units_Z 56
_cell_length_a 21.564639
_cell_length_b 25.420363
_cell_length_c 8.413885
_cell_angle_alpha 90.000000
_cell_angle_beta 141.310731
_cell_angle_gamma 90.000000
_cell_volume 2883.152164
_symmetry_space_group_name_H-M "C 2/M"
_symmetry_group_IT_number 12
_symmetry_cell_setting 'monoclinic'
loop_
_space_group_symop_operation_xyz
x,y,z
-x,y,-z
-x,-y,-z
x,-y,z
1/2+x,1/2+y,z
1/2-x,1/2+y,-z
1/2-x,1/2-y,-z
1/2+x,1/2-y,z
loop_
_atom_site_type_symbol
_atom_site_label
_atom_site_fract_x
_atom_site_fract_y
_atom_site_fract_z
Si Si1 0.136695 0.104075 0.102257
Si Si2 0.437618 0.613531 0.518274
Si Si3 0.162598 0.717688 0.021831
Si Si4 0.046620 0.705720 0.249966
Si Si5 0.119225 0.000000 0.252009
Si Si6 0.661492 0.312883 0.430789
Si Si7 0.726729 0.172384 0.822327
Si Si8 0.399232 0.500000 0.409004
O O1 0.142104 0.151894 0.238549
O O2 0.208928 0.122661 0.105423
O O3 0.161581 0.051290 0.248217
O O4 0.025323 0.095457 0.814166
O O5 0.500000 0.638547 0.500000
O O6 0.374098 0.654722 0.486744
O O7 0.377495 0.562388 0.338414
O O8 0.224531 0.700321 0.302297
O O9 0.204551 0.775741 0.066609
O O10 0.188536 0.679592 0.925726
O O11 0.046467 0.717980 0.822981
O O12 0.097208 0.760283 0.296978
O O13 0.131943 0.675928 0.516600
O O14 0.000000 0.679149 0.000000
O O15 0.130250 0.000000 0.462771
O O16 0.000000 0.000000 0.000000
O O17 0.500000 0.500000 0.500000
#
# Coordination Sequence:
#
# PCOD9192711 Si02
#       8
#     8   8   8   8   4   8   8   4
#     4  12  21  35  54  79 111 145 183 226 269 327
#     4  11  20  31  49  74 109 145 177 218 265 319
#     4  10  21  37  53  78 111 143 183 226 270 324
#     4  11  21  35  54  77 107 143 179 226 270 320
#     4  12  20  36  54  80 111 146 181 226 275 325
#     4  11  21  32  53  79 106 141 183 218 266 325
#     4  10  22  36  54  79 109 145 184 222 272 329
#     4  10  20  34  50  76 109 145 183 219 270 329
#
# _framework density 19.423186000000001
#
# number of rings (size 3 to 8) (size 9 to 14) (size 15 to 20)
#    0.000    1.143    2.857    5.143    0.000    4.571 
#    0.000    0.000    0.000    0.000    0.000    7.500 
#    0.000    0.000    0.000    0.000    0.000    0.000 
#
# Total GULP energy -156196.256604 kJ/mol
# GULP energy per Si atom -5578.437736 kJ/mol
# Density = 1.937898 g / cm^3
# Si number density = 19.423186 Si / 1000 Ang^3
#
#
#
# Elastic Constant Matrix: (Units=GPa)
#
#
# Indices 1 2 3 4 5 6 
#
# 1 110.2239 48.2844 26.5414 0.0000 -0.1414 0.0000
# 2 48.2844 63.0068 30.7051 0.0000 0.0728 0.0000
# 3 26.5414 30.7051 96.9230 0.0000 1.3373 0.0000
# 4 0.0000 0.0000 0.0000 7.7619 0.0000 3.9830
# 5 -0.1414 0.0728 1.3373 0.0000 32.5390 0.0000
# 6 0.0000 0.0000 0.0000 3.9830 0.0000 30.5966
#
#
#
# Elastic Compliance Matrix: (Units=1/GPa)
#
#
# Indices 1 2 3 4 5 6 
#
# 1 0.013678 -0.010236 -0.000504 0.000000 0.000103 0.000000
# 2 -0.010236 0.026431 -0.005572 0.000000 0.000125 0.000000
# 3 -0.000504 -0.005572 0.012227 0.000000 -0.000492 0.000000
# 4 0.000000 0.000000 0.000000 0.138056 0.000000 -0.017972
# 5 0.000103 0.000125 -0.000492 0.000000 0.030753 0.000000
# 6 0.000000 0.000000 0.000000 -0.017972 0.000000 0.035023
#
#
# Mechanical properties :
#
#
# Convention : Reuss Voigt Hill
#
# Bulk Modulus (GPa) = 50.73140 53.46838 52.09989
# Shear Modulus (GPa) = 16.92826 25.15435 21.04131
#
# Velocity S-wave (km/s) = 2.95540 3.60261 3.29494
# Velocity P-wave (km/s) = 6.14992 6.70022 6.43096
#
# Compressibility (1/GPa) = 0.01971166
#
# Stress axis : x y z
#
# Youngs Moduli (GPa) = 73.10934 37.83416 81.78289
#
# Poissons Ratio (x) = 0.38729 0.04123
# Poissons Ratio (y) = 0.74838 0.45569
# Poissons Ratio (z) = 0.03686 0.21081
#
# Static dielectric constant tensor:
#      x y z
#    x 1.725940 0.000000 -0.056720 
#    y 0.000000 1.680230 0.000000 
#    z -0.056720 0.000000 1.730540 
# 
# From -- ./inp_files/80146.got.cif
#   From: 2010.05.17/outbox.cif.g08.bks.cpg/sg12_41_cif.got.tgz:80146.got - 2010.06.03 13:09:07.
