data_PCOD9192870
_publ_section_title
;
Structure prediction by ZEFSAII (Michael W. Deem and Ramdas Pophale) SiO2 
 PCOD9192870
Probable space group: C 2/M
;
_chemical_formula_sum "Si O2"
_cell_formula_units_Z 48
_cell_length_a 15.537189
_cell_length_b 20.196402
_cell_length_c 14.645912
_cell_angle_alpha 90.000000
_cell_angle_beta 143.620071
_cell_angle_gamma 90.000000
_cell_volume 2725.949542
_symmetry_space_group_name_H-M "C 2/M"
_symmetry_group_IT_number 12
_symmetry_cell_setting 'monoclinic'
loop_
_space_group_symop_operation_xyz
x,y,z
-x,y,-z
-x,-y,-z
x,-y,z
1/2+x,1/2+y,z
1/2-x,1/2+y,-z
1/2-x,1/2-y,-z
1/2+x,1/2-y,z
loop_
_atom_site_type_symbol
_atom_site_label
_atom_site_fract_x
_atom_site_fract_y
_atom_site_fract_z
Si Si1 0.500000 0.259883 0.000000
Si Si2 0.136077 0.696858 0.436903
Si Si3 0.161573 0.925479 0.344465
Si Si4 0.330957 0.577927 0.054664
Si Si5 0.869463 0.304197 0.069217
Si Si6 0.212971 0.880354 0.191819
Si Si7 0.500000 0.822558 0.500000
O O1 0.440792 0.217973 0.034566
O O2 0.629863 0.310654 0.135709
O O3 0.250000 0.750000 0.500000
O O4 0.221236 0.627381 0.521329
O O5 0.080621 0.716964 0.490114
O O6 0.999436 0.692681 0.253242
O O7 0.167719 0.924329 0.239081
O O8 0.995856 0.906444 0.226461
O O9 0.190676 0.000000 0.401354
O O10 0.304682 0.500000 0.046778
O O11 0.216423 0.626414 0.004589
O O12 0.322290 0.592905 0.938344
O O13 0.750000 0.250000 0.000000
O O14 0.383264 0.867328 0.347812
#
# Coordination Sequence:
#
# PCOD9192870 Si02
#       7
#     4   8   8   8   8   8   4
#     4  12  22  36  64  84 118 156 204 250 294 340
#     4  11  22  36  57  83 118 155 193 239 294 350
#     4  10  21  36  57  86 120 153 190 240 301 364
#     4  11  21  36  58  84 117 158 197 240 294 355
#     4  12  22  39  59  87 117 156 203 248 293 352
#     4  11  18  35  55  86 116 151 191 239 300 354
#     4  10  20  34  51  86 117 146 186 234 292 352
#
# _framework density 17.608543000000001
#
# number of rings (size 3 to 8) (size 9 to 14) (size 15 to 20)
#    0.000    1.000    5.000    3.500    0.000    2.000 
#    0.000    2.500    0.000    0.000    0.000    2.917 
#    0.000    0.000    0.000    0.000    0.000    0.000 
#
# Total GULP energy -133967.973216 kJ/mol
# GULP energy per Si atom -5581.998884 kJ/mol
# Density = 1.756847 g / cm^3
# Si number density = 17.608543 Si / 1000 Ang^3
#
#
#
# Elastic Constant Matrix: (Units=GPa)
#
#
# Indices 1 2 3 4 5 6 
#
# 1 113.4917 64.8296 46.9797 0.0000 5.5295 0.0000
# 2 64.8296 102.2600 54.6642 0.0000 9.8890 0.0000
# 3 46.9797 54.6642 118.7116 0.0000 17.3254 0.0000
# 4 0.0000 0.0000 0.0000 20.8152 0.0000 2.2685
# 5 5.5295 9.8890 17.3254 0.0000 24.8017 0.0000
# 6 0.0000 0.0000 0.0000 2.2685 0.0000 27.0215
#
#
#
# Elastic Compliance Matrix: (Units=1/GPa)
#
#
# Indices 1 2 3 4 5 6 
#
# 1 0.014197 -0.007993 -0.002161 0.000000 0.001532 0.000000
# 2 -0.007993 0.017500 -0.004606 0.000000 -0.001978 0.000000
# 3 -0.002161 -0.004606 0.012318 0.000000 -0.006286 0.000000
# 4 0.000000 0.000000 0.000000 0.048485 0.000000 -0.004070
# 5 0.001532 -0.001978 -0.006286 0.000000 0.045158 0.000000
# 6 0.000000 0.000000 0.000000 -0.004070 0.000000 0.037349
#
#
# Mechanical properties :
#
#
# Convention : Reuss Voigt Hill
#
# Bulk Modulus (GPa) = 68.99925 74.15669 71.57797
# Shear Modulus (GPa) = 23.88217 25.72702 24.80459
#
# Velocity S-wave (km/s) = 3.68677 3.82652 3.75729
# Velocity P-wave (km/s) = 7.57583 7.85675 7.71757
#
# Compressibility (1/GPa) = 0.01449291
#
# Stress axis : x y z
#
# Youngs Moduli (GPa) = 70.43587 57.14197 81.18393
#
# Poissons Ratio (x) = 0.45676 0.17546
# Poissons Ratio (y) = 0.56302 0.37397
# Poissons Ratio (z) = 0.15223 0.26322
#
# Static dielectric constant tensor:
#      x y z
#    x 1.612320 0.000000 0.012980 
#    y 0.000000 1.594210 0.000000 
#    z 0.012980 0.000000 1.623360 
# 
# From -- ./inp_files/216541.got.cif
#   From: 2010.05.17/outbox.cif.g08.bks.cpg/sg12_109_cif.got.tgz:216541.got - 2010.06.03 13:09:07.
