data_PCOD9192298
_publ_section_title
;
Structure prediction by ZEFSAII (Michael W. Deem and Ramdas Pophale) SiO2 
 PCOD9192298
Probable space group: C 2/M
;
_chemical_formula_sum "Si O2"
_cell_formula_units_Z 48
_cell_length_a 13.695453
_cell_length_b 24.227928
_cell_length_c 15.635161
_cell_angle_alpha 90.000000
_cell_angle_beta 158.440647
_cell_angle_gamma 90.000000
_cell_volume 1906.386008
_symmetry_space_group_name_H-M "C 2/M"
_symmetry_group_IT_number 12
_symmetry_cell_setting 'monoclinic'
loop_
_space_group_symop_operation_xyz
x,y,z
-x,y,-z
-x,-y,-z
x,-y,z
1/2+x,1/2+y,z
1/2-x,1/2+y,-z
1/2-x,1/2-y,-z
1/2+x,1/2-y,z
loop_
_atom_site_type_symbol
_atom_site_label
_atom_site_fract_x
_atom_site_fract_y
_atom_site_fract_z
Si Si1 0.212209 0.857262 0.098515
Si Si2 0.165666 0.273295 0.049427
Si Si3 0.943999 0.441630 0.554081
Si Si4 0.956068 0.937300 0.565143
Si Si5 0.173526 0.818608 0.552640
Si Si6 0.328288 0.438943 0.092102
O O1 0.478232 0.879921 0.356818
O O2 0.183142 0.792904 0.061169
O O3 0.000000 0.874345 0.000000
O O4 0.212004 0.892722 0.011738
O O5 0.961156 0.291639 0.807287
O O6 0.467589 0.295374 0.312504
O O7 0.000000 0.288949 0.000000
O O8 0.078346 0.500000 0.695159
O O9 0.643148 0.445693 0.336347
O O10 0.000000 0.443251 0.500000
O O11 0.200211 0.925248 0.830051
O O12 0.000000 0.938459 0.500000
O O13 0.777481 0.883048 0.428050
O O14 0.874083 0.000000 0.518434
O O15 0.000000 0.814158 0.500000
O O16 0.206497 0.500000 0.980456
#
# Coordination Sequence:
#
# PCOD9192298 Si02
#       6
#     8   8   8   8   8   8
#     4  11  21  33  57  86 122 167 208 245 296 372
#     4   9  20  34  60  89 123 164 207 251 308 370
#     4  10  20  33  54  83 121 166 207 251 304 362
#     4   9  19  40  69  92 116 154 204 259 319 376
#     4   9  18  38  61  89 122 159 203 260 316 367
#     4  10  21  37  57  87 123 158 203 259 311 363
#
# _framework density 25.178532000000001
#
# number of rings (size 3 to 8) (size 9 to 14) (size 15 to 20)
#    0.000    2.333    1.667    0.500    2.333    1.333 
#    3.000    2.500    0.000    5.000    0.000    0.000 
#    0.000    0.000    0.000    0.000    0.000    0.000 
#
# Total GULP energy -133647.870338 kJ/mol
# GULP energy per Si atom -5568.661264 kJ/mol
# Density = 2.512122 g / cm^3
# Si number density = 25.178532 Si / 1000 Ang^3
#
#
#
# Elastic Constant Matrix: (Units=GPa)
#
#
# Indices 1 2 3 4 5 6 
#
# 1 123.8825 -6.7282 33.5959 0.0048 -26.2786 0.0001
# 2 -6.7282 173.3477 74.0946 0.0041 -15.4261 0.0030
# 3 33.5959 74.0946 132.4640 0.0268 -18.7369 0.0071
# 4 0.0048 0.0041 0.0268 27.1734 0.0108 -12.7169
# 5 -26.2786 -15.4261 -18.7369 0.0108 41.9348 0.0020
# 6 0.0001 0.0030 0.0071 -12.7169 0.0020 23.3880
#
#
#
# Elastic Compliance Matrix: (Units=1/GPa)
#
#
# Indices 1 2 3 4 5 6 
#
# 1 0.010257 0.002206 -0.003001 -0.000002 0.005898 -0.000001
# 2 0.002206 0.008092 -0.004770 0.000003 0.002227 0.000002
# 3 -0.003001 -0.004770 0.011170 -0.000016 0.001356 -0.000011
# 4 -0.000002 0.000003 -0.000016 0.049361 -0.000021 0.026840
# 5 0.005898 0.002227 0.001356 -0.000021 0.028968 -0.000015
# 6 -0.000001 0.000002 -0.000011 0.026840 -0.000015 0.057351
#
#
# Mechanical properties :
#
#
# Convention : Reuss Voigt Hill
#
# Bulk Modulus (GPa) = 54.38440 70.17989 62.28214
# Shear Modulus (GPa) = 27.40337 40.41469 33.90903
#
# Velocity S-wave (km/s) = 3.30261 4.01075 3.67378
# Velocity P-wave (km/s) = 6.01576 7.02720 6.54106
#
# Compressibility (1/GPa) = 0.01838763
#
# Stress axis : x y z
#
# Youngs Moduli (GPa) = 97.49546 123.58475 89.52183
#
# Poissons Ratio (x) = -0.27258 0.26864
# Poissons Ratio (y) = -0.21504 0.42706
# Poissons Ratio (z) = 0.29257 0.58956
#
# Static dielectric constant tensor:
#      x y z
#    x -2.256220 0.000140 1.799650 
#    y 0.000140 1.951790 -0.000060 
#    z 1.799650 -0.000060 1.289180 
# 
# From -- ./inp_files/21989.got.cif
#   From: 2010.05.17/outbox.cif.g08.bks.cpg/sg12_11_cif.got.tgz:21989.got - 2010.06.03 13:09:07.
