data_PCOD9192341
_publ_section_title
;
Structure prediction by ZEFSAII (Michael W. Deem and Ramdas Pophale) SiO2 
 PCOD9192341
Probable space group: C 2/M
;
_chemical_formula_sum "Si O2"
_cell_formula_units_Z 56
_cell_length_a 14.695836
_cell_length_b 18.360125
_cell_length_c 11.392661
_cell_angle_alpha 90.000000
_cell_angle_beta 66.259990
_cell_angle_gamma 90.000000
_cell_volume 2813.826563
_symmetry_space_group_name_H-M "C 2/M"
_symmetry_group_IT_number 12
_symmetry_cell_setting 'monoclinic'
loop_
_space_group_symop_operation_xyz
x,y,z
-x,y,-z
-x,-y,-z
x,-y,z
1/2+x,1/2+y,z
1/2-x,1/2+y,-z
1/2-x,1/2-y,-z
1/2+x,1/2-y,z
loop_
_atom_site_type_symbol
_atom_site_label
_atom_site_fract_x
_atom_site_fract_y
_atom_site_fract_z
Si Si1 0.618958 0.584806 0.918481
Si Si2 0.262901 0.679395 0.328958
Si Si3 0.841621 0.666880 0.378865
Si Si4 0.170416 0.807383 0.098727
Si Si5 0.567131 0.186544 0.268553
Si Si6 0.740806 0.919633 0.786083
Si Si7 0.430349 0.080574 0.941230
O O1 0.650844 0.500000 0.901898
O O2 0.663482 0.626616 0.781672
O O3 0.500000 0.585657 0.000000
O O4 0.656794 0.631629 0.008338
O O5 0.231059 0.652266 0.474388
O O6 0.312340 0.757872 0.328592
O O7 0.159339 0.688419 0.310266
O O8 0.825164 0.604053 0.291124
O O9 0.953958 0.676356 0.367956
O O10 0.076595 0.757750 0.181063
O O11 0.193268 0.851288 0.207374
O O12 0.250000 0.750000 0.000000
O O13 0.584640 0.119800 0.171765
O O14 0.786755 0.000000 0.743388
O O15 0.670568 0.925429 0.935609
O O16 0.473082 0.000000 0.898258
O O17 0.500000 0.121134 0.000000
#
# Coordination Sequence:
#
# PCOD9192341 Si02
#       7
#     8   8   8   8   8   8   8
#     4  11  24  43  67  95 129 167 210 265 327 384
#     4  11  24  44  62  92 129 169 214 264 318 378
#     4  11  24  41  63  91 127 172 217 259 314 382
#     4  12  21  36  62  94 123 162 212 264 323 371
#     4  12  22  37  66  94 128 167 213 264 317 381
#     4  11  21  37  58  86 126 166 209 258 313 370
#     4  10  20  33  54  87 127 161 199 255 313 372
#
# _framework density 19.901724000000002
#
# number of rings (size 3 to 8) (size 9 to 14) (size 15 to 20)
#    0.000    0.857    5.714    1.714    0.000    2.857 
#    0.000    0.000    0.000    2.571    0.000    5.000 
#    0.000    0.000    0.000    0.000    0.000    0.000 
#
# Total GULP energy -156076.002539 kJ/mol
# GULP energy per Si atom -5574.142948 kJ/mol
# Density = 1.985643 g / cm^3
# Si number density = 19.901724 Si / 1000 Ang^3
#
#
#
# Elastic Constant Matrix: (Units=GPa)
#
#
# Indices 1 2 3 4 5 6 
#
# 1 71.6705 39.2488 15.4640 0.0000 6.7701 0.0000
# 2 39.2488 109.4315 49.1240 0.0000 4.5556 0.0000
# 3 15.4640 49.1240 92.3956 0.0000 -5.5982 0.0000
# 4 0.0000 0.0000 0.0000 -13.0240 0.0000 -12.6071
# 5 6.7701 4.5556 -5.5982 0.0000 25.6182 0.0000
# 6 0.0000 0.0000 0.0000 -12.6071 0.0000 25.2130
#
#
#
# Elastic Compliance Matrix: (Units=1/GPa)
#
#
# Indices 1 2 3 4 5 6 
#
# 1 0.017683 -0.006267 0.000159 0.000000 -0.003524 0.000000
# 2 -0.006267 0.014556 -0.006837 0.000000 -0.002426 0.000000
# 3 0.000159 -0.006837 0.014697 0.000000 0.004386 0.000000
# 4 0.000000 0.000000 0.000000 -0.051739 0.000000 -0.025871
# 5 -0.003524 -0.002426 0.004386 0.000000 0.041356 0.000000
# 6 0.000000 0.000000 0.000000 -0.025871 0.000000 0.026726
#
#
# Mechanical properties :
#
#
# Convention : Reuss Voigt Hill
#
# Bulk Modulus (GPa) = 47.51470 53.46348 50.48909
# Shear Modulus (GPa) = 51.98281 18.87217 35.42749
#
# Velocity S-wave (km/s) = 5.11629 3.08274 4.22373
# Velocity P-wave (km/s) = 7.66997 6.29230 7.01504
#
# Compressibility (1/GPa) = 0.02104612
#
# Stress axis : x y z
#
# Youngs Moduli (GPa) = 56.55057 68.69992 68.03973
#
# Poissons Ratio (x) = 0.43054 -0.01081
# Poissons Ratio (y) = 0.35440 0.46520
# Poissons Ratio (z) = -0.00898 0.46971
#
# Static dielectric constant tensor:
#      x y z
#    x 1.799090 0.000000 -0.009240 
#    y 0.000000 1.758400 0.000000 
#    z -0.009240 0.000000 1.706110 
# 
# From -- ./inp_files/146050.got.cif
#   From: 2010.05.17/outbox.cif.g08.bks.cpg/sg12_74_cif.got.tgz:146050.got - 2010.06.03 13:09:07.
