data_PCOD9192732
_publ_section_title
;
Structure prediction by ZEFSAII (Michael W. Deem and Ramdas Pophale) SiO2 
 PCOD9192732
Probable space group: C 2/M
;
_chemical_formula_sum "Si O2"
_cell_formula_units_Z 64
_cell_length_a 21.053166
_cell_length_b 7.517505
_cell_length_c 20.905743
_cell_angle_alpha 90.000000
_cell_angle_beta 77.684095
_cell_angle_gamma 90.000000
_cell_volume 3232.550112
_symmetry_space_group_name_H-M "C 2/M"
_symmetry_group_IT_number 12
_symmetry_cell_setting 'monoclinic'
loop_
_space_group_symop_operation_xyz
x,y,z
-x,y,-z
-x,-y,-z
x,-y,z
1/2+x,1/2+y,z
1/2-x,1/2+y,-z
1/2-x,1/2-y,-z
1/2+x,1/2-y,z
loop_
_atom_site_type_symbol
_atom_site_label
_atom_site_fract_x
_atom_site_fract_y
_atom_site_fract_z
Si Si1 0.383933 0.217411 0.823147
Si Si2 0.223650 0.787221 0.693892
Si Si3 0.243852 0.713178 0.075921
Si Si4 0.504389 0.217833 0.425940
Si Si5 0.842129 0.786605 0.160147
Si Si6 0.906497 0.712815 0.340021
Si Si7 0.632154 0.216985 0.321861
Si Si8 0.971911 0.287661 0.194388
O O1 0.323403 0.279492 0.878472
O O2 0.375515 0.268824 0.750731
O O3 0.454937 0.277427 0.831346
O O4 0.382882 0.000000 0.824581
O O5 0.194291 0.719320 0.767765
O O6 0.169730 0.749843 0.651935
O O7 0.297105 0.723150 0.668927
O O8 0.227689 0.000000 0.698942
O O9 0.242903 0.500000 0.082942
O O10 0.304298 0.779080 0.105871
O O11 0.250000 0.750000 0.000000
O O12 0.500000 0.276663 0.500000
O O13 0.443976 0.276220 0.394737
O O14 0.570965 0.274781 0.377018
O O15 0.504357 0.000000 0.426525
O O16 0.918060 0.746141 0.152111
O O17 0.836832 0.000000 0.162311
O O18 0.913637 0.500000 0.337641
O O19 0.942311 0.782010 0.267989
O O20 0.631060 0.000000 0.322986
O O21 0.976591 0.500000 0.200363
#
# Coordination Sequence:
#
# PCOD9192732 Si02
#       8
#     8   8   8   8   8   8   8   8
#     4   9  15  28  49  70  90 117 158 199 228 263
#     4   9  16  27  47  70  90 118 157 194 225 269
#     4  10  20  34  51  70  94 124 155 190 233 278
#     4   9  16  26  43  69  98 125 155 193 235 275
#     4   9  17  30  47  68  94 122 151 186 231 278
#     4   9  16  27  44  68  97 122 147 190 240 273
#     4   9  14  25  46  69  90 118 161 199 224 263
#     4   9  16  27  48  73  92 115 152 197 234 265
#
# _framework density 19.798608999999999
#
# number of rings (size 3 to 8) (size 9 to 14) (size 15 to 20)
#    0.000    2.875    2.500    0.000    0.000    0.500 
#    0.000    1.875    0.000    5.625    0.000    0.000 
#    0.000    0.000    0.000    0.000    0.000    0.000 
#
# Total GULP energy -178457.821142 kJ/mol
# GULP energy per Si atom -5576.806911 kJ/mol
# Density = 1.975355 g / cm^3
# Si number density = 19.798609 Si / 1000 Ang^3
#
#
#
# Elastic Constant Matrix: (Units=GPa)
#
#
# Indices 1 2 3 4 5 6 
#
# 1 226.6569 3.6293 113.4541 0.0000 24.6115 0.0000
# 2 3.6293 48.4642 1.3271 0.0000 -0.1243 0.0000
# 3 113.4541 1.3271 140.2787 0.0000 11.9047 0.0000
# 4 0.0000 0.0000 0.0000 5.9263 0.0000 5.4160
# 5 24.6115 -0.1243 11.9047 0.0000 30.7315 0.0000
# 6 0.0000 0.0000 0.0000 5.4160 0.0000 17.4878
#
#
#
# Elastic Compliance Matrix: (Units=1/GPa)
#
#
# Indices 1 2 3 4 5 6 
#
# 1 0.007862 -0.000434 -0.006018 0.000000 -0.003967 0.000000
# 2 -0.000434 0.020664 0.000123 0.000000 0.000384 0.000000
# 3 -0.006018 0.000123 0.011979 0.000000 0.000179 0.000000
# 4 0.000000 0.000000 0.000000 0.235355 0.000000 -0.072890
# 5 -0.003967 0.000384 0.000179 0.000000 0.035649 0.000000
# 6 0.000000 0.000000 0.000000 -0.072890 0.000000 0.079757
#
#
# Mechanical properties :
#
#
# Convention : Reuss Voigt Hill
#
# Bulk Modulus (GPa) = 35.90992 72.46898 54.18945
# Shear Modulus (GPa) = 12.10050 30.62839 21.36445
#
# Velocity S-wave (km/s) = 2.47489 3.93746 3.28851
# Velocity P-wave (km/s) = 5.13261 7.57324 6.46907
#
# Compressibility (1/GPa) = 0.02784746
#
# Stress axis : x y z
#
# Youngs Moduli (GPa) = 127.19666 48.39355 83.47750
#
# Poissons Ratio (x) = 0.02101 0.50234
# Poissons Ratio (y) = 0.05522 -0.01027
# Poissons Ratio (z) = 0.76543 -0.00596
#
# Static dielectric constant tensor:
#      x y z
#    x 1.716090 0.000000 0.015210 
#    y 0.000000 1.773850 0.000000 
#    z 0.015210 0.000000 1.658030 
# 
# From -- ./inp_files/276460.got.cif
#   From: 2010.05.17/outbox.cif.g08.bks.cpg/sg12_139_cif.got.tgz:276460.got - 2010.06.03 13:09:07.
