data_PCOD9192708
_publ_section_title
;
Structure prediction by ZEFSAII (Michael W. Deem and Ramdas Pophale) SiO2 
 PCOD9192708
Probable space group: C 2/M
;
_chemical_formula_sum "Si O2"
_cell_formula_units_Z 40
_cell_length_a 28.713155
_cell_length_b 12.388189
_cell_length_c 5.449922
_cell_angle_alpha 90.000000
_cell_angle_beta 70.949781
_cell_angle_gamma 90.000000
_cell_volume 1832.389666
_symmetry_space_group_name_H-M "C 2/M"
_symmetry_group_IT_number 12
_symmetry_cell_setting 'monoclinic'
loop_
_space_group_symop_operation_xyz
x,y,z
-x,y,-z
-x,-y,-z
x,-y,z
1/2+x,1/2+y,z
1/2-x,1/2+y,-z
1/2-x,1/2-y,-z
1/2+x,1/2-y,z
loop_
_atom_site_type_symbol
_atom_site_label
_atom_site_fract_x
_atom_site_fract_y
_atom_site_fract_z
Si Si1 0.285412 0.810911 0.249929
Si Si2 0.056790 0.672433 0.444961
Si Si3 0.695043 0.386615 0.126866
Si Si4 0.892421 0.667587 0.147769
Si Si5 0.403532 0.623306 0.392878
O O1 0.250000 0.750000 0.500000
O O2 0.248247 0.885239 0.164232
O O3 0.334831 0.860242 0.276522
O O4 0.305897 0.719450 0.032818
O O5 0.077853 0.626605 0.665342
O O6 0.064243 0.802158 0.478713
O O7 0.000000 0.647666 0.500000
O O8 0.087124 0.637268 0.152938
O O9 0.688835 0.500000 0.997549
O O10 0.651308 0.379804 0.398364
O O11 0.899931 0.798419 0.163709
O O12 0.419826 0.500000 0.327222
#
# Coordination Sequence:
#
# PCOD9192708 Si02
#       5
#     8   8   8   8   8
#     4  11  19  34  55  77 110 146 180 229 275 325
#     4  10  20  35  50  71 103 142 185 229 270 318
#     4  10  21  35  53  79 111 150 186 219 272 336
#     4  10  20  34  50  76 100 140 180 227 267 320
#     4   9  19  32  49  72 103 142 182 221 263 318
#
# _framework density 21.829419000000001
#
# number of rings (size 3 to 8) (size 9 to 14) (size 15 to 20)
#    1.200    0.800    4.000    0.600    2.800    2.800 
#    0.000    1.000    0.000    0.000    0.000    0.000 
#    0.000    4.800    0.000    0.000    0.000    0.000 
#
# Total GULP energy -111466.147033 kJ/mol
# GULP energy per Si atom -5573.307352 kJ/mol
# Density = 2.177973 g / cm^3
# Si number density = 21.829419 Si / 1000 Ang^3
#
#
#
# Elastic Constant Matrix: (Units=GPa)
#
#
# Indices 1 2 3 4 5 6 
#
# 1 161.3440 -13.4542 20.4059 0.0000 1.2438 0.0000
# 2 -13.4542 85.1900 -3.0238 0.0000 5.8786 0.0000
# 3 20.4059 -3.0238 69.7058 0.0000 5.1858 0.0000
# 4 0.0000 0.0000 0.0000 -6.4321 0.0000 -1.8528
# 5 1.2438 5.8786 5.1858 0.0000 30.9185 0.0000
# 6 0.0000 0.0000 0.0000 -1.8528 0.0000 -3.0472
#
#
#
# Elastic Compliance Matrix: (Units=1/GPa)
#
#
# Indices 1 2 3 4 5 6 
#
# 1 0.006515 0.000972 -0.001855 0.000000 -0.000136 0.000000
# 2 0.000972 0.012073 0.000418 0.000000 -0.002405 0.000000
# 3 -0.001855 0.000418 0.015096 0.000000 -0.002537 0.000000
# 4 0.000000 0.000000 0.000000 -0.188483 0.000000 0.114602
# 5 -0.000136 -0.002405 -0.002537 0.000000 0.033231 0.000000
# 6 0.000000 0.000000 0.000000 0.114602 0.000000 -0.397846
#
#
# Mechanical properties :
#
#
# Convention : Reuss Voigt Hill
#
# Bulk Modulus (GPa) = 30.53026 36.01060 33.27043
# Shear Modulus (GPa) = -9.85091 25.10863 7.62886
#
# Velocity S-wave (km/s) = -2.12661 3.39517 1.87146
# Velocity P-wave (km/s) = 2.82599 5.64816 4.46587
#
# Compressibility (1/GPa) = 0.03275439
#
# Stress axis : x y z
#
# Youngs Moduli (GPa) = 153.49993 82.83071 66.24334
#
# Poissons Ratio (x) = -0.08055 0.12287
# Poissons Ratio (y) = -0.14927 -0.02769
# Poissons Ratio (z) = 0.28472 -0.03462
#
# Static dielectric constant tensor:
#      x y z
#    x 1.821680 0.000000 0.000600 
#    y 0.000000 1.797310 0.000000 
#    z 0.000600 0.000000 1.823680 
# 
# From -- ./inp_files/31046.got.cif
#   From: 2010.05.17/outbox.cif.g08.bks.cpg/sg12_16_cif.got.tgz:31046.got - 2010.06.03 13:09:07.
