data_PCOD9192342
_publ_section_title
;
Structure prediction by ZEFSAII (Michael W. Deem and Ramdas Pophale) SiO2 
 PCOD9192342
Probable space group: C 2/M
;
_chemical_formula_sum "Si O2"
_cell_formula_units_Z 64
_cell_length_a 12.542935
_cell_length_b 16.337996
_cell_length_c 30.255573
_cell_angle_alpha 90.000000
_cell_angle_beta 28.610265
_cell_angle_gamma 90.000000
_cell_volume 2968.944358
_symmetry_space_group_name_H-M "C 2/M"
_symmetry_group_IT_number 12
_symmetry_cell_setting 'monoclinic'
loop_
_space_group_symop_operation_xyz
x,y,z
-x,y,-z
-x,-y,-z
x,-y,z
1/2+x,1/2+y,z
1/2-x,1/2+y,-z
1/2-x,1/2-y,-z
1/2+x,1/2-y,z
loop_
_atom_site_type_symbol
_atom_site_label
_atom_site_fract_x
_atom_site_fract_y
_atom_site_fract_z
Si Si1 0.388189 0.328116 0.727582
Si Si2 0.414890 0.820796 0.884904
Si Si3 0.045970 0.859995 0.085264
Si Si4 0.167472 0.095917 0.690671
Si Si5 0.742789 0.096787 0.598517
Si Si6 0.531600 0.210254 0.601202
Si Si7 0.259417 0.910074 0.093449
Si Si8 0.918103 0.669372 0.778957
O O1 0.580162 0.389787 0.672573
O O2 0.415324 0.283507 0.670731
O O3 0.409349 0.254938 0.755784
O O4 0.141546 0.365302 0.817761
O O5 0.444427 0.729632 0.894505
O O6 0.396482 0.819432 0.838972
O O7 0.198446 0.857071 0.986642
O O8 0.156660 0.914306 0.082249
O O9 0.795094 0.878867 0.162913
O O10 0.361787 0.160244 0.631862
O O11 0.949750 0.116074 0.800385
O O12 0.226121 0.000000 0.676815
O O13 0.607956 0.144677 0.610133
O O14 0.641019 0.124427 0.682257
O O15 0.000000 0.119998 0.500000
O O16 0.721365 0.000000 0.600838
O O17 0.750000 0.250000 0.500000
O O18 0.314986 0.000000 0.091647
O O19 0.500000 0.864887 0.000000
#
# Coordination Sequence:
#
# PCOD9192342 Si02
#       8
#     8   8   8   8   8   8   8   8
#     4  10  21  37  61  90 122 163 207 261 315 378
#     4  10  20  34  56  85 126 163 207 257 312 372
#     4  10  20  33  54  88 120 165 210 261 311 367
#     4  11  23  42  65  94 131 168 211 264 321 379
#     4  10  23  42  64  90 118 157 208 263 319 384
#     4  11  25  40  68  93 121 162 209 263 323 388
#     4  10  20  35  59  87 122 167 209 251 306 378
#     4  10  20  36  60  86 122 163 216 266 318 378
#
# _framework density 21.556484000000001
#
# number of rings (size 3 to 8) (size 9 to 14) (size 15 to 20)
#    0.000    1.750    0.000    5.250    5.250    3.500 
#    0.000    3.125    0.000    1.500    0.000    0.000 
#    0.000    0.000    0.000    0.000    0.000    0.000 
#
# Total GULP energy -178624.813592 kJ/mol
# GULP energy per Si atom -5582.025425 kJ/mol
# Density = 2.150742 g / cm^3
# Si number density = 21.556484 Si / 1000 Ang^3
#
#
#
# Elastic Constant Matrix: (Units=GPa)
#
#
# Indices 1 2 3 4 5 6 
#
# 1 88.9220 21.2582 36.8628 -0.0070 -7.6338 0.0003
# 2 21.2582 44.9455 37.6507 0.0010 -5.7111 -0.0017
# 3 36.8628 37.6507 133.3535 -0.0171 -12.9630 0.0014
# 4 -0.0070 0.0010 -0.0171 -2.4417 0.0020 -0.9729
# 5 -7.6338 -5.7111 -12.9630 0.0020 29.6566 0.0016
# 6 0.0003 -0.0017 0.0014 -0.9729 0.0016 19.5456
#
#
#
# Elastic Compliance Matrix: (Units=1/GPa)
#
#
# Indices 1 2 3 4 5 6 
#
# 1 0.013353 -0.004126 -0.002370 -0.000021 0.001607 -0.000002
# 2 -0.004126 0.030543 -0.007326 0.000074 0.001618 0.000007
# 3 -0.002370 -0.007326 0.010471 -0.000065 0.002556 -0.000005
# 4 -0.000021 0.000074 -0.000065 -0.401578 0.000008 -0.019989
# 5 0.001607 0.001618 0.002556 0.000008 0.035562 -0.000003
# 6 -0.000002 0.000007 -0.000005 -0.019989 -0.000003 0.050167
#
#
# Mechanical properties :
#
#
# Convention : Reuss Voigt Hill
#
# Bulk Modulus (GPa) = 37.42088 50.97383 44.19736
# Shear Modulus (GPa) = -22.22893 20.78205 -0.72344
#
# Velocity S-wave (km/s) = -3.21471 3.10832 -0.57994
# Velocity P-wave (km/s) = 1.90211 6.04816 4.48320
#
# Compressibility (1/GPa) = 0.02672305
#
# Stress axis : x y z
#
# Youngs Moduli (GPa) = 74.89181 32.74087 95.50432
#
# Poissons Ratio (x) = 0.13509 0.22634
# Poissons Ratio (y) = 0.30901 0.69963
# Poissons Ratio (z) = 0.17749 0.23985
#
# Static dielectric constant tensor:
#      x y z
#    x 1.786650 0.000000 -0.007970 
#    y 0.000000 1.834530 -0.000010 
#    z -0.007970 -0.000010 1.838000 
# 
# From -- ./inp_files/374423.got.cif
#   From: 2010.05.17/outbox.cif.g08.bks.cpg/sg12_188_cif.got.tgz:374423.got - 2010.06.03 13:09:07.
