data_PCOD9192622
_publ_section_title
;
Structure prediction by ZEFSAII (Michael W. Deem and Ramdas Pophale) SiO2 
 PCOD9192622
Probable space group: C 2/M
;
_chemical_formula_sum "Si O2"
_cell_formula_units_Z 34
_cell_length_a 17.198708
_cell_length_b 9.045657
_cell_length_c 9.952145
_cell_angle_alpha 90.000000
_cell_angle_beta 55.060603
_cell_angle_gamma 90.000000
_cell_volume 1269.224482
_symmetry_space_group_name_H-M "C 2/M"
_symmetry_group_IT_number 12
_symmetry_cell_setting 'monoclinic'
loop_
_space_group_symop_operation_xyz
x,y,z
-x,y,-z
-x,-y,-z
x,-y,z
1/2+x,1/2+y,z
1/2-x,1/2+y,-z
1/2-x,1/2-y,-z
1/2+x,1/2-y,z
loop_
_atom_site_type_symbol
_atom_site_label
_atom_site_fract_x
_atom_site_fract_y
_atom_site_fract_z
Si Si1 0.000000 0.754067 0.000000
Si Si2 0.936641 0.000000 0.741473
Si Si3 0.000000 0.500000 0.500000
Si Si4 0.257502 0.500000 0.072723
Si Si5 0.254209 0.000000 0.400711
Si Si6 0.387178 0.500000 0.262180
Si Si7 0.617528 0.000000 0.965726
Si Si8 0.850029 0.257152 0.650391
O O1 0.945068 0.645586 0.952186
O O2 0.923263 0.856169 0.148830
O O3 0.905824 0.142840 0.690203
O O4 0.045846 0.000000 0.671805
O O5 0.869473 0.000000 0.939458
O O6 0.926364 0.371303 0.518391
O O7 0.219336 0.356460 0.187935
O O8 0.206643 0.500000 0.976529
O O9 0.222676 0.000000 0.587329
O O10 0.352036 0.000000 0.221542
O O11 0.207263 0.152652 0.393386
#
# Coordination Sequence:
#
# PCOD9192622 Si02
#       8
#     4   4   2   4   4   4   4   8
#     4  10  26  46  68  90 122 182 236 272 316 386
#     4  11  20  35  65  90 132 163 206 262 331 399
#     4  10  20  34  48  78 144 168 198 246 300 410
#     4  11  21  36  65 101 131 170 206 269 324 406
#     4  11  24  41  68  97 136 173 210 283 334 386
#     4  11  24  43  65  96 129 173 224 270 331 387
#     4  11  23  45  69  93 128 173 229 277 322 380
#     4  10  21  35  57  99 132 170 205 251 340 398
#
# _framework density 26.78801
#
# number of rings (size 3 to 8) (size 9 to 14) (size 15 to 20)
#    0.000    1.412    2.353    3.529    3.294    4.706 
#    0.000    3.529    0.000    0.000    0.000    0.000 
#    0.000    0.000    0.000    0.000    0.000    0.000 
#
# Total GULP energy -95076.306796 kJ/mol
# GULP energy per Si atom -5592.723929 kJ/mol
# Density = 2.672704 g / cm^3
# Si number density = 26.788010 Si / 1000 Ang^3
#
#
#
# Elastic Constant Matrix: (Units=GPa)
#
#
# Indices 1 2 3 4 5 6 
#
# 1 76.1538 18.1079 15.9452 0.0000 -7.9980 0.0000
# 2 18.1079 208.3750 44.0080 0.0000 -0.9999 0.0000
# 3 15.9452 44.0080 124.2434 0.0000 -10.2920 0.0000
# 4 0.0000 0.0000 0.0000 33.7309 0.0000 -12.1093
# 5 -7.9980 -0.9999 -10.2920 0.0000 31.9156 0.0000
# 6 0.0000 0.0000 0.0000 -12.1093 0.0000 14.7338
#
#
#
# Elastic Compliance Matrix: (Units=1/GPa)
#
#
# Indices 1 2 3 4 5 6 
#
# 1 0.013929 -0.000942 -0.001199 0.000000 0.003074 0.000000
# 2 -0.000942 0.005257 -0.001795 0.000000 -0.000650 0.000000
# 3 -0.001199 -0.001795 0.009051 0.000000 0.002562 0.000000
# 4 0.000000 0.000000 0.000000 0.042055 0.000000 0.034564
# 5 0.003074 -0.000650 0.002562 0.000000 0.032909 0.000000
# 6 0.000000 0.000000 0.000000 0.034564 0.000000 0.096278
#
#
# Mechanical properties :
#
#
# Convention : Reuss Voigt Hill
#
# Bulk Modulus (GPa) = 49.10685 62.76604 55.93644
# Shear Modulus (GPa) = 23.34922 38.12347 30.73634
#
# Velocity S-wave (km/s) = 2.95554 3.77656 3.39099
# Velocity P-wave (km/s) = 5.47891 6.51906 6.02148
#
# Compressibility (1/GPa) = 0.02036376
#
# Stress axis : x y z
#
# Youngs Moduli (GPa) = 71.79060 190.22591 110.48967
#
# Poissons Ratio (x) = 0.17928 0.13250
# Poissons Ratio (y) = 0.06766 0.19832
# Poissons Ratio (z) = 0.08609 0.34145
#
# Static dielectric constant tensor:
#      x y z
#    x 2.060530 0.000000 0.035450 
#    y 0.000000 1.996270 0.000000 
#    z 0.035450 0.000000 2.178730 
# 
# From -- ./inp_files/162272.got.cif
#   From: 2010.05.17/outbox.cif.g08.bks.cpg/sg12_82_cif.got.tgz:162272.got - 2010.06.03 13:09:07.
