data_PCOD9192166
_publ_section_title
;
Structure prediction by ZEFSAII (Michael W. Deem and Ramdas Pophale) SiO2 
 PCOD9192166
Probable space group: C 2/M
;
_chemical_formula_sum "Si O2"
_cell_formula_units_Z 48
_cell_length_a 23.182494
_cell_length_b 8.855166
_cell_length_c 26.792385
_cell_angle_alpha 90.000000
_cell_angle_beta 150.854902
_cell_angle_gamma 90.000000
_cell_volume 2678.660632
_symmetry_space_group_name_H-M "C 2/M"
_symmetry_group_IT_number 12
_symmetry_cell_setting 'monoclinic'
loop_
_space_group_symop_operation_xyz
x,y,z
-x,y,-z
-x,-y,-z
x,-y,z
1/2+x,1/2+y,z
1/2-x,1/2+y,-z
1/2-x,1/2-y,-z
1/2+x,1/2-y,z
loop_
_atom_site_type_symbol
_atom_site_label
_atom_site_fract_x
_atom_site_fract_y
_atom_site_fract_z
Si Si1 0.560913 0.320817 0.992597
Si Si2 0.072016 0.678137 0.202203
Si Si3 0.436363 0.821857 0.624866
Si Si4 0.202056 0.821552 0.385511
Si Si5 0.367843 0.671686 0.107330
Si Si6 0.678581 0.671281 0.810620
O O1 0.571358 0.500000 0.991572
O O2 0.693007 0.250057 0.094230
O O3 0.500000 0.296232 0.000000
O O4 0.477149 0.249866 0.886271
O O5 0.085540 0.500000 0.206171
O O6 0.182030 0.748558 0.315909
O O7 0.969472 0.721301 0.163897
O O8 0.334752 0.800020 0.506443
O O9 0.382292 0.745408 0.634235
O O10 0.562996 0.757499 0.702751
O O11 0.448719 0.000000 0.644394
O O12 0.175723 0.000000 0.362202
O O13 0.382739 0.500000 0.099387
O O14 0.355868 0.663482 0.157205
O O15 0.250000 0.750000 0.000000
O O16 0.687672 0.500000 0.797926
#
# Coordination Sequence:
#
# PCOD9192166 Si02
#       6
#     8   8   8   8   8   8
#     4  11  25  43  62  82 107 144 188 235 285 335
#     4  12  23  35  56  83 113 150 185 227 279 331
#     4  10  20  33  53  81 116 154 189 226 271 328
#     4  10  20  34  52  80 117 154 189 226 271 328
#     4  11  21  32  50  80 113 147 182 222 275 335
#     4  11  22  35  56  83 115 151 184 227 278 332
#
# _framework density 17.919402000000002
#
# number of rings (size 3 to 8) (size 9 to 14) (size 15 to 20)
#    0.000    1.167    3.333    4.000    0.000    4.667 
#    0.000    0.000    0.000    1.000    0.000    7.000 
#    0.000    0.000    0.000    0.000    0.000    0.000 
#
# Total GULP energy -133852.619859 kJ/mol
# GULP energy per Si atom -5577.192494 kJ/mol
# Density = 1.787862 g / cm^3
# Si number density = 17.919402 Si / 1000 Ang^3
#
#
#
# Elastic Constant Matrix: (Units=GPa)
#
#
# Indices 1 2 3 4 5 6 
#
# 1 68.4783 45.6571 43.0095 0.0000 -6.2675 0.0000
# 2 45.6571 146.4353 89.3381 0.0000 -8.1747 0.0000
# 3 43.0095 89.3381 142.3015 0.0002 -9.8789 0.0000
# 4 0.0000 0.0000 0.0002 28.6201 0.0000 -0.0287
# 5 -6.2675 -8.1747 -9.8789 0.0000 9.9205 0.0000
# 6 0.0000 0.0000 0.0000 -0.0287 0.0000 20.6185
#
#
#
# Elastic Compliance Matrix: (Units=1/GPa)
#
#
# Indices 1 2 3 4 5 6 
#
# 1 0.019713 -0.003936 -0.003059 0.000000 0.006164 0.000000
# 2 -0.003936 0.011906 -0.006206 0.000000 0.001145 0.000000
# 3 -0.003059 -0.006206 0.012202 0.000000 0.005105 0.000000
# 4 0.000000 0.000000 0.000000 0.034941 0.000000 0.000049
# 5 0.006164 0.001145 0.005105 0.000000 0.110722 0.000000
# 6 0.000000 0.000000 0.000000 0.000049 0.000000 0.048500
#
#
# Mechanical properties :
#
#
# Convention : Reuss Voigt Hill
#
# Bulk Modulus (GPa) = 57.40558 79.24715 68.32636
# Shear Modulus (GPa) = 18.50537 23.77920 21.14228
#
# Velocity S-wave (km/s) = 3.21705 3.64676 3.43863
# Velocity P-wave (km/s) = 6.77526 7.87731 7.34698
#
# Compressibility (1/GPa) = 0.01741991
#
# Stress axis : x y z
#
# Youngs Moduli (GPa) = 50.72817 83.99156 81.95183
#
# Poissons Ratio (x) = 0.33057 0.25071
# Poissons Ratio (y) = 0.19966 0.50856
# Poissons Ratio (z) = 0.15519 0.52122
#
# Static dielectric constant tensor:
#      x y z
#    x 1.592540 0.000000 0.003690 
#    y 0.000000 1.708170 0.000000 
#    z 0.003690 0.000000 1.688220 
# 
# From -- ./inp_files/367220.got.cif
#   From: 2010.05.17/outbox.cif.g08.bks.cpg/sg12_184_cif.got.tgz:367220.got - 2010.06.03 13:09:07.
