data_PCOD9192572
_publ_section_title
;
Structure prediction by ZEFSAII (Michael W. Deem and Ramdas Pophale) SiO2 
 PCOD9192572
Probable space group: C 2/M
;
_chemical_formula_sum "Si O2"
_cell_formula_units_Z 56
_cell_length_a 19.923180
_cell_length_b 13.809794
_cell_length_c 23.507438
_cell_angle_alpha 90.000000
_cell_angle_beta 25.915875
_cell_angle_gamma 90.000000
_cell_volume 2826.723240
_symmetry_space_group_name_H-M "C 2/M"
_symmetry_group_IT_number 12
_symmetry_cell_setting 'monoclinic'
loop_
_space_group_symop_operation_xyz
x,y,z
-x,y,-z
-x,-y,-z
x,-y,z
1/2+x,1/2+y,z
1/2-x,1/2+y,-z
1/2-x,1/2-y,-z
1/2+x,1/2-y,z
loop_
_atom_site_type_symbol
_atom_site_label
_atom_site_fract_x
_atom_site_fract_y
_atom_site_fract_z
Si Si1 0.348025 0.735034 0.644065
Si Si2 0.013459 0.770238 0.232262
Si Si3 0.762621 0.610477 0.613040
Si Si4 0.111471 0.109552 0.970557
Si Si5 0.550890 0.165403 0.320354
Si Si6 0.425240 0.893647 0.112009
Si Si7 0.138254 0.693838 0.026029
O O1 0.500000 0.691422 0.500000
O O2 0.303396 0.827462 0.638731
O O3 0.390429 0.760762 0.676151
O O4 0.205871 0.664708 0.756868
O O5 0.987492 0.717748 0.312165
O O6 0.054944 0.696108 0.150108
O O7 0.875251 0.836820 0.315674
O O8 0.179978 0.820624 0.109975
O O9 0.725101 0.500000 0.656225
O O10 0.912803 0.611717 0.457870
O O11 0.291674 0.110574 0.815519
O O12 0.077148 0.000000 0.019283
O O13 0.101277 0.201622 0.022170
O O14 0.000000 0.122288 0.000000
O O15 0.566939 0.892740 0.045887
O O16 0.370330 0.000000 0.137793
O O17 0.500000 0.844273 0.000000
#
# Coordination Sequence:
#
# PCOD9192572 Si02
#       7
#     8   8   8   8   8   8   8
#     4  10  22  41  65  91 126 165 204 259 312 370
#     4  10  21  38  62  83 124 165 202 247 302 368
#     4  11  23  39  65  95 127 164 205 253 311 378
#     4  10  20  33  58  93 128 162 201 252 309 373
#     4  10  21  39  61  86 126 169 206 247 305 365
#     4  11  22  39  64  90 118 157 211 265 311 360
#     4  10  20  38  59  85 119 160 202 253 307 366
#
# _framework density 19.810922999999999
#
# number of rings (size 3 to 8) (size 9 to 14) (size 15 to 20)
#    0.000    1.714    1.429    3.857    0.000    4.571 
#    0.000    7.143    0.000    0.429    0.000    0.000 
#    0.000    0.000    0.000    0.000    0.000    0.000 
#
# Total GULP energy -156049.171520 kJ/mol
# GULP energy per Si atom -5573.184697 kJ/mol
# Density = 1.976583 g / cm^3
# Si number density = 19.810923 Si / 1000 Ang^3
#
#
#
# Elastic Constant Matrix: (Units=GPa)
#
#
# Indices 1 2 3 4 5 6 
#
# 1 134.9427 29.4382 10.9301 0.0033 10.2422 -0.0019
# 2 29.4382 66.2371 25.1068 -0.0004 8.3826 0.0018
# 3 10.9301 25.1068 94.6995 -0.0112 -2.4593 -0.0026
# 4 0.0033 -0.0004 -0.0112 45.4527 0.0015 112.2606
# 5 10.2422 8.3826 -2.4593 0.0015 41.9725 0.0000
# 6 -0.0019 0.0018 -0.0026 112.2606 0.0000 255.8173
#
#
#
# Elastic Compliance Matrix: (Units=1/GPa)
#
#
# Indices 1 2 3 4 5 6 
#
# 1 0.008277 -0.003486 -0.000066 0.000010 -0.001327 -0.000004
# 2 -0.003486 0.018819 -0.004670 0.000002 -0.003181 -0.000001
# 3 -0.000066 -0.004670 0.011848 -0.000029 0.001643 0.000013
# 4 0.000010 0.000002 -0.000029 -0.262417 0.000005 0.115157
# 5 -0.001327 -0.003181 0.001643 0.000005 0.024881 -0.000002
# 6 -0.000004 -0.000001 0.000013 0.115157 -0.000002 -0.046625
#
#
# Mechanical properties :
#
#
# Convention : Reuss Voigt Hill
#
# Bulk Modulus (GPa) = 44.44038 47.42550 45.93294
# Shear Modulus (GPa) = -22.59630 84.00879 30.70625
#
# Velocity S-wave (km/s) = -3.38094 6.51900 3.94123
# Velocity P-wave (km/s) = 2.69072 8.98077 6.62926
#
# Compressibility (1/GPa) = 0.02250206
#
# Stress axis : x y z
#
# Youngs Moduli (GPa) = 120.81601 53.13754 84.40260
#
# Poissons Ratio (x) = 0.18522 0.00554
# Poissons Ratio (y) = 0.42113 0.39413
# Poissons Ratio (z) = 0.00793 0.24813
#
# Static dielectric constant tensor:
#      x y z
#    x 1.752510 0.000000 0.062040 
#    y 0.000000 1.699020 0.000000 
#    z 0.062040 0.000000 1.827300 
# 
# From -- ./inp_files/316713.got.cif
#   From: 2010.05.17/outbox.cif.g08.bks.cpg/sg12_159_cif.got.tgz:316713.got - 2010.06.03 13:09:07.
