data_PCOD9192930
_publ_section_title
;
Structure prediction by ZEFSAII (Michael W. Deem and Ramdas Pophale) SiO2 
 PCOD9192930
Probable space group: C 2/M
;
_chemical_formula_sum "Si O2"
_cell_formula_units_Z 52
_cell_length_a 8.707909
_cell_length_b 11.438049
_cell_length_c 29.961885
_cell_angle_alpha 90.000000
_cell_angle_beta 111.719818
_cell_angle_gamma 90.000000
_cell_volume 2772.380549
_symmetry_space_group_name_H-M "C 2/M"
_symmetry_group_IT_number 12
_symmetry_cell_setting 'monoclinic'
loop_
_space_group_symop_operation_xyz
x,y,z
-x,y,-z
-x,-y,-z
x,-y,z
1/2+x,1/2+y,z
1/2-x,1/2+y,-z
1/2-x,1/2-y,-z
1/2+x,1/2-y,z
loop_
_atom_site_type_symbol
_atom_site_label
_atom_site_fract_x
_atom_site_fract_y
_atom_site_fract_z
Si Si1 0.049905 0.630685 0.557211
Si Si2 0.641559 0.366175 0.937089
Si Si3 0.124305 0.627924 0.290339
Si Si4 0.245722 0.367849 0.404011
Si Si5 0.500000 0.790023 0.000000
Si Si6 0.261703 0.204349 0.231139
Si Si7 0.400069 0.633270 0.168552
O O1 0.129758 0.500000 0.573144
O O2 0.147392 0.750296 0.578407
O O3 0.000000 0.635219 0.500000
O O4 0.889676 0.632411 0.571520
O O5 0.582910 0.500000 0.931842
O O6 0.541209 0.289766 0.961607
O O7 0.623767 0.322188 0.884478
O O8 0.833878 0.360518 0.971645
O O9 0.186670 0.500000 0.283653
O O10 0.158854 0.642322 0.346392
O O11 0.216871 0.722630 0.270513
O O12 0.929501 0.635541 0.259181
O O13 0.325655 0.500000 0.413761
O O14 0.305596 0.289385 0.194634
O O15 0.095058 0.136572 0.200823
O O16 0.339400 0.500000 0.163705
#
# Coordination Sequence:
#
# PCOD9192930 Si02
#       7
#     8   8   8   8   4   8   8
#     4  10  21  37  56  80 110 142 178 221 267 316
#     4  10  20  34  52  74 101 131 166 207 250 299
#     4  10  20  35  53  75 104 135 170 213 257 305
#     4  10  21  36  55  80 108 140 179 220 264 316
#     4  10  20  34  52  74 100 132 166 204 252 300
#     4  10  20  34  53  75 101 134 169 207 255 304
#     4  10  20  34  52  75 101 131 168 208 250 300
#
# _framework density 18.756443999999998
#
# number of rings (size 3 to 8) (size 9 to 14) (size 15 to 20)
#    0.000    2.000    0.000    3.692    0.000    0.923 
#    0.000    3.846    0.000   14.769    0.000    0.000 
#    0.000    0.000    0.000    0.000    0.000    0.000 
#
# Total GULP energy -144973.270721 kJ/mol
# GULP energy per Si atom -5575.895028 kJ/mol
# Density = 1.871375 g / cm^3
# Si number density = 18.756444 Si / 1000 Ang^3
#
#
#
# Elastic Constant Matrix: (Units=GPa)
#
#
# Indices 1 2 3 4 5 6 
#
# 1 43.2949 28.0063 18.6920 0.0000 -16.0813 0.0000
# 2 28.0063 114.5935 60.2123 0.0000 -11.1343 0.0000
# 3 18.6920 60.2123 157.2679 0.0000 -36.0229 0.0000
# 4 0.0000 0.0000 0.0000 -47.2834 0.0000 -20.3140
# 5 -16.0813 -11.1343 -36.0229 0.0000 32.5474 0.0000
# 6 0.0000 0.0000 0.0000 -20.3140 0.0000 5.8412
#
#
#
# Elastic Compliance Matrix: (Units=1/GPa)
#
#
# Indices 1 2 3 4 5 6 
#
# 1 0.033366 -0.008096 0.003049 0.000000 0.017090 0.000000
# 2 -0.008096 0.012923 -0.005210 0.000000 -0.005345 0.000000
# 3 0.003049 -0.005210 0.010620 0.000000 0.011478 0.000000
# 4 0.000000 0.000000 0.000000 -0.008480 0.000000 -0.029490
# 5 0.017090 -0.005345 0.011478 0.000000 0.050044 0.000000
# 6 0.000000 0.000000 0.000000 -0.029490 0.000000 0.068641
#
#
# Mechanical properties :
#
#
# Convention : Reuss Voigt Hill
#
# Bulk Modulus (GPa) = 27.47644 58.77528 43.12586
# Shear Modulus (GPa) = 25.02992 12.10409 18.56700
#
# Velocity S-wave (km/s) = 3.65700 2.54309 3.14968
# Velocity P-wave (km/s) = 5.70197 6.32670 6.02244
#
# Compressibility (1/GPa) = 0.03639481
#
# Stress axis : x y z
#
# Youngs Moduli (GPa) = 29.97042 77.37965 94.16119
#
# Poissons Ratio (x) = 0.62646 -0.28705
# Poissons Ratio (y) = 0.24264 0.49058
# Poissons Ratio (z) = -0.09137 0.40315
#
# Static dielectric constant tensor:
#      x y z
#    x 1.614900 0.000000 0.013350 
#    y 0.000000 1.658740 0.000000 
#    z 0.013350 0.000000 1.613210 
# 
# From -- ./inp_files/355529.got.cif
#   From: 2010.05.17/outbox.cif.g08.bks.cpg/sg12_178_cif.got.tgz:355529.got - 2010.06.03 13:09:07.
