data_PCOD9192349
_publ_section_title
;
Structure prediction by ZEFSAII (Michael W. Deem and Ramdas Pophale) SiO2 
 PCOD9192349
Probable space group: C 2/M
;
_chemical_formula_sum "Si O2"
_cell_formula_units_Z 44
_cell_length_a 10.881369
_cell_length_b 21.176418
_cell_length_c 11.848668
_cell_angle_alpha 90.000000
_cell_angle_beta 65.033446
_cell_angle_gamma 90.000000
_cell_volume 2475.137942
_symmetry_space_group_name_H-M "C 2/M"
_symmetry_group_IT_number 12
_symmetry_cell_setting 'monoclinic'
loop_
_space_group_symop_operation_xyz
x,y,z
-x,y,-z
-x,-y,-z
x,-y,z
1/2+x,1/2+y,z
1/2-x,1/2+y,-z
1/2-x,1/2-y,-z
1/2+x,1/2-y,z
loop_
_atom_site_type_symbol
_atom_site_label
_atom_site_fract_x
_atom_site_fract_y
_atom_site_fract_z
Si Si1 0.733906 0.734673 0.165447
Si Si2 0.350109 0.071501 0.611444
Si Si3 0.500000 0.842676 0.000000
Si Si4 0.144703 0.428015 0.119963
Si Si5 0.364479 0.656811 0.981376
Si Si6 0.333499 0.212945 0.565206
O O1 0.624574 0.690199 0.144400
O O2 0.704658 0.752514 0.303556
O O3 0.754338 0.799412 0.088978
O O4 0.875901 0.699278 0.091430
O O5 0.500000 0.068390 0.500000
O O6 0.357086 0.080669 0.744216
O O7 0.291847 0.138066 0.586199
O O8 0.289735 0.000000 0.615444
O O9 0.543090 0.885259 0.088501
O O10 0.110829 0.500000 0.111280
O O11 0.292940 0.410600 0.012597
O O12 0.500000 0.657207 0.000000
O O13 0.500000 0.214645 0.500000
O O14 0.250000 0.250000 0.500000
#
# Coordination Sequence:
#
# PCOD9192349 Si02
#       6
#     8   8   4   8   8   8
#     4  10  21  34  54  84 112 145 190 224 297 338
#     4   9  19  35  55  79 109 147 191 234 281 336
#     4  10  21  34  58  82 117 148 182 236 286 340
#     4  10  20  35  55  82 111 146 189 231 276 339
#     4  10  20  33  55  77 111 146 178 234 284 348
#     4  11  25  37  60  86 119 151 196 248 287 342
#
# _framework density 17.776788
#
# number of rings (size 3 to 8) (size 9 to 14) (size 15 to 20)
#    0.000    2.000    2.727    0.273    7.636    0.364 
#    0.000    0.000    0.000    0.545    0.000    0.000 
#    0.000    0.000    0.000    0.000    0.000    0.000 
#
# Total GULP energy -122476.959052 kJ/mol
# GULP energy per Si atom -5567.134502 kJ/mol
# Density = 1.773633 g / cm^3
# Si number density = 17.776788 Si / 1000 Ang^3
#
#
#
# Elastic Constant Matrix: (Units=GPa)
#
#
# Indices 1 2 3 4 5 6 
#
# 1 83.3843 45.1058 15.9722 0.0000 11.5210 0.0000
# 2 45.1058 129.3077 42.5430 0.0000 12.9010 0.0000
# 3 15.9722 42.5430 81.2709 0.0000 18.1983 0.0000
# 4 0.0000 0.0000 0.0000 282.0227 0.0000 -35.4470
# 5 11.5210 12.9010 18.1983 0.0000 20.6549 0.0000
# 6 0.0000 0.0000 0.0000 -35.4470 0.0000 25.1562
#
#
#
# Elastic Compliance Matrix: (Units=1/GPa)
#
#
# Indices 1 2 3 4 5 6 
#
# 1 0.015424 -0.005094 0.001058 0.000000 -0.006353 0.000000
# 2 -0.005094 0.011086 -0.004843 0.000000 0.000185 0.000000
# 3 0.001058 -0.004843 0.017549 0.000000 -0.013027 0.000000
# 4 0.000000 0.000000 0.000000 0.004309 0.000000 0.006072
# 5 -0.006353 0.000185 -0.013027 0.000000 0.063321 0.000000
# 6 0.000000 0.000000 0.000000 0.006072 0.000000 0.048307
#
#
# Mechanical properties :
#
#
# Convention : Reuss Voigt Hill
#
# Bulk Modulus (GPa) = 38.02375 55.68942 46.85658
# Shear Modulus (GPa) = 26.80684 78.25622 52.53153
#
# Velocity S-wave (km/s) = 3.88747 6.64207 5.44195
# Velocity P-wave (km/s) = 6.44871 9.49831 8.11800
#
# Compressibility (1/GPa) = 0.02629935
#
# Stress axis : x y z
#
# Youngs Moduli (GPa) = 64.83584 90.20756 56.98406
#
# Poissons Ratio (x) = 0.45956 -0.06030
# Poissons Ratio (y) = 0.33030 0.27598
# Poissons Ratio (z) = -0.06861 0.43689
#
# Static dielectric constant tensor:
#      x y z
#    x 1.588750 0.000000 -0.009920 
#    y 0.000000 1.654210 0.000000 
#    z -0.009920 0.000000 1.603210 
# 
# From -- ./inp_files/131314.got.cif
#   From: 2010.05.17/outbox.cif.g08.bks.cpg/sg12_66_cif.got.tgz:131314.got - 2010.06.03 13:09:07.
