data_PCOD9192941
_publ_section_title
;
Structure prediction by ZEFSAII (Michael W. Deem and Ramdas Pophale) SiO2 
 PCOD9192941
Probable space group: C 2/M
;
_chemical_formula_sum "Si O2"
_cell_formula_units_Z 64
_cell_length_a 19.318083
_cell_length_b 8.532090
_cell_length_c 22.299533
_cell_angle_alpha 90.000000
_cell_angle_beta 77.349045
_cell_angle_gamma 90.000000
_cell_volume 3586.257649
_symmetry_space_group_name_H-M "C 2/M"
_symmetry_group_IT_number 12
_symmetry_cell_setting 'monoclinic'
loop_
_space_group_symop_operation_xyz
x,y,z
-x,y,-z
-x,-y,-z
x,-y,z
1/2+x,1/2+y,z
1/2-x,1/2+y,-z
1/2-x,1/2-y,-z
1/2+x,1/2-y,z
loop_
_atom_site_type_symbol
_atom_site_label
_atom_site_fract_x
_atom_site_fract_y
_atom_site_fract_z
Si Si1 0.535241 0.812856 0.555706
Si Si2 0.966849 0.810370 0.819011
Si Si3 0.653573 0.187939 0.685038
Si Si4 0.691750 0.686464 0.556839
Si Si5 0.123177 0.311147 0.820099
Si Si6 0.497147 0.686405 0.684205
Si Si7 0.846855 0.189256 0.934268
Si Si8 0.686710 0.810692 0.933787
O O1 0.500000 0.762548 0.500000
O O2 0.613119 0.739372 0.550568
O O3 0.486860 0.766173 0.621949
O O4 0.543737 0.000000 0.553580
O O5 0.906723 0.756938 0.876525
O O6 0.043814 0.751278 0.825117
O O7 0.954502 0.762681 0.751795
O O8 0.968239 0.000000 0.818926
O O9 0.702978 0.245636 0.621864
O O10 0.668639 0.227402 0.751591
O O11 0.578105 0.269533 0.685929
O O12 0.645401 0.000000 0.681744
O O13 0.694126 0.500000 0.558865
O O14 0.750000 0.750000 0.500000
O O15 0.119498 0.500000 0.823260
O O16 0.155885 0.254797 0.876322
O O17 0.490487 0.500000 0.678313
O O18 0.768541 0.238957 0.927157
O O19 0.848063 0.000000 0.935432
O O20 0.855496 0.250739 0.000156
O O21 0.685288 0.000000 0.934344
#
# Coordination Sequence:
#
# PCOD9192941 Si02
#       8
#     8   8   8   8   8   8   8   8
#     4  10  20  34  52  74 102 133 164 202 247 292
#     4   9  18  31  48  71  96 122 156 199 241 281
#     4   9  16  29  48  70  96 126 160 195 240 291
#     4  11  21  34  53  75 101 132 167 205 245 291
#     4   9  18  31  49  72  96 123 156 197 240 282
#     4   9  16  28  47  70  95 125 161 197 238 288
#     4   9  18  33  50  67  92 126 159 192 234 283
#     4   9  18  33  50  68  93 125 160 194 232 282
#
# _framework density 17.8459
#
# number of rings (size 3 to 8) (size 9 to 14) (size 15 to 20)
#    0.000    2.625    0.000    3.750    0.000    3.500 
#    0.000    3.750    0.000    3.000    0.000    0.000 
#    0.000    0.000    0.000    0.000    0.000    0.000 
#
# Total GULP energy -178287.611711 kJ/mol
# GULP energy per Si atom -5571.487866 kJ/mol
# Density = 1.780528 g / cm^3
# Si number density = 17.845900 Si / 1000 Ang^3
#
#
#
# Elastic Constant Matrix: (Units=GPa)
#
#
# Indices 1 2 3 4 5 6 
#
# 1 43.8766 12.2303 68.9365 0.0000 -2.9249 0.0000
# 2 12.2303 14.5066 18.2705 0.0000 1.6720 0.0000
# 3 68.9365 18.2705 210.8988 0.0000 -1.6722 0.0000
# 4 0.0000 0.0000 0.0000 30.5401 0.0000 -1.8111
# 5 -2.9249 1.6720 -1.6722 0.0000 33.3773 0.0000
# 6 0.0000 0.0000 0.0000 -1.8111 0.0000 15.9000
#
#
#
# Elastic Compliance Matrix: (Units=1/GPa)
#
#
# Indices 1 2 3 4 5 6 
#
# 1 0.055580 -0.027683 -0.015726 0.000000 0.005469 0.000000
# 2 -0.027683 0.091762 0.001044 0.000000 -0.006970 0.000000
# 3 -0.015726 0.001044 0.009784 0.000000 -0.000940 0.000000
# 4 0.000000 0.000000 0.000000 0.032967 0.000000 0.003755
# 5 0.005469 -0.006970 -0.000940 0.000000 0.030742 0.000000
# 6 0.000000 0.000000 0.000000 0.003755 0.000000 0.063321
#
#
# Mechanical properties :
#
#
# Convention : Reuss Voigt Hill
#
# Bulk Modulus (GPa) = 13.81287 52.01739 32.91513
# Shear Modulus (GPa) = 12.72215 27.28643 20.00429
#
# Velocity S-wave (km/s) = 2.67289 3.91449 3.35169
# Velocity P-wave (km/s) = 4.15725 7.04573 5.78468
#
# Compressibility (1/GPa) = 0.07239625
#
# Stress axis : x y z
#
# Youngs Moduli (GPa) = 17.99223 10.89781 102.20765
#
# Poissons Ratio (x) = 0.30168 1.60729
# Poissons Ratio (y) = 0.49807 -0.10669
# Poissons Ratio (z) = 0.28294 -0.01138
#
# Static dielectric constant tensor:
#      x y z
#    x 1.589000 0.000000 -0.001680 
#    y 0.000000 1.610040 0.000000 
#    z -0.001680 0.000000 1.660190 
# 
# From -- ./inp_files/319107.got.cif
#   From: 2010.05.17/outbox.cif.g08.bks.cpg/sg12_160_cif.got.tgz:319107.got - 2010.06.03 13:09:07.
