data_PCOD9192200
_publ_section_title
;
Structure prediction by ZEFSAII (Michael W. Deem and Ramdas Pophale) SiO2 
 PCOD9192200
Probable space group: C 2/M
;
_chemical_formula_sum "Si O2"
_cell_formula_units_Z 56
_cell_length_a 11.625721
_cell_length_b 18.929795
_cell_length_c 18.153800
_cell_angle_alpha 90.000000
_cell_angle_beta 131.954235
_cell_angle_gamma 90.000000
_cell_volume 2971.111187
_symmetry_space_group_name_H-M "C 2/M"
_symmetry_group_IT_number 12
_symmetry_cell_setting 'monoclinic'
loop_
_space_group_symop_operation_xyz
x,y,z
-x,y,-z
-x,-y,-z
x,-y,z
1/2+x,1/2+y,z
1/2-x,1/2+y,-z
1/2-x,1/2-y,-z
1/2+x,1/2-y,z
loop_
_atom_site_type_symbol
_atom_site_label
_atom_site_fract_x
_atom_site_fract_y
_atom_site_fract_z
Si Si1 0.942498 0.361924 0.173576
Si Si2 0.368736 0.652313 0.784824
Si Si3 0.077506 0.723642 0.451652
Si Si4 0.037798 0.580644 0.664018
Si Si5 0.616501 0.200004 0.118341
Si Si6 0.046274 0.211303 0.740895
Si Si7 0.879227 0.919983 0.015686
O O1 0.989553 0.414177 0.259455
O O2 0.949222 0.285935 0.215234
O O3 0.049028 0.355160 0.148074
O O4 0.769651 0.376354 0.071892
O O5 0.216021 0.606278 0.730635
O O6 0.365562 0.723628 0.833135
O O7 0.399316 0.672273 0.713121
O O8 0.520904 0.611329 0.875918
O O9 0.250000 0.750000 0.500000
O O10 0.000000 0.730535 0.500000
O O11 0.059436 0.641435 0.419174
O O12 0.970524 0.770860 0.351711
O O13 0.016002 0.500000 0.629867
O O14 0.788876 0.177208 0.171053
O O15 0.500000 0.207471 0.000000
O O16 0.829506 0.000000 0.008848
O O17 0.000000 0.920038 0.000000
#
# Coordination Sequence:
#
# PCOD9192200 Si02
#       7
#     8   8   8   8   8   8   8
#     4  10  20  33  53  82 120 161 202 242 294 352
#     4  11  19  33  55  87 122 155 201 242 302 350
#     4  11  24  42  68  98 119 152 200 259 316 371
#     4  11  22  39  62  89 121 155 193 250 310 368
#     4  11  20  33  55  86 124 160 203 252 291 343
#     4  10  21  36  58  85 120 152 194 251 303 356
#     4  11  19  29  48  79 118 162 201 239 284 344
#
# _framework density 18.848167
#
# number of rings (size 3 to 8) (size 9 to 14) (size 15 to 20)
#    0.000    1.286    4.286    3.857    4.000    2.571 
#    0.000    0.000    0.000    9.857    0.000    0.000 
#    0.000    0.000    0.000    0.000    0.000    0.000 
#
# Total GULP energy -156145.940613 kJ/mol
# GULP energy per Si atom -5576.640736 kJ/mol
# Density = 1.880527 g / cm^3
# Si number density = 18.848167 Si / 1000 Ang^3
#
#
#
# Elastic Constant Matrix: (Units=GPa)
#
#
# Indices 1 2 3 4 5 6 
#
# 1 100.9012 34.8033 41.1180 0.0000 -14.0169 0.0000
# 2 34.8033 68.3718 28.7311 0.0000 -5.6369 0.0000
# 3 41.1180 28.7311 78.9227 0.0000 -4.9531 0.0000
# 4 0.0000 0.0000 0.0000 -2.9248 0.0000 -5.3830
# 5 -14.0169 -5.6369 -4.9531 0.0000 32.6504 0.0000
# 6 0.0000 0.0000 0.0000 -5.3830 0.0000 14.3686
#
#
#
# Elastic Compliance Matrix: (Units=1/GPa)
#
#
# Indices 1 2 3 4 5 6 
#
# 1 0.014390 -0.004628 -0.005527 0.000000 0.004540 0.000000
# 2 -0.004628 0.018892 -0.004429 0.000000 0.000603 0.000000
# 3 -0.005527 -0.004429 0.017129 0.000000 -0.000539 0.000000
# 4 0.000000 0.000000 0.000000 -0.202369 0.000000 -0.075814
# 5 0.004540 0.000603 -0.000539 0.000000 0.032599 0.000000
# 6 0.000000 0.000000 0.000000 -0.075814 0.000000 0.041193
#
#
# Mechanical properties :
#
#
# Convention : Reuss Voigt Hill
#
# Bulk Modulus (GPa) = 47.07384 50.83340 48.95362
# Shear Modulus (GPa) = -119.28418 18.38841 -50.44789
#
# Velocity S-wave (km/s) = -7.96394 3.12686 -5.17914
# Velocity P-wave (km/s) = 7.71597 6.32968 3.12021
#
# Compressibility (1/GPa) = 0.02124322
#
# Stress axis : x y z
#
# Youngs Moduli (GPa) = 69.49189 52.93135 58.38141
#
# Poissons Ratio (x) = 0.24497 0.32270
# Poissons Ratio (y) = 0.32161 0.25855
# Poissons Ratio (z) = 0.38411 0.23441
#
# Static dielectric constant tensor:
#      x y z
#    x 1.705890 0.000000 -0.019400 
#    y 0.000000 1.653480 0.000000 
#    z -0.019400 0.000000 1.701750 
# 
# From -- ./inp_files/133305.got.cif
#   From: 2010.05.17/outbox.cif.g08.bks.cpg/sg12_67_cif.got.tgz:133305.got - 2010.06.03 13:09:07.
