data_PCOD9192476
_publ_section_title
;
Structure prediction by ZEFSAII (Michael W. Deem and Ramdas Pophale) SiO2 
 PCOD9192476
Probable space group: C 2/M
;
_chemical_formula_sum "Si O2"
_cell_formula_units_Z 64
_cell_length_a 20.879988
_cell_length_b 14.968056
_cell_length_c 11.535180
_cell_angle_alpha 90.000000
_cell_angle_beta 118.973976
_cell_angle_gamma 90.000000
_cell_volume 3153.904670
_symmetry_space_group_name_H-M "C 2/M"
_symmetry_group_IT_number 12
_symmetry_cell_setting 'monoclinic'
loop_
_space_group_symop_operation_xyz
x,y,z
-x,y,-z
-x,-y,-z
x,-y,z
1/2+x,1/2+y,z
1/2-x,1/2+y,-z
1/2-x,1/2-y,-z
1/2+x,1/2-y,z
loop_
_atom_site_type_symbol
_atom_site_label
_atom_site_fract_x
_atom_site_fract_y
_atom_site_fract_z
Si Si1 0.143169 0.791971 0.213649
Si Si2 0.210548 0.604839 0.692053
Si Si3 0.664410 0.235541 0.466790
Si Si4 0.413184 0.267209 0.082508
Si Si5 0.344958 0.900063 0.092895
Si Si6 0.187629 0.896340 0.868803
Si Si7 0.024313 0.906869 0.156132
Si Si8 0.912313 0.894127 0.450506
O O1 0.223288 0.823170 0.247920
O O2 0.132531 0.724839 0.310058
O O3 0.108859 0.885923 0.227330
O O4 0.097453 0.760719 0.063885
O O5 0.227614 0.500000 0.680640
O O6 0.160574 0.651135 0.549346
O O7 0.179916 0.604864 0.795416
O O8 0.750000 0.250000 0.500000
O O9 0.624931 0.321035 0.494904
O O10 0.407651 0.171212 0.131022
O O11 0.347224 0.328399 0.071347
O O12 0.483360 0.324625 0.175684
O O13 0.367832 0.000000 0.086158
O O14 0.274843 0.878310 0.948297
O O15 0.140241 0.886792 0.709981
O O16 0.180583 0.000000 0.901777
O O17 0.004183 0.000000 0.195360
O O18 0.000000 0.911362 0.000000
O O19 0.000000 0.877122 0.500000
O O20 0.907792 0.000000 0.482834
#
# Coordination Sequence:
#
# PCOD9192476 Si02
#       8
#     8   8   8   8   8   8   8   8
#     4  10  21  35  57  85 121 155 191 235 304 365
#     4  10  20  38  60  84 115 153 201 250 294 345
#     4  10  23  38  57  86 121 164 207 244 296 365
#     4  11  20  33  58  84 123 153 187 244 297 354
#     4  10  21  35  58  87 113 151 201 249 295 342
#     4  10  20  33  56  87 116 150 196 243 298 361
#     4   9  19  33  52  84 119 150 184 228 291 358
#     4  10  23  41  61  89 126 166 202 247 310 371
#
# _framework density 20.292306
#
# number of rings (size 3 to 8) (size 9 to 14) (size 15 to 20)
#    0.000    2.000    1.250    1.875    5.250    3.500 
#    0.000    0.625    0.000    4.500    0.000    0.000 
#    0.000    0.000    0.000    0.000    0.000    0.000 
#
# Total GULP energy -178149.832160 kJ/mol
# GULP energy per Si atom -5567.182255 kJ/mol
# Density = 2.024612 g / cm^3
# Si number density = 20.292306 Si / 1000 Ang^3
#
#
#
# Elastic Constant Matrix: (Units=GPa)
#
#
# Indices 1 2 3 4 5 6 
#
# 1 55.4099 41.8063 -2.6171 0.0000 -6.2166 0.0000
# 2 41.8063 66.8771 19.4946 0.0000 -9.9688 0.0000
# 3 -2.6171 19.4946 81.4963 0.0000 -16.0883 0.0000
# 4 0.0000 0.0000 0.0000 0.9546 0.0000 -4.6375
# 5 -6.2166 -9.9688 -16.0883 0.0000 10.6168 0.0000
# 6 0.0000 0.0000 0.0000 -4.6375 0.0000 30.8197
#
#
#
# Elastic Compliance Matrix: (Units=1/GPa)
#
#
# Indices 1 2 3 4 5 6 
#
# 1 0.039327 -0.025375 0.010238 0.000000 0.014715 0.000000
# 2 -0.025375 0.033861 -0.007949 0.000000 0.004891 0.000000
# 3 0.010238 -0.007949 0.020276 0.000000 0.029256 0.000000
# 4 0.000000 0.000000 0.000000 3.894587 0.000000 0.586029
# 5 0.014715 0.004891 0.029256 0.000000 0.151732 0.000000
# 6 0.000000 0.000000 0.000000 0.586029 0.000000 0.120628
#
#
# Mechanical properties :
#
#
# Convention : Reuss Voigt Hill
#
# Bulk Modulus (GPa) = 21.14536 35.68342 28.41439
# Shear Modulus (GPa) = 1.15678 18.15152 9.65415
#
# Velocity S-wave (km/s) = 0.75584 2.99407 2.18355
# Velocity P-wave (km/s) = 3.34735 5.43833 4.51554
#
# Compressibility (1/GPa) = 0.04729170
#
# Stress axis : x y z
#
# Youngs Moduli (GPa) = 25.42779 29.53209 49.31855
#
# Poissons Ratio (x) = 0.74938 -0.50491
# Poissons Ratio (y) = 0.64523 0.39205
# Poissons Ratio (z) = -0.26032 0.23476
#
# Static dielectric constant tensor:
#      x y z
#    x 1.778180 0.000000 0.017330 
#    y 0.000000 1.728510 0.000000 
#    z 0.017330 0.000000 1.793670 
# 
# From -- ./inp_files/167288.got.cif
#   From: 2010.05.17/outbox.cif.g08.bks.cpg/sg12_84_cif.got.tgz:167288.got - 2010.06.03 13:09:07.
