data_PCOD9192574
_publ_section_title
;
Structure prediction by ZEFSAII (Michael W. Deem and Ramdas Pophale) SiO2 
 PCOD9192574
Probable space group: C 2/M
;
_chemical_formula_sum "Si O2"
_cell_formula_units_Z 40
_cell_length_a 25.821517
_cell_length_b 14.996669
_cell_length_c 15.800114
_cell_angle_alpha 90.000000
_cell_angle_beta 161.016197
_cell_angle_gamma 90.000000
_cell_volume 1990.315753
_symmetry_space_group_name_H-M "C 2/M"
_symmetry_group_IT_number 12
_symmetry_cell_setting 'monoclinic'
loop_
_space_group_symop_operation_xyz
x,y,z
-x,y,-z
-x,-y,-z
x,-y,z
1/2+x,1/2+y,z
1/2-x,1/2+y,-z
1/2-x,1/2-y,-z
1/2+x,1/2-y,z
loop_
_atom_site_type_symbol
_atom_site_label
_atom_site_fract_x
_atom_site_fract_y
_atom_site_fract_z
Si Si1 0.965418 0.500000 0.803683
Si Si2 0.994644 0.170690 0.745102
Si Si3 0.344100 0.139410 0.486007
Si Si4 0.668570 0.897524 0.729787
Si Si5 0.265253 0.500000 0.390550
Si Si6 0.595259 0.712392 0.214012
O O1 0.950137 0.583867 0.716502
O O2 0.822479 0.500000 0.652841
O O3 0.126853 0.500000 0.106640
O O4 0.912992 0.260292 0.584665
O O5 0.877368 0.086651 0.553665
O O6 0.008966 0.184210 0.868517
O O7 0.174088 0.151902 0.993546
O O8 0.334895 0.101675 0.377868
O O9 0.173432 0.141803 0.270510
O O10 0.500000 0.859351 0.500000
O O11 0.678898 0.000000 0.775403
O O12 0.750000 0.750000 0.500000
O O13 0.500000 0.774616 0.000000
#
# Coordination Sequence:
#
# PCOD9192574 Si02
#       6
#     4   8   8   8   4   8
#     4  11  24  39  59  96 138 167 197 245 317 390
#     4  11  23  39  64  92 125 166 206 255 311 376
#     4  11  23  39  64  92 125 166 206 255 311 376
#     4  11  24  43  67  88 115 161 220 269 308 359
#     4  11  24  39  59  96 138 167 197 245 317 390
#     4  10  20  33  58  95 126 162 204 249 311 381
#
# _framework density 20.097313
#
# number of rings (size 3 to 8) (size 9 to 14) (size 15 to 20)
#    0.000    1.200    6.000    0.000    2.800    2.400 
#    0.000    3.000    0.000    1.200    0.000    0.000 
#    0.000    0.000    0.000    0.000    0.000    0.000 
#
# Total GULP energy -111504.078321 kJ/mol
# GULP energy per Si atom -5575.203916 kJ/mol
# Density = 2.005157 g / cm^3
# Si number density = 20.097313 Si / 1000 Ang^3
#
#
#
# Elastic Constant Matrix: (Units=GPa)
#
#
# Indices 1 2 3 4 5 6 
#
# 1 32.7579 -13.6100 5.8502 0.0000 11.9476 0.0000
# 2 -13.6100 101.8831 27.7938 0.0000 7.7867 0.0000
# 3 5.8502 27.7938 105.4322 0.0000 15.6405 0.0000
# 4 0.0000 0.0000 0.0000 11.2563 0.0000 -2.4952
# 5 11.9476 7.7867 15.6405 0.0000 47.9700 0.0000
# 6 0.0000 0.0000 0.0000 -2.4952 0.0000 16.3710
#
#
#
# Elastic Compliance Matrix: (Units=1/GPa)
#
#
# Indices 1 2 3 4 5 6 
#
# 1 0.037018 0.006300 -0.002307 0.000000 -0.009490 0.000000
# 2 0.006300 0.011681 -0.003063 0.000000 -0.002466 0.000000
# 3 -0.002307 -0.003063 0.010783 0.000000 -0.002444 0.000000
# 4 0.000000 0.000000 0.000000 0.091945 0.000000 0.014014
# 5 -0.009490 -0.002466 -0.002444 0.000000 0.024407 0.000000
# 6 0.000000 0.000000 0.000000 0.014014 0.000000 0.063219
#
#
# Mechanical properties :
#
#
# Convention : Reuss Voigt Hill
#
# Bulk Modulus (GPa) = 16.30238 31.12678 23.71458
# Shear Modulus (GPa) = 19.40689 29.78877 24.59783
#
# Velocity S-wave (km/s) = 3.11086 3.85415 3.50228
# Velocity P-wave (km/s) = 4.58613 5.94370 5.30849
#
# Compressibility (1/GPa) = 0.06134073
#
# Stress axis : x y z
#
# Youngs Moduli (GPa) = 27.01420 85.61080 92.74060
#
# Poissons Ratio (x) = -0.53931 0.21394
# Poissons Ratio (y) = -0.17018 0.28406
# Poissons Ratio (z) = 0.06232 0.26222
#
# Static dielectric constant tensor:
#      x y z
#    x 1.711880 0.000000 0.006190 
#    y 0.000000 1.788560 0.000000 
#    z 0.006190 0.000000 1.841990 
# 
# From -- ./inp_files/241341.got.cif
#   From: 2010.05.17/outbox.cif.g08.bks.cpg/sg12_121_cif.got.tgz:241341.got - 2010.06.03 13:09:07.
