data_PCOD9192729
_publ_section_title
;
Structure prediction by ZEFSAII (Michael W. Deem and Ramdas Pophale) SiO2 
 PCOD9192729
Probable space group: C 2/M
;
_chemical_formula_sum "Si O2"
_cell_formula_units_Z 48
_cell_length_a 33.178304
_cell_length_b 9.660117
_cell_length_c 16.776016
_cell_angle_alpha 90.000000
_cell_angle_beta 31.890163
_cell_angle_gamma 90.000000
_cell_volume 2840.533411
_symmetry_space_group_name_H-M "C 2/M"
_symmetry_group_IT_number 12
_symmetry_cell_setting 'monoclinic'
loop_
_space_group_symop_operation_xyz
x,y,z
-x,y,-z
-x,-y,-z
x,-y,z
1/2+x,1/2+y,z
1/2-x,1/2+y,-z
1/2-x,1/2-y,-z
1/2+x,1/2-y,z
loop_
_atom_site_type_symbol
_atom_site_label
_atom_site_fract_x
_atom_site_fract_y
_atom_site_fract_z
Si Si1 0.306315 0.664768 0.961551
Si Si2 0.268360 0.332125 0.204332
Si Si3 0.517710 0.336429 0.378461
Si Si4 0.095878 0.667167 0.540702
Si Si5 0.358815 0.159020 0.362269
Si Si6 0.679846 0.340238 0.716111
O O1 0.288990 0.500000 0.986005
O O2 0.393158 0.684577 0.788597
O O3 0.250000 0.750000 0.000000
O O4 0.296269 0.709303 0.070456
O O5 0.270887 0.500000 0.204252
O O6 0.179918 0.294010 0.366293
O O7 0.317894 0.284304 0.197177
O O8 0.500000 0.301427 0.500000
O O9 0.500559 0.500000 0.395906
O O10 0.467130 0.245147 0.404354
O O11 0.088804 0.500000 0.546708
O O12 0.095705 0.703564 0.635018
O O13 0.364934 0.252574 0.274095
O O14 0.269428 0.160821 0.539413
O O15 0.377903 0.000000 0.312143
O O16 0.654746 0.500000 0.757480
#
# Coordination Sequence:
#
# PCOD9192729 Si02
#       6
#     8   8   8   8   8   8
#     4  10  20  34  51  69  92 121 152 189 230 272
#     4   8  15  29  48  69  92 120 156 193 225 262
#     4  10  21  34  47  68  97 122 147 187 235 275
#     4   9  17  30  49  70  92 121 156 190 223 267
#     4   8  14  24  39  64  94 117 143 184 227 262
#     4   8  13  23  41  64  89 117 149 184 222 264
#
# _framework density 16.898235
#
# number of rings (size 3 to 8) (size 9 to 14) (size 15 to 20)
#    0.000    3.167    0.000    3.000    0.000    1.667 
#    0.000    3.333    0.000    1.000    0.000    7.000 
#    0.000    0.000    0.000    0.000    0.000    0.000 
#
# Total GULP energy -133667.571065 kJ/mol
# GULP energy per Si atom -5569.482128 kJ/mol
# Density = 1.685977 g / cm^3
# Si number density = 16.898235 Si / 1000 Ang^3
#
#
#
# Elastic Constant Matrix: (Units=GPa)
#
#
# Indices 1 2 3 4 5 6 
#
# 1 190.1305 81.9768 67.4133 0.0000 25.9477 0.0000
# 2 81.9768 49.3742 33.6051 0.0000 8.1205 0.0000
# 3 67.4133 33.6051 60.5804 0.0000 20.9128 0.0000
# 4 0.0000 0.0000 0.0000 10.6834 0.0000 -0.3689
# 5 25.9477 8.1205 20.9128 0.0000 24.2226 0.0000
# 6 0.0000 0.0000 0.0000 -0.3689 0.0000 38.5125
#
#
#
# Elastic Compliance Matrix: (Units=1/GPa)
#
#
# Indices 1 2 3 4 5 6 
#
# 1 0.021344 -0.032086 -0.002526 0.000000 -0.009927 0.000000
# 2 -0.032086 0.081545 -0.017034 0.000000 0.021741 0.000000
# 3 -0.002526 -0.017034 0.036842 0.000000 -0.023391 0.000000
# 4 0.000000 0.000000 0.000000 0.093634 0.000000 0.000897
# 5 -0.009927 0.021741 -0.023391 0.000000 0.064824 0.000000
# 6 0.000000 0.000000 0.000000 0.000897 0.000000 0.025974
#
#
# Mechanical properties :
#
#
# Convention : Reuss Voigt Hill
#
# Bulk Modulus (GPa) = 27.44376 74.00839 50.72608
# Shear Modulus (GPa) = 11.37388 22.48970 16.93179
#
# Velocity S-wave (km/s) = 2.59719 3.65210 3.16885
# Velocity P-wave (km/s) = 5.02690 7.85336 6.59337
#
# Compressibility (1/GPa) = 0.03643815
#
# Stress axis : x y z
#
# Youngs Moduli (GPa) = 46.85093 12.26310 27.14284
#
# Poissons Ratio (x) = 0.39348 0.06856
# Poissons Ratio (y) = 1.50328 0.46236
# Poissons Ratio (z) = 0.11834 0.20890
#
# Static dielectric constant tensor:
#      x y z
#    x 1.570440 0.000000 0.018770 
#    y 0.000000 1.561720 0.000000 
#    z 0.018770 0.000000 1.569460 
# 
# From -- ./inp_files/244751.got.cif
#   From: 2010.05.17/outbox.cif.g08.bks.cpg/sg12_123_cif.got.tgz:244751.got - 2010.06.03 13:09:07.
