data_PCOD9192581
_publ_section_title
;
Structure prediction by ZEFSAII (Michael W. Deem and Ramdas Pophale) SiO2 
 PCOD9192581
Probable space group: C 2/M
;
_chemical_formula_sum "Si O2"
_cell_formula_units_Z 48
_cell_length_a 14.755536
_cell_length_b 18.149762
_cell_length_c 9.465426
_cell_angle_alpha 90.000000
_cell_angle_beta 70.710150
_cell_angle_gamma 90.000000
_cell_volume 2392.618381
_symmetry_space_group_name_H-M "C 2/M"
_symmetry_group_IT_number 12
_symmetry_cell_setting 'monoclinic'
loop_
_space_group_symop_operation_xyz
x,y,z
-x,y,-z
-x,-y,-z
x,-y,z
1/2+x,1/2+y,z
1/2-x,1/2+y,-z
1/2-x,1/2-y,-z
1/2+x,1/2-y,z
loop_
_atom_site_type_symbol
_atom_site_label
_atom_site_fract_x
_atom_site_fract_y
_atom_site_fract_z
Si Si1 0.721727 0.328969 0.077891
Si Si2 0.609147 0.697669 0.405503
Si Si3 0.903033 0.360778 0.474168
Si Si4 0.199479 0.080419 0.558992
Si Si5 0.395102 0.638344 0.116722
Si Si6 0.591764 0.184646 0.853669
O O1 0.633851 0.316032 0.230408
O O2 0.814688 0.351385 0.120524
O O3 0.750000 0.250000 0.000000
O O4 0.683305 0.375024 0.966028
O O5 0.500000 0.679655 0.500000
O O6 0.624028 0.782651 0.438580
O O7 0.676684 0.645710 0.462688
O O8 0.811487 0.412369 0.538306
O O9 0.921032 0.343705 0.299182
O O10 0.000000 0.386904 0.500000
O O11 0.134745 0.094326 0.729710
O O12 0.178973 0.000000 0.508410
O O13 0.393605 0.726171 0.156730
O O14 0.500000 0.622042 0.000000
O O15 0.500000 0.171008 0.000000
#
# Coordination Sequence:
#
# PCOD9192581 Si02
#       6
#     8   8   8   8   8   8
#     4  10  20  33  59  88 126 152 192 255 313 362
#     4  11  22  39  65  94 121 157 206 261 313 364
#     4  11  23  38  66  93 122 156 209 265 308 353
#     4  12  25  42  61  87 129 172 205 246 304 373
#     4  10  21  37  58  90 124 156 199 250 308 370
#     4  10  20  34  60  95 121 149 197 261 317 356
#
# _framework density 20.061703999999999
#
# number of rings (size 3 to 8) (size 9 to 14) (size 15 to 20)
#    0.000    1.333    3.333    3.500   14.000    1.000 
#    0.000    0.833    0.000    0.500    0.000    0.000 
#    0.000    0.000    0.000    0.000    0.000    0.000 
#
# Total GULP energy -134104.014306 kJ/mol
# GULP energy per Si atom -5587.667263 kJ/mol
# Density = 2.001604 g / cm^3
# Si number density = 20.061704 Si / 1000 Ang^3
#
#
#
# Elastic Constant Matrix: (Units=GPa)
#
#
# Indices 1 2 3 4 5 6 
#
# 1 83.9415 9.4644 4.5817 0.0000 -1.5199 0.0000
# 2 9.4644 12.9678 -10.2173 0.0000 -10.8006 0.0000
# 3 4.5817 -10.2173 89.2849 0.0000 -8.2008 0.0000
# 4 0.0000 0.0000 0.0000 -0.3940 0.0000 -11.8157
# 5 -1.5199 -10.8006 -8.2008 0.0000 38.0918 0.0000
# 6 0.0000 0.0000 0.0000 -11.8157 0.0000 -18.8868
#
#
#
# Elastic Compliance Matrix: (Units=1/GPa)
#
#
# Indices 1 2 3 4 5 6 
#
# 1 0.013849 -0.016472 -0.003034 0.000000 -0.004771 0.000000
# 2 -0.016472 0.142929 0.021284 0.000000 0.044451 0.000000
# 3 -0.003034 0.021284 0.014624 0.000000 0.009062 0.000000
# 4 0.000000 0.000000 0.000000 0.142899 0.000000 -0.089398
# 5 -0.004771 0.044451 0.009062 0.000000 0.040617 0.000000
# 6 0.000000 0.000000 0.000000 -0.089398 0.000000 0.002981
#
#
# Mechanical properties :
#
#
# Convention : Reuss Voigt Hill
#
# Bulk Modulus (GPa) = 5.71566 21.53909 13.62738
# Shear Modulus (GPa) = 12.11646 15.91987 14.01816
#
# Velocity S-wave (km/s) = 2.46023 2.82005 2.64626
# Velocity P-wave (km/s) = 3.30537 4.62205 4.01801
#
# Compressibility (1/GPa) = 0.17495806
#
# Stress axis : x y z
#
# Youngs Moduli (GPa) = 72.20478 6.99650 68.38171
#
# Poissons Ratio (x) = 0.11525 0.20746
# Poissons Ratio (y) = 1.18936 -1.45544
# Poissons Ratio (z) = 0.21906 -0.14891
#
# Static dielectric constant tensor:
#      x y z
#    x 1.763410 0.000000 0.018690 
#    y 0.000000 1.690950 0.000000 
#    z 0.018690 0.000000 1.675850 
# 
# From -- ./inp_files/63327.got.cif
#   From: 2010.05.17/outbox.cif.g08.bks.cpg/sg12_32_cif.got.tgz:63327.got - 2010.06.03 13:09:07.
