data_PCOD9192161
_publ_section_title
;
Structure prediction by ZEFSAII (Michael W. Deem and Ramdas Pophale) SiO2 
 PCOD9192161
Probable space group: C 2/M
;
_chemical_formula_sum "Si O2"
_cell_formula_units_Z 56
_cell_length_a 27.952601
_cell_length_b 7.530976
_cell_length_c 14.338762
_cell_angle_alpha 90.000000
_cell_angle_beta 124.366143
_cell_angle_gamma 90.000000
_cell_volume 2491.577757
_symmetry_space_group_name_H-M "C 2/M"
_symmetry_group_IT_number 12
_symmetry_cell_setting 'monoclinic'
loop_
_space_group_symop_operation_xyz
x,y,z
-x,y,-z
-x,-y,-z
x,-y,z
1/2+x,1/2+y,z
1/2-x,1/2+y,-z
1/2-x,1/2-y,-z
1/2+x,1/2-y,z
loop_
_atom_site_type_symbol
_atom_site_label
_atom_site_fract_x
_atom_site_fract_y
_atom_site_fract_z
Si Si1 0.362158 0.799762 0.747289
Si Si2 0.407050 0.795360 0.134497
Si Si3 0.812430 0.288987 0.889060
Si Si4 0.511339 0.698383 0.120738
Si Si5 0.185313 0.714132 0.692980
Si Si6 0.557392 0.783108 0.622182
Si Si7 0.308353 0.788268 0.509831
O O1 0.336842 0.718279 0.815390
O O2 0.430512 0.808597 0.819164
O O3 0.350908 0.712510 0.634435
O O4 0.337217 0.000000 0.717266
O O5 0.457867 0.785142 0.114522
O O6 0.434929 0.723644 0.261352
O O7 0.392260 0.000000 0.140892
O O8 0.350239 0.718272 0.018470
O O9 0.824413 0.500000 0.900895
O O10 0.742945 0.265347 0.814502
O O11 0.520091 0.500000 0.170222
O O12 0.500000 0.677501 0.000000
O O13 0.185467 0.500000 0.695382
O O14 0.120348 0.768710 0.649942
O O15 0.194037 0.781593 0.597044
O O16 0.500000 0.724112 0.500000
O O17 0.553869 0.000000 0.617044
O O18 0.250000 0.750000 0.500000
O O19 0.318926 0.000000 0.509991
#
# Coordination Sequence:
#
# PCOD9192161 Si02
#       7
#     8   8   8   8   8   8   8
#     4  10  20  34  53  80 115 151 189 230 277 340
#     4  10  21  38  61  84 111 151 197 237 279 337
#     4  10  20  35  56  84 115 149 187 230 280 338
#     4  11  23  36  54  84 119 150 184 230 289 341
#     4  10  21  36  57  86 113 146 190 236 284 332
#     4   9  20  39  62  85 110 144 192 243 284 333
#     4  10  20  33  53  81 113 146 185 227 280 339
#
# _framework density 22.475717
#
# number of rings (size 3 to 8) (size 9 to 14) (size 15 to 20)
#    0.000    2.000    2.857    0.429    2.000    2.857 
#    0.000    0.714    0.000    0.857    0.000    0.000 
#    0.000    0.000    0.000    0.000    0.000    0.000 
#
# Total GULP energy -155888.528917 kJ/mol
# GULP energy per Si atom -5567.447461 kJ/mol
# Density = 2.242456 g / cm^3
# Si number density = 22.475717 Si / 1000 Ang^3
#
#
#
# Elastic Constant Matrix: (Units=GPa)
#
#
# Indices 1 2 3 4 5 6 
#
# 1 117.2917 -12.5060 83.7124 0.0000 13.1842 0.0000
# 2 -12.5060 60.5644 7.8271 0.0000 0.4576 0.0000
# 3 83.7124 7.8271 210.0585 0.0000 15.4058 0.0000
# 4 0.0000 0.0000 0.0000 6.4757 0.0000 7.9039
# 5 13.1842 0.4576 15.4058 0.0000 39.3673 0.0000
# 6 0.0000 0.0000 0.0000 7.9039 0.0000 14.9534
#
#
#
# Elastic Compliance Matrix: (Units=1/GPa)
#
#
# Indices 1 2 3 4 5 6 
#
# 1 0.012724 0.003294 -0.005022 0.000000 -0.002334 0.000000
# 2 0.003294 0.017444 -0.001922 0.000000 -0.000554 0.000000
# 3 -0.005022 -0.001922 0.006907 0.000000 -0.000999 0.000000
# 4 0.000000 0.000000 0.000000 0.435179 0.000000 -0.230024
# 5 -0.002334 -0.000554 -0.000999 0.000000 0.026581 0.000000
# 6 0.000000 0.000000 0.000000 -0.230024 0.000000 0.188459
#
#
# Mechanical properties :
#
#
# Convention : Reuss Voigt Hill
#
# Bulk Modulus (GPa) = 33.58616 60.66462 47.12539
# Shear Modulus (GPa) = 7.09704 32.75134 19.92419
#
# Velocity S-wave (km/s) = 1.77890 3.82145 2.98061
# Velocity P-wave (km/s) = 4.38122 6.82064 5.73220
#
# Compressibility (1/GPa) = 0.02977417
#
# Stress axis : x y z
#
# Youngs Moduli (GPa) = 78.59316 57.32585 144.78291
#
# Poissons Ratio (x) = -0.18883 0.72713
# Poissons Ratio (y) = -0.25889 0.27829
# Poissons Ratio (z) = 0.39471 0.11019
#
# Static dielectric constant tensor:
#      x y z
#    x 1.761670 0.000000 -0.051690 
#    y 0.000000 1.942830 0.000000 
#    z -0.051690 0.000000 1.800890 
# 
# From -- ./inp_files/238997.got.cif
#   From: 2010.05.17/outbox.cif.g08.bks.cpg/sg12_120_cif.got.tgz:238997.got - 2010.06.03 13:09:07.
