data_PCOD9192001
_publ_section_title
;
Structure prediction by ZEFSAII (Michael W. Deem and Ramdas Pophale) SiO2 
 PCOD9192001
Probable space group: C 2/M
;
_chemical_formula_sum "Si O2"
_cell_formula_units_Z 56
_cell_length_a 19.118887
_cell_length_b 7.571426
_cell_length_c 18.483885
_cell_angle_alpha 90.000000
_cell_angle_beta 109.988532
_cell_angle_gamma 90.000000
_cell_volume 2514.496245
_symmetry_space_group_name_H-M "C 2/M"
_symmetry_group_IT_number 12
_symmetry_cell_setting 'monoclinic'
loop_
_space_group_symop_operation_xyz
x,y,z
-x,y,-z
-x,-y,-z
x,-y,z
1/2+x,1/2+y,z
1/2-x,1/2+y,-z
1/2-x,1/2-y,-z
1/2+x,1/2-y,z
loop_
_atom_site_type_symbol
_atom_site_label
_atom_site_fract_x
_atom_site_fract_y
_atom_site_fract_z
Si Si1 0.823557 0.288940 0.978370
Si Si2 0.227921 0.716563 0.704178
Si Si3 0.867902 0.203223 0.835592
Si Si4 0.082670 0.283772 0.735515
Si Si5 0.473503 0.214700 0.570726
Si Si6 0.817116 0.710861 0.471717
Si Si7 0.538568 0.208574 0.878401
O O1 0.827829 0.500000 0.972415
O O2 0.826550 0.215731 0.898215
O O3 0.750000 0.250000 0.000000
O O4 0.898811 0.221511 0.044586
O O5 0.230041 0.500000 0.704069
O O6 0.309810 0.780155 0.756522
O O7 0.165721 0.767660 0.741145
O O8 0.199648 0.776155 0.615320
O O9 0.952009 0.274322 0.868909
O O10 0.878394 0.000000 0.820042
O O11 0.081518 0.500000 0.735432
O O12 0.055921 0.221450 0.804298
O O13 0.026210 0.222467 0.653184
O O14 0.500000 0.261118 0.500000
O O15 0.389329 0.278358 0.539421
O O16 0.475575 0.000000 0.576394
O O17 0.827777 0.500000 0.467114
O O18 0.750000 0.750000 0.500000
O O19 0.553237 0.000000 0.880407
#
# Coordination Sequence:
#
# PCOD9192001 Si02
#       7
#     8   8   8   8   8   8   8
#     4  11  23  41  64  89 116 148 187 231 282 338
#     4   9  18  34  53  77 111 148 186 230 283 337
#     4  11  23  38  58  84 116 155 192 230 280 337
#     4   9  16  30  53  78 106 139 182 232 278 328
#     4   9  15  27  50  80 104 133 184 235 271 317
#     4  10  20  33  52  79 110 144 183 231 284 336
#     4  10  22  38  58  85 115 147 184 233 287 336
#
# _framework density 22.270861
#
# number of rings (size 3 to 8) (size 9 to 14) (size 15 to 20)
#    0.000    2.143    1.429    2.143    2.000    5.143 
#    0.000    0.714    0.000    1.286    0.000    0.000 
#    0.000    0.000    0.000    0.000    0.000    0.000 
#
# Total GULP energy -156331.075779 kJ/mol
# GULP energy per Si atom -5583.252706 kJ/mol
# Density = 2.222017 g / cm^3
# Si number density = 22.270861 Si / 1000 Ang^3
#
#
#
# Elastic Constant Matrix: (Units=GPa)
#
#
# Indices 1 2 3 4 5 6 
#
# 1 113.8570 -12.6565 15.9857 0.0000 18.3779 0.0000
# 2 -12.6565 48.2887 -1.4280 0.0000 6.1299 0.0000
# 3 15.9857 -1.4280 90.6652 0.0000 20.5121 0.0000
# 4 0.0000 0.0000 0.0000 0.4654 0.0000 -8.5872
# 5 18.3779 6.1299 20.5121 0.0000 45.2697 0.0000
# 6 0.0000 0.0000 0.0000 -8.5872 0.0000 18.7477
#
#
#
# Elastic Compliance Matrix: (Units=1/GPa)
#
#
# Indices 1 2 3 4 5 6 
#
# 1 0.009894 0.003089 -0.000772 0.000000 -0.004085 0.000000
# 2 0.003089 0.022132 0.000853 0.000000 -0.004638 0.000000
# 3 -0.000772 0.000853 0.012406 0.000000 -0.005424 0.000000
# 4 0.000000 0.000000 0.000000 -0.288361 0.000000 -0.132081
# 5 -0.004085 -0.004638 -0.005424 0.000000 0.026834 0.000000
# 6 0.000000 0.000000 0.000000 -0.132081 0.000000 -0.007158
#
#
# Mechanical properties :
#
#
# Convention : Reuss Voigt Hill
#
# Bulk Modulus (GPa) = 19.69521 28.51259 24.10390
# Shear Modulus (GPa) = -23.40055 29.62386 3.11165
#
# Velocity S-wave (km/s) = -3.24501 3.65110 1.18331
# Velocity P-wave (km/s) = 2.27539 5.53213 3.56560
#
# Compressibility (1/GPa) = 0.05077376
#
# Stress axis : x y z
#
# Youngs Moduli (GPa) = 101.07050 45.18269 80.60548
#
# Poissons Ratio (x) = -0.13957 0.06219
# Poissons Ratio (y) = -0.31221 -0.06877
# Poissons Ratio (z) = 0.07798 -0.03855
#
# Static dielectric constant tensor:
#      x y z
#    x 1.681560 0.000000 -0.020890 
#    y 0.000000 1.875380 0.000000 
#    z -0.020890 0.000000 1.786900 
# 
# From -- ./inp_files/275611.got.cif
#   From: 2010.05.17/outbox.cif.g08.bks.cpg/sg12_138_cif.got.tgz:275611.got - 2010.06.03 13:09:07.
