data_PCOD9192120
_publ_section_title
;
Structure prediction by ZEFSAII (Michael W. Deem and Ramdas Pophale) SiO2 
 PCOD9192120
Probable space group: C 2/M
;
_chemical_formula_sum "Si O2"
_cell_formula_units_Z 44
_cell_length_a 27.322241
_cell_length_b 12.776847
_cell_length_c 15.162157
_cell_angle_alpha 90.000000
_cell_angle_beta 160.209883
_cell_angle_gamma 90.000000
_cell_volume 1792.077083
_symmetry_space_group_name_H-M "C 2/M"
_symmetry_group_IT_number 12
_symmetry_cell_setting 'monoclinic'
loop_
_space_group_symop_operation_xyz
x,y,z
-x,y,-z
-x,-y,-z
x,-y,z
1/2+x,1/2+y,z
1/2-x,1/2+y,-z
1/2-x,1/2-y,-z
1/2+x,1/2-y,z
loop_
_atom_site_type_symbol
_atom_site_label
_atom_site_fract_x
_atom_site_fract_y
_atom_site_fract_z
Si Si1 0.500000 0.705160 0.000000
Si Si2 0.735913 0.382938 0.270910
Si Si3 0.545743 0.657562 0.674725
Si Si4 0.354188 0.112618 0.150232
Si Si5 0.549681 0.114935 0.207299
Si Si6 0.746335 0.159480 0.217352
O O1 0.603604 0.636958 0.114402
O O2 0.586809 0.786721 0.209607
O O3 0.729595 0.500000 0.223427
O O4 0.734051 0.285426 0.202048
O O5 0.877594 0.373605 0.573503
O O6 0.500000 0.619487 0.500000
O O7 0.709717 0.621159 0.965172
O O8 0.414019 0.629930 0.515919
O O9 0.553247 0.783695 0.681232
O O10 0.298086 0.121157 0.954543
O O11 0.425348 0.000000 0.282802
O O12 0.593800 0.000000 0.248496
O O13 0.376081 0.118614 0.924655
#
# Coordination Sequence:
#
# PCOD9192120 Si02
#       6
#     4   8   8   8   8   8
#     4  10  20  36  58  82 110 138 176 222 266 320
#     4  10  21  37  57  79 107 143 179 218 267 319
#     4   9  20  36  54  80 110 140 180 224 264 314
#     4  10  20  36  57  79 107 144 181 220 268 316
#     4  10  20  34  55  82 110 142 177 218 269 321
#     4  10  20  33  53  79 108 140 180 222 262 313
#
# _framework density 24.552516000000001
#
# number of rings (size 3 to 8) (size 9 to 14) (size 15 to 20)
#    0.000    2.182    0.000    2.727    0.000    6.545 
#    0.000    7.273    0.000   34.909    0.000    0.000 
#    0.000    0.000    0.000    0.000    0.000    0.000 
#
# Total GULP energy -122951.767782 kJ/mol
# GULP energy per Si atom -5588.716717 kJ/mol
# Density = 2.449663 g / cm^3
# Si number density = 24.552516 Si / 1000 Ang^3
#
#
#
# Elastic Constant Matrix: (Units=GPa)
#
#
# Indices 1 2 3 4 5 6 
#
# 1 50.8682 11.3022 17.6447 0.0000 10.6527 0.0000
# 2 11.3022 180.5744 9.2387 0.0000 -10.2260 0.0000
# 3 17.6447 9.2387 72.8205 0.0000 29.5309 0.0000
# 4 0.0000 0.0000 0.0000 -11.7643 0.0000 -7.5381
# 5 10.6527 -10.2260 29.5309 0.0000 40.2866 0.0000
# 6 0.0000 0.0000 0.0000 -7.5381 0.0000 12.5128
#
#
#
# Elastic Compliance Matrix: (Units=1/GPa)
#
#
# Indices 1 2 3 4 5 6 
#
# 1 0.021985 -0.001375 -0.003776 0.000000 -0.003394 0.000000
# 2 -0.001375 0.005883 -0.001659 0.000000 0.003073 0.000000
# 3 -0.003776 -0.001659 0.020810 0.000000 -0.014677 0.000000
# 4 0.000000 0.000000 0.000000 -0.061329 0.000000 -0.036947
# 5 -0.003394 0.003073 -0.014677 0.000000 0.037258 0.000000
# 6 0.000000 0.000000 0.000000 -0.036947 0.000000 0.057660
#
#
# Mechanical properties :
#
#
# Convention : Reuss Voigt Hill
#
# Bulk Modulus (GPa) = 28.52555 42.29270 35.40913
# Shear Modulus (GPa) = 46.47980 25.94551 36.21266
#
# Velocity S-wave (km/s) = 4.35567 3.25427 3.84462
# Velocity P-wave (km/s) = 6.07776 5.60207 5.84476
#
# Compressibility (1/GPa) = 0.03505629
#
# Stress axis : x y z
#
# Youngs Moduli (GPa) = 45.48599 169.98431 48.05446
#
# Poissons Ratio (x) = 0.23374 0.18145
# Poissons Ratio (y) = 0.06255 0.07975
# Poissons Ratio (z) = 0.17175 0.28209
#
# Static dielectric constant tensor:
#      x y z
#    x 1.954790 0.000000 0.012410 
#    y 0.000000 1.931440 0.000000 
#    z 0.012410 0.000000 1.974590 
# 
# From -- ./inp_files/262230.got.cif
#   From: 2010.05.17/outbox.cif.g08.bks.cpg/sg12_132_cif.got.tgz:262230.got - 2010.06.03 13:09:07.
