data_PCOD9192464
_publ_section_title
;
Structure prediction by ZEFSAII (Michael W. Deem and Ramdas Pophale) SiO2 
 PCOD9192464
Probable space group: C 2/M
;
_chemical_formula_sum "Si O2"
_cell_formula_units_Z 64
_cell_length_a 28.179540
_cell_length_b 8.005799
_cell_length_c 13.118363
_cell_angle_alpha 90.000000
_cell_angle_beta 87.714083
_cell_angle_gamma 90.000000
_cell_volume 2957.144109
_symmetry_space_group_name_H-M "C 2/M"
_symmetry_group_IT_number 12
_symmetry_cell_setting 'monoclinic'
loop_
_space_group_symop_operation_xyz
x,y,z
-x,y,-z
-x,-y,-z
x,-y,z
1/2+x,1/2+y,z
1/2-x,1/2+y,-z
1/2-x,1/2-y,-z
1/2+x,1/2-y,z
loop_
_atom_site_type_symbol
_atom_site_label
_atom_site_fract_x
_atom_site_fract_y
_atom_site_fract_z
Si Si1 0.379818 0.204930 0.431586
Si Si2 0.175254 0.193278 0.004331
Si Si3 0.996585 0.187331 0.109391
Si Si4 0.750013 0.800827 0.166223
Si Si5 0.274593 0.799846 0.390427
Si Si6 0.478003 0.195851 0.326687
Si Si7 0.914284 0.299411 0.641861
Si Si8 0.594007 0.810846 0.137752
O O1 0.329728 0.260027 0.389410
O O2 0.429535 0.264319 0.378425
O O3 0.384861 0.260644 0.548329
O O4 0.379289 0.000000 0.426275
O O5 0.211105 0.213940 0.097203
O O6 0.129996 0.296558 0.042882
O O7 0.161809 0.000000 0.996593
O O8 0.201049 0.244328 0.897600
O O9 0.051900 0.181859 0.131214
O O10 0.973634 0.279758 0.205830
O O11 0.976617 0.000000 0.100800
O O12 0.000000 0.274192 0.000000
O O13 0.751485 0.761311 0.285937
O O14 0.743073 0.000000 0.154085
O O15 0.250000 0.750000 0.500000
O O16 0.274304 0.000000 0.386726
O O17 0.530441 0.262038 0.356039
O O18 0.479125 0.000000 0.352054
O O19 0.918434 0.500000 0.628724
O O20 0.886789 0.274711 0.750509
O O21 0.574439 0.000000 0.144555
#
# Coordination Sequence:
#
# PCOD9192464 Si02
#       8
#     8   8   8   8   8   8   8   8
#     4   9  18  33  55  82 110 146 187 232 286 346
#     4  10  21  38  62  90 117 148 189 244 304 355
#     4  10  21  36  52  74 110 152 186 227 285 341
#     4  10  22  41  62  83 114 153 195 244 297 355
#     4  11  24  40  59  85 119 158 201 247 299 357
#     4   9  17  32  56  83 108 138 183 235 284 341
#     4   8  15  29  52  83 113 141 180 228 278 336
#     4  10  20  33  56  86 113 147 190 234 282 343
#
# _framework density 21.642502
#
# number of rings (size 3 to 8) (size 9 to 14) (size 15 to 20)
#    0.000    2.375    0.000    3.000    1.750    5.000 
#    0.000    3.750    0.000    7.500    0.000    0.000 
#    0.000    0.000    0.000    0.000    0.000    0.000 
#
# Total GULP energy -178285.086610 kJ/mol
# GULP energy per Si atom -5571.408957 kJ/mol
# Density = 2.159324 g / cm^3
# Si number density = 21.642502 Si / 1000 Ang^3
#
#
#
# Elastic Constant Matrix: (Units=GPa)
#
#
# Indices 1 2 3 4 5 6 
#
# 1 20.5700 1.0182 -2.2918 0.0000 -10.4298 0.0000
# 2 1.0182 31.9858 -0.6909 0.0000 -5.3509 0.0000
# 3 -2.2918 -0.6909 100.6463 0.0000 0.0448 0.0000
# 4 0.0000 0.0000 0.0000 -7.7026 0.0000 14.1254
# 5 -10.4298 -5.3509 0.0448 0.0000 29.2748 0.0000
# 6 0.0000 0.0000 0.0000 14.1254 0.0000 3.2836
#
#
#
# Elastic Compliance Matrix: (Units=1/GPa)
#
#
# Indices 1 2 3 4 5 6 
#
# 1 0.059608 0.001737 0.001360 0.000000 0.021552 0.000000
# 2 0.001737 0.032305 0.000258 0.000000 0.006523 0.000000
# 3 0.001360 0.000258 0.009968 0.000000 0.000516 0.000000
# 4 0.000000 0.000000 0.000000 -0.014605 0.000000 0.062830
# 5 0.021552 0.006523 0.000516 0.000000 0.043029 0.000000
# 6 0.000000 0.000000 0.000000 0.062830 0.000000 0.034262
#
#
# Mechanical properties :
#
#
# Convention : Reuss Voigt Hill
#
# Bulk Modulus (GPa) = 9.20875 16.58591 12.89733
# Shear Modulus (GPa) = 25.76612 15.31559 20.54085
#
# Velocity S-wave (km/s) = 3.45415 2.66308 3.08409
# Velocity P-wave (km/s) = 4.49137 4.13959 4.31906
#
# Compressibility (1/GPa) = 0.10859233
#
# Stress axis : x y z
#
# Youngs Moduli (GPa) = 16.77632 30.95458 100.31807
#
# Poissons Ratio (x) = -0.05378 -0.13640
# Poissons Ratio (y) = -0.02915 -0.02592
# Poissons Ratio (z) = -0.02281 -0.00800
#
# Static dielectric constant tensor:
#      x y z
#    x 1.817080 0.000000 0.018760 
#    y 0.000000 1.810570 0.000000 
#    z 0.018760 0.000000 1.852270 
# 
# From -- ./inp_files/187474.got.cif
#   From: 2010.05.17/outbox.cif.g08.bks.cpg/sg12_94_cif.got.tgz:187474.got - 2010.06.03 13:09:07.
