data_PCOD9192324
_publ_section_title
;
Structure prediction by ZEFSAII (Michael W. Deem and Ramdas Pophale) SiO2 
 PCOD9192324
Probable space group: C 2/M
;
_chemical_formula_sum "Si O2"
_cell_formula_units_Z 56
_cell_length_a 15.590406
_cell_length_b 25.511129
_cell_length_c 9.405714
_cell_angle_alpha 90.000000
_cell_angle_beta 123.403549
_cell_angle_gamma 90.000000
_cell_volume 3122.974756
_symmetry_space_group_name_H-M "C 2/M"
_symmetry_group_IT_number 12
_symmetry_cell_setting 'monoclinic'
loop_
_space_group_symop_operation_xyz
x,y,z
-x,y,-z
-x,-y,-z
x,-y,z
1/2+x,1/2+y,z
1/2-x,1/2+y,-z
1/2-x,1/2-y,-z
1/2+x,1/2-y,z
loop_
_atom_site_type_symbol
_atom_site_label
_atom_site_fract_x
_atom_site_fract_y
_atom_site_fract_z
Si Si1 0.768675 0.560255 0.775916
Si Si2 0.878529 0.118851 0.567443
Si Si3 0.420030 0.560109 0.182808
Si Si4 0.886246 0.662877 0.947846
Si Si5 0.204461 0.295334 0.859253
Si Si6 0.113175 0.864671 0.097701
Si Si7 0.289585 0.724795 0.388242
O O1 0.801661 0.500000 0.789908
O O2 0.702563 0.580664 0.581648
O O3 0.685900 0.563280 0.828376
O O4 0.855934 0.602752 0.887083
O O5 0.855118 0.123563 0.713248
O O6 0.865775 0.176666 0.490276
O O7 0.992708 0.095294 0.663564
O O8 0.454576 0.500000 0.212006
O O9 0.403828 0.583597 0.011974
O O10 0.806238 0.698238 0.783493
O O11 0.870615 0.674321 0.101574
O O12 0.000000 0.674661 0.000000
O O13 0.300221 0.331049 0.899830
O O14 0.164789 0.267902 0.678676
O O15 0.250000 0.250000 0.000000
O O16 0.000000 0.837877 0.000000
O O17 0.250000 0.750000 0.500000
#
# Coordination Sequence:
#
# PCOD9192324 Si02
#       7
#     8   8   8   8   8   8   8
#     4  10  20  36  59  82 111 147 188 238 291 340
#     4  10  20  33  54  85 119 146 185 232 285 353
#     4  10  20  35  56  86 119 152 187 232 294 359
#     4  10  22  40  59  81 111 148 198 243 277 332
#     4  10  20  37  57  77 112 150 190 237 280 326
#     4  10  20  34  57  84 115 150 187 228 284 358
#     4  10  20  38  58  83 114 149 193 232 287 342
#
# _framework density 17.931622000000001
#
# number of rings (size 3 to 8) (size 9 to 14) (size 15 to 20)
#    0.000    2.000    2.857    0.857    0.000    6.857 
#    0.000    2.143    0.000    0.000    0.000    1.000 
#    0.000    0.000    0.000    0.000    0.000    0.000 
#
# Total GULP energy -156183.283359 kJ/mol
# GULP energy per Si atom -5577.974406 kJ/mol
# Density = 1.789081 g / cm^3
# Si number density = 17.931622 Si / 1000 Ang^3
#
#
#
# Elastic Constant Matrix: (Units=GPa)
#
#
# Indices 1 2 3 4 5 6 
#
# 1 82.0875 23.6368 26.8978 0.0000 -14.5456 0.0000
# 2 23.6368 82.4719 30.6736 0.0000 -5.1364 0.0000
# 3 26.8978 30.6736 86.2755 0.0000 -25.0764 0.0000
# 4 0.0000 0.0000 0.0000 20.9996 0.0000 -2.0456
# 5 -14.5456 -5.1364 -25.0764 0.0000 28.3579 0.0000
# 6 0.0000 0.0000 0.0000 -2.0456 0.0000 19.2375
#
#
#
# Elastic Compliance Matrix: (Units=1/GPa)
#
#
# Indices 1 2 3 4 5 6 
#
# 1 0.014650 -0.003158 -0.001920 0.000000 0.005244 0.000000
# 2 -0.003158 0.014787 -0.005337 0.000000 -0.003661 0.000000
# 3 -0.001920 -0.005337 0.018197 0.000000 0.014139 0.000000
# 4 0.000000 0.000000 0.000000 0.048118 0.000000 0.005117
# 5 0.005244 -0.003661 0.014139 0.000000 0.049794 0.000000
# 6 0.000000 0.000000 0.000000 0.005117 0.000000 0.052526
#
#
# Mechanical properties :
#
#
# Convention : Reuss Voigt Hill
#
# Bulk Modulus (GPa) = 37.30831 45.91682 41.61257
# Shear Modulus (GPa) = 21.94557 25.02743 23.48650
#
# Velocity S-wave (km/s) = 3.50215 3.73998 3.62302
# Velocity P-wave (km/s) = 6.09954 6.65674 6.38422
#
# Compressibility (1/GPa) = 0.02680368
#
# Stress axis : x y z
#
# Youngs Moduli (GPa) = 68.25962 67.62543 54.95548
#
# Poissons Ratio (x) = 0.21355 0.10553
# Poissons Ratio (y) = 0.21556 0.29329
# Poissons Ratio (z) = 0.13108 0.36091
#
# Static dielectric constant tensor:
#      x y z
#    x 1.605450 0.000000 -0.013750 
#    y 0.000000 1.632260 0.000000 
#    z -0.013750 0.000000 1.614660 
# 
# From -- ./inp_files/67068.got.cif
#   From: 2010.05.17/outbox.cif.g08.bks.cpg/sg12_34_cif.got.tgz:67068.got - 2010.06.03 13:09:07.
