data_PCOD9192493
_publ_section_title
;
Structure prediction by ZEFSAII (Michael W. Deem and Ramdas Pophale) SiO2 
 PCOD9192493
Probable space group: C 2/M
;
_chemical_formula_sum "Si O2"
_cell_formula_units_Z 56
_cell_length_a 15.002839
_cell_length_b 14.410067
_cell_length_c 18.948055
_cell_angle_alpha 90.000000
_cell_angle_beta 43.644155
_cell_angle_gamma 90.000000
_cell_volume 2827.254041
_symmetry_space_group_name_H-M "C 2/M"
_symmetry_group_IT_number 12
_symmetry_cell_setting 'monoclinic'
loop_
_space_group_symop_operation_xyz
x,y,z
-x,y,-z
-x,-y,-z
x,-y,z
1/2+x,1/2+y,z
1/2-x,1/2+y,-z
1/2-x,1/2-y,-z
1/2+x,1/2-y,z
loop_
_atom_site_type_symbol
_atom_site_label
_atom_site_fract_x
_atom_site_fract_y
_atom_site_fract_z
Si Si1 0.991538 0.102015 0.088721
Si Si2 0.585208 0.726088 0.385953
Si Si3 0.238625 0.892372 0.674752
Si Si4 0.422417 0.205166 0.893677
Si Si5 0.992243 0.192138 0.283564
Si Si6 0.245437 0.105317 0.092778
Si Si7 0.673257 0.890051 0.803822
O O1 0.848658 0.104251 0.204252
O O2 0.050677 0.195950 0.084931
O O3 0.046994 0.000000 0.078917
O O4 0.000000 0.105035 0.000000
O O5 0.500000 0.692029 0.500000
O O6 0.639435 0.827910 0.376497
O O7 0.505037 0.716870 0.358541
O O8 0.712983 0.664092 0.301031
O O9 0.145238 0.841404 0.669705
O O10 0.265670 0.000000 0.639288
O O11 0.446144 0.223667 0.797476
O O12 0.536259 0.136324 0.851475
O O13 0.292694 0.161893 0.998614
O O14 0.096821 0.113052 0.202470
O O15 0.321754 0.141928 0.117547
O O16 0.281401 0.000000 0.060780
O O17 0.696412 0.000000 0.789189
#
# Coordination Sequence:
#
# PCOD9192493 Si02
#       7
#     8   8   8   8   8   8   8
#     4   9  17  29  53  86 118 158 204 239 288 364
#     4  11  24  43  68  90 120 159 215 269 325 373
#     4  10  21  42  66  90 126 168 207 258 317 376
#     4  11  19  34  56  87 124 166 196 242 305 370
#     4  10  22  39  62  90 125 162 209 256 306 370
#     4  10  20  33  56  90 125 162 201 241 292 370
#     4  10  20  37  59  87 122 160 201 252 311 372
#
# _framework density 19.807205
#
# number of rings (size 3 to 8) (size 9 to 14) (size 15 to 20)
#    0.000    1.857    2.857    2.571    2.000    3.429 
#    0.000    1.429    0.000    0.000    0.000    0.000 
#    0.000    0.000    0.000    0.000    0.000    0.000 
#
# Total GULP energy -156125.350192 kJ/mol
# GULP energy per Si atom -5575.905364 kJ/mol
# Density = 1.976212 g / cm^3
# Si number density = 19.807205 Si / 1000 Ang^3
#
#
#
# Elastic Constant Matrix: (Units=GPa)
#
#
# Indices 1 2 3 4 5 6 
#
# 1 70.5406 16.6956 37.2012 0.0000 21.3894 0.0000
# 2 16.6956 80.4281 25.2240 0.0000 0.4895 0.0000
# 3 37.2012 25.2240 80.7535 0.0000 21.5784 0.0000
# 4 0.0000 0.0000 0.0000 8.0839 0.0000 0.0036
# 5 21.3894 0.4895 21.5784 0.0000 27.3306 0.0000
# 6 0.0000 0.0000 0.0000 0.0036 0.0000 10.5644
#
#
#
# Elastic Compliance Matrix: (Units=1/GPa)
#
#
# Indices 1 2 3 4 5 6 
#
# 1 0.021585 -0.002561 -0.005883 0.000000 -0.012202 0.000000
# 2 -0.002561 0.014441 -0.004813 0.000000 0.005546 0.000000
# 3 -0.005883 -0.004813 0.019446 0.000000 -0.010663 0.000000
# 4 0.000000 0.000000 0.000000 0.123703 0.000000 -0.000042
# 5 -0.012202 0.005546 -0.010663 0.000000 0.054458 0.000000
# 6 0.000000 0.000000 0.000000 -0.000042 0.000000 0.094658
#
#
# Mechanical properties :
#
#
# Convention : Reuss Voigt Hill
#
# Bulk Modulus (GPa) = 34.53311 43.32930 38.93120
# Shear Modulus (GPa) = 13.71905 19.36921 16.54413
#
# Velocity S-wave (km/s) = 2.63464 3.13051 2.89322
# Velocity P-wave (km/s) = 5.16987 5.91522 5.55506
#
# Compressibility (1/GPa) = 0.02895772
#
# Stress axis : x y z
#
# Youngs Moduli (GPa) = 46.32865 69.24855 51.42431
#
# Poissons Ratio (x) = 0.17737 0.30253
# Poissons Ratio (y) = 0.11867 0.24748
# Poissons Ratio (z) = 0.27255 0.33326
#
# Static dielectric constant tensor:
#      x y z
#    x 1.763100 0.000000 0.006770 
#    y 0.000000 1.727760 0.000000 
#    z 0.006770 0.000000 1.665870 
# 
# From -- ./inp_files/270214.got.cif
#   From: 2010.05.17/outbox.cif.g08.bks.cpg/sg12_136_cif.got.tgz:270214.got - 2010.06.03 13:09:07.
