data_PCOD9192974
_publ_section_title
;
Structure prediction by ZEFSAII (Michael W. Deem and Ramdas Pophale) SiO2 
 PCOD9192974
Probable space group: C 2/M
;
_chemical_formula_sum "Si O2"
_cell_formula_units_Z 50
_cell_length_a 14.574303
_cell_length_b 7.438766
_cell_length_c 21.677692
_cell_angle_alpha 90.000000
_cell_angle_beta 119.748196
_cell_angle_gamma 90.000000
_cell_volume 2040.463059
_symmetry_space_group_name_H-M "C 2/M"
_symmetry_group_IT_number 12
_symmetry_cell_setting 'monoclinic'
loop_
_space_group_symop_operation_xyz
x,y,z
-x,y,-z
-x,-y,-z
x,-y,z
1/2+x,1/2+y,z
1/2-x,1/2+y,-z
1/2-x,1/2-y,-z
1/2+x,1/2-y,z
loop_
_atom_site_type_symbol
_atom_site_label
_atom_site_fract_x
_atom_site_fract_y
_atom_site_fract_z
Si Si1 0.668387 0.217442 0.551926
Si Si2 0.000000 0.000000 0.500000
Si Si3 0.598605 0.282932 0.355709
Si Si4 0.364069 0.204075 0.317333
Si Si5 0.932968 0.795320 0.922336
Si Si6 0.297024 0.295966 0.162143
Si Si7 0.972325 0.219814 0.799554
O O1 0.577044 0.341990 0.494754
O O2 0.789641 0.266698 0.576976
O O3 0.657064 0.271035 0.621167
O O4 0.652741 0.000000 0.540809
O O5 0.591716 0.500000 0.354528
O O6 0.489591 0.210087 0.346586
O O7 0.597086 0.227062 0.282717
O O8 0.309634 0.294916 0.240655
O O9 0.324810 0.000000 0.303054
O O10 0.808800 0.798609 0.894434
O O11 0.942106 0.714580 0.857038
O O12 0.973200 0.000000 0.929604
O O13 0.000000 0.711324 0.000000
O O14 0.288377 0.500000 0.137825
O O15 0.407806 0.222444 0.174686
O O16 0.968998 0.000000 0.798109
#
# Coordination Sequence:
#
# PCOD9192974 Si02
#       7
#     8   2   8   8   8   8   8
#     4  10  23  42  63  87 124 160 193 244 296 340
#     4  12  26  40  68  86 124 162 208 232 268 374
#     4   9  18  35  61  86 115 147 190 244 300 348
#     4  10  20  36  62  89 116 144 189 245 297 346
#     4  10  20  34  52  74 108 153 197 232 284 353
#     4  10  20  34  54  80 110 143 186 238 294 344
#     4   8  16  33  53  78 109 143 180 233 296 340
#
# _framework density 24.504239999999999
#
# number of rings (size 3 to 8) (size 9 to 14) (size 15 to 20)
#    0.000    2.400    0.000    3.120    3.360    3.520 
#    0.000    4.800    0.000    0.000    0.000    0.000 
#    0.000    0.000    0.000    0.000    0.000    0.000 
#
# Total GULP energy -139516.712102 kJ/mol
# GULP energy per Si atom -5580.668484 kJ/mol
# Density = 2.444847 g / cm^3
# Si number density = 24.504240 Si / 1000 Ang^3
#
#
#
# Elastic Constant Matrix: (Units=GPa)
#
#
# Indices 1 2 3 4 5 6 
#
# 1 67.5490 -4.9322 47.4779 0.0000 12.2165 0.0000
# 2 -4.9322 86.2583 9.4997 0.0000 5.2554 0.0000
# 3 47.4779 9.4997 142.5495 0.0000 18.9399 0.0000
# 4 0.0000 0.0000 0.0000 -33.3495 0.0000 64.0320
# 5 12.2165 5.2554 18.9399 0.0000 30.7878 0.0000
# 6 0.0000 0.0000 0.0000 64.0320 0.0000 -40.4380
#
#
#
# Elastic Compliance Matrix: (Units=1/GPa)
#
#
# Indices 1 2 3 4 5 6 
#
# 1 0.020176 0.002118 -0.006261 0.000000 -0.004516 0.000000
# 2 0.002118 0.011979 -0.001220 0.000000 -0.002135 0.000000
# 3 -0.006261 -0.001220 0.009609 0.000000 -0.003219 0.000000
# 4 0.000000 0.000000 0.000000 0.014697 0.000000 0.023272
# 5 -0.004516 -0.002135 -0.003219 0.000000 0.036617 0.000000
# 6 0.000000 0.000000 0.000000 0.023272 0.000000 0.012120
#
#
# Mechanical properties :
#
#
# Convention : Reuss Voigt Hill
#
# Bulk Modulus (GPa) = 32.21825 44.49416 38.35621
# Shear Modulus (GPa) = 39.59770 7.68751 23.64260
#
# Velocity S-wave (km/s) = 4.02425 1.77314 3.10955
# Velocity P-wave (km/s) = 5.89656 4.73172 5.34596
#
# Compressibility (1/GPa) = 0.03103831
#
# Stress axis : x y z
#
# Youngs Moduli (GPa) = 49.56348 83.48191 104.06449
#
# Poissons Ratio (x) = -0.17684 0.65156
# Poissons Ratio (y) = -0.10499 0.12698
# Poissons Ratio (z) = 0.31032 0.10186
#
# Static dielectric constant tensor:
#      x y z
#    x 1.965420 0.000000 -0.048160 
#    y 0.000000 1.971250 0.000000 
#    z -0.048160 0.000000 2.019330 
# 
# From -- ./inp_files/359606.got.cif
#   From: 2010.05.17/outbox.cif.g08.bks.cpg/sg12_180_cif.got.tgz:359606.got - 2010.06.03 13:09:07.
