data_PCOD9192454
_publ_section_title
;
Structure prediction by ZEFSAII (Michael W. Deem and Ramdas Pophale) SiO2 
 PCOD9192454
Probable space group: C 2/M
;
_chemical_formula_sum "Si O2"
_cell_formula_units_Z 40
_cell_length_a 8.412324
_cell_length_b 17.403390
_cell_length_c 12.463535
_cell_angle_alpha 90.000000
_cell_angle_beta 76.961509
_cell_angle_gamma 90.000000
_cell_volume 1777.655306
_symmetry_space_group_name_H-M "C 2/M"
_symmetry_group_IT_number 12
_symmetry_cell_setting 'monoclinic'
loop_
_space_group_symop_operation_xyz
x,y,z
-x,y,-z
-x,-y,-z
x,-y,z
1/2+x,1/2+y,z
1/2-x,1/2+y,-z
1/2-x,1/2-y,-z
1/2+x,1/2-y,z
loop_
_atom_site_type_symbol
_atom_site_label
_atom_site_fract_x
_atom_site_fract_y
_atom_site_fract_z
Si Si1 0.342656 0.500000 0.447328
Si Si2 0.500000 0.236018 0.500000
Si Si3 0.933219 0.500000 0.333236
Si Si4 0.407998 0.500000 0.124082
Si Si5 0.317599 0.333248 0.369818
Si Si6 0.500000 0.124976 0.000000
Si Si7 0.760332 0.500000 0.137601
Si Si8 0.653446 0.867237 0.198344
O O1 0.500000 0.500000 0.500000
O O2 0.174224 0.500000 0.542813
O O3 0.346952 0.423498 0.376068
O O4 0.468318 0.288926 0.400309
O O5 0.338784 0.185870 0.533152
O O6 0.812320 0.500000 0.252119
O O7 0.036793 0.421501 0.292488
O O8 0.566559 0.500000 0.173474
O O9 0.291565 0.427287 0.143704
O O10 0.500000 0.500000 0.000000
O O11 0.253508 0.310802 0.261573
O O12 0.565429 0.161993 0.102718
O O13 0.350302 0.071648 0.065318
#
# Coordination Sequence:
#
# PCOD9192454 Si02
#       8
#     4   4   4   4   8   4   4   8
#     4  12  23  36  60  99 130 148 207 283 308 346
#     4  10  24  44  66  84 128 176 208 242 314 398
#     4   9  20  32  49  82 127 170 185 244 326 380
#     4  11  17  27  50  87 128 159 189 266 321 364
#     4  11  23  42  64  92 123 167 208 257 315 377
#     4   9  16  32  46  78 116 158 198 243 304 370
#     4   9  16  26  46  71 121 165 193 225 315 386
#     4  10  20  33  56  83 120 165 207 246 310 378
#
# _framework density 22.501550999999999
#
# number of rings (size 3 to 8) (size 9 to 14) (size 15 to 20)
#    0.000    1.800    3.000    3.600    2.800    1.200 
#    0.000    0.000    0.000    1.200    0.000    0.000 
#    0.000    0.000    0.000    0.000    0.000    0.100 
#
# Total GULP energy -111465.645425 kJ/mol
# GULP energy per Si atom -5573.282271 kJ/mol
# Density = 2.245034 g / cm^3
# Si number density = 22.501551 Si / 1000 Ang^3
#
#
#
# Elastic Constant Matrix: (Units=GPa)
#
#
# Indices 1 2 3 4 5 6 
#
# 1 128.0045 16.6742 30.0078 0.0000 22.9493 0.0000
# 2 16.6742 46.8574 6.6925 0.0000 8.2751 0.0000
# 3 30.0078 6.6925 98.2528 0.0000 23.5833 0.0000
# 4 0.0000 0.0000 0.0000 -25.8377 0.0000 -5.9747
# 5 22.9493 8.2751 23.5833 0.0000 73.6845 0.0000
# 6 0.0000 0.0000 0.0000 -5.9747 0.0000 1.7926
#
#
#
# Elastic Compliance Matrix: (Units=1/GPa)
#
#
# Indices 1 2 3 4 5 6 
#
# 1 0.008973 -0.002567 -0.002127 0.000000 -0.001825 0.000000
# 2 -0.002567 0.022593 -0.000366 0.000000 -0.001621 0.000000
# 3 -0.002127 -0.000366 0.011573 0.000000 -0.003000 0.000000
# 4 0.000000 0.000000 0.000000 -0.021858 0.000000 -0.072849
# 5 -0.001825 -0.001621 -0.003000 0.000000 0.015282 0.000000
# 6 0.000000 0.000000 0.000000 -0.072849 0.000000 0.315038
#
#
# Mechanical properties :
#
#
# Convention : Reuss Voigt Hill
#
# Bulk Modulus (GPa) = 30.28623 42.20705 36.24664
# Shear Modulus (GPa) = 13.41465 24.57723 18.99594
#
# Velocity S-wave (km/s) = 2.44430 3.30850 2.90867
# Velocity P-wave (km/s) = 4.63195 5.77867 5.23679
#
# Compressibility (1/GPa) = 0.03301830
#
# Stress axis : x y z
#
# Youngs Moduli (GPa) = 111.45105 44.26110 86.41080
#
# Poissons Ratio (x) = 0.11360 0.18383
# Poissons Ratio (y) = 0.28606 0.03163
# Poissons Ratio (z) = 0.23710 0.01620
#
# Static dielectric constant tensor:
#      x y z
#    x 1.458960 0.000000 -0.076830 
#    y 0.000000 1.846930 0.000000 
#    z -0.076830 0.000000 1.869400 
# 
# From -- ./inp_files/120230.got.cif
#   From: 2010.05.17/outbox.cif.g08.bks.cpg/sg12_61_cif.got.tgz:120230.got - 2010.06.03 13:09:07.
