data_PCOD9192367
_publ_section_title
;
Structure prediction by ZEFSAII (Michael W. Deem and Ramdas Pophale) SiO2 
 PCOD9192367
Probable space group: C 2/M
;
_chemical_formula_sum "Si O2"
_cell_formula_units_Z 48
_cell_length_a 21.516495
_cell_length_b 10.714283
_cell_length_c 15.208361
_cell_angle_alpha 90.000000
_cell_angle_beta 136.566677
_cell_angle_gamma 90.000000
_cell_volume 2410.438482
_symmetry_space_group_name_H-M "C 2/M"
_symmetry_group_IT_number 12
_symmetry_cell_setting 'monoclinic'
loop_
_space_group_symop_operation_xyz
x,y,z
-x,y,-z
-x,-y,-z
x,-y,z
1/2+x,1/2+y,z
1/2-x,1/2+y,-z
1/2-x,1/2-y,-z
1/2+x,1/2-y,z
loop_
_atom_site_type_symbol
_atom_site_label
_atom_site_fract_x
_atom_site_fract_y
_atom_site_fract_z
Si Si1 0.903359 0.645260 0.431410
Si Si2 0.522212 0.135659 0.786422
Si Si3 0.859701 0.135789 0.131160
Si Si4 0.408109 0.140668 0.944685
Si Si5 0.821338 0.350989 0.535590
Si Si6 0.752299 0.775499 0.852729
O O1 0.920272 0.500000 0.466574
O O2 0.856995 0.689293 0.474828
O O3 0.830164 0.657954 0.279244
O O4 0.000000 0.701175 0.500000
O O5 0.568499 0.252687 0.787855
O O6 0.570622 0.130890 0.930040
O O7 0.415039 0.151468 0.687162
O O8 0.537426 0.000000 0.758241
O O9 0.788106 0.157945 0.135228
O O10 0.901836 0.000000 0.179344
O O11 0.805059 0.148937 0.982887
O O12 0.394350 0.000000 0.895152
O O13 0.500000 0.194278 0.000000
O O14 0.321983 0.228061 0.850837
O O15 0.792034 0.500000 0.503541
O O16 0.750000 0.250000 0.500000
#
# Coordination Sequence:
#
# PCOD9192367 Si02
#       6
#     8   8   8   8   8   8
#     4  10  21  38  60  85 114 154 202 244 284 344
#     4   9  19  36  57  80 108 147 191 230 278 346
#     4  10  20  34  56  86 116 145 181 237 299 346
#     4   9  18  32  53  79 106 141 185 232 278 333
#     4  10  22  39  60  86 116 156 201 242 291 347
#     4  10  20  33  55  82 115 148 186 233 289 348
#
# _framework density 19.913388999999999
#
# number of rings (size 3 to 8) (size 9 to 14) (size 15 to 20)
#    0.000    2.333    0.000    2.000    2.333    6.667 
#    0.000    0.833    0.000    6.000    0.000    0.000 
#    0.000    0.000    0.000    0.000    0.000    0.000 
#
# Total GULP energy -133723.433576 kJ/mol
# GULP energy per Si atom -5571.809732 kJ/mol
# Density = 1.986807 g / cm^3
# Si number density = 19.913389 Si / 1000 Ang^3
#
#
#
# Elastic Constant Matrix: (Units=GPa)
#
#
# Indices 1 2 3 4 5 6 
#
# 1 115.2414 51.6853 18.3097 0.0000 30.8032 0.0000
# 2 51.6853 113.4919 25.1317 0.0000 22.5988 0.0000
# 3 18.3097 25.1317 69.0177 0.0000 15.3326 0.0000
# 4 0.0000 0.0000 0.0000 8.5542 0.0000 11.8139
# 5 30.8032 22.5988 15.3326 0.0000 29.6692 0.0000
# 6 0.0000 0.0000 0.0000 11.8139 0.0000 4.3042
#
#
#
# Elastic Compliance Matrix: (Units=1/GPa)
#
#
# Indices 1 2 3 4 5 6 
#
# 1 0.013343 -0.003960 0.000350 0.000000 -0.011017 0.000000
# 2 -0.003960 0.011892 -0.002464 0.000000 -0.003673 0.000000
# 3 0.000350 -0.002464 0.016897 0.000000 -0.007219 0.000000
# 4 0.000000 0.000000 0.000000 -0.041889 0.000000 0.114977
# 5 -0.011017 -0.003673 -0.007219 0.000000 0.051672 0.000000
# 6 0.000000 0.000000 0.000000 0.114977 0.000000 -0.083252
#
#
# Mechanical properties :
#
#
# Convention : Reuss Voigt Hill
#
# Bulk Modulus (GPa) = 33.35152 54.22271 43.78711
# Shear Modulus (GPa) = -543.67683 22.01381 -260.83151
#
# Velocity S-wave (km/s) = -16.54126 3.32848 -11.45720
# Velocity P-wave (km/s) = 18.65565 6.48537 12.36878
#
# Compressibility (1/GPa) = 0.02998364
#
# Stress axis : x y z
#
# Youngs Moduli (GPa) = 74.94703 84.09288 59.18213
#
# Poissons Ratio (x) = 0.33302 -0.02070
# Poissons Ratio (y) = 0.29680 0.14580
# Poissons Ratio (z) = -0.02622 0.20717
#
# Static dielectric constant tensor:
#      x y z
#    x 1.762370 0.000000 -0.007680 
#    y 0.000000 1.712500 0.000000 
#    z -0.007680 0.000000 1.718010 
# 
# From -- ./inp_files/283024.got.cif
#   From: 2010.05.17/outbox.cif.g08.bks.cpg/sg12_142_cif.got.tgz:283024.got - 2010.06.03 13:09:07.
