data_PCOD9192021
_publ_section_title
;
Structure prediction by ZEFSAII (Michael W. Deem and Ramdas Pophale) SiO2 
 PCOD9192021
Probable space group: C 2/M
;
_chemical_formula_sum "Si O2"
_cell_formula_units_Z 56
_cell_length_a 14.938414
_cell_length_b 22.675550
_cell_length_c 9.245561
_cell_angle_alpha 90.000000
_cell_angle_beta 119.840862
_cell_angle_gamma 90.000000
_cell_volume 2716.566969
_symmetry_space_group_name_H-M "C 2/M"
_symmetry_group_IT_number 12
_symmetry_cell_setting 'monoclinic'
loop_
_space_group_symop_operation_xyz
x,y,z
-x,y,-z
-x,-y,-z
x,-y,z
1/2+x,1/2+y,z
1/2-x,1/2+y,-z
1/2-x,1/2-y,-z
1/2+x,1/2-y,z
loop_
_atom_site_type_symbol
_atom_site_label
_atom_site_fract_x
_atom_site_fract_y
_atom_site_fract_z
Si Si1 0.411857 0.744481 0.730269
Si Si2 0.811997 0.067534 0.964098
Si Si3 0.902743 0.385679 0.218556
Si Si4 0.156868 0.114245 0.322836
Si Si5 0.359570 0.768310 0.019137
Si Si6 0.534888 0.568150 0.677941
Si Si7 0.379126 0.134268 0.537690
O O1 0.366852 0.681390 0.652914
O O2 0.366667 0.759805 0.852821
O O3 0.385427 0.799847 0.607405
O O4 0.536241 0.736875 0.838268
O O5 0.688433 0.068237 0.876968
O O6 0.840248 0.106777 0.848203
O O7 0.846798 0.000000 0.967654
O O8 0.869741 0.091857 0.152059
O O9 0.887883 0.361126 0.370530
O O10 0.023541 0.400887 0.318013
O O11 0.880853 0.335347 0.084066
O O12 0.270588 0.102184 0.475623
O O13 0.066655 0.072890 0.306233
O O14 0.250000 0.750000 0.000000
O O15 0.500000 0.597394 0.500000
O O16 0.562269 0.500000 0.668918
#
# Coordination Sequence:
#
# PCOD9192021 Si02
#       7
#     8   8   8   8   8   8   8
#     4  10  22  35  53  83 120 153 196 236 287 353
#     4  10  21  38  63  87 112 149 195 247 295 347
#     4   9  19  36  59  79 116 153 193 235 291 335
#     4  11  21  35  58  83 116 153 192 235 290 347
#     4  10  20  33  52  80 111 155 193 242 282 343
#     4  10  23  41  57  81 113 145 188 244 297 342
#     4   9  19  38  52  81 119 156 184 238 281 339
#
# _framework density 20.614252
#
# number of rings (size 3 to 8) (size 9 to 14) (size 15 to 20)
#    0.000    2.143    0.000    3.000    6.000    2.286 
#    5.143    6.429    0.000    0.000    0.000   11.000 
#    0.000    0.000    0.000    0.000    0.000    0.000 
#
# Total GULP energy -156108.857525 kJ/mol
# GULP energy per Si atom -5575.316340 kJ/mol
# Density = 2.056733 g / cm^3
# Si number density = 20.614252 Si / 1000 Ang^3
#
#
#
# Elastic Constant Matrix: (Units=GPa)
#
#
# Indices 1 2 3 4 5 6 
#
# 1 96.8806 7.7474 48.3048 0.0000 25.0936 0.0000
# 2 7.7474 20.9901 16.0237 0.0000 5.0512 0.0000
# 3 48.3048 16.0237 116.6174 0.0000 25.4573 0.0000
# 4 0.0000 0.0000 0.0000 18.8773 0.0000 2.8546
# 5 25.0936 5.0512 25.4573 0.0000 19.4499 0.0000
# 6 0.0000 0.0000 0.0000 2.8546 0.0000 28.7899
#
#
#
# Elastic Compliance Matrix: (Units=1/GPa)
#
#
# Indices 1 2 3 4 5 6 
#
# 1 0.016228 0.000450 -0.003063 0.000000 -0.017045 0.000000
# 2 0.000450 0.053733 -0.006155 0.000000 -0.006479 0.000000
# 3 -0.003063 -0.006155 0.013269 0.000000 -0.011817 0.000000
# 4 0.000000 0.000000 0.000000 0.053780 0.000000 -0.005332
# 5 -0.017045 -0.006479 -0.011817 0.000000 0.090555 0.000000
# 6 0.000000 0.000000 0.000000 -0.005332 0.000000 0.035263
#
#
# Mechanical properties :
#
#
# Convention : Reuss Voigt Hill
#
# Bulk Modulus (GPa) = 15.22192 42.07111 28.64652
# Shear Modulus (GPa) = 16.54189 24.25089 20.39639
#
# Velocity S-wave (km/s) = 2.83583 3.43361 3.14894
# Velocity P-wave (km/s) = 4.25708 6.01437 5.21034
#
# Compressibility (1/GPa) = 0.06569474
#
# Stress axis : x y z
#
# Youngs Moduli (GPa) = 61.62180 18.61039 75.36224
#
# Poissons Ratio (x) = -0.00838 0.23083
# Poissons Ratio (y) = -0.02775 0.46388
# Poissons Ratio (z) = 0.18874 0.11455
#
# Static dielectric constant tensor:
#      x y z
#    x 1.789420 0.000000 0.025130 
#    y 0.000000 1.730580 0.000000 
#    z 0.025130 0.000000 1.757060 
# 
# From -- ./inp_files/65939.got.cif
#   From: 2010.05.17/outbox.cif.g08.bks.cpg/sg12_33_cif.got.tgz:65939.got - 2010.06.03 13:09:07.
