data_PCOD9192697
_publ_section_title
;
Structure prediction by ZEFSAII (Michael W. Deem and Ramdas Pophale) SiO2 
 PCOD9192697
Probable space group: C 2/M
;
_chemical_formula_sum "Si O2"
_cell_formula_units_Z 56
_cell_length_a 31.472874
_cell_length_b 7.583398
_cell_length_c 12.450232
_cell_angle_alpha 90.000000
_cell_angle_beta 117.256484
_cell_angle_gamma 90.000000
_cell_volume 2641.572383
_symmetry_space_group_name_H-M "C 2/M"
_symmetry_group_IT_number 12
_symmetry_cell_setting 'monoclinic'
loop_
_space_group_symop_operation_xyz
x,y,z
-x,y,-z
-x,-y,-z
x,-y,z
1/2+x,1/2+y,z
1/2-x,1/2+y,-z
1/2-x,1/2-y,-z
1/2+x,1/2-y,z
loop_
_atom_site_type_symbol
_atom_site_label
_atom_site_fract_x
_atom_site_fract_y
_atom_site_fract_z
Si Si1 0.526516 0.208317 0.318778
Si Si2 0.415315 0.286085 0.210113
Si Si3 0.550471 0.213741 0.111979
Si Si4 0.398496 0.704637 0.428571
Si Si5 0.637877 0.705885 0.058614
Si Si6 0.319486 0.707470 0.496893
Si Si7 0.287222 0.714850 0.689633
O O1 0.470063 0.239364 0.248325
O O2 0.550215 0.274069 0.235352
O O3 0.551029 0.288496 0.451782
O O4 0.534622 0.000000 0.334261
O O5 0.413403 0.500000 0.208099
O O6 0.402053 0.219588 0.313405
O O7 0.381046 0.218865 0.075540
O O8 0.594237 0.281216 0.092423
O O9 0.552280 0.000000 0.113070
O O10 0.500000 0.265679 0.000000
O O11 0.384875 0.500000 0.398220
O O12 0.360025 0.784605 0.466647
O O13 0.647917 0.500000 0.050589
O O14 0.684074 0.779134 0.173269
O O15 0.330080 0.500000 0.522039
O O16 0.313649 0.778536 0.611124
O O17 0.267551 0.728100 0.382794
O O18 0.287769 0.500000 0.688986
#
# Coordination Sequence:
#
# PCOD9192697 Si02
#       7
#     8   8   8   8   8   8   8
#     4  11  22  35  53  77 105 138 176 217 261 308
#     4  10  21  36  53  74 104 142 178 214 255 302
#     4  10  20  34  50  73 107 138 166 210 262 306
#     4  10  21  37  55  75 103 138 178 218 255 303
#     4  10  20  34  54  79 105 138 177 213 255 307
#     4   9  18  34  55  77 101 131 168 210 259 311
#     4   9  18  33  54  79 104 128 163 214 263 307
#
# _framework density 21.199494000000001
#
# number of rings (size 3 to 8) (size 9 to 14) (size 15 to 20)
#    0.000    2.143    1.429    1.714    0.000    6.000 
#    0.000    3.571    0.000    0.000    0.000    0.000 
#    0.000    0.000    0.000    0.000    0.000    0.000 
#
# Total GULP energy -156395.581756 kJ/mol
# GULP energy per Si atom -5585.556491 kJ/mol
# Density = 2.115124 g / cm^3
# Si number density = 21.199494 Si / 1000 Ang^3
#
#
#
# Elastic Constant Matrix: (Units=GPa)
#
#
# Indices 1 2 3 4 5 6 
#
# 1 32.1965 -1.6985 37.7379 0.0000 -6.1594 0.0000
# 2 -1.6985 48.4972 -5.6442 0.0000 -8.5387 0.0000
# 3 37.7379 -5.6442 165.4423 0.0000 -8.1261 0.0000
# 4 0.0000 0.0000 0.0000 6.1129 0.0000 15.6726
# 5 -6.1594 -8.5387 -8.1261 0.0000 26.9397 0.0000
# 6 0.0000 0.0000 0.0000 15.6726 0.0000 1.2416
#
#
#
# Elastic Compliance Matrix: (Units=1/GPa)
#
#
# Indices 1 2 3 4 5 6 
#
# 1 0.043831 0.001779 -0.009559 0.000000 0.007702 0.000000
# 2 0.001779 0.022110 0.000724 0.000000 0.007633 0.000000
# 3 -0.009559 0.000724 0.008276 0.000000 0.000540 0.000000
# 4 0.000000 0.000000 0.000000 -0.005216 0.000000 0.065840
# 5 0.007702 0.007633 0.000540 0.000000 0.041463 0.000000
# 6 0.000000 0.000000 0.000000 0.065840 0.000000 -0.025680
#
#
# Mechanical properties :
#
#
# Convention : Reuss Voigt Hill
#
# Bulk Modulus (GPa) = 16.63807 34.10293 25.37050
# Shear Modulus (GPa) = 42.04087 21.24156 31.64121
#
# Velocity S-wave (km/s) = 4.45804 3.16885 3.86754
# Velocity P-wave (km/s) = 5.86210 5.43235 5.65131
#
# Compressibility (1/GPa) = 0.06010311
#
# Stress axis : x y z
#
# Youngs Moduli (GPa) = 22.81508 45.22813 120.83074
#
# Poissons Ratio (x) = -0.08044 1.15501
# Poissons Ratio (y) = -0.04058 -0.08742
# Poissons Ratio (z) = 0.21809 -0.03272
#
# Static dielectric constant tensor:
#      x y z
#    x 1.736060 0.000000 -0.018230 
#    y 0.000000 1.780110 0.000000 
#    z -0.018230 0.000000 1.779650 
# 
# From -- ./inp_files/180735.got.cif
#   From: 2010.05.17/outbox.cif.g08.bks.cpg/sg12_91_cif.got.tgz:180735.got - 2010.06.03 13:09:07.
