data_PCOD9192986
_publ_section_title
;
Structure prediction by ZEFSAII (Michael W. Deem and Ramdas Pophale) SiO2 
 PCOD9192986
Probable space group: C 2/M
;
_chemical_formula_sum "Si O2"
_cell_formula_units_Z 48
_cell_length_a 30.237698
_cell_length_b 7.520804
_cell_length_c 8.200190
_cell_angle_alpha 90.000000
_cell_angle_beta 101.529859
_cell_angle_gamma 90.000000
_cell_volume 1827.189158
_symmetry_space_group_name_H-M "C 2/M"
_symmetry_group_IT_number 12
_symmetry_cell_setting 'monoclinic'
loop_
_space_group_symop_operation_xyz
x,y,z
-x,y,-z
-x,-y,-z
x,-y,z
1/2+x,1/2+y,z
1/2-x,1/2+y,-z
1/2-x,1/2-y,-z
1/2+x,1/2-y,z
loop_
_atom_site_type_symbol
_atom_site_label
_atom_site_fract_x
_atom_site_fract_y
_atom_site_fract_z
Si Si1 0.483370 0.711548 0.739232
Si Si2 0.931124 0.782115 0.377390
Si Si3 0.261899 0.703464 0.236333
Si Si4 0.399024 0.210424 0.855260
Si Si5 0.316768 0.217261 0.600773
Si Si6 0.345998 0.290069 0.143676
O O1 0.486714 0.500000 0.729540
O O2 0.533897 0.775864 0.739766
O O3 0.453755 0.775962 0.562479
O O4 0.451455 0.744615 0.869767
O O5 0.881279 0.715455 0.302376
O O6 0.929436 0.000000 0.377600
O O7 0.251528 0.500000 0.188846
O O8 0.294587 0.710212 0.420551
O O9 0.215523 0.780375 0.272983
O O10 0.295282 0.783765 0.124267
O O11 0.367280 0.275756 0.682544
O O12 0.396084 0.000000 0.852901
O O13 0.373411 0.272126 0.997327
O O14 0.314540 0.000000 0.590455
O O15 0.340666 0.500000 0.168589
#
# Coordination Sequence:
#
# PCOD9192986 Si02
#       6
#     8   8   8   8   8   8
#     4   9  17  34  58  78  97 126 167 211 254 297
#     4   8  16  32  56  81  99 121 162 216 260 292
#     4   9  18  34  57  80  98 124 168 213 249 294
#     4  11  23  35  47  71 108 142 168 198 244 299
#     4   9  19  35  53  75 104 133 162 204 254 297
#     4  10  20  34  52  75 102 132 168 208 249 294
#
# _framework density 26.269856000000001
#
# number of rings (size 3 to 8) (size 9 to 14) (size 15 to 20)
#    0.000    2.667    0.000    2.500    0.000    4.667 
#    0.000    6.667    0.000    0.000    0.000    0.000 
#    0.000    0.000    0.000    0.000    0.000    0.000 
#
# Total GULP energy -134121.449114 kJ/mol
# GULP energy per Si atom -5588.393713 kJ/mol
# Density = 2.621007 g / cm^3
# Si number density = 26.269856 Si / 1000 Ang^3
#
#
#
# Elastic Constant Matrix: (Units=GPa)
#
#
# Indices 1 2 3 4 5 6 
#
# 1 177.2671 7.9700 13.0225 0.0000 -31.7677 0.0000
# 2 7.9700 85.4165 -5.8994 0.0000 5.0615 0.0000
# 3 13.0225 -5.8994 60.3043 0.0000 -21.0048 0.0000
# 4 0.0000 0.0000 0.0000 9.7543 0.0000 9.8057
# 5 -31.7677 5.0615 -21.0048 0.0000 51.0982 0.0000
# 6 0.0000 0.0000 0.0000 9.8057 0.0000 -3.3132
#
#
#
# Elastic Compliance Matrix: (Units=1/GPa)
#
#
# Indices 1 2 3 4 5 6 
#
# 1 0.006408 -0.000841 -0.000058 0.000000 0.004043 0.000000
# 2 -0.000841 0.011926 0.000881 0.000000 -0.001342 0.000000
# 3 -0.000058 0.000881 0.019419 0.000000 0.007859 0.000000
# 4 0.000000 0.000000 0.000000 0.025790 0.000000 0.076327
# 5 0.004043 -0.001342 0.007859 0.000000 0.025448 0.000000
# 6 0.000000 0.000000 0.000000 0.076327 0.000000 -0.075927
#
#
# Mechanical properties :
#
#
# Convention : Reuss Voigt Hill
#
# Bulk Modulus (GPa) = 26.51387 39.24157 32.87772
# Shear Modulus (GPa) = 194.76213 32.03418 113.39815
#
# Velocity S-wave (km/s) = 8.61974 3.49582 6.57726
# Velocity P-wave (km/s) = 10.44899 5.59148 8.37992
#
# Compressibility (1/GPa) = 0.03771611
#
# Stress axis : x y z
#
# Youngs Moduli (GPa) = 156.05765 83.84871 51.49681
#
# Poissons Ratio (x) = 0.07056 0.00297
# Poissons Ratio (y) = 0.13132 -0.04536
# Poissons Ratio (z) = 0.00901 -0.07386
#
# Static dielectric constant tensor:
#      x y z
#    x 2.187750 0.000000 -0.086200 
#    y 0.000000 1.879860 0.000000 
#    z -0.086200 0.000000 2.168560 
# 
# From -- ./inp_files/108579.got.cif
#   From: 2010.05.17/outbox.cif.g08.bks.cpg/sg12_55_cif.got.tgz:108579.got - 2010.06.03 13:09:07.
