data_PCOD9192062
_publ_section_title
;
Structure prediction by ZEFSAII (Michael W. Deem and Ramdas Pophale) SiO2 
 PCOD9192062
Probable space group: C 2/M
;
_chemical_formula_sum "Si O2"
_cell_formula_units_Z 48
_cell_length_a 25.482167
_cell_length_b 7.660069
_cell_length_c 14.319768
_cell_angle_alpha 90.000000
_cell_angle_beta 73.525301
_cell_angle_gamma 90.000000
_cell_volume 2680.394676
_symmetry_space_group_name_H-M "C 2/M"
_symmetry_group_IT_number 12
_symmetry_cell_setting 'monoclinic'
loop_
_space_group_symop_operation_xyz
x,y,z
-x,y,-z
-x,-y,-z
x,-y,z
1/2+x,1/2+y,z
1/2-x,1/2+y,-z
1/2-x,1/2-y,-z
1/2+x,1/2-y,z
loop_
_atom_site_type_symbol
_atom_site_label
_atom_site_fract_x
_atom_site_fract_y
_atom_site_fract_z
Si Si1 0.256324 0.209201 0.106103
Si Si2 0.950878 0.800477 0.240433
Si Si3 0.360794 0.290598 0.760779
Si Si4 0.544867 0.000000 0.614160
Si Si5 0.565339 0.291749 0.093834
Si Si6 0.872040 0.297783 0.121871
Si Si7 0.418486 0.000000 0.613488
O O1 0.201805 0.263376 0.188204
O O2 0.313413 0.276340 0.118906
O O3 0.258515 0.000000 0.111239
O O4 0.250000 0.250000 0.000000
O O5 0.942663 0.669999 0.330044
O O6 0.900883 0.795003 0.193583
O O7 0.004798 0.738366 0.156203
O O8 0.961204 0.000000 0.265861
O O9 0.363685 0.500000 0.740857
O O10 0.394025 0.257927 0.840230
O O11 0.388052 0.171025 0.668586
O O12 0.480213 0.000000 0.622816
O O13 0.576610 0.000000 0.500426
O O14 0.563929 0.500000 0.078203
O O15 0.588597 0.210341 0.988156
O O16 0.865184 0.500000 0.152261
#
# Coordination Sequence:
#
# PCOD9192062 Si02
#       7
#     8   8   8   4   8   8   4
#     4  10  21  34  53  85 123 158 194 239 277 335
#     4  11  23  40  59  83 120 161 194 242 294 353
#     4  10  21  38  58  86 123 155 194 236 288 354
#     4  11  24  42  62  93 116 139 202 255 299 357
#     4  10  20  33  52  83 123 159 194 227 281 353
#     4  11  22  33  55  87 121 164 200 235 283 347
#     4  11  24  40  67  90 113 152 189 251 314 346
#
# _framework density 17.907810000000001
#
# number of rings (size 3 to 8) (size 9 to 14) (size 15 to 20)
#    0.000    1.500    4.167    1.000    3.500    3.333 
#    0.000    1.667    0.000    1.000    0.000    0.000 
#    0.000    0.000    0.000    0.000    0.000    0.000 
#
# Total GULP energy -134068.089598 kJ/mol
# GULP energy per Si atom -5586.170400 kJ/mol
# Density = 1.786705 g / cm^3
# Si number density = 17.907810 Si / 1000 Ang^3
#
#
#
# Elastic Constant Matrix: (Units=GPa)
#
#
# Indices 1 2 3 4 5 6 
#
# 1 94.8012 23.1536 58.8718 0.0000 12.2027 0.0000
# 2 23.1536 75.4251 54.0095 0.0000 0.8007 0.0000
# 3 58.8718 54.0095 128.3702 0.0000 -4.4066 0.0000
# 4 0.0000 0.0000 0.0000 7.2444 0.0000 -1.6329
# 5 12.2027 0.8007 -4.4066 0.0000 18.3174 0.0000
# 6 0.0000 0.0000 0.0000 -1.6329 0.0000 18.1488
#
#
#
# Elastic Compliance Matrix: (Units=1/GPa)
#
#
# Indices 1 2 3 4 5 6 
#
# 1 0.017729 0.001252 -0.009140 0.000000 -0.014064 0.000000
# 2 0.001252 0.019204 -0.008784 0.000000 -0.003787 0.000000
# 3 -0.009140 -0.008784 0.016032 0.000000 0.010330 0.000000
# 4 0.000000 0.000000 0.000000 0.140894 0.000000 0.012677
# 5 -0.014064 -0.003787 0.010330 0.000000 0.066613 0.000000
# 6 0.000000 0.000000 0.000000 0.012677 0.000000 0.056241
#
#
# Mechanical properties :
#
#
# Convention : Reuss Voigt Hill
#
# Bulk Modulus (GPa) = 50.96654 63.40738 57.18696
# Shear Modulus (GPa) = 14.02142 19.57956 16.80049
#
# Velocity S-wave (km/s) = 2.80121 3.31018 3.06627
# Velocity P-wave (km/s) = 6.24377 7.07773 6.67379
#
# Compressibility (1/GPa) = 0.01962072
#
# Stress axis : x y z
#
# Youngs Moduli (GPa) = 56.40451 52.07273 62.37516
#
# Poissons Ratio (x) = -0.06519 0.57012
# Poissons Ratio (y) = -0.07062 0.54789
# Poissons Ratio (z) = 0.51555 0.45740
#
# Static dielectric constant tensor:
#      x y z
#    x 1.637190 0.000000 -0.009340 
#    y 0.000000 1.665840 0.000000 
#    z -0.009340 0.000000 1.562720 
# 
# From -- ./inp_files/172991.got.cif
#   From: 2010.05.17/outbox.cif.g08.bks.cpg/sg12_87_cif.got.tgz:172991.got - 2010.06.03 13:09:07.
