data_PCOD9192125
_publ_section_title
;
Structure prediction by ZEFSAII (Michael W. Deem and Ramdas Pophale) SiO2 
 PCOD9192125
Probable space group: C 2/M
;
_chemical_formula_sum "Si O2"
_cell_formula_units_Z 58
_cell_length_a 29.558886
_cell_length_b 7.686382
_cell_length_c 19.695373
_cell_angle_alpha 90.000000
_cell_angle_beta 40.301091
_cell_angle_gamma 90.000000
_cell_volume 2894.323939
_symmetry_space_group_name_H-M "C 2/M"
_symmetry_group_IT_number 12
_symmetry_cell_setting 'monoclinic'
loop_
_space_group_symop_operation_xyz
x,y,z
-x,y,-z
-x,-y,-z
x,-y,z
1/2+x,1/2+y,z
1/2-x,1/2+y,-z
1/2-x,1/2-y,-z
1/2+x,1/2-y,z
loop_
_atom_site_type_symbol
_atom_site_label
_atom_site_fract_x
_atom_site_fract_y
_atom_site_fract_z
Si Si1 0.737848 0.206761 0.760103
Si Si2 0.719068 0.702519 0.630977
Si Si3 0.860729 0.208644 0.846383
Si Si4 0.500000 0.000000 0.500000
Si Si5 0.484044 0.702440 0.350320
Si Si6 0.137968 0.299022 0.597330
Si Si7 0.595736 0.291767 0.423327
Si Si8 0.775648 0.289570 0.076164
O O1 0.709918 0.280714 0.721536
O O2 0.821528 0.233333 0.667531
O O3 0.709453 0.272957 0.864712
O O4 0.725905 0.000000 0.769997
O O5 0.719950 0.500000 0.611309
O O6 0.795450 0.775320 0.521159
O O7 0.660773 0.784969 0.649394
O O8 0.800024 0.273256 0.864987
O O9 0.938963 0.279017 0.747235
O O10 0.863338 0.000000 0.834121
O O11 0.831943 0.241959 0.954924
O O12 0.441931 0.843015 0.582958
O O13 0.493339 0.500000 0.355605
O O14 0.434682 0.715401 0.341134
O O15 0.437880 0.769020 0.466144
O O16 0.130674 0.500000 0.586683
O O17 0.583858 0.500000 0.423494
O O18 0.771889 0.500000 0.083441
#
# Coordination Sequence:
#
# PCOD9192125 Si02
#       8
#     8   8   8   2   8   8   8   8
#     4  10  20  35  56  78 111 147 183 226 282 334
#     4  10  20  33  53  79 111 143 181 224 273 334
#     4   9  19  36  55  78 105 143 188 230 273 326
#     4  12  26  36  52  78 120 152 202 216 276 356
#     4  10  20  35  56  78 111 147 183 226 282 334
#     4  10  20  33  53  79 111 143 181 224 273 334
#     4  10  23  39  54  79 116 154 185 233 283 332
#     4   9  19  36  55  78 105 143 188 230 273 326
#
# _framework density 20.039221999999999
#
# number of rings (size 3 to 8) (size 9 to 14) (size 15 to 20)
#    0.000    2.207    1.379    1.034    3.862    2.207 
#    0.000    0.000    0.000    0.828    0.000    5.793 
#    0.000    0.000    0.000    0.000    0.000    0.000 
#
# Total GULP energy -161564.494442 kJ/mol
# GULP energy per Si atom -5571.189464 kJ/mol
# Density = 1.999361 g / cm^3
# Si number density = 20.039222 Si / 1000 Ang^3
#
#
#
# Elastic Constant Matrix: (Units=GPa)
#
#
# Indices 1 2 3 4 5 6 
#
# 1 83.5539 -2.9289 37.8856 0.0011 18.5876 -0.0130
# 2 -2.9289 53.0674 0.3267 -0.0068 -3.1101 -0.0251
# 3 37.8856 0.3267 70.5938 -0.0027 8.1822 -0.0149
# 4 0.0011 -0.0068 -0.0027 12.7163 -0.0073 1.5340
# 5 18.5876 -3.1101 8.1822 -0.0073 30.2136 0.0145
# 6 -0.0130 -0.0251 -0.0149 1.5340 0.0145 7.4861
#
#
#
# Elastic Compliance Matrix: (Units=1/GPa)
#
#
# Indices 1 2 3 4 5 6 
#
# 1 0.017766 0.000531 -0.008545 -0.000012 -0.008561 0.000035
# 2 0.000531 0.018981 -0.000580 0.000004 0.001784 0.000059
# 3 -0.008545 -0.000580 0.018740 0.000002 0.000122 0.000020
# 4 -0.000012 0.000004 0.000002 0.080633 0.000035 -0.016523
# 5 -0.008561 0.001784 0.000122 0.000035 0.038515 -0.000090
# 6 0.000035 0.000059 0.000020 -0.016523 -0.000090 0.136967
#
#
# Mechanical properties :
#
#
# Convention : Reuss Voigt Hill
#
# Bulk Modulus (GPa) = 26.10895 30.86465 28.48680
# Shear Modulus (GPa) = 14.63895 21.54531 18.09213
#
# Velocity S-wave (km/s) = 2.70574 3.28252 3.00798
# Velocity P-wave (km/s) = 4.77688 5.45913 5.12936
#
# Compressibility (1/GPa) = 0.03830104
#
# Stress axis : x y z
#
# Youngs Moduli (GPa) = 56.28792 52.68308 53.36256
#
# Poissons Ratio (x) = -0.02800 0.45596
# Poissons Ratio (y) = -0.02991 0.03094
# Poissons Ratio (z) = 0.48096 0.03055
#
# Static dielectric constant tensor:
#      x y z
#    x 1.748640 0.000000 0.023960 
#    y 0.000000 1.774280 0.000010 
#    z 0.023960 0.000010 1.727090 
# 
# From -- ./inp_files/329043.got.cif
#   From: 2010.05.17/outbox.cif.g08.bks.cpg/sg12_165_cif.got.tgz:329043.got - 2010.06.03 13:09:07.
