data_PCOD9192815
_publ_section_title
;
Structure prediction by ZEFSAII (Michael W. Deem and Ramdas Pophale) SiO2 
 PCOD9192815
Probable space group: C 2/M
;
_chemical_formula_sum "Si O2"
_cell_formula_units_Z 64
_cell_length_a 20.985169
_cell_length_b 7.847163
_cell_length_c 26.989730
_cell_angle_alpha 90.000000
_cell_angle_beta 48.544449
_cell_angle_gamma 90.000000
_cell_volume 3331.023326
_symmetry_space_group_name_H-M "C 2/M"
_symmetry_group_IT_number 12
_symmetry_cell_setting 'monoclinic'
loop_
_space_group_symop_operation_xyz
x,y,z
-x,y,-z
-x,-y,-z
x,-y,z
1/2+x,1/2+y,z
1/2-x,1/2+y,-z
1/2-x,1/2-y,-z
1/2+x,1/2-y,z
loop_
_atom_site_type_symbol
_atom_site_label
_atom_site_fract_x
_atom_site_fract_y
_atom_site_fract_z
Si Si1 0.109472 0.800502 0.583248
Si Si2 0.713937 0.705126 0.965386
Si Si3 0.279994 0.701307 0.670450
Si Si4 0.080663 0.797130 0.322862
Si Si5 0.476895 0.291527 0.955854
Si Si6 0.853529 0.205661 0.181254
Si Si7 0.267114 0.200443 0.564083
Si Si8 0.788773 0.705725 0.825219
O O1 0.177412 0.731006 0.588342
O O2 0.157080 0.784436 0.506170
O O3 0.014775 0.725608 0.629385
O O4 0.270606 0.000000 0.550245
O O5 0.710976 0.500000 0.962718
O O6 0.771451 0.766319 0.889778
O O7 0.750000 0.750000 0.000000
O O8 0.617266 0.767458 0.009042
O O9 0.292535 0.500000 0.658179
O O10 0.356254 0.770715 0.666434
O O11 0.193054 0.730473 0.745658
O O12 0.275941 0.777419 0.617965
O O13 0.128837 0.770019 0.246141
O O14 0.075124 0.000000 0.334526
O O15 0.476754 0.500000 0.955360
O O16 0.551500 0.235905 0.880272
O O17 0.500000 0.241359 0.000000
O O18 0.792315 0.254819 0.166889
O O19 0.854079 0.000000 0.183189
O O20 0.401396 0.500000 0.398857
O O21 0.792842 0.500000 0.823093
#
# Coordination Sequence:
#
# PCOD9192815 Si02
#       8
#     8   8   8   8   8   8   8   8
#     4   9  19  37  57  76 101 135 173 208 246 296
#     4  10  20  34  51  74 104 135 168 210 260 307
#     4  10  20  34  52  76 108 138 165 205 256 303
#     4   9  19  35  55  77 101 134 173 207 247 303
#     4   9  15  29  55  78  94 126 176 218 251 296
#     4   9  16  30  54  78  98 126 172 220 254 293
#     4  10  20  35  56  79 104 134 169 209 250 295
#     4   9  17  31  52  75 101 132 167 212 258 298
#
# _framework density 19.213314
#
# number of rings (size 3 to 8) (size 9 to 14) (size 15 to 20)
#    0.000    2.625    1.250    0.750    0.000    2.500 
#    2.250    3.125    0.000    0.750    0.000    0.000 
#    0.000    0.000    0.000    0.000    0.000    0.000 
#
# Total GULP energy -178448.217188 kJ/mol
# GULP energy per Si atom -5576.506787 kJ/mol
# Density = 1.916958 g / cm^3
# Si number density = 19.213314 Si / 1000 Ang^3
#
#
#
# Elastic Constant Matrix: (Units=GPa)
#
#
# Indices 1 2 3 4 5 6 
#
# 1 125.8403 0.3543 96.7544 -0.0004 -8.9405 -0.0003
# 2 0.3543 17.5421 -6.3144 -0.0002 -4.3610 -0.0004
# 3 96.7544 -6.3144 132.5277 -0.0003 -8.8573 0.0002
# 4 -0.0004 -0.0002 -0.0003 22.2453 0.0001 5.5493
# 5 -8.9405 -4.3610 -8.8573 0.0001 35.3602 -0.0001
# 6 -0.0003 -0.0004 0.0002 5.5493 -0.0001 13.6552
#
#
#
# Elastic Compliance Matrix: (Units=1/GPa)
#
#
# Indices 1 2 3 4 5 6 
#
# 1 0.018609 -0.005189 -0.013792 0.000000 0.000610 0.000000
# 2 -0.005189 0.061749 0.007273 0.000000 0.008126 0.000002
# 3 -0.013792 0.007273 0.018091 0.000000 0.001941 0.000000
# 4 0.000000 0.000000 0.000000 0.050025 0.000000 -0.020330
# 5 0.000610 0.008126 0.001941 0.000000 0.029923 0.000001
# 6 0.000000 0.000002 0.000000 -0.020330 0.000001 0.081494
#
#
# Mechanical properties :
#
#
# Convention : Reuss Voigt Hill
#
# Bulk Modulus (GPa) = 13.32739 50.83319 32.08029
# Shear Modulus (GPa) = 16.21704 26.59318 21.40511
#
# Velocity S-wave (km/s) = 2.90841 3.72439 3.34140
# Velocity P-wave (km/s) = 4.26967 6.70891 5.62315
#
# Compressibility (1/GPa) = 0.07503346
#
# Stress axis : x y z
#
# Youngs Moduli (GPa) = 53.73748 16.19465 55.27546
#
# Poissons Ratio (x) = 0.08403 0.76237
# Poissons Ratio (y) = 0.27883 -0.40203
# Poissons Ratio (z) = 0.74116 -0.11779
#
# Static dielectric constant tensor:
#      x y z
#    x 1.672880 0.000000 -0.019340 
#    y 0.000000 1.714000 0.000000 
#    z -0.019340 0.000000 1.649750 
# 
# From -- ./inp_files/365176.got.cif
#   From: 2010.05.17/outbox.cif.g08.bks.cpg/sg12_183_cif.got.tgz:365176.got - 2010.06.03 13:09:07.
