data_PCOD9192482
_publ_section_title
;
Structure prediction by ZEFSAII (Michael W. Deem and Ramdas Pophale) SiO2 
 PCOD9192482
Probable space group: C 2/M
;
_chemical_formula_sum "Si O2"
_cell_formula_units_Z 56
_cell_length_a 21.016857
_cell_length_b 17.540488
_cell_length_c 14.659224
_cell_angle_alpha 90.000000
_cell_angle_beta 33.330556
_cell_angle_gamma 90.000000
_cell_volume 2969.362403
_symmetry_space_group_name_H-M "C 2/M"
_symmetry_group_IT_number 12
_symmetry_cell_setting 'monoclinic'
loop_
_space_group_symop_operation_xyz
x,y,z
-x,y,-z
-x,-y,-z
x,-y,z
1/2+x,1/2+y,z
1/2-x,1/2+y,-z
1/2-x,1/2-y,-z
1/2+x,1/2-y,z
loop_
_atom_site_type_symbol
_atom_site_label
_atom_site_fract_x
_atom_site_fract_y
_atom_site_fract_z
Si Si1 0.208574 0.914480 0.054078
Si Si2 0.490005 0.411112 0.410320
Si Si3 0.833180 0.346364 0.058836
Si Si4 0.901696 0.697285 0.489360
Si Si5 0.164823 0.705630 0.223179
Si Si6 0.744796 0.345550 0.365498
Si Si7 0.577893 0.092203 0.700425
O O1 0.262945 0.912501 0.090672
O O2 0.079959 0.883499 0.226422
O O3 0.206624 0.000000 0.020484
O O4 0.283791 0.861966 0.898842
O O5 0.500000 0.375345 0.500000
O O6 0.519380 0.500000 0.384340
O O7 0.361118 0.400852 0.531307
O O8 0.761589 0.272445 0.108382
O O9 0.821353 0.344112 0.181628
O O10 0.963869 0.362518 0.872280
O O11 0.855978 0.683727 0.646441
O O12 0.819509 0.763734 0.546438
O O13 0.900939 0.622986 0.426997
O O14 0.036045 0.723658 0.339142
O O15 0.818096 0.377838 0.360721
O O16 0.564480 0.000000 0.721466
#
# Coordination Sequence:
#
# PCOD9192482 Si02
#       7
#     8   8   8   8   8   8   8
#     4  11  21  34  58  91 123 157 196 249 312 359
#     4  10  20  33  56  88 120 154 193 246 304 358
#     4  11  22  37  60  90 121 158 198 247 306 365
#     4  10  23  41  64  90 116 159 212 250 300 350
#     4  10  22  40  64  90 119 159 205 262 299 348
#     4  11  23  40  61  86 122 161 203 244 299 368
#     4  12  26  41  61  90 127 166 198 245 307 369
#
# _framework density 18.859269000000001
#
# number of rings (size 3 to 8) (size 9 to 14) (size 15 to 20)
#    0.000    1.286    2.857    3.000    4.000    2.857 
#    0.000    1.429    0.000    0.000    0.000    3.000 
#    0.000    0.000    0.000    0.000    0.000    0.000 
#
# Total GULP energy -156193.483172 kJ/mol
# GULP energy per Si atom -5578.338685 kJ/mol
# Density = 1.881634 g / cm^3
# Si number density = 18.859269 Si / 1000 Ang^3
#
#
#
# Elastic Constant Matrix: (Units=GPa)
#
#
# Indices 1 2 3 4 5 6 
#
# 1 102.2670 43.6776 39.7884 0.0000 -12.4601 0.0000
# 2 43.6776 100.1656 63.3349 0.0000 13.7287 0.0000
# 3 39.7884 63.3349 124.3301 0.0000 -2.0639 0.0000
# 4 0.0000 0.0000 0.0000 20.5410 0.0000 -2.4851
# 5 -12.4601 13.7287 -2.0639 0.0000 25.0955 0.0000
# 6 0.0000 0.0000 0.0000 -2.4851 0.0000 15.1788
#
#
#
# Elastic Compliance Matrix: (Units=1/GPa)
#
#
# Indices 1 2 3 4 5 6 
#
# 1 0.014621 -0.007502 -0.000670 0.000000 0.011308 0.000000
# 2 -0.007502 0.020745 -0.008429 0.000000 -0.015767 0.000000
# 3 -0.000670 -0.008429 0.012639 0.000000 0.005318 0.000000
# 4 0.000000 0.000000 0.000000 0.049667 0.000000 0.008132
# 5 0.011308 -0.015767 0.005318 0.000000 0.054525 0.000000
# 6 0.000000 0.000000 0.000000 0.008132 0.000000 0.067213
#
#
# Mechanical properties :
#
#
# Convention : Reuss Voigt Hill
#
# Bulk Modulus (GPa) = 67.54648 68.92937 68.23793
# Shear Modulus (GPa) = 19.41406 24.16051 21.78728
#
# Velocity S-wave (km/s) = 3.21193 3.58312 3.40259
# Velocity P-wave (km/s) = 7.04622 7.33124 7.19014
#
# Compressibility (1/GPa) = 0.01480462
#
# Stress axis : x y z
#
# Youngs Moduli (GPa) = 68.39652 48.20410 79.11777
#
# Poissons Ratio (x) = 0.36162 0.05299
# Poissons Ratio (y) = 0.51310 0.66686
# Poissons Ratio (z) = 0.04581 0.40630
#
# Static dielectric constant tensor:
#      x y z
#    x 1.648840 0.000000 -0.007040 
#    y 0.000000 1.689220 0.000000 
#    z -0.007040 0.000000 1.700290 
# 
# From -- ./inp_files/234630.got.cif
#   From: 2010.05.17/outbox.cif.g08.bks.cpg/sg12_118_cif.got.tgz:234630.got - 2010.06.03 13:09:07.
