data_PCOD9192573
_publ_section_title
;
Structure prediction by ZEFSAII (Michael W. Deem and Ramdas Pophale) SiO2 
 PCOD9192573
Probable space group: C 2/M
;
_chemical_formula_sum "Si O2"
_cell_formula_units_Z 48
_cell_length_a 19.847128
_cell_length_b 15.450655
_cell_length_c 11.760246
_cell_angle_alpha 90.000000
_cell_angle_beta 137.475737
_cell_angle_gamma 90.000000
_cell_volume 2437.501748
_symmetry_space_group_name_H-M "C 2/M"
_symmetry_group_IT_number 12
_symmetry_cell_setting 'monoclinic'
loop_
_space_group_symop_operation_xyz
x,y,z
-x,y,-z
-x,-y,-z
x,-y,z
1/2+x,1/2+y,z
1/2-x,1/2+y,-z
1/2-x,1/2-y,-z
1/2+x,1/2-y,z
loop_
_atom_site_type_symbol
_atom_site_label
_atom_site_fract_x
_atom_site_fract_y
_atom_site_fract_z
Si Si1 0.671401 0.255868 0.797057
Si Si2 0.513024 0.703218 0.293057
Si Si3 0.833791 0.324373 0.618779
Si Si4 0.301483 0.396288 0.360333
Si Si5 0.073088 0.902763 0.000500
Si Si6 0.801120 0.595356 0.338132
O O1 0.557352 0.257915 0.698319
O O2 0.698031 0.341270 0.755765
O O3 0.675062 0.174061 0.716200
O O4 0.750000 0.250000 0.000000
O O5 0.562814 0.773308 0.270482
O O6 0.601902 0.643007 0.452413
O O7 0.434880 0.646711 0.125504
O O8 0.750000 0.250000 0.500000
O O9 0.796795 0.372825 0.686277
O O10 0.830523 0.385284 0.504003
O O11 0.309654 0.500000 0.356572
O O12 0.036319 0.000000 0.933400
O O13 0.181456 0.906049 0.186877
O O14 0.000000 0.860679 0.000000
O O15 0.837081 0.500000 0.346396
#
# Coordination Sequence:
#
# PCOD9192573 Si02
#       6
#     8   8   8   8   8   8
#     4  12  25  42  61  92 131 172 207 254 318 380
#     4  11  22  37  65  92 131 163 211 253 320 370
#     4  10  20  39  65  92 126 163 204 258 317 372
#     4  11  24  42  68  98 126 159 210 270 322 369
#     4  10  20  33  58  94 122 156 208 263 315 364
#     4  11  22  40  62  88 127 169 209 257 308 371
#
# _framework density 19.692294
#
# number of rings (size 3 to 8) (size 9 to 14) (size 15 to 20)
#    0.000    1.167    5.000    3.500    0.000    4.000 
#    0.000    2.500    0.000    1.000    0.000    0.000 
#    0.000    0.000    0.000    0.000    0.000    0.000 
#
# Total GULP energy -133815.049232 kJ/mol
# GULP energy per Si atom -5575.627051 kJ/mol
# Density = 1.964747 g / cm^3
# Si number density = 19.692294 Si / 1000 Ang^3
#
#
#
# Elastic Constant Matrix: (Units=GPa)
#
#
# Indices 1 2 3 4 5 6 
#
# 1 123.3156 54.9878 -0.0635 0.0000 10.5638 0.0000
# 2 54.9878 126.9647 16.0562 0.0000 4.3964 0.0000
# 3 -0.0635 16.0562 40.0726 0.0000 -0.4286 0.0000
# 4 0.0000 0.0000 0.0000 20.1786 0.0000 4.4431
# 5 10.5638 4.3964 -0.4286 0.0000 13.7926 0.0000
# 6 0.0000 0.0000 0.0000 4.4431 0.0000 3.9583
#
#
#
# Elastic Compliance Matrix: (Units=1/GPa)
#
#
# Indices 1 2 3 4 5 6 
#
# 1 0.010761 -0.004658 0.001812 0.000000 -0.006701 0.000000
# 2 -0.004658 0.010418 -0.004180 0.000000 0.000117 0.000000
# 3 0.001812 -0.004180 0.026641 0.000000 0.000773 0.000000
# 4 0.000000 0.000000 0.000000 0.065828 0.000000 -0.073891
# 5 -0.006701 0.000117 0.000773 0.000000 0.077622 0.000000
# 6 0.000000 0.000000 0.000000 -0.073891 0.000000 0.335578
#
#
# Mechanical properties :
#
#
# Convention : Reuss Voigt Hill
#
# Bulk Modulus (GPa) = 29.61463 48.03487 38.82475
# Shear Modulus (GPa) = 9.05542 22.21072 15.63307
#
# Velocity S-wave (km/s) = 2.14673 3.36205 2.82062
# Velocity P-wave (km/s) = 4.60607 6.28624 5.51057
#
# Compressibility (1/GPa) = 0.03376710
#
# Stress axis : x y z
#
# Youngs Moduli (GPa) = 92.92684 95.98740 37.53633
#
# Poissons Ratio (x) = 0.44708 -0.06800
# Poissons Ratio (y) = 0.43282 0.15692
# Poissons Ratio (z) = -0.16835 0.40127
#
# Static dielectric constant tensor:
#      x y z
#    x 1.802430 0.000000 -0.053480 
#    y 0.000000 1.651700 0.000000 
#    z -0.053480 0.000000 1.719130 
# 
# From -- ./inp_files/167623.got.cif
#   From: 2010.05.17/outbox.cif.g08.bks.cpg/sg12_84_cif.got.tgz:167623.got - 2010.06.03 13:09:07.
