data_PCOD9192488
_publ_section_title
;
Structure prediction by ZEFSAII (Michael W. Deem and Ramdas Pophale) SiO2 
 PCOD9192488
Probable space group: C 2/M
;
_chemical_formula_sum "Si O2"
_cell_formula_units_Z 64
_cell_length_a 28.213772
_cell_length_b 13.741428
_cell_length_c 19.284275
_cell_angle_alpha 90.000000
_cell_angle_beta 153.060329
_cell_angle_gamma 90.000000
_cell_volume 3387.228199
_symmetry_space_group_name_H-M "C 2/M"
_symmetry_group_IT_number 12
_symmetry_cell_setting 'monoclinic'
loop_
_space_group_symop_operation_xyz
x,y,z
-x,y,-z
-x,-y,-z
x,-y,z
1/2+x,1/2+y,z
1/2-x,1/2+y,-z
1/2-x,1/2-y,-z
1/2+x,1/2-y,z
loop_
_atom_site_type_symbol
_atom_site_label
_atom_site_fract_x
_atom_site_fract_y
_atom_site_fract_z
Si Si1 0.486017 0.301834 0.173276
Si Si2 0.643711 0.615466 0.770882
Si Si3 0.478039 0.888000 0.707554
Si Si4 0.798532 0.299731 0.384501
Si Si5 0.187678 0.384544 0.894764
Si Si6 0.239038 0.716598 0.821906
Si Si7 0.907283 0.886834 0.822971
Si Si8 0.937314 0.885332 0.581573
O O1 0.528138 0.192358 0.240615
O O2 0.546594 0.353905 0.190314
O O3 0.507437 0.359877 0.272719
O O4 0.363240 0.293211 0.995820
O O5 0.654871 0.500000 0.775269
O O6 0.693864 0.674649 0.773337
O O7 0.523687 0.635353 0.634358
O O8 0.713435 0.644759 0.929046
O O9 0.383145 0.868661 0.531644
O O10 0.584134 0.863784 0.803918
O O11 0.481953 0.000000 0.735226
O O12 0.788264 0.320773 0.289623
O O13 0.688486 0.320242 0.277522
O O14 0.842100 0.189934 0.450394
O O15 0.194950 0.500000 0.895797
O O16 0.186462 0.339035 0.817558
O O17 0.873638 0.000000 0.776336
O O18 0.000000 0.879427 0.000000
O O19 0.911434 0.000000 0.545533
#
# Coordination Sequence:
#
# PCOD9192488 Si02
#       8
#     8   8   8   8   8   8   8   8
#     4  11  21  38  66  90 113 155 211 256 295 357
#     4  10  20  35  59  91 125 163 206 244 286 354
#     4  10  22  40  60  89 127 161 194 242 304 364
#     4  11  25  41  59  87 125 159 194 255 315 361
#     4  10  20  33  56  89 122 158 200 242 288 353
#     4  12  21  35  60  89 120 158 202 248 300 351
#     4  11  24  43  66  92 120 152 200 258 311 363
#     4  10  22  40  62  92 126 161 203 249 298 356
#
# _framework density 18.894504999999999
#
# number of rings (size 3 to 8) (size 9 to 14) (size 15 to 20)
#    0.000    1.375    3.750    2.625    0.000    6.000 
#    0.000    4.375    0.000    0.750    0.000    0.000 
#    0.000    0.000    0.000    0.000    0.000    0.000 
#
# Total GULP energy -178773.143420 kJ/mol
# GULP energy per Si atom -5586.660732 kJ/mol
# Density = 1.885150 g / cm^3
# Si number density = 18.894505 Si / 1000 Ang^3
#
#
#
# Elastic Constant Matrix: (Units=GPa)
#
#
# Indices 1 2 3 4 5 6 
#
# 1 57.2833 14.8552 15.8882 0.0000 8.8206 0.0000
# 2 14.8552 73.6384 29.8664 0.0000 19.9445 0.0000
# 3 15.8882 29.8664 77.7439 0.0000 10.8541 0.0000
# 4 0.0000 0.0000 0.0000 23.2874 0.0000 9.3091
# 5 8.8206 19.9445 10.8541 0.0000 30.4323 0.0000
# 6 0.0000 0.0000 0.0000 9.3091 0.0000 22.1025
#
#
#
# Elastic Compliance Matrix: (Units=1/GPa)
#
#
# Indices 1 2 3 4 5 6 
#
# 1 0.019218 -0.001848 -0.002746 0.000000 -0.003380 0.000000
# 2 -0.001848 0.018849 -0.005487 0.000000 -0.009860 0.000000
# 3 -0.002746 -0.005487 0.015700 0.000000 -0.001208 0.000000
# 4 0.000000 0.000000 0.000000 0.051635 0.000000 -0.021748
# 5 -0.003380 -0.009860 -0.001208 0.000000 0.040733 0.000000
# 6 0.000000 0.000000 0.000000 -0.021748 0.000000 0.054403
#
#
# Mechanical properties :
#
#
# Convention : Reuss Voigt Hill
#
# Bulk Modulus (GPa) = 29.75612 36.65393 33.20502
# Shear Modulus (GPa) = 21.56088 25.03481 23.29785
#
# Velocity S-wave (km/s) = 3.38171 3.64397 3.51529
# Velocity P-wave (km/s) = 5.57052 6.09476 5.83853
#
# Compressibility (1/GPa) = 0.03360653
#
# Stress axis : x y z
#
# Youngs Moduli (GPa) = 52.03369 53.05446 63.69286
#
# Poissons Ratio (x) = 0.09804 0.17489
# Poissons Ratio (y) = 0.09615 0.34946
# Poissons Ratio (z) = 0.14287 0.29109
#
# Static dielectric constant tensor:
#      x y z
#    x 1.629460 0.000000 -0.005290 
#    y 0.000000 1.694610 0.000000 
#    z -0.005290 0.000000 1.656960 
# 
# From -- ./inp_files/246335.got.cif
#   From: 2010.05.17/outbox.cif.g08.bks.cpg/sg12_124_cif.got.tgz:246335.got - 2010.06.03 13:09:07.
