data_PCOD9192802
_publ_section_title
;
Structure prediction by ZEFSAII (Michael W. Deem and Ramdas Pophale) SiO2 
 PCOD9192802
Probable space group: C 2/M
;
_chemical_formula_sum "Si O2"
_cell_formula_units_Z 64
_cell_length_a 14.619897
_cell_length_b 7.810246
_cell_length_c 27.545223
_cell_angle_alpha 90.000000
_cell_angle_beta 101.953307
_cell_angle_gamma 90.000000
_cell_volume 3077.051687
_symmetry_space_group_name_H-M "C 2/M"
_symmetry_group_IT_number 12
_symmetry_cell_setting 'monoclinic'
loop_
_space_group_symop_operation_xyz
x,y,z
-x,y,-z
-x,-y,-z
x,-y,z
1/2+x,1/2+y,z
1/2-x,1/2+y,-z
1/2-x,1/2-y,-z
1/2+x,1/2-y,z
loop_
_atom_site_type_symbol
_atom_site_label
_atom_site_fract_x
_atom_site_fract_y
_atom_site_fract_z
Si Si1 0.859956 0.703963 0.007347
Si Si2 0.828229 0.295575 0.364076
Si Si3 0.711037 0.295847 0.443252
Si Si4 0.465107 0.796623 0.631666
Si Si5 0.149516 0.201443 0.100041
Si Si6 0.634840 0.789870 0.885998
Si Si7 0.957026 0.301131 0.816960
Si Si8 0.651688 0.792233 0.288132
O O1 0.871303 0.500000 0.006501
O O2 0.897823 0.765404 0.063520
O O3 0.750000 0.750000 0.000000
O O4 0.891020 0.772926 0.958673
O O5 0.836996 0.500000 0.371475
O O6 0.777977 0.227542 0.407331
O O7 0.756504 0.264464 0.312210
O O8 0.931746 0.225424 0.366292
O O9 0.708196 0.500000 0.438870
O O10 0.750000 0.250000 0.500000
O O11 0.606857 0.231411 0.420241
O O12 0.413398 0.730621 0.674355
O O13 0.474823 0.000000 0.640069
O O14 0.257986 0.262149 0.110587
O O15 0.095251 0.291344 0.137315
O O16 0.149516 0.000000 0.110515
O O17 0.560193 0.727782 0.838444
O O18 0.634871 0.000000 0.886478
O O19 0.971573 0.500000 0.805739
O O20 0.893104 0.228925 0.767026
O O21 0.653512 0.000000 0.288398
#
# Coordination Sequence:
#
# PCOD9192802 Si02
#       8
#     8   8   8   8   8   8   8   8
#     4   9  16  30  51  73  98 131 166 204 249 304
#     4   9  19  35  56  78 103 137 176 212 254 303
#     4  10  20  34  52  79 113 145 174 213 257 300
#     4   9  18  35  56  77 101 137 179 215 252 302
#     4  10  20  34  51  74 100 130 166 207 253 305
#     4   8  17  33  52  71  96 130 166 199 245 308
#     4  10  20  35  52  73  99 130 166 206 252 306
#     4   9  19  34  53  75 100 128 166 214 259 300
#
# _framework density 20.799130999999999
#
# number of rings (size 3 to 8) (size 9 to 14) (size 15 to 20)
#    0.000    2.750    0.000    1.875    0.000    3.500 
#    0.000   11.250    0.000    0.000    0.000    0.000 
#    0.000    0.000    0.000    0.000    0.000    0.000 
#
# Total GULP energy -178490.649357 kJ/mol
# GULP energy per Si atom -5577.832792 kJ/mol
# Density = 2.075179 g / cm^3
# Si number density = 20.799131 Si / 1000 Ang^3
#
#
#
# Elastic Constant Matrix: (Units=GPa)
#
#
# Indices 1 2 3 4 5 6 
#
# 1 113.4838 -2.0271 32.2825 0.0000 24.6007 0.0000
# 2 -2.0271 21.4500 -15.4376 0.0000 -4.6481 0.0000
# 3 32.2825 -15.4376 97.8906 0.0000 28.5472 0.0000
# 4 0.0000 0.0000 0.0000 20.7702 0.0000 1.3674
# 5 24.6007 -4.6481 28.5472 0.0000 21.3306 0.0000
# 6 0.0000 0.0000 0.0000 1.3674 0.0000 9.6263
#
#
#
# Elastic Compliance Matrix: (Units=1/GPa)
#
#
# Indices 1 2 3 4 5 6 
#
# 1 0.011827 -0.002012 -0.000184 0.000000 -0.013833 0.000000
# 2 -0.002012 0.052935 0.008153 0.000000 0.002944 0.000000
# 3 -0.000184 0.008153 0.018012 0.000000 -0.022117 0.000000
# 4 0.000000 0.000000 0.000000 0.048600 0.000000 -0.006904
# 5 -0.013833 0.002944 -0.022117 0.000000 0.093076 0.000000
# 6 0.000000 0.000000 0.000000 -0.006904 0.000000 0.104863
#
#
# Mechanical properties :
#
#
# Convention : Reuss Voigt Hill
#
# Bulk Modulus (GPa) = 10.56092 29.16222 19.86157
# Shear Modulus (GPa) = 14.32825 24.87918 19.60371
#
# Velocity S-wave (km/s) = 2.62751 3.46231 3.07339
# Velocity P-wave (km/s) = 3.78070 5.48040 4.70789
#
# Compressibility (1/GPa) = 0.09468870
#
# Stress axis : x y z
#
# Youngs Moduli (GPa) = 84.55434 18.89092 55.51968
#
# Poissons Ratio (x) = 0.03801 0.01019
# Poissons Ratio (y) = 0.17012 -0.45265
# Poissons Ratio (z) = 0.01553 -0.15402
#
# Static dielectric constant tensor:
#      x y z
#    x 1.763040 0.000000 0.012460 
#    y 0.000000 1.753820 0.000000 
#    z 0.012460 0.000000 1.771800 
# 
# From -- ./inp_files/359907.got.cif
#   From: 2010.05.17/outbox.cif.g08.bks.cpg/sg12_180_cif.got.tgz:359907.got - 2010.06.03 13:09:07.
