data_PCOD9192769
_publ_section_title
;
Structure prediction by ZEFSAII (Michael W. Deem and Ramdas Pophale) SiO2 
 PCOD9192769
Probable space group: C 2/M
;
_chemical_formula_sum "Si O2"
_cell_formula_units_Z 56
_cell_length_a 23.629179
_cell_length_b 8.888711
_cell_length_c 15.313214
_cell_angle_alpha 90.000000
_cell_angle_beta 90.731184
_cell_angle_gamma 90.000000
_cell_volume 3216.017514
_symmetry_space_group_name_H-M "C 2/M"
_symmetry_group_IT_number 12
_symmetry_cell_setting 'monoclinic'
loop_
_space_group_symop_operation_xyz
x,y,z
-x,y,-z
-x,-y,-z
x,-y,z
1/2+x,1/2+y,z
1/2-x,1/2+y,-z
1/2-x,1/2-y,-z
1/2+x,1/2-y,z
loop_
_atom_site_type_symbol
_atom_site_label
_atom_site_fract_x
_atom_site_fract_y
_atom_site_fract_z
Si Si1 0.942011 0.322388 0.747298
Si Si2 0.014208 0.181807 0.902356
Si Si3 0.115490 0.826991 0.790456
Si Si4 0.673381 0.180117 0.339091
Si Si5 0.972987 0.171963 0.374280
Si Si6 0.795475 0.678847 0.321818
Si Si7 0.631002 0.681774 0.519552
O O1 0.949761 0.500000 0.756911
O O2 0.969566 0.241827 0.830892
O O3 0.876124 0.289275 0.731652
O O4 0.975861 0.269395 0.661309
O O5 0.076823 0.226643 0.870010
O O6 0.013119 0.000000 0.898887
O O7 0.000000 0.230499 0.000000
O O8 0.071732 0.829511 0.707613
O O9 0.167501 0.725893 0.761548
O O10 0.133842 0.000000 0.804493
O O11 0.732726 0.254839 0.316502
O O12 0.651219 0.249301 0.429470
O O13 0.679828 0.000000 0.348222
O O14 0.933703 0.221899 0.454145
O O15 0.992131 0.000000 0.388886
O O16 0.794579 0.500000 0.332781
O O17 0.827464 0.754491 0.404853
O O18 0.634067 0.500000 0.518934
#
# Coordination Sequence:
#
# PCOD9192769 Si02
#       7
#     8   8   8   8   8   8   8
#     4  10  21  34  50  74 103 133 164 203 251 297
#     4   9  18  34  58  84 106 129 157 192 240 300
#     4   8  15  30  51  75 102 130 160 197 242 290
#     4  11  23  36  48  67  99 137 173 210 252 293
#     4   8  16  31  50  70  97 132 166 203 247 297
#     4  11  21  33  51  73  98 132 173 213 249 287
#     4  10  20  34  51  72  97 130 173 215 253 290
#
# _framework density 17.412841
#
# number of rings (size 3 to 8) (size 9 to 14) (size 15 to 20)
#    0.000    2.429    0.000    4.714    0.000    8.857 
#    0.000    2.857    0.000    0.857    0.000    0.000 
#    0.000    0.000    0.000    0.000    0.000    0.000 
#
# Total GULP energy -156223.190071 kJ/mol
# GULP energy per Si atom -5579.399645 kJ/mol
# Density = 1.737321 g / cm^3
# Si number density = 17.412841 Si / 1000 Ang^3
#
#
#
# Elastic Constant Matrix: (Units=GPa)
#
#
# Indices 1 2 3 4 5 6 
#
# 1 105.6911 47.2292 53.0771 0.0000 -11.1861 0.0000
# 2 47.2292 57.1863 32.5112 0.0000 -3.4280 0.0000
# 3 53.0771 32.5112 109.2082 0.0000 -20.9076 0.0000
# 4 0.0000 0.0000 0.0000 20.5084 0.0000 -3.2016
# 5 -11.1861 -3.4280 -20.9076 0.0000 17.1997 0.0000
# 6 0.0000 0.0000 0.0000 -3.2016 0.0000 26.1878
#
#
#
# Elastic Compliance Matrix: (Units=1/GPa)
#
#
# Indices 1 2 3 4 5 6 
#
# 1 0.017103 -0.011536 -0.004156 0.000000 0.003772 0.000000
# 2 -0.011536 0.029096 -0.004407 0.000000 -0.007061 0.000000
# 3 -0.004156 -0.004407 0.015383 0.000000 0.015118 0.000000
# 4 0.000000 0.000000 0.000000 0.049709 0.000000 0.006077
# 5 0.003772 -0.007061 0.015118 0.000000 0.077564 0.000000
# 6 0.000000 0.000000 0.000000 0.006077 0.000000 0.038929
#
#
# Mechanical properties :
#
#
# Convention : Reuss Voigt Hill
#
# Bulk Modulus (GPa) = 46.76335 59.74674 53.25504
# Shear Modulus (GPa) = 18.17455 22.06372 20.11913
#
# Velocity S-wave (km/s) = 3.23421 3.56349 3.40283
# Velocity P-wave (km/s) = 6.39224 7.16363 6.78890
#
# Compressibility (1/GPa) = 0.02138427
#
# Stress axis : x y z
#
# Youngs Moduli (GPa) = 58.46970 34.36843 65.00741
#
# Poissons Ratio (x) = 0.39648 0.27016
# Poissons Ratio (y) = 0.67452 0.28648
# Poissons Ratio (z) = 0.24299 0.15146
#
# Static dielectric constant tensor:
#      x y z
#    x 1.599900 0.000000 -0.010650 
#    y 0.000000 1.581240 0.000000 
#    z -0.010650 0.000000 1.600410 
# 
# From -- ./inp_files/280204.got.cif
#   From: 2010.05.17/outbox.cif.g08.bks.cpg/sg12_141_cif.got.tgz:280204.got - 2010.06.03 13:09:07.
