data_PCOD9192083
_publ_section_title
;
Structure prediction by ZEFSAII (Michael W. Deem and Ramdas Pophale) SiO2 
 PCOD9192083
Probable space group: C 2/M
;
_chemical_formula_sum "Si O2"
_cell_formula_units_Z 64
_cell_length_a 20.304179
_cell_length_b 25.649590
_cell_length_c 9.194829
_cell_angle_alpha 90.000000
_cell_angle_beta 46.074520
_cell_angle_gamma 90.000000
_cell_volume 3448.961684
_symmetry_space_group_name_H-M "C 2/M"
_symmetry_group_IT_number 12
_symmetry_cell_setting 'monoclinic'
loop_
_space_group_symop_operation_xyz
x,y,z
-x,y,-z
-x,-y,-z
x,-y,z
1/2+x,1/2+y,z
1/2-x,1/2+y,-z
1/2-x,1/2-y,-z
1/2+x,1/2-y,z
loop_
_atom_site_type_symbol
_atom_site_label
_atom_site_fract_x
_atom_site_fract_y
_atom_site_fract_z
Si Si1 0.596771 0.938567 0.932836
Si Si2 0.251616 0.641718 0.599563
Si Si3 0.214403 0.194564 0.994161
Si Si4 0.524613 0.058964 0.629603
Si Si5 0.325511 0.853475 0.593443
Si Si6 0.085350 0.842137 0.450817
Si Si7 0.049442 0.741385 0.693666
Si Si8 0.132539 0.739501 0.875802
O O1 0.566718 0.926583 0.143128
O O2 0.618024 0.000000 0.884339
O O3 0.500000 0.927840 0.000000
O O4 0.678675 0.902411 0.756390
O O5 0.244867 0.644975 0.434908
O O6 0.349965 0.632871 0.523700
O O7 0.209961 0.696201 0.727942
O O8 0.285639 0.153706 0.816449
O O9 0.163401 0.212525 0.925742
O O10 0.250000 0.250000 0.000000
O O11 0.153609 0.171648 0.214714
O O12 0.500000 0.058911 0.500000
O O13 0.608454 0.097303 0.525492
O O14 0.548877 0.000000 0.639950
O O15 0.388612 0.802739 0.472115
O O16 0.044868 0.789996 0.591422
O O17 0.000000 0.869435 0.500000
O O18 0.098195 0.757061 0.770238
O O19 0.953052 0.718188 0.897948
#
# Coordination Sequence:
#
# PCOD9192083 Si02
#       8
#     8   8   8   8   8   8   8   8
#     4  10  20  38  63  91 120 148 183 227 282 356
#     4  11  22  36  57  84 115 152 194 237 285 346
#     4  12  22  35  52  78 107 147 196 243 284 335
#     4  10  22  37  56  88 127 153 177 223 286 353
#     4  11  22  35  55  82 116 153 190 230 288 346
#     4  12  24  38  53  75 110 150 199 248 286 329
#     4  10  20  34  52  77 111 151 186 234 283 337
#     4  10  20  33  53  77 111 148 190 231 285 343
#
# _framework density 18.556308999999999
#
# number of rings (size 3 to 8) (size 9 to 14) (size 15 to 20)
#    0.000    1.250    5.000    1.500    3.500    3.500 
#    0.000    0.000    0.000    0.375    0.000    0.000 
#    0.000    2.000    0.000    0.000    0.000    0.000 
#
# Total GULP energy -178488.182976 kJ/mol
# GULP energy per Si atom -5577.755718 kJ/mol
# Density = 1.851407 g / cm^3
# Si number density = 18.556309 Si / 1000 Ang^3
#
#
#
# Elastic Constant Matrix: (Units=GPa)
#
#
# Indices 1 2 3 4 5 6 
#
# 1 86.4767 17.8277 16.4642 0.0000 -3.1505 0.0000
# 2 17.8277 40.6926 15.1479 0.0000 -0.6313 0.0000
# 3 16.4642 15.1479 104.4966 0.0000 14.5775 0.0000
# 4 0.0000 0.0000 0.0000 24.3151 0.0000 -2.3329
# 5 -3.1505 -0.6313 14.5775 0.0000 24.3240 0.0000
# 6 0.0000 0.0000 0.0000 -2.3329 0.0000 16.8105
#
#
#
# Elastic Compliance Matrix: (Units=1/GPa)
#
#
# Indices 1 2 3 4 5 6 
#
# 1 0.013015 -0.005038 -0.001677 0.000000 0.002560 0.000000
# 2 -0.005038 0.028156 -0.003600 0.000000 0.002236 0.000000
# 3 -0.001677 -0.003600 0.011348 0.000000 -0.007112 0.000000
# 4 0.000000 0.000000 0.000000 0.041682 0.000000 0.005785
# 5 0.002560 0.002236 -0.007112 0.000000 0.045763 0.000000
# 6 0.000000 0.000000 0.000000 0.005785 0.000000 0.060289
#
#
# Mechanical properties :
#
#
# Convention : Reuss Voigt Hill
#
# Bulk Modulus (GPa) = 31.35855 36.72728 34.04292
# Shear Modulus (GPa) = 21.59705 25.23834 23.41770
#
# Velocity S-wave (km/s) = 3.41525 3.69195 3.55629
# Velocity P-wave (km/s) = 5.69980 6.16517 5.93704
#
# Compressibility (1/GPa) = 0.03188922
#
# Stress axis : x y z
#
# Youngs Moduli (GPa) = 76.83424 35.51606 88.12225
#
# Poissons Ratio (x) = 0.17892 0.14782
# Poissons Ratio (y) = 0.38708 0.31721
# Poissons Ratio (z) = 0.12889 0.12785
#
# Static dielectric constant tensor:
#      x y z
#    x 1.731740 0.000000 -0.012720 
#    y 0.000000 1.645310 0.000000 
#    z -0.012720 0.000000 1.704310 
# 
# From -- ./inp_files/91088.got.cif
#   From: 2010.05.17/outbox.cif.g08.bks.cpg/sg12_46_cif.got.tgz:91088.got - 2010.06.03 13:09:07.
