data_PCOD9192248
_publ_section_title
;
Structure prediction by ZEFSAII (Michael W. Deem and Ramdas Pophale) SiO2 
 PCOD9192248
Probable space group: C 2/M
;
_chemical_formula_sum "Si O2"
_cell_formula_units_Z 64
_cell_length_a 19.348237
_cell_length_b 14.360336
_cell_length_c 13.942971
_cell_angle_alpha 90.000000
_cell_angle_beta 61.603008
_cell_angle_gamma 90.000000
_cell_volume 3407.868701
_symmetry_space_group_name_H-M "C 2/M"
_symmetry_group_IT_number 12
_symmetry_cell_setting 'monoclinic'
loop_
_space_group_symop_operation_xyz
x,y,z
-x,y,-z
-x,-y,-z
x,-y,z
1/2+x,1/2+y,z
1/2-x,1/2+y,-z
1/2-x,1/2-y,-z
1/2+x,1/2-y,z
loop_
_atom_site_type_symbol
_atom_site_label
_atom_site_fract_x
_atom_site_fract_y
_atom_site_fract_z
Si Si1 0.625566 0.390796 0.111078
Si Si2 0.690752 0.110717 0.988263
Si Si3 0.638014 0.392869 0.752907
Si Si4 0.015134 0.104393 0.659157
Si Si5 0.895938 0.388600 0.754512
Si Si6 0.039678 0.699441 0.572605
Si Si7 0.410857 0.259684 0.042230
Si Si8 0.183188 0.389137 0.395835
O O1 0.620075 0.500000 0.086318
O O2 0.571975 0.380379 0.240536
O O3 0.716641 0.368727 0.068771
O O4 0.593258 0.326462 0.048037
O O5 0.651625 0.132505 0.117588
O O6 0.681507 0.000000 0.977381
O O7 0.646367 0.173638 0.940602
O O8 0.641025 0.500000 0.788121
O O9 0.573673 0.390503 0.711671
O O10 0.616241 0.322019 0.850669
O O11 0.724644 0.370487 0.656188
O O12 0.037968 0.189487 0.577189
O O13 0.020759 0.000000 0.614981
O O14 0.907984 0.500000 0.742939
O O15 0.845231 0.362580 0.693449
O O16 0.980763 0.339142 0.692468
O O17 0.127574 0.661396 0.509160
O O18 0.000000 0.664820 0.500000
O O19 0.500000 0.228273 0.000000
O O20 0.170894 0.500000 0.413320
#
# Coordination Sequence:
#
# PCOD9192248 Si02
#       8
#     8   8   8   8   8   8   8   8
#     4  10  20  36  57  82 111 145 189 233 272 321
#     4  10  22  37  55  80 114 154 189 225 269 325
#     4  10  21  36  54  79 109 140 177 224 277 327
#     4  10  21  36  53  75 107 141 178 223 272 325
#     4   9  17  32  54  79 105 134 176 224 268 316
#     4  10  20  33  54  79 103 133 176 224 273 322
#     4  12  22  33  56  84 114 149 184 227 273 331
#     4   9  18  34  56  81 106 134 171 223 277 322
#
# _framework density 18.780066000000001
#
# number of rings (size 3 to 8) (size 9 to 14) (size 15 to 20)
#    0.000    2.000    1.250    2.625    0.000    7.000 
#    0.000    0.000    0.000    0.750    0.000    0.000 
#    0.000    0.000    0.000    0.000    0.000    0.000 
#
# Total GULP energy -178662.853024 kJ/mol
# GULP energy per Si atom -5583.214157 kJ/mol
# Density = 1.873732 g / cm^3
# Si number density = 18.780066 Si / 1000 Ang^3
#
#
#
# Elastic Constant Matrix: (Units=GPa)
#
#
# Indices 1 2 3 4 5 6 
#
# 1 74.8191 25.7359 34.7020 0.0000 -21.2338 0.0000
# 2 25.7359 45.3187 26.8170 0.0000 -10.6341 0.0000
# 3 34.7020 26.8170 56.7383 0.0000 -29.7122 0.0000
# 4 0.0000 0.0000 0.0000 28.7485 0.0000 4.3255
# 5 -21.2338 -10.6341 -29.7122 0.0000 26.9425 0.0000
# 6 0.0000 0.0000 0.0000 4.3255 0.0000 24.9888
#
#
#
# Elastic Compliance Matrix: (Units=1/GPa)
#
#
# Indices 1 2 3 4 5 6 
#
# 1 0.020223 -0.006556 -0.005394 0.000000 0.007402 0.000000
# 2 -0.006556 0.033748 -0.018158 0.000000 -0.011871 0.000000
# 3 -0.005394 -0.018158 0.055685 0.000000 0.049992 0.000000
# 4 0.000000 0.000000 0.000000 0.035715 0.000000 -0.006182
# 5 0.007402 -0.011871 0.049992 0.000000 0.093396 0.000000
# 6 0.000000 0.000000 0.000000 -0.006182 0.000000 0.041088
#
#
# Mechanical properties :
#
#
# Convention : Reuss Voigt Hill
#
# Bulk Modulus (GPa) = 20.22569 39.04288 29.63428
# Shear Modulus (GPa) = 14.02329 22.11070 18.06700
#
# Velocity S-wave (km/s) = 2.73557 3.43498 3.10503
# Velocity P-wave (km/s) = 4.55751 6.04704 5.35433
#
# Compressibility (1/GPa) = 0.04944208
#
# Stress axis : x y z
#
# Youngs Moduli (GPa) = 49.44843 29.63141 17.95810
#
# Poissons Ratio (x) = 0.19426 0.09686
# Poissons Ratio (y) = 0.32417 0.32607
# Poissons Ratio (z) = 0.26672 0.53803
#
# Static dielectric constant tensor:
#      x y z
#    x 1.638520 0.000000 -0.013650 
#    y 0.000000 1.656940 0.000000 
#    z -0.013650 0.000000 1.647740 
# 
# From -- ./inp_files/225262.got.cif
#   From: 2010.05.17/outbox.cif.g08.bks.cpg/sg12_113_cif.got.tgz:225262.got - 2010.06.03 13:09:07.
