data_PCOD9192437
_publ_section_title
;
Structure prediction by ZEFSAII (Michael W. Deem and Ramdas Pophale) SiO2 
 PCOD9192437
Probable space group: C 2/M
;
_chemical_formula_sum "Si O2"
_cell_formula_units_Z 58
_cell_length_a 28.528312
_cell_length_b 7.844141
_cell_length_c 21.706329
_cell_angle_alpha 90.000000
_cell_angle_beta 149.322721
_cell_angle_gamma 90.000000
_cell_volume 2478.277410
_symmetry_space_group_name_H-M "C 2/M"
_symmetry_group_IT_number 12
_symmetry_cell_setting 'monoclinic'
loop_
_space_group_symop_operation_xyz
x,y,z
-x,y,-z
-x,-y,-z
x,-y,z
1/2+x,1/2+y,z
1/2-x,1/2+y,-z
1/2-x,1/2-y,-z
1/2+x,1/2-y,z
loop_
_atom_site_type_symbol
_atom_site_label
_atom_site_fract_x
_atom_site_fract_y
_atom_site_fract_z
Si Si1 0.101482 0.817776 0.064143
Si Si2 0.238754 0.194743 0.840352
Si Si3 0.500000 0.000000 0.000000
Si Si4 0.367209 0.698353 0.085890
Si Si5 0.331539 0.194208 0.735709
Si Si6 0.938985 0.793104 0.300482
Si Si7 0.939768 0.295431 0.734916
Si Si8 0.133738 0.298966 0.482022
O O1 0.190481 0.794438 0.121944
O O2 0.036518 0.653415 0.992237
O O3 0.141081 0.813609 0.178047
O O4 0.056921 0.000000 0.000769
O O5 0.135248 0.260242 0.732417
O O6 0.235485 0.000000 0.814456
O O7 0.286227 0.200790 0.961484
O O8 0.341501 0.500000 0.060815
O O9 0.399139 0.762599 0.188785
O O10 0.459378 0.715651 0.148951
O O11 0.376245 0.241470 0.721331
O O12 0.222420 0.198914 0.604726
O O13 0.363765 0.000000 0.791663
O O14 0.042928 0.729410 0.420365
O O15 0.940587 0.000000 0.301901
O O16 0.951124 0.500000 0.744680
O O17 0.892915 0.241745 0.617532
O O18 0.155716 0.500000 0.505027
#
# Coordination Sequence:
#
# PCOD9192437 Si02
#       8
#     8   8   2   8   8   8   8   8
#     4  12  27  45  68  96 127 167 212 258 309 372
#     4  11  22  40  61  86 123 165 210 259 313 374
#     4  12  26  52  68  94 130 164 214 256 316 364
#     4  10  20  33  55  90 123 159 206 252 312 380
#     4  11  22  40  61  86 124 166 210 257 309 371
#     4   9  20  38  60  86 121 163 205 257 317 374
#     4   9  20  35  56  85 121 161 201 249 310 371
#     4  10  20  36  59  90 121 157 205 258 313 372
#
# _framework density 23.403351000000001
#
# number of rings (size 3 to 8) (size 9 to 14) (size 15 to 20)
#    0.000    1.655    1.379    2.690    1.931    3.310 
#    0.000    0.690    0.000    4.138    0.000    0.000 
#    0.000    0.000    0.000    0.000    0.000    0.000 
#
# Total GULP energy -162100.936505 kJ/mol
# GULP energy per Si atom -5589.687466 kJ/mol
# Density = 2.335008 g / cm^3
# Si number density = 23.403351 Si / 1000 Ang^3
#
#
#
# Elastic Constant Matrix: (Units=GPa)
#
#
# Indices 1 2 3 4 5 6 
#
# 1 104.7423 38.6994 25.3827 0.0000 41.3106 0.0000
# 2 38.6994 103.1060 26.6990 0.0000 8.0243 0.0000
# 3 25.3827 26.6990 68.7354 0.0000 23.9972 0.0000
# 4 0.0000 0.0000 0.0000 25.5011 0.0000 2.7636
# 5 41.3106 8.0243 23.9972 0.0000 33.3331 0.0000
# 6 0.0000 0.0000 0.0000 2.7636 0.0000 19.7386
#
#
#
# Elastic Compliance Matrix: (Units=1/GPa)
#
#
# Indices 1 2 3 4 5 6 
#
# 1 0.023191 -0.007639 0.005070 0.000000 -0.030552 0.000000
# 2 -0.007639 0.013308 -0.006058 0.000000 0.010625 0.000000
# 3 0.005070 -0.006058 0.022325 0.000000 -0.020897 0.000000
# 4 0.000000 0.000000 0.000000 0.039818 0.000000 -0.005575
# 5 -0.030552 0.010625 -0.020897 0.000000 0.080351 0.000000
# 6 0.000000 0.000000 0.000000 -0.005575 0.000000 0.051443
#
#
# Mechanical properties :
#
#
# Convention : Reuss Voigt Hill
#
# Bulk Modulus (GPa) = 24.05614 50.90509 37.48062
# Shear Modulus (GPa) = 19.11710 28.10142 23.60926
#
# Velocity S-wave (km/s) = 2.86117 3.46893 3.17960
# Velocity P-wave (km/s) = 4.60611 6.15167 5.43412
#
# Compressibility (1/GPa) = 0.04156942
#
# Stress axis : x y z
#
# Youngs Moduli (GPa) = 43.12021 75.14391 44.79285
#
# Poissons Ratio (x) = 0.57406 -0.22709
# Poissons Ratio (y) = 0.32942 0.27133
# Poissons Ratio (z) = -0.21861 0.45519
#
# Static dielectric constant tensor:
#      x y z
#    x 1.901040 0.000000 -0.007710 
#    y 0.000000 1.849010 0.000000 
#    z -0.007710 0.000000 1.758250 
# 
# From -- ./inp_files/353097.got.cif
#   From: 2010.05.17/outbox.cif.g08.bks.cpg/sg12_177_cif.got.tgz:353097.got - 2010.06.03 13:09:07.
