data_PCOD9192499
_publ_section_title
;
Structure prediction by ZEFSAII (Michael W. Deem and Ramdas Pophale) SiO2 
 PCOD9192499
Probable space group: C 2/M
;
_chemical_formula_sum "Si O2"
_cell_formula_units_Z 56
_cell_length_a 28.240490
_cell_length_b 14.868865
_cell_length_c 8.949498
_cell_angle_alpha 90.000000
_cell_angle_beta 51.851692
_cell_angle_gamma 90.000000
_cell_volume 2955.290878
_symmetry_space_group_name_H-M "C 2/M"
_symmetry_group_IT_number 12
_symmetry_cell_setting 'monoclinic'
loop_
_space_group_symop_operation_xyz
x,y,z
-x,y,-z
-x,-y,-z
x,-y,z
1/2+x,1/2+y,z
1/2-x,1/2+y,-z
1/2-x,1/2-y,-z
1/2+x,1/2-y,z
loop_
_atom_site_type_symbol
_atom_site_label
_atom_site_fract_x
_atom_site_fract_y
_atom_site_fract_z
Si Si1 0.854942 0.604187 0.311980
Si Si2 0.358380 0.244989 0.071853
Si Si3 0.725773 0.846456 0.995815
Si Si4 0.843250 0.100252 0.614902
Si Si5 0.614811 0.899878 0.402318
Si Si6 0.068496 0.220948 0.361634
Si Si7 0.289407 0.607048 0.394612
O O1 0.862983 0.500000 0.244881
O O2 0.883801 0.681149 0.152626
O O3 0.880150 0.610882 0.430090
O O4 0.782588 0.621726 0.458597
O O5 0.315426 0.176107 0.065781
O O6 0.320098 0.326872 0.215640
O O7 0.404361 0.281917 0.858344
O O8 0.783481 0.901193 0.833463
O O9 0.750000 0.750000 0.000000
O O10 0.682416 0.887964 0.204277
O O11 0.889619 0.165514 0.605946
O O12 0.819987 0.128118 0.495809
O O13 0.868651 0.000000 0.553532
O O14 0.574929 0.823550 0.404674
O O15 0.593732 0.000000 0.407648
O O16 0.000000 0.190539 0.500000
O O17 0.298393 0.500000 0.346899
#
# Coordination Sequence:
#
# PCOD9192499 Si02
#       7
#     8   8   8   8   8   8   8
#     4  10  20  33  56  92 126 149 175 221 295 371
#     4  11  21  34  61  83 119 153 185 242 286 348
#     4  11  19  33  55  92 120 154 184 227 296 355
#     4  11  22  38  60  84 120 155 191 239 290 349
#     4  10  21  37  60  87 121 154 188 237 291 353
#     4  11  26  44  59  80 110 157 215 252 283 323
#     4  10  21  34  55  92 126 152 177 222 295 367
#
# _framework density 18.949065000000001
#
# number of rings (size 3 to 8) (size 9 to 14) (size 15 to 20)
#    0.000    1.429    4.286    2.571    0.000    3.429 
#    0.000    2.857    0.000    3.429    0.000    0.000 
#    0.000    0.000    0.000    0.000    0.000    0.000 
#
# Total GULP energy -156331.720494 kJ/mol
# GULP energy per Si atom -5583.275732 kJ/mol
# Density = 1.890594 g / cm^3
# Si number density = 18.949065 Si / 1000 Ang^3
#
#
#
# Elastic Constant Matrix: (Units=GPa)
#
#
# Indices 1 2 3 4 5 6 
#
# 1 31.4824 2.2023 13.9233 0.0000 -4.8306 0.0000
# 2 2.2023 55.3948 17.6183 0.0000 9.9825 0.0000
# 3 13.9233 17.6183 45.0649 0.0000 6.3084 0.0000
# 4 0.0000 0.0000 0.0000 6.1419 0.0000 5.7454
# 5 -4.8306 9.9825 6.3084 0.0000 25.2095 0.0000
# 6 0.0000 0.0000 0.0000 5.7454 0.0000 8.3298
#
#
#
# Elastic Compliance Matrix: (Units=1/GPa)
#
#
# Indices 1 2 3 4 5 6 
#
# 1 0.039584 0.000983 -0.014116 0.000000 0.010728 0.000000
# 2 0.000983 0.021677 -0.007879 0.000000 -0.006424 0.000000
# 3 -0.014116 -0.007879 0.030647 0.000000 -0.007254 0.000000
# 4 0.000000 0.000000 0.000000 0.458926 0.000000 -0.316542
# 5 0.010728 -0.006424 -0.007254 0.000000 0.046082 0.000000
# 6 0.000000 0.000000 0.000000 -0.316542 0.000000 0.338384
#
#
# Mechanical properties :
#
#
# Convention : Reuss Voigt Hill
#
# Bulk Modulus (GPa) = 20.04675 22.15886 21.10280
# Shear Modulus (GPa) = 5.03042 14.48279 9.75660
#
# Velocity S-wave (km/s) = 1.63109 2.76760 2.27157
# Velocity P-wave (km/s) = 3.76159 4.68317 4.24745
#
# Compressibility (1/GPa) = 0.04988341
#
# Stress axis : x y z
#
# Youngs Moduli (GPa) = 25.26275 46.13262 32.62940
#
# Poissons Ratio (x) = -0.04533 0.46059
# Poissons Ratio (y) = -0.02482 0.25708
# Poissons Ratio (z) = 0.35660 0.36347
#
# Static dielectric constant tensor:
#      x y z
#    x 1.710020 0.000000 0.043530 
#    y 0.000000 1.688300 0.000000 
#    z 0.043530 0.000000 1.670320 
# 
# From -- ./inp_files/86380.got.cif
#   From: 2010.05.17/outbox.cif.g08.bks.cpg/sg12_44_cif.got.tgz:86380.got - 2010.06.03 13:09:07.
