data_PCOD9192952
_publ_section_title
;
Structure prediction by ZEFSAII (Michael W. Deem and Ramdas Pophale) SiO2 
 PCOD9192952
Probable space group: C 2/M
;
_chemical_formula_sum "Si O2"
_cell_formula_units_Z 64
_cell_length_a 20.989701
_cell_length_b 8.403182
_cell_length_c 22.875996
_cell_angle_alpha 90.000000
_cell_angle_beta 62.689851
_cell_angle_gamma 90.000000
_cell_volume 3585.131177
_symmetry_space_group_name_H-M "C 2/M"
_symmetry_group_IT_number 12
_symmetry_cell_setting 'monoclinic'
loop_
_space_group_symop_operation_xyz
x,y,z
-x,y,-z
-x,-y,-z
x,-y,z
1/2+x,1/2+y,z
1/2-x,1/2+y,-z
1/2-x,1/2-y,-z
1/2+x,1/2-y,z
loop_
_atom_site_type_symbol
_atom_site_label
_atom_site_fract_x
_atom_site_fract_y
_atom_site_fract_z
Si Si1 0.828674 0.809371 0.951078
Si Si2 0.844685 0.192415 0.700023
Si Si3 0.704362 0.692305 0.699764
Si Si4 0.029016 0.690777 0.050606
Si Si5 0.097327 0.806117 0.199767
Si Si6 0.779922 0.690335 0.548700
Si Si7 0.579787 0.307680 0.451102
Si Si8 0.546257 0.307458 0.801378
O O1 0.890820 0.749234 0.968364
O O2 0.852896 0.756920 0.875699
O O3 0.829541 0.000000 0.951600
O O4 0.750000 0.750000 0.000000
O O5 0.764705 0.250007 0.719485
O O6 0.874660 0.249681 0.749454
O O7 0.893823 0.243925 0.624456
O O8 0.844539 0.000000 0.700688
O O9 0.703935 0.500000 0.700090
O O10 0.730791 0.744905 0.624273
O O11 0.624948 0.748270 0.749726
O O12 0.029165 0.500000 0.050883
O O13 0.978576 0.750608 0.124442
O O14 0.000000 0.746205 0.000000
O O15 0.016517 0.757152 0.217052
O O16 0.097886 0.000000 0.200864
O O17 0.780051 0.500000 0.548648
O O18 0.750000 0.750000 0.500000
O O19 0.859862 0.750292 0.529181
O O20 0.500000 0.252041 0.500000
O O21 0.579518 0.500000 0.451912
O O22 0.546697 0.500000 0.801845
#
# Coordination Sequence:
#
# PCOD9192952 Si02
#       8
#     8   8   8   8   8   8   8   8
#     4  10  20  35  54  75 102 134 170 211 255 304
#     4   9  17  31  51  72  97 129 163 200 243 296
#     4   9  19  34  51  73 101 131 163 205 254 300
#     4  10  21  36  53  75 104 136 171 211 254 301
#     4   8  16  31  50  71  94 124 161 200 242 290
#     4  10  20  34  52  74 103 136 170 210 254 301
#     4   9  18  32  51  75 101 131 168 207 248 298
#     4   9  18  34  54  74  98 130 169 209 251 300
#
# _framework density 17.851507999999999
#
# number of rings (size 3 to 8) (size 9 to 14) (size 15 to 20)
#    0.000    2.750    0.000    1.875    0.000    4.250 
#    0.000   10.625    0.000    0.000    0.000    0.000 
#    0.000    0.000    0.000    0.000    0.000    0.000 
#
# Total GULP energy -178451.065917 kJ/mol
# GULP energy per Si atom -5576.595810 kJ/mol
# Density = 1.781088 g / cm^3
# Si number density = 17.851508 Si / 1000 Ang^3
#
#
#
# Elastic Constant Matrix: (Units=GPa)
#
#
# Indices 1 2 3 4 5 6 
#
# 1 200.5809 23.9970 138.9055 0.0002 -0.4346 0.0002
# 2 23.9970 13.2586 18.2832 0.0003 -1.4614 -0.0003
# 3 138.9055 18.2832 115.4918 0.0001 -0.3099 0.0001
# 4 0.0002 0.0003 0.0001 19.1159 0.0001 -0.2641
# 5 -0.4346 -1.4614 -0.3099 0.0001 45.3374 0.0002
# 6 0.0002 -0.0003 0.0001 -0.2641 0.0002 30.5401
#
#
#
# Elastic Compliance Matrix: (Units=1/GPa)
#
#
# Indices 1 2 3 4 5 6 
#
# 1 0.030188 -0.005866 -0.035380 0.000000 -0.000142 0.000000
# 2 -0.005866 0.098037 -0.008457 -0.000002 0.003046 0.000001
# 3 -0.035380 -0.008457 0.052549 0.000000 -0.000252 0.000000
# 4 0.000000 -0.000002 0.000000 0.052319 0.000000 0.000452
# 5 -0.000142 0.003046 -0.000252 0.000000 0.022152 0.000000
# 6 0.000000 0.000001 0.000000 0.000452 0.000000 0.032748
#
#
# Mechanical properties :
#
#
# Convention : Reuss Voigt Hill
#
# Bulk Modulus (GPa) = 12.28970 76.85584 44.57277
# Shear Modulus (GPa) = 12.06211 28.87505 20.46858
#
# Velocity S-wave (km/s) = 2.60223 4.02619 3.38983
# Velocity P-wave (km/s) = 3.99101 8.04736 6.35170
#
# Compressibility (1/GPa) = 0.08136897
#
# Stress axis : x y z
#
# Youngs Moduli (GPa) = 33.12545 10.20028 19.02972
#
# Poissons Ratio (x) = 0.05983 0.67327
# Poissons Ratio (y) = 0.19431 0.16093
# Poissons Ratio (z) = 1.17198 0.08626
#
# Static dielectric constant tensor:
#      x y z
#    x 1.586700 0.000000 -0.001280 
#    y 0.000000 1.618300 0.000000 
#    z -0.001280 0.000000 1.605590 
# 
# From -- ./inp_files/319962.got.cif
#   From: 2010.05.17/outbox.cif.g08.bks.cpg/sg12_160_cif.got.tgz:319962.got - 2010.06.03 13:09:07.
