data_PCOD9192956
_publ_section_title
;
Structure prediction by ZEFSAII (Michael W. Deem and Ramdas Pophale) SiO2 
 PCOD9192956
Probable space group: C 2/M
;
_chemical_formula_sum "Si O2"
_cell_formula_units_Z 64
_cell_length_a 24.355962
_cell_length_b 8.985918
_cell_length_c 17.158338
_cell_angle_alpha 90.000000
_cell_angle_beta 102.079295
_cell_angle_gamma 90.000000
_cell_volume 3672.139411
_symmetry_space_group_name_H-M "C 2/M"
_symmetry_group_IT_number 12
_symmetry_cell_setting 'monoclinic'
loop_
_space_group_symop_operation_xyz
x,y,z
-x,y,-z
-x,-y,-z
x,-y,z
1/2+x,1/2+y,z
1/2-x,1/2+y,-z
1/2-x,1/2-y,-z
1/2+x,1/2-y,z
loop_
_atom_site_type_symbol
_atom_site_label
_atom_site_fract_x
_atom_site_fract_y
_atom_site_fract_z
Si Si1 0.167462 0.172588 0.999452
Si Si2 0.114900 0.677070 0.222019
Si Si3 0.660054 0.821887 0.828843
Si Si4 0.558860 0.179386 0.685137
Si Si5 0.436079 0.323277 0.644746
Si Si6 0.772751 0.677578 0.840260
Si Si7 0.568093 0.170331 0.515962
Si Si8 0.946752 0.172842 0.935206
O O1 0.208823 0.260260 0.069563
O O2 0.107325 0.175882 0.024838
O O3 0.185022 0.000000 0.997113
O O4 0.160869 0.248466 0.914167
O O5 0.110441 0.500000 0.229621
O O6 0.103057 0.756871 0.299653
O O7 0.175772 0.712114 0.202742
O O8 0.069203 0.733916 0.145548
O O9 0.603162 0.785248 0.765549
O O10 0.714730 0.756797 0.801902
O O11 0.664286 0.000000 0.836105
O O12 0.498872 0.257737 0.676490
O O13 0.584537 0.219352 0.607810
O O14 0.549613 0.000000 0.680979
O O15 0.437870 0.500000 0.649268
O O16 0.416848 0.269875 0.553288
O O17 0.766106 0.500000 0.841684
O O18 0.500000 0.169315 0.500000
O O19 0.586431 0.000000 0.508063
O O20 0.957174 0.000000 0.916005
O O21 0.000000 0.227663 0.000000
#
# Coordination Sequence:
#
# PCOD9192956 Si02
#       8
#     8   8   8   8   8   8   8   8
#     4  10  20  34  52  74 103 138 176 216 259 306
#     4  10  21  36  54  75 100 136 178 214 253 309
#     4  11  22  35  54  78 105 135 173 219 261 306
#     4   9  20  36  53  78 109 141 171 206 258 314
#     4  11  21  32  53  82 110 137 170 212 256 306
#     4  10  21  38  56  74  99 135 180 222 262 304
#     4   8  15  32  54  74 104 140 171 204 251 310
#     4   9  19  34  50  72 104 137 169 212 263 304
#
# _framework density 17.428532000000001
#
# number of rings (size 3 to 8) (size 9 to 14) (size 15 to 20)
#    0.000    2.250    0.000    3.750    1.750    5.500 
#    0.000    0.000    0.000    0.750    0.000    0.000 
#    0.000    0.000    0.000    0.000    0.000    0.000 
#
# Total GULP energy -178587.009932 kJ/mol
# GULP energy per Si atom -5580.844060 kJ/mol
# Density = 1.738886 g / cm^3
# Si number density = 17.428532 Si / 1000 Ang^3
#
#
#
# Elastic Constant Matrix: (Units=GPa)
#
#
# Indices 1 2 3 4 5 6 
#
# 1 30.5897 26.0310 27.4242 0.0000 -5.6984 0.0000
# 2 26.0310 77.0559 47.7995 0.0000 -13.4876 0.0000
# 3 27.4242 47.7995 94.9273 0.0000 -21.9079 0.0000
# 4 0.0000 0.0000 0.0000 20.7845 0.0000 -2.2543
# 5 -5.6984 -13.4876 -21.9079 0.0000 21.3525 0.0000
# 6 0.0000 0.0000 0.0000 -2.2543 0.0000 25.2489
#
#
#
# Elastic Compliance Matrix: (Units=1/GPa)
#
#
# Indices 1 2 3 4 5 6 
#
# 1 0.050609 -0.011847 -0.009520 0.000000 -0.003744 0.000000
# 2 -0.011847 0.021779 -0.006680 0.000000 0.003741 0.000000
# 3 -0.009520 -0.006680 0.019769 0.000000 0.013523 0.000000
# 4 0.000000 0.000000 0.000000 0.048583 0.000000 0.004338
# 5 -0.003744 0.003741 0.013523 0.000000 0.062072 0.000000
# 6 0.000000 0.000000 0.000000 0.004338 0.000000 0.039993
#
#
# Mechanical properties :
#
#
# Convention : Reuss Voigt Hill
#
# Bulk Modulus (GPa) = 27.72912 45.00915 36.36914
# Shear Modulus (GPa) = 16.08131 20.23174 18.15653
#
# Velocity S-wave (km/s) = 3.04089 3.41081 3.23115
# Velocity P-wave (km/s) = 5.31734 6.43370 5.90198
#
# Compressibility (1/GPa) = 0.03606317
#
# Stress axis : x y z
#
# Youngs Moduli (GPa) = 19.75929 45.91678 50.58330
#
# Poissons Ratio (x) = 0.54397 0.48153
# Poissons Ratio (y) = 0.23409 0.33792
# Poissons Ratio (z) = 0.18810 0.30674
#
# Static dielectric constant tensor:
#      x y z
#    x 1.590230 0.000000 -0.011640 
#    y 0.000000 1.583700 0.000000 
#    z -0.011640 0.000000 1.594080 
# 
# From -- ./inp_files/244110.got.cif
#   From: 2010.05.17/outbox.cif.g08.bks.cpg/sg12_123_cif.got.tgz:244110.got - 2010.06.03 13:09:07.
