data_PCOD9192924
_publ_section_title
;
Structure prediction by ZEFSAII (Michael W. Deem and Ramdas Pophale) SiO2 
 PCOD9192924
Probable space group: C 2/M
;
_chemical_formula_sum "Si O2"
_cell_formula_units_Z 48
_cell_length_a 16.655044
_cell_length_b 13.654045
_cell_length_c 13.904094
_cell_angle_alpha 90.000000
_cell_angle_beta 36.372149
_cell_angle_gamma 90.000000
_cell_volume 1875.101104
_symmetry_space_group_name_H-M "C 2/M"
_symmetry_group_IT_number 12
_symmetry_cell_setting 'monoclinic'
loop_
_space_group_symop_operation_xyz
x,y,z
-x,y,-z
-x,-y,-z
x,-y,z
1/2+x,1/2+y,z
1/2-x,1/2+y,-z
1/2-x,1/2-y,-z
1/2+x,1/2-y,z
loop_
_atom_site_type_symbol
_atom_site_label
_atom_site_fract_x
_atom_site_fract_y
_atom_site_fract_z
Si Si1 0.048816 0.852517 0.612134
Si Si2 0.136908 0.104244 0.729854
Si Si3 0.155236 0.335999 0.758619
Si Si4 0.431485 0.872601 0.359845
Si Si5 0.774644 0.393809 0.891918
Si Si6 0.751150 0.329996 0.134432
O O1 0.047885 0.900885 0.718258
O O2 0.189373 0.866196 0.420813
O O3 0.061752 0.741951 0.633052
O O4 0.906620 0.859048 0.694482
O O5 0.128236 0.216408 0.779088
O O6 0.291475 0.099107 0.543067
O O7 0.114076 0.000000 0.805722
O O8 0.073527 0.386112 0.750542
O O9 0.151838 0.363741 0.873588
O O10 0.566094 0.904450 0.282941
O O11 0.711965 0.500000 0.929245
O O12 0.731329 0.289260 0.888985
O O13 0.772859 0.373553 0.008127
#
# Coordination Sequence:
#
# PCOD9192924 Si02
#       6
#     8   8   8   8   8   8
#     4   8  16  31  49  70  99 131 155 186 242 299
#     4   9  16  28  51  78 100 124 156 198 246 296
#     4   9  17  31  52  75  98 125 159 204 250 286
#     4   8  16  32  50  70  98 129 160 192 235 291
#     4  10  21  36  52  69  96 135 170 201 241 292
#     4  10  20  34  52  73  99 130 164 204 247 289
#
# _framework density 25.59862
#
# number of rings (size 3 to 8) (size 9 to 14) (size 15 to 20)
#    0.000    3.000    0.000    3.000    0.000    2.000 
#    0.000    5.000    0.000   11.000    0.000    9.333 
#    0.000    0.000    0.000    0.000    0.000    0.000 
#
# Total GULP energy -133689.055023 kJ/mol
# GULP energy per Si atom -5570.377293 kJ/mol
# Density = 2.554036 g / cm^3
# Si number density = 25.598620 Si / 1000 Ang^3
#
#
#
# Elastic Constant Matrix: (Units=GPa)
#
#
# Indices 1 2 3 4 5 6 
#
# 1 103.3653 -22.9402 14.5711 0.0000 -1.4010 0.0000
# 2 -22.9402 108.2129 -10.7945 0.0000 -8.3781 0.0000
# 3 14.5711 -10.7945 49.6412 0.0000 -15.1930 0.0000
# 4 0.0000 0.0000 0.0000 20.9424 0.0000 -3.6070
# 5 -1.4010 -8.3781 -15.1930 0.0000 33.1062 0.0000
# 6 0.0000 0.0000 0.0000 -3.6070 0.0000 -95.7645
#
#
#
# Elastic Compliance Matrix: (Units=1/GPa)
#
#
# Indices 1 2 3 4 5 6 
#
# 1 0.010486 0.001921 -0.002764 0.000000 -0.000338 0.000000
# 2 0.001921 0.010246 0.002888 0.000000 0.004000 0.000000
# 3 -0.002764 0.002888 0.025329 0.000000 0.012238 0.000000
# 4 0.000000 0.000000 0.000000 0.047442 0.000000 -0.001787
# 5 -0.000338 0.004000 0.012238 0.000000 0.036820 0.000000
# 6 0.000000 0.000000 0.000000 -0.001787 0.000000 -0.010375
#
#
# Mechanical properties :
#
#
# Convention : Reuss Voigt Hill
#
# Bulk Modulus (GPa) = 19.93924 24.76579 22.35251
# Shear Modulus (GPa) = 37.71454 10.34902 24.03178
#
# Velocity S-wave (km/s) = 3.84253 2.01285 3.06730
# Velocity P-wave (km/s) = 5.24336 3.88558 4.61468
#
# Compressibility (1/GPa) = 0.05015236
#
# Stress axis : x y z
#
# Youngs Moduli (GPa) = 95.36739 97.59846 39.47983
#
# Poissons Ratio (x) = -0.18749 0.10911
# Poissons Ratio (y) = -0.18320 -0.11403
# Poissons Ratio (z) = 0.26357 -0.28189
#
# Static dielectric constant tensor:
#      x y z
#    x 1.976930 0.000000 -0.050960 
#    y 0.000000 2.245030 0.000000 
#    z -0.050960 0.000000 2.098210 
# 
# From -- ./inp_files/166520.got.cif
#   From: 2010.05.17/outbox.cif.g08.bks.cpg/sg12_84_cif.got.tgz:166520.got - 2010.06.03 13:09:07.
