data_PCOD9192948
_publ_section_title
;
Structure prediction by ZEFSAII (Michael W. Deem and Ramdas Pophale) SiO2 
 PCOD9192948
Probable space group: C 2/M
;
_chemical_formula_sum "Si O2"
_cell_formula_units_Z 64
_cell_length_a 30.666808
_cell_length_b 8.722382
_cell_length_c 15.309232
_cell_angle_alpha 90.000000
_cell_angle_beta 78.787297
_cell_angle_gamma 90.000000
_cell_volume 4016.864287
_symmetry_space_group_name_H-M "C 2/M"
_symmetry_group_IT_number 12
_symmetry_cell_setting 'monoclinic'
loop_
_space_group_symop_operation_xyz
x,y,z
-x,y,-z
-x,-y,-z
x,-y,z
1/2+x,1/2+y,z
1/2-x,1/2+y,-z
1/2-x,1/2-y,-z
1/2+x,1/2-y,z
loop_
_atom_site_type_symbol
_atom_site_label
_atom_site_fract_x
_atom_site_fract_y
_atom_site_fract_z
Si Si1 0.214236 0.816149 0.201705
Si Si2 0.624629 0.182608 0.751607
Si Si3 0.684369 0.683097 0.581173
Si Si4 0.689088 0.316804 0.875056
Si Si5 0.553117 0.817506 0.062140
Si Si6 0.855645 0.816601 0.920661
Si Si7 0.459115 0.683340 0.126151
Si Si8 0.783901 0.683175 0.609758
O O1 0.260855 0.742189 0.154494
O O2 0.175812 0.774970 0.147919
O O3 0.204080 0.757268 0.302758
O O4 0.219016 0.000000 0.200055
O O5 0.645991 0.240772 0.653288
O O6 0.658020 0.237718 0.815151
O O7 0.577166 0.257071 0.791667
O O8 0.621284 0.000000 0.754074
O O9 0.679128 0.500000 0.581330
O O10 0.731824 0.717078 0.609574
O O11 0.688870 0.748788 0.482050
O O12 0.687763 0.500000 0.861131
O O13 0.670110 0.283915 0.978713
O O14 0.597536 0.769258 0.094807
O O15 0.508282 0.750129 0.121744
O O16 0.549567 0.000000 0.055477
O O17 0.555252 0.744678 0.964111
O O18 0.863714 0.000000 0.915051
O O19 0.460185 0.500000 0.123516
O O20 0.788759 0.500000 0.611156
#
# Coordination Sequence:
#
# PCOD9192948 Si02
#       8
#     8   8   8   8   8   8   8   8
#     4  11  22  35  52  74 103 141 182 220 257 305
#     4  12  22  33  52  79 107 137 174 213 257 311
#     4  10  20  34  53  75 103 136 170 212 263 315
#     4  11  21  34  50  71 104 143 181 217 255 303
#     4  11  21  34  53  77 102 133 175 219 261 306
#     4  10  22  37  52  72 103 143 182 217 259 307
#     4  11  21  35  54  74 104 138 170 212 263 313
#     4  10  20  34  52  74 102 135 173 218 261 308
#
# _framework density 15.932824999999999
#
# number of rings (size 3 to 8) (size 9 to 14) (size 15 to 20)
#    0.000    1.250    2.500    6.000    0.000    2.500 
#    0.000    0.000    0.000    0.000    0.000    0.875 
#    0.000    7.000    0.000    0.000    0.000    0.000 
#
# Total GULP energy -178843.809923 kJ/mol
# GULP energy per Si atom -5588.869060 kJ/mol
# Density = 1.589656 g / cm^3
# Si number density = 15.932825 Si / 1000 Ang^3
#
#
#
# Elastic Constant Matrix: (Units=GPa)
#
#
# Indices 1 2 3 4 5 6 
#
# 1 105.2379 57.0976 68.4693 0.0000 -15.9865 0.0000
# 2 57.0976 102.5796 57.2828 0.0000 -12.5526 0.0000
# 3 68.4693 57.2828 104.3567 0.0000 -17.5579 0.0000
# 4 0.0000 0.0000 0.0000 25.3995 0.0000 -4.5662
# 5 -15.9865 -12.5526 -17.5579 0.0000 24.6035 0.0000
# 6 0.0000 0.0000 0.0000 -4.5662 0.0000 26.4590
#
#
#
# Elastic Compliance Matrix: (Units=1/GPa)
#
#
# Indices 1 2 3 4 5 6 
#
# 1 0.018404 -0.004920 -0.008847 0.000000 0.003135 0.000000
# 2 -0.004920 0.015451 -0.005074 0.000000 0.001065 0.000000
# 3 -0.008847 -0.005074 0.019058 0.000000 0.005263 0.000000
# 4 0.000000 0.000000 0.000000 0.040631 0.000000 0.007012
# 5 0.003135 0.001065 0.005263 0.000000 0.046981 0.000000
# 6 0.000000 0.000000 0.000000 0.007012 0.000000 0.039004
#
#
# Mechanical properties :
#
#
# Convention : Reuss Voigt Hill
#
# Bulk Modulus (GPa) = 65.65648 75.31927 70.48787
# Shear Modulus (GPa) = 22.49346 23.91403 23.20374
#
# Velocity S-wave (km/s) = 3.76143 3.87838 3.82035
# Velocity P-wave (km/s) = 7.75643 8.21167 7.98729
#
# Compressibility (1/GPa) = 0.01523079
#
# Stress axis : x y z
#
# Youngs Moduli (GPa) = 54.33711 64.72153 52.47257
#
# Poissons Ratio (x) = 0.31843 0.46421
# Poissons Ratio (y) = 0.26734 0.26624
# Poissons Ratio (z) = 0.48071 0.32839
#
# Static dielectric constant tensor:
#      x y z
#    x 1.518590 0.000000 -0.008610 
#    y 0.000000 1.530820 0.000000 
#    z -0.008610 0.000000 1.517340 
# 
# From -- ./inp_files/243992.got.cif
#   From: 2010.05.17/outbox.cif.g08.bks.cpg/sg12_122_cif.got.tgz:243992.got - 2010.06.03 13:09:07.
