data_PCOD9192210
_publ_section_title
;
Structure prediction by ZEFSAII (Michael W. Deem and Ramdas Pophale) SiO2 
 PCOD9192210
Probable space group: C 2/M
;
_chemical_formula_sum "Si O2"
_cell_formula_units_Z 56
_cell_length_a 20.632162
_cell_length_b 7.970373
_cell_length_c 18.901768
_cell_angle_alpha 90.000000
_cell_angle_beta 131.772739
_cell_angle_gamma 90.000000
_cell_volume 2318.163930
_symmetry_space_group_name_H-M "C 2/M"
_symmetry_group_IT_number 12
_symmetry_cell_setting 'monoclinic'
loop_
_space_group_symop_operation_xyz
x,y,z
-x,y,-z
-x,-y,-z
x,-y,z
1/2+x,1/2+y,z
1/2-x,1/2+y,-z
1/2-x,1/2-y,-z
1/2+x,1/2-y,z
loop_
_atom_site_type_symbol
_atom_site_label
_atom_site_fract_x
_atom_site_fract_y
_atom_site_fract_z
Si Si1 0.742379 0.198399 0.575469
Si Si2 0.374618 0.693905 0.389278
Si Si3 0.771358 0.300641 0.095640
Si Si4 0.309247 0.810192 0.824690
Si Si5 0.549995 0.297177 0.695606
Si Si6 0.068206 0.793372 0.266837
Si Si7 0.981340 0.812051 0.911890
O O1 0.750000 0.250000 0.500000
O O2 0.656636 0.246498 0.556738
O O3 0.833659 0.269541 0.671995
O O4 0.748000 0.000000 0.584244
O O5 0.397726 0.500000 0.415742
O O6 0.284733 0.707934 0.279290
O O7 0.441378 0.767916 0.379290
O O8 0.765910 0.500000 0.098007
O O9 0.703014 0.220232 0.100808
O O10 0.865263 0.245291 0.194908
O O11 0.750000 0.250000 0.000000
O O12 0.376958 0.680700 0.842302
O O13 0.338848 0.000000 0.832945
O O14 0.547474 0.500000 0.688292
O O15 0.469172 0.241219 0.684461
O O16 0.006418 0.737761 0.156887
O O17 0.066489 0.000000 0.263642
O O18 0.020219 0.000000 0.942006
O O19 0.000000 0.723788 0.000000
#
# Coordination Sequence:
#
# PCOD9192210 Si02
#       7
#     8   8   8   8   8   8   8
#     4  11  22  38  63  90 116 149 191 236 289 352
#     4   9  18  35  58  83 112 146 186 234 285 338
#     4  11  22  35  52  77 110 150 197 245 291 344
#     4  10  20  35  54  78 109 149 194 240 286 336
#     4   9  19  37  59  83 113 152 194 239 292 350
#     4   9  19  37  59  85 118 155 195 240 292 350
#     4  10  20  33  53  83 115 154 198 241 291 345
#
# _framework density 24.157049000000001
#
# number of rings (size 3 to 8) (size 9 to 14) (size 15 to 20)
#    0.000    2.143    1.429    3.000    2.000    2.571 
#    0.000    2.857    0.000    4.286    0.000    0.000 
#    0.000    0.000    0.000    0.000    0.000    0.000 
#
# Total GULP energy -156206.186524 kJ/mol
# GULP energy per Si atom -5578.792376 kJ/mol
# Density = 2.410207 g / cm^3
# Si number density = 24.157049 Si / 1000 Ang^3
#
#
#
# Elastic Constant Matrix: (Units=GPa)
#
#
# Indices 1 2 3 4 5 6 
#
# 1 144.0525 8.3556 41.0466 0.0000 -41.7784 0.0000
# 2 8.3556 37.1548 -14.5796 0.0000 -3.6542 0.0000
# 3 41.0466 -14.5796 100.8831 0.0000 -41.3330 0.0000
# 4 0.0000 0.0000 0.0000 15.8290 0.0000 -4.8764
# 5 -41.7784 -3.6542 -41.3330 0.0000 49.0335 0.0000
# 6 0.0000 0.0000 0.0000 -4.8764 0.0000 12.9788
#
#
#
# Elastic Compliance Matrix: (Units=1/GPa)
#
#
# Indices 1 2 3 4 5 6 
#
# 1 0.009389 -0.001986 -0.001360 0.000000 0.006706 0.000000
# 2 -0.001986 0.031514 0.008602 0.000000 0.007908 0.000000
# 3 -0.001360 0.008602 0.017562 0.000000 0.014287 0.000000
# 4 0.000000 0.000000 0.000000 0.071445 0.000000 0.026843
# 5 0.006706 0.007908 0.014287 0.000000 0.038741 0.000000
# 6 0.000000 0.000000 0.000000 0.026843 0.000000 0.087134
#
#
# Mechanical properties :
#
#
# Convention : Reuss Voigt Hill
#
# Bulk Modulus (GPa) = 14.49685 39.08172 26.78928
# Shear Modulus (GPa) = 18.63829 32.05277 25.34553
#
# Velocity S-wave (km/s) = 2.78069 3.64655 3.24265
# Velocity P-wave (km/s) = 4.04026 5.82607 5.01332
#
# Compressibility (1/GPa) = 0.06898049
#
# Stress axis : x y z
#
# Youngs Moduli (GPa) = 106.50291 31.73155 56.93973
#
# Poissons Ratio (x) = 0.06301 0.07742
# Poissons Ratio (y) = 0.21147 -0.48982
# Poissons Ratio (z) = 0.14482 -0.27297
#
# Static dielectric constant tensor:
#      x y z
#    x 1.970500 0.000000 -0.011360 
#    y 0.000000 1.956210 0.000000 
#    z -0.011360 0.000000 2.051340 
# 
# From -- ./inp_files/280974.got.cif
#   From: 2010.05.17/outbox.cif.g08.bks.cpg/sg12_141_cif.got.tgz:280974.got - 2010.06.03 13:09:07.
