data_PCOD9192386
_publ_section_title
;
Structure prediction by ZEFSAII (Michael W. Deem and Ramdas Pophale) SiO2 
 PCOD9192386
Probable space group: C 2/M
;
_chemical_formula_sum "Si O2"
_cell_formula_units_Z 48
_cell_length_a 12.446876
_cell_length_b 12.648197
_cell_length_c 13.027367
_cell_angle_alpha 90.000000
_cell_angle_beta 85.147316
_cell_angle_gamma 90.000000
_cell_volume 2043.553938
_symmetry_space_group_name_H-M "C 2/M"
_symmetry_group_IT_number 12
_symmetry_cell_setting 'monoclinic'
loop_
_space_group_symop_operation_xyz
x,y,z
-x,y,-z
-x,-y,-z
x,-y,z
1/2+x,1/2+y,z
1/2-x,1/2+y,-z
1/2-x,1/2-y,-z
1/2+x,1/2-y,z
loop_
_atom_site_type_symbol
_atom_site_label
_atom_site_fract_x
_atom_site_fract_y
_atom_site_fract_z
Si Si1 0.689601 0.293080 0.665376
Si Si2 0.784671 0.115905 0.025372
Si Si3 0.389366 0.201080 0.540085
Si Si4 0.460940 0.620642 0.690101
Si Si5 0.906869 0.732020 0.885265
Si Si6 0.867850 0.381010 0.163396
O O1 0.663375 0.226274 0.564516
O O2 0.803830 0.345483 0.627687
O O3 0.590705 0.373052 0.685690
O O4 0.679185 0.205271 0.754704
O O5 0.878904 0.196410 0.987763
O O6 0.709643 0.111733 0.929337
O O7 0.825530 0.000000 0.047449
O O8 0.700206 0.159510 0.115047
O O9 0.500000 0.143494 0.500000
O O10 0.423489 0.310553 0.595330
O O11 0.423340 0.500000 0.690653
O O12 0.420971 0.684656 0.792570
O O13 0.011893 0.658053 0.876335
O O14 0.873786 0.500000 0.206548
#
# Coordination Sequence:
#
# PCOD9192386 Si02
#       6
#     8   8   8   8   8   8
#     4   9  19  33  54  83 113 137 175 232 279 314
#     4  10  20  35  58  84 109 145 190 227 267 324
#     4   9  18  34  55  79 109 140 174 221 274 322
#     4  10  20  35  58  83 107 143 189 228 268 325
#     4  10  20  33  55  84 115 140 179 236 278 310
#     4  10  20  36  59  82 106 144 190 227 266 324
#
# _framework density 23.488492000000001
#
# number of rings (size 3 to 8) (size 9 to 14) (size 15 to 20)
#    0.000    2.333    0.000    2.500    0.000    6.333 
#    0.000    4.167    0.000   92.000    0.000    0.000 
#    0.000    0.000    0.000    0.000    0.000    0.000 
#
# Total GULP energy -134021.982569 kJ/mol
# GULP energy per Si atom -5584.249274 kJ/mol
# Density = 2.343503 g / cm^3
# Si number density = 23.488492 Si / 1000 Ang^3
#
#
#
# Elastic Constant Matrix: (Units=GPa)
#
#
# Indices 1 2 3 4 5 6 
#
# 1 101.3360 11.6048 30.0119 0.0000 -31.1810 0.0000
# 2 11.6048 79.6319 14.3869 0.0000 9.5581 0.0000
# 3 30.0119 14.3869 108.5108 0.0000 -22.4065 0.0000
# 4 0.0000 0.0000 0.0000 3.9320 0.0000 5.8629
# 5 -31.1810 9.5581 -22.4065 0.0000 42.2560 0.0000
# 6 0.0000 0.0000 0.0000 5.8629 0.0000 19.4964
#
#
#
# Elastic Compliance Matrix: (Units=1/GPa)
#
#
# Indices 1 2 3 4 5 6 
#
# 1 0.013700 -0.002970 -0.001313 0.000000 0.010085 0.000000
# 2 -0.002970 0.014239 -0.002453 0.000000 -0.006713 0.000000
# 3 -0.001313 -0.002453 0.011026 0.000000 0.005432 0.000000
# 4 0.000000 0.000000 0.000000 0.461061 0.000000 -0.138648
# 5 0.010085 -0.006713 0.005432 0.000000 0.035506 0.000000
# 6 0.000000 0.000000 0.000000 -0.138648 0.000000 0.092985
#
#
# Mechanical properties :
#
#
# Convention : Reuss Voigt Hill
#
# Bulk Modulus (GPa) = 39.22424 44.60954 41.91689
# Shear Modulus (GPa) = 7.68655 28.70190 18.19423
#
# Velocity S-wave (km/s) = 1.81096 3.49944 2.78619
# Velocity P-wave (km/s) = 4.59438 5.94655 5.31365
#
# Compressibility (1/GPa) = 0.02549444
#
# Stress axis : x y z
#
# Youngs Moduli (GPa) = 72.99121 70.22754 90.69685
#
# Poissons Ratio (x) = 0.20856 0.11909
# Poissons Ratio (y) = 0.21677 0.22245
# Poissons Ratio (z) = 0.09584 0.17225
#
# Static dielectric constant tensor:
#      x y z
#    x 1.990420 0.000000 -0.033870 
#    y 0.000000 1.843110 0.000000 
#    z -0.033870 0.000000 1.928290 
# 
# From -- ./inp_files/212508.got.cif
#   From: 2010.05.17/outbox.cif.g08.bks.cpg/sg12_107_cif.got.tgz:212508.got - 2010.06.03 13:09:07.
