data_PCOD9192126
_publ_section_title
;
Structure prediction by ZEFSAII (Michael W. Deem and Ramdas Pophale) SiO2 
 PCOD9192126
Probable space group: C 2/M
;
_chemical_formula_sum "Si O2"
_cell_formula_units_Z 50
_cell_length_a 27.241639
_cell_length_b 7.394754
_cell_length_c 13.719946
_cell_angle_alpha 90.000000
_cell_angle_beta 51.289234
_cell_angle_gamma 90.000000
_cell_volume 2156.642494
_symmetry_space_group_name_H-M "C 2/M"
_symmetry_group_IT_number 12
_symmetry_cell_setting 'monoclinic'
loop_
_space_group_symop_operation_xyz
x,y,z
-x,y,-z
-x,-y,-z
x,-y,z
1/2+x,1/2+y,z
1/2-x,1/2+y,-z
1/2-x,1/2-y,-z
1/2+x,1/2-y,z
loop_
_atom_site_type_symbol
_atom_site_label
_atom_site_fract_x
_atom_site_fract_y
_atom_site_fract_z
Si Si1 0.278193 0.785629 0.570654
Si Si2 0.115033 0.211945 0.305969
Si Si3 0.013617 0.217376 0.832468
Si Si4 0.500000 0.000000 0.000000
Si Si5 0.580705 0.705285 0.554419
Si Si6 0.117813 0.780278 0.086632
Si Si7 0.259550 0.718090 0.176306
O O1 0.250000 0.750000 0.500000
O O2 0.346620 0.701178 0.502048
O O3 0.235721 0.728327 0.715780
O O4 0.287482 0.000000 0.568417
O O5 0.082366 0.288661 0.444007
O O6 0.102534 0.286902 0.214345
O O7 0.190375 0.224819 0.227491
O O8 0.098432 0.000000 0.325035
O O9 0.043051 0.278246 0.692880
O O10 0.939423 0.260645 0.913928
O O11 0.022986 0.000000 0.833136
O O12 0.036400 0.339945 0.891588
O O13 0.556759 0.500000 0.573403
O O14 0.120877 0.000000 0.089446
O O15 0.183946 0.715332 0.961483
O O16 0.261171 0.500000 0.169834
#
# Coordination Sequence:
#
# PCOD9192126 Si02
#       7
#     8   8   8   2   8   8   8
#     4  10  20  33  53  79 111 148 198 250 300 350
#     4   9  17  32  57  87 116 154 195 237 291 367
#     4  10  23  43  64  88 122 159 197 254 303 354
#     4  12  26  44  64  88 116 152 218 240 308 364
#     4   9  19  36  58  83 115 152 193 239 304 358
#     4   9  18  35  58  84 118 155 197 239 298 359
#     4   9  18  33  51  79 117 155 190 239 301 358
#
# _framework density 23.184187000000001
#
# number of rings (size 3 to 8) (size 9 to 14) (size 15 to 20)
#    0.000    2.560    0.000    1.200    1.120    2.560 
#    2.880    6.400    0.000    0.960    0.000    0.000 
#    0.000    0.000    0.000    0.000    0.000    0.000 
#
# Total GULP energy -139304.814062 kJ/mol
# GULP energy per Si atom -5572.192562 kJ/mol
# Density = 2.313142 g / cm^3
# Si number density = 23.184187 Si / 1000 Ang^3
#
#
#
# Elastic Constant Matrix: (Units=GPa)
#
#
# Indices 1 2 3 4 5 6 
#
# 1 44.5564 2.1202 24.2762 0.0000 19.2152 0.0000
# 2 2.1202 101.9004 27.6444 -0.0002 2.7322 0.0002
# 3 24.2762 27.6444 146.5386 0.0000 13.1958 0.0000
# 4 0.0000 -0.0002 0.0000 -19.8782 0.0000 -7.2545
# 5 19.2152 2.7322 13.1958 0.0000 34.5690 0.0000
# 6 0.0000 0.0002 0.0000 -7.2545 0.0000 -1.4206
#
#
#
# Elastic Compliance Matrix: (Units=1/GPa)
#
#
# Indices 1 2 3 4 5 6 
#
# 1 0.031468 0.000841 -0.003926 0.000000 -0.016059 -0.000001
# 2 0.000841 0.010365 -0.002049 0.000001 -0.000504 -0.000002
# 3 -0.003926 -0.002049 0.007922 0.000000 -0.000680 0.000001
# 4 0.000000 0.000001 0.000000 0.058248 0.000000 -0.297454
# 5 -0.016059 -0.000504 -0.000680 0.000000 0.038154 0.000000
# 6 -0.000001 -0.000002 0.000001 -0.297454 0.000000 0.815066
#
#
# Mechanical properties :
#
#
# Convention : Reuss Voigt Hill
#
# Bulk Modulus (GPa) = 25.32437 44.56411 34.94424
# Shear Modulus (GPa) = 5.07793 18.58435 11.83114
#
# Velocity S-wave (km/s) = 1.48156 2.83432 2.26146
# Velocity P-wave (km/s) = 3.72472 5.47491 4.68232
#
# Compressibility (1/GPa) = 0.03948765
#
# Stress axis : x y z
#
# Youngs Moduli (GPa) = 31.77829 96.47401 126.22565
#
# Poissons Ratio (x) = -0.08112 0.49551
# Poissons Ratio (y) = -0.02672 0.25868
# Poissons Ratio (z) = 0.12475 0.19771
#
# Static dielectric constant tensor:
#      x y z
#    x 1.860870 0.000000 0.043310 
#    y 0.000000 1.878890 0.000000 
#    z 0.043310 0.000000 1.902830 
# 
# From -- ./inp_files/180547.got.cif
#   From: 2010.05.17/outbox.cif.g08.bks.cpg/sg12_91_cif.got.tgz:180547.got - 2010.06.03 13:09:07.
