data_PCOD9192153
_publ_section_title
;
Structure prediction by ZEFSAII (Michael W. Deem and Ramdas Pophale) SiO2 
 PCOD9192153
Probable space group: C 2/M
;
_chemical_formula_sum "Si O2"
_cell_formula_units_Z 64
_cell_length_a 20.150476
_cell_length_b 13.725714
_cell_length_c 12.820102
_cell_angle_alpha 90.000000
_cell_angle_beta 101.558012
_cell_angle_gamma 90.000000
_cell_volume 3473.879483
_symmetry_space_group_name_H-M "C 2/M"
_symmetry_group_IT_number 12
_symmetry_cell_setting 'monoclinic'
loop_
_space_group_symop_operation_xyz
x,y,z
-x,y,-z
-x,-y,-z
x,-y,z
1/2+x,1/2+y,z
1/2-x,1/2+y,-z
1/2-x,1/2-y,-z
1/2+x,1/2-y,z
loop_
_atom_site_type_symbol
_atom_site_label
_atom_site_fract_x
_atom_site_fract_y
_atom_site_fract_z
Si Si1 0.304233 0.883828 0.015990
Si Si2 0.330125 0.690741 0.632995
Si Si3 0.568665 0.755534 0.980778
Si Si4 0.762922 0.614675 0.582593
Si Si5 0.030645 0.111148 0.405630
Si Si6 0.676841 0.381822 0.132842
Si Si7 0.784957 0.883020 0.204935
Si Si8 0.068820 0.890007 0.816426
O O1 0.244407 0.865737 0.082338
O O2 0.314843 0.000000 0.019317
O O3 0.375585 0.829332 0.048255
O O4 0.274290 0.853810 0.892614
O O5 0.279597 0.639445 0.534096
O O6 0.322350 0.806558 0.612619
O O7 0.405328 0.661015 0.625240
O O8 0.313861 0.654727 0.745041
O O9 0.614497 0.681448 0.066118
O O10 0.500000 0.806583 0.000000
O O11 0.536180 0.683253 0.885598
O O12 0.780442 0.500000 0.590471
O O13 0.721261 0.639429 0.675341
O O14 0.000000 0.157208 0.500000
O O15 0.971328 0.106811 0.303064
O O16 0.052169 0.000000 0.439091
O O17 0.663956 0.500000 0.127814
O O18 0.855933 0.851124 0.180459
O O19 0.786585 0.000000 0.200411
O O20 0.072564 0.000000 0.859754
#
# Coordination Sequence:
#
# PCOD9192153 Si02
#       8
#     8   8   8   8   8   8   8   8
#     4  10  22  40  60  82 113 156 200 242 285 339
#     4  11  22  35  58  87 114 151 190 234 291 348
#     4  12  24  35  54  85 118 155 192 235 288 351
#     4  10  21  36  56  84 114 145 190 243 284 328
#     4  10  20  36  56  80 115 151 185 231 291 353
#     4  11  22  38  60  86 120 152 188 241 299 354
#     4   9  17  34  58  82 106 142 190 236 282 331
#     4  10  20  33  53  81 111 144 183 230 288 350
#
# _framework density 18.423207999999999
#
# number of rings (size 3 to 8) (size 9 to 14) (size 15 to 20)
#    0.000    1.625    1.250    4.125    1.750    4.250 
#    0.000    0.000    0.000    2.625    0.000    0.000 
#    0.000    0.000    0.000    0.000    0.000    0.000 
#
# Total GULP energy -178381.814679 kJ/mol
# GULP energy per Si atom -5574.431709 kJ/mol
# Density = 1.838128 g / cm^3
# Si number density = 18.423208 Si / 1000 Ang^3
#
#
#
# Elastic Constant Matrix: (Units=GPa)
#
#
# Indices 1 2 3 4 5 6 
#
# 1 96.3189 33.3973 17.6561 0.0000 -10.3060 0.0000
# 2 33.3973 95.5038 21.2874 0.0000 -2.7080 0.0000
# 3 17.6561 21.2874 105.0739 0.0000 -8.9221 0.0000
# 4 0.0000 0.0000 0.0000 11.9597 0.0000 -1.9091
# 5 -10.3060 -2.7080 -8.9221 0.0000 17.6595 0.0000
# 6 0.0000 0.0000 0.0000 -1.9091 0.0000 11.2054
#
#
#
# Elastic Compliance Matrix: (Units=1/GPa)
#
#
# Indices 1 2 3 4 5 6 
#
# 1 0.012609 -0.004060 -0.000757 0.000000 0.006353 0.000000
# 2 -0.004060 0.012279 -0.001930 0.000000 -0.001461 0.000000
# 3 -0.000757 -0.001930 0.010420 0.000000 0.004527 0.000000
# 4 0.000000 0.000000 0.000000 0.085951 0.000000 0.014644
# 5 0.006353 -0.001461 0.004527 0.000000 0.062398 0.000000
# 6 0.000000 0.000000 0.000000 0.014644 0.000000 0.091738
#
#
# Mechanical properties :
#
#
# Convention : Reuss Voigt Hill
#
# Bulk Modulus (GPa) = 45.84122 49.06424 47.45273
# Shear Modulus (GPa) = 16.88285 23.13531 20.00908
#
# Velocity S-wave (km/s) = 3.03048 3.54753 3.29915
# Velocity P-wave (km/s) = 6.09766 6.59314 6.35023
#
# Compressibility (1/GPa) = 0.02181443
#
# Stress axis : x y z
#
# Youngs Moduli (GPa) = 79.31126 81.43773 95.97357
#
# Poissons Ratio (x) = 0.33067 0.07261
# Poissons Ratio (y) = 0.32203 0.18518
# Poissons Ratio (z) = 0.06001 0.15714
#
# Static dielectric constant tensor:
#      x y z
#    x 1.660310 0.000000 -0.028110 
#    y 0.000000 1.664410 0.000000 
#    z -0.028110 0.000000 1.662900 
# 
# From -- ./inp_files/156626.got.cif
#   From: 2010.05.17/outbox.cif.g08.bks.cpg/sg12_79_cif.got.tgz:156626.got - 2010.06.03 13:09:07.
