data_PCOD9192445
_publ_section_title
;
Structure prediction by ZEFSAII (Michael W. Deem and Ramdas Pophale) SiO2 
 PCOD9192445
Probable space group: C 2/M
;
_chemical_formula_sum "Si O2"
_cell_formula_units_Z 60
_cell_length_a 22.019379
_cell_length_b 15.013689
_cell_length_c 11.878260
_cell_angle_alpha 90.000000
_cell_angle_beta 136.211388
_cell_angle_gamma 90.000000
_cell_volume 2717.385279
_symmetry_space_group_name_H-M "C 2/M"
_symmetry_group_IT_number 12
_symmetry_cell_setting 'monoclinic'
loop_
_space_group_symop_operation_xyz
x,y,z
-x,y,-z
-x,-y,-z
x,-y,z
1/2+x,1/2+y,z
1/2-x,1/2+y,-z
1/2-x,1/2-y,-z
1/2+x,1/2-y,z
loop_
_atom_site_type_symbol
_atom_site_label
_atom_site_fract_x
_atom_site_fract_y
_atom_site_fract_z
Si Si1 0.901587 0.602289 0.907214
Si Si2 0.600217 0.276862 0.434053
Si Si3 0.169910 0.598497 0.433971
Si Si4 0.518717 0.602876 0.868809
Si Si5 0.743936 0.216230 0.186531
Si Si6 0.345540 0.597111 0.160037
Si Si7 0.185965 0.104203 0.201190
Si Si8 0.000000 0.157447 0.500000
O O1 0.906263 0.500000 0.957190
O O2 0.842786 0.600477 0.715723
O O3 0.850363 0.670071 0.918901
O O4 0.000000 0.627883 0.000000
O O5 0.613617 0.178265 0.407569
O O6 0.560239 0.337581 0.281999
O O7 0.689150 0.305692 0.619352
O O8 0.527818 0.281384 0.434372
O O9 0.141406 0.500000 0.434055
O O10 0.266839 0.612858 0.614765
O O11 0.490155 0.500000 0.837940
O O12 0.594856 0.607742 0.871755
O O13 0.582297 0.624429 0.059403
O O14 0.783755 0.175333 0.125240
O O15 0.733579 0.322840 0.185586
O O16 0.301240 0.500000 0.096433
O O17 0.419648 0.597284 0.355950
O O18 0.196085 0.000000 0.182044
#
# Coordination Sequence:
#
# PCOD9192445 Si02
#       8
#     8   8   8   8   8   8   8   4
#     4  10  22  38  57  81 106 135 177 228 280 317
#     4   9  18  31  54  82 110 138 181 215 261 320
#     4   9  19  37  58  75 102 144 181 221 269 315
#     4   9  18  32  53  82 116 146 169 210 267 321
#     4  10  20  33  56  82 104 141 181 224 266 314
#     4   9  16  28  49  79 112 142 174 214 265 317
#     4   9  19  35  54  76 108 147 179 209 259 319
#     4   8  15  28  45  78 116 146 169 210 265 316
#
# _framework density 22.080048999999999
#
# number of rings (size 3 to 8) (size 9 to 14) (size 15 to 20)
#    0.000    2.800    0.000    0.600    1.867    6.400 
#    0.000    0.333    0.000    6.000    0.000    0.000 
#    0.000    0.000    0.000    0.000    0.000    0.000 
#
# Total GULP energy -167209.330150 kJ/mol
# GULP energy per Si atom -5573.644338 kJ/mol
# Density = 2.202979 g / cm^3
# Si number density = 22.080049 Si / 1000 Ang^3
#
#
#
# Elastic Constant Matrix: (Units=GPa)
#
#
# Indices 1 2 3 4 5 6 
#
# 1 57.0279 51.2224 2.8112 0.0000 15.5755 0.0000
# 2 51.2224 108.7719 47.3073 0.0000 20.7496 0.0000
# 3 2.8112 47.3073 96.9057 0.0000 0.8159 0.0000
# 4 0.0000 0.0000 0.0000 31.2338 0.0000 3.9693
# 5 15.5755 20.7496 0.8159 0.0000 27.9234 0.0000
# 6 0.0000 0.0000 0.0000 3.9693 0.0000 7.8314
#
#
#
# Elastic Compliance Matrix: (Units=1/GPa)
#
#
# Indices 1 2 3 4 5 6 
#
# 1 0.036569 -0.019881 0.008694 0.000000 -0.005879 0.000000
# 2 -0.019881 0.024924 -0.011531 0.000000 -0.007095 0.000000
# 3 0.008694 -0.011531 0.015669 0.000000 0.003261 0.000000
# 4 0.000000 0.000000 0.000000 0.034221 0.000000 -0.017344
# 5 -0.005879 -0.007095 0.003261 0.000000 0.044268 0.000000
# 6 0.000000 0.000000 0.000000 -0.017344 0.000000 0.136482
#
#
# Mechanical properties :
#
#
# Convention : Reuss Voigt Hill
#
# Bulk Modulus (GPa) = 31.51914 51.70970 41.61442
# Shear Modulus (GPa) = 14.36188 24.15536 19.25862
#
# Velocity S-wave (km/s) = 2.55315 3.31114 2.95654
# Velocity P-wave (km/s) = 4.79556 6.17157 5.52655
#
# Compressibility (1/GPa) = 0.03172675
#
# Stress axis : x y z
#
# Youngs Moduli (GPa) = 27.34539 40.12169 63.82098
#
# Poissons Ratio (x) = 0.79765 -0.55486
# Poissons Ratio (y) = 0.54365 0.73592
# Poissons Ratio (z) = -0.23774 0.46264
#
# Static dielectric constant tensor:
#      x y z
#    x 1.858810 0.000000 -0.037640 
#    y 0.000000 1.833830 0.000000 
#    z -0.037640 0.000000 1.877950 
# 
# From -- ./inp_files/246764.got.cif
#   From: 2010.05.17/outbox.cif.g08.bks.cpg/sg12_124_cif.got.tgz:246764.got - 2010.06.03 13:09:07.
