data_PCOD9192844
_publ_section_title
;
Structure prediction by ZEFSAII (Michael W. Deem and Ramdas Pophale) SiO2 
 PCOD9192844
Probable space group: C 2/M
;
_chemical_formula_sum "Si O2"
_cell_formula_units_Z 58
_cell_length_a 34.899482
_cell_length_b 7.457368
_cell_length_c 11.833776
_cell_angle_alpha 90.000000
_cell_angle_beta 102.599722
_cell_angle_gamma 90.000000
_cell_volume 3005.668974
_symmetry_space_group_name_H-M "C 2/M"
_symmetry_group_IT_number 12
_symmetry_cell_setting 'monoclinic'
loop_
_space_group_symop_operation_xyz
x,y,z
-x,y,-z
-x,-y,-z
x,-y,z
1/2+x,1/2+y,z
1/2-x,1/2+y,-z
1/2-x,1/2-y,-z
1/2+x,1/2-y,z
loop_
_atom_site_type_symbol
_atom_site_label
_atom_site_fract_x
_atom_site_fract_y
_atom_site_fract_z
Si Si1 0.619393 0.291718 0.607255
Si Si2 0.466497 0.281844 0.390733
Si Si3 0.500000 0.500000 0.000000
Si Si4 0.731804 0.212647 0.312187
Si Si5 0.864883 0.283441 0.128821
Si Si6 0.288036 0.785114 0.948100
Si Si7 0.453977 0.208662 0.125619
Si Si8 0.309588 0.716536 0.488673
O O1 0.614013 0.500000 0.573374
O O2 0.575834 0.215624 0.592225
O O3 0.638048 0.281758 0.744164
O O4 0.649934 0.214477 0.537357
O O5 0.500000 0.227952 0.500000
O O6 0.465834 0.500000 0.386020
O O7 0.470954 0.219900 0.264580
O O8 0.523019 0.342635 0.940391
O O9 0.719899 0.285853 0.182917
O O10 0.699194 0.239044 0.387474
O O11 0.772499 0.284028 0.391085
O O12 0.737627 0.000000 0.301887
O O13 0.863984 0.500000 0.132781
O O14 0.907911 0.235593 0.108732
O O15 0.828031 0.218552 0.031951
O O16 0.292654 0.000000 0.942888
O O17 0.250000 0.750000 0.000000
O O18 0.455345 0.000000 0.089901
O O19 0.309721 0.500000 0.479974
#
# Coordination Sequence:
#
# PCOD9192844 Si02
#       8
#     8   8   2   8   8   8   8   8
#     4   9  17  30  52  77 102 134 174 218 267 330
#     4   9  17  33  57  84 116 147 180 234 296 347
#     4  12  22  40  62  86 112 156 202 242 292 362
#     4   9  18  31  47  66  96 136 170 211 263 310
#     4   9  19  34  53  78 110 139 176 232 282 326
#     4  10  20  34  51  76 107 140 181 227 271 321
#     4  10  21  38  61  88 116 152 197 244 292 355
#     4   9  17  30  47  69  96 130 173 214 254 315
#
# _framework density 19.296869000000001
#
# number of rings (size 3 to 8) (size 9 to 14) (size 15 to 20)
#    0.000    2.621    0.690    1.034    0.966    3.034 
#    0.000    4.138    3.034    1.655    0.000    0.000 
#    0.000    0.000    0.000    0.000    0.000    0.000 
#
# Total GULP energy -161516.934840 kJ/mol
# GULP energy per Si atom -5569.549477 kJ/mol
# Density = 1.925295 g / cm^3
# Si number density = 19.296869 Si / 1000 Ang^3
#
#
#
# Elastic Constant Matrix: (Units=GPa)
#
#
# Indices 1 2 3 4 5 6 
#
# 1 112.3720 14.4128 90.2160 0.0000 -16.4027 0.0000
# 2 14.4128 75.4071 7.3099 0.0000 -2.5850 0.0000
# 3 90.2160 7.3099 127.4616 0.0000 0.9184 0.0000
# 4 0.0000 0.0000 0.0000 19.8976 0.0000 -4.8478
# 5 -16.4027 -2.5850 0.9184 0.0000 32.3268 0.0000
# 6 0.0000 0.0000 0.0000 -4.8478 0.0000 13.6309
#
#
#
# Elastic Compliance Matrix: (Units=1/GPa)
#
#
# Indices 1 2 3 4 5 6 
#
# 1 0.025842 -0.002712 -0.018232 0.000000 0.013413 0.000000
# 2 -0.002712 0.013659 0.001139 0.000000 -0.000316 0.000000
# 3 -0.018232 0.001139 0.020755 0.000000 -0.009749 0.000000
# 4 0.000000 0.000000 0.000000 0.055025 0.000000 0.019570
# 5 0.013413 -0.000316 -0.009749 0.000000 0.037992 0.000000
# 6 0.000000 0.000000 0.000000 0.019570 0.000000 0.080323
#
#
# Mechanical properties :
#
#
# Convention : Reuss Voigt Hill
#
# Bulk Modulus (GPa) = 48.43891 59.90199 54.17045
# Shear Modulus (GPa) = 17.85163 26.72453 22.28808
#
# Velocity S-wave (km/s) = 3.04485 3.72548 3.40223
# Velocity P-wave (km/s) = 6.12519 7.04382 6.60050
#
# Compressibility (1/GPa) = 0.02064456
#
# Stress axis : x y z
#
# Youngs Moduli (GPa) = 38.69711 73.21448 48.18207
#
# Poissons Ratio (x) = 0.19856 0.87844
# Poissons Ratio (y) = 0.10495 -0.05486
# Poissons Ratio (z) = 0.70551 -0.08336
#
# Static dielectric constant tensor:
#      x y z
#    x 1.673950 0.000000 0.014310 
#    y 0.000000 1.709300 0.000000 
#    z 0.014310 0.000000 1.650030 
# 
# From -- ./inp_files/186750.got.cif
#   From: 2010.05.17/outbox.cif.g08.bks.cpg/sg12_94_cif.got.tgz:186750.got - 2010.06.03 13:09:07.
