data_PCOD9192101
_publ_section_title
;
Structure prediction by ZEFSAII (Michael W. Deem and Ramdas Pophale) SiO2 
 PCOD9192101
Probable space group: C 2/M
;
_chemical_formula_sum "Si O2"
_cell_formula_units_Z 64
_cell_length_a 31.346786
_cell_length_b 7.581300
_cell_length_c 15.025188
_cell_angle_alpha 90.000000
_cell_angle_beta 130.678261
_cell_angle_gamma 90.000000
_cell_volume 2707.973814
_symmetry_space_group_name_H-M "C 2/M"
_symmetry_group_IT_number 12
_symmetry_cell_setting 'monoclinic'
loop_
_space_group_symop_operation_xyz
x,y,z
-x,y,-z
-x,-y,-z
x,-y,z
1/2+x,1/2+y,z
1/2-x,1/2+y,-z
1/2-x,1/2-y,-z
1/2+x,1/2-y,z
loop_
_atom_site_type_symbol
_atom_site_label
_atom_site_fract_x
_atom_site_fract_y
_atom_site_fract_z
Si Si1 0.791185 0.713295 0.422478
Si Si2 0.950333 0.283846 0.868285
Si Si3 0.304853 0.213755 0.942272
Si Si4 0.330017 0.790495 0.776765
Si Si5 0.316470 0.793722 0.258309
Si Si6 0.015126 0.796399 0.424103
Si Si7 0.909139 0.707137 0.631885
Si Si8 0.105937 0.285531 0.788514
O O1 0.792090 0.500000 0.423575
O O2 0.727142 0.761910 0.356688
O O3 0.803562 0.780237 0.338226
O O4 0.845536 0.778814 0.549955
O O5 0.953283 0.500000 0.875056
O O6 0.888899 0.226158 0.818859
O O7 0.950494 0.225887 0.765276
O O8 0.000000 0.221000 0.000000
O O9 0.319461 0.277849 0.862471
O O10 0.241604 0.276242 0.875375
O O11 0.303673 0.000000 0.940679
O O12 0.352018 0.270107 0.076137
O O13 0.336494 0.000000 0.793073
O O14 0.367007 0.721551 0.267887
O O15 0.328400 0.000000 0.287549
O O16 0.957421 0.778422 0.290499
O O17 0.000000 0.714914 0.500000
O O18 0.064815 0.722886 0.430827
O O19 0.029035 0.000000 0.457630
O O20 0.903334 0.500000 0.641875
O O21 0.104926 0.500000 0.786953
#
# Coordination Sequence:
#
# PCOD9192101 Si02
#       8
#     8   8   8   8   8   8   8   8
#     4   9  18  33  53  79 110 144 185 231 282 336
#     4   9  19  35  59  87 115 148 190 239 283 330
#     4   9  18  30  49  78 109 142 185 231 275 330
#     4   9  18  33  54  82 113 146 185 230 281 329
#     4   9  17  30  48  73 108 145 182 229 280 330
#     4  11  25  41  56  80 113 147 184 232 289 341
#     4  10  21  38  62  86 110 149 196 237 280 335
#     4  10  20  33  53  78 105 144 192 235 275 332
#
# _framework density 23.633906
#
# number of rings (size 3 to 8) (size 9 to 14) (size 15 to 20)
#    0.000    2.500    0.000    1.500    1.750    4.000 
#    0.000    3.125    0.000    0.750    0.000    0.000 
#    0.000    0.000    0.000    0.000    0.000    0.000 
#
# Total GULP energy -178717.286402 kJ/mol
# GULP energy per Si atom -5584.915200 kJ/mol
# Density = 2.358011 g / cm^3
# Si number density = 23.633906 Si / 1000 Ang^3
#
#
#
# Elastic Constant Matrix: (Units=GPa)
#
#
# Indices 1 2 3 4 5 6 
#
# 1 112.0084 -4.5746 50.2426 0.0000 17.9475 0.0000
# 2 -4.5746 49.5378 1.2694 0.0000 -3.4782 0.0000
# 3 50.2426 1.2694 141.1815 0.0000 18.1311 0.0000
# 4 0.0000 0.0000 0.0000 28.8408 0.0000 4.0829
# 5 17.9475 -3.4782 18.1311 0.0000 33.9660 0.0000
# 6 0.0000 0.0000 0.0000 4.0829 0.0000 11.2251
#
#
#
# Elastic Compliance Matrix: (Units=1/GPa)
#
#
# Indices 1 2 3 4 5 6 
#
# 1 0.011152 0.000841 -0.003468 0.000000 -0.003955 0.000000
# 2 0.000841 0.020427 -0.000746 0.000000 0.002045 0.000000
# 3 -0.003468 -0.000746 0.008695 0.000000 -0.002885 0.000000
# 4 0.000000 0.000000 0.000000 0.036555 0.000000 -0.013296
# 5 -0.003955 0.002045 -0.002885 0.000000 0.033280 0.000000
# 6 0.000000 0.000000 0.000000 -0.013296 0.000000 0.093923
#
#
# Mechanical properties :
#
#
# Convention : Reuss Voigt Hill
#
# Bulk Modulus (GPa) = 29.82629 44.06695 36.94662
# Shear Modulus (GPa) = 22.52725 31.85907 27.19316
#
# Velocity S-wave (km/s) = 3.09070 3.67553 3.39573
# Velocity P-wave (km/s) = 5.03827 6.05795 5.57149
#
# Compressibility (1/GPa) = 0.03352747
#
# Stress axis : x y z
#
# Youngs Moduli (GPa) = 89.67256 48.95486 115.01500
#
# Poissons Ratio (x) = -0.04117 0.39890
# Poissons Ratio (y) = -0.07541 0.08576
# Poissons Ratio (z) = 0.31100 0.03650
#
# Static dielectric constant tensor:
#      x y z
#    x 1.887560 0.000000 -0.035570 
#    y 0.000000 1.887580 0.000000 
#    z -0.035570 0.000000 1.928980 
# 
# From -- ./inp_files/250032.got.cif
#   From: 2010.05.17/outbox.cif.g08.bks.cpg/sg12_126_cif.got.tgz:250032.got - 2010.06.03 13:09:07.
