data_PCOD9192747
_publ_section_title
;
Structure prediction by ZEFSAII (Michael W. Deem and Ramdas Pophale) SiO2 
 PCOD9192747
Probable space group: C 2/M
;
_chemical_formula_sum "Si O2"
_cell_formula_units_Z 64
_cell_length_a 9.263013
_cell_length_b 28.012300
_cell_length_c 15.423252
_cell_angle_alpha 90.000000
_cell_angle_beta 109.201114
_cell_angle_gamma 90.000000
_cell_volume 3779.367883
_symmetry_space_group_name_H-M "C 2/M"
_symmetry_group_IT_number 12
_symmetry_cell_setting 'monoclinic'
loop_
_space_group_symop_operation_xyz
x,y,z
-x,y,-z
-x,-y,-z
x,-y,z
1/2+x,1/2+y,z
1/2-x,1/2+y,-z
1/2-x,1/2-y,-z
1/2+x,1/2-y,z
loop_
_atom_site_type_symbol
_atom_site_label
_atom_site_fract_x
_atom_site_fract_y
_atom_site_fract_z
Si Si1 0.320238 0.447992 0.482855
Si Si2 0.685454 0.145282 0.723135
Si Si3 0.565807 0.719525 0.896606
Si Si4 0.506235 0.685271 0.299966
Si Si5 0.625192 0.054764 0.601283
Si Si6 0.165515 0.151333 0.579156
Si Si7 0.445059 0.782635 0.589135
Si Si8 0.242909 0.189930 0.086328
O O1 0.500000 0.449121 0.500000
O O2 0.256585 0.500000 0.443719
O O3 0.282165 0.442617 0.576716
O O4 0.261965 0.400277 0.425715
O O5 0.845536 0.157028 0.705465
O O6 0.628610 0.094314 0.676103
O O7 0.565993 0.185171 0.666476
O O8 0.706459 0.151248 0.831672
O O9 0.578698 0.704483 0.800865
O O10 0.626035 0.773212 0.914199
O O11 0.388977 0.718542 0.887879
O O12 0.155354 0.817442 0.977482
O O13 0.383552 0.656529 0.331631
O O14 0.557494 0.730496 0.368296
O O15 0.500000 0.064228 0.500000
O O16 0.605879 0.000000 0.626819
O O17 0.281292 0.191638 0.568669
O O18 0.000000 0.154109 0.500000
O O19 0.500000 0.781202 0.500000
#
# Coordination Sequence:
#
# PCOD9192747 Si02
#       8
#     8   8   8   8   8   8   8   8
#     4   9  17  31  49  66  87 120 159 202 245 280
#     4  11  20  33  51  74  97 131 167 206 249 296
#     4   9  18  33  49  71  96 130 161 201 242 295
#     4  11  22  33  47  69 100 132 164 197 243 292
#     4  10  20  34  51  71  97 130 168 211 251 289
#     4  11  22  34  47  67  96 131 166 205 240 290
#     4  12  23  33  46  67 100 137 167 198 237 290
#     4   9  18  32  52  71  96 127 162 203 247 289
#
# _framework density 16.934049000000002
#
# number of rings (size 3 to 8) (size 9 to 14) (size 15 to 20)
#    0.000    1.750    1.250    5.250    1.750    1.500 
#    0.000    0.625    0.000    0.000    0.000    7.875 
#    0.000    0.000    0.000   12.625    0.000    0.000 
#
# Total GULP energy -178314.797247 kJ/mol
# GULP energy per Si atom -5572.337414 kJ/mol
# Density = 1.689551 g / cm^3
# Si number density = 16.934049 Si / 1000 Ang^3
#
#
#
# Elastic Constant Matrix: (Units=GPa)
#
#
# Indices 1 2 3 4 5 6 
#
# 1 46.4037 5.2739 20.5125 0.0000 1.7665 0.0000
# 2 5.2739 100.4825 33.4593 0.0000 3.0941 0.0000
# 3 20.5125 33.4593 68.1892 0.0000 -6.4671 0.0000
# 4 0.0000 0.0000 0.0000 20.8574 0.0000 -3.3034
# 5 1.7665 3.0941 -6.4671 0.0000 17.7526 0.0000
# 6 0.0000 0.0000 0.0000 -3.3034 0.0000 15.6903
#
#
#
# Elastic Compliance Matrix: (Units=1/GPa)
#
#
# Indices 1 2 3 4 5 6 
#
# 1 0.025663 0.001930 -0.009261 0.000000 -0.006263 0.000000
# 2 0.001930 0.012374 -0.007121 0.000000 -0.004943 0.000000
# 3 -0.009261 -0.007121 0.021907 0.000000 0.010143 0.000000
# 4 0.000000 0.000000 0.000000 0.049598 0.000000 0.010442
# 5 -0.006263 -0.004943 0.010143 0.000000 0.061510 0.000000
# 6 0.000000 0.000000 0.000000 0.010442 0.000000 0.065932
#
#
# Mechanical properties :
#
#
# Convention : Reuss Voigt Hill
#
# Bulk Modulus (GPa) = 32.21677 37.06297 34.63987
# Shear Modulus (GPa) = 18.10055 21.24869 19.67462
#
# Velocity S-wave (km/s) = 3.27293 3.54615 3.41227
# Velocity P-wave (km/s) = 5.77485 6.22102 6.00208
#
# Compressibility (1/GPa) = 0.03103973
#
# Stress axis : x y z
#
# Youngs Moduli (GPa) = 38.96701 80.81401 45.64761
#
# Poissons Ratio (x) = -0.15594 0.42273
# Poissons Ratio (y) = -0.07519 0.32506
# Poissons Ratio (z) = 0.36086 0.57547
#
# Static dielectric constant tensor:
#      x y z
#    x 1.650070 0.000000 -0.025040 
#    y 0.000000 1.598870 0.000000 
#    z -0.025040 0.000000 1.658580 
# 
# From -- ./inp_files/199860.got.cif
#   From: 2010.05.17/outbox.cif.g08.bks.cpg/sg12_100_cif.got.tgz:199860.got - 2010.06.03 13:09:07.
