data_PCOD9192922
_publ_section_title
;
Structure prediction by ZEFSAII (Michael W. Deem and Ramdas Pophale) SiO2 
 PCOD9192922
Probable space group: C 2/M
;
_chemical_formula_sum "Si O2"
_cell_formula_units_Z 64
_cell_length_a 16.438811
_cell_length_b 9.330942
_cell_length_c 19.351730
_cell_angle_alpha 90.000000
_cell_angle_beta 89.022369
_cell_angle_gamma 90.000000
_cell_volume 2967.921873
_symmetry_space_group_name_H-M "C 2/M"
_symmetry_group_IT_number 12
_symmetry_cell_setting 'monoclinic'
loop_
_space_group_symop_operation_xyz
x,y,z
-x,y,-z
-x,-y,-z
x,-y,z
1/2+x,1/2+y,z
1/2-x,1/2+y,-z
1/2-x,1/2-y,-z
1/2+x,1/2-y,z
loop_
_atom_site_type_symbol
_atom_site_label
_atom_site_fract_x
_atom_site_fract_y
_atom_site_fract_z
Si Si1 0.716310 0.827013 0.604342
Si Si2 0.540220 0.331152 0.854597
Si Si3 0.123997 0.834256 0.984925
Si Si4 0.368344 0.668308 0.779439
Si Si5 0.366675 0.828781 0.529866
Si Si6 0.547512 0.832206 0.341262
Si Si7 0.292187 0.835125 0.896319
Si Si8 0.623469 0.831589 0.734354
O O1 0.643895 0.792376 0.550463
O O2 0.793923 0.750804 0.570871
O O3 0.694317 0.780811 0.682100
O O4 0.726201 0.000000 0.605532
O O5 0.558236 0.500000 0.852155
O O6 0.552429 0.288125 0.933983
O O7 0.451029 0.311625 0.823866
O O8 0.603145 0.250706 0.804153
O O9 0.204187 0.831734 0.934225
O O10 0.111513 0.000000 0.008322
O O11 0.146962 0.735238 0.048514
O O12 0.351800 0.500000 0.772291
O O13 0.391729 0.738107 0.706128
O O14 0.299801 0.745784 0.825719
O O15 0.443942 0.798416 0.577442
O O16 0.354401 0.000000 0.532665
O O17 0.458035 0.815416 0.311302
O O18 0.568711 0.000000 0.331774
O O19 0.313641 0.000000 0.882348
O O20 0.634713 0.000000 0.748645
#
# Coordination Sequence:
#
# PCOD9192922 Si02
#       8
#     8   8   8   8   8   8   8   8
#     4   9  18  32  49  72 100 128 161 201 245 290
#     4   9  19  35  53  72  96 129 166 200 237 286
#     4   9  19  36  54  72  97 129 164 200 238 284
#     4  10  20  34  52  73  99 130 162 199 242 288
#     4   9  18  32  50  71  97 130 164 199 241 290
#     4   9  18  33  51  71  96 127 164 203 242 286
#     4  10  20  34  53  76 101 128 160 200 242 286
#     4   9  18  32  50  72  98 126 159 203 247 286
#
# _framework density 21.563908999999999
#
# number of rings (size 3 to 8) (size 9 to 14) (size 15 to 20)
#    0.000    2.750    0.000    0.750    0.000    4.500 
#    0.000    8.750    0.000    0.000    0.000    7.000 
#    0.000    0.000    0.000    0.000    0.000    0.000 
#
# Total GULP energy -178663.591992 kJ/mol
# GULP energy per Si atom -5583.237250 kJ/mol
# Density = 2.151483 g / cm^3
# Si number density = 21.563909 Si / 1000 Ang^3
#
#
#
# Elastic Constant Matrix: (Units=GPa)
#
#
# Indices 1 2 3 4 5 6 
#
# 1 40.0917 10.1121 8.5818 0.0000 4.1314 0.0000
# 2 10.1121 23.7380 21.4560 0.0000 -3.7098 0.0000
# 3 8.5818 21.4560 102.4977 0.0000 1.3353 0.0000
# 4 0.0000 0.0000 0.0000 27.9722 0.0000 -0.5866
# 5 4.1314 -3.7098 1.3353 0.0000 43.4161 0.0000
# 6 0.0000 0.0000 0.0000 -0.5866 0.0000 16.9710
#
#
#
# Elastic Compliance Matrix: (Units=1/GPa)
#
#
# Indices 1 2 3 4 5 6 
#
# 1 0.028567 -0.013141 0.000409 0.000000 -0.003854 0.000000
# 2 -0.013141 0.059012 -0.011339 0.000000 0.006642 0.000000
# 3 0.000409 -0.011339 0.012114 0.000000 -0.001380 0.000000
# 4 0.000000 0.000000 0.000000 0.035776 0.000000 0.001237
# 5 -0.003854 0.006642 -0.001380 0.000000 0.024010 0.000000
# 6 0.000000 0.000000 0.000000 0.001237 0.000000 0.058967
#
#
# Mechanical properties :
#
#
# Convention : Reuss Voigt Hill
#
# Bulk Modulus (GPa) = 19.39876 27.40302 23.40089
# Shear Modulus (GPa) = 17.61986 26.08370 21.85178
#
# Velocity S-wave (km/s) = 2.86160 3.48170 3.18677
# Velocity P-wave (km/s) = 4.46473 5.37572 4.94126
#
# Compressibility (1/GPa) = 0.05154970
#
# Stress axis : x y z
#
# Youngs Moduli (GPa) = 35.00554 16.94573 82.55120
#
# Poissons Ratio (x) = 0.22269 -0.03379
# Poissons Ratio (y) = 0.46002 0.93607
# Poissons Ratio (z) = -0.01433 0.19215
#
# Static dielectric constant tensor:
#      x y z
#    x 1.870830 0.000000 0.044070 
#    y 0.000000 1.713310 0.000000 
#    z 0.044070 0.000000 1.777600 
# 
# From -- ./inp_files/313990.got.cif
#   From: 2010.05.17/outbox.cif.g08.bks.cpg/sg12_157_cif.got.tgz:313990.got - 2010.06.03 13:09:07.
