data_PCOD9192813
_publ_section_title
;
Structure prediction by ZEFSAII (Michael W. Deem and Ramdas Pophale) SiO2 
 PCOD9192813
Probable space group: C 2/M
;
_chemical_formula_sum "Si O2"
_cell_formula_units_Z 64
_cell_length_a 25.989318
_cell_length_b 24.062076
_cell_length_c 19.551318
_cell_angle_alpha 90.000000
_cell_angle_beta 19.121799
_cell_angle_gamma 90.000000
_cell_volume 4005.142211
_symmetry_space_group_name_H-M "C 2/M"
_symmetry_group_IT_number 12
_symmetry_cell_setting 'monoclinic'
loop_
_space_group_symop_operation_xyz
x,y,z
-x,y,-z
-x,-y,-z
x,-y,z
1/2+x,1/2+y,z
1/2-x,1/2+y,-z
1/2-x,1/2-y,-z
1/2+x,1/2-y,z
loop_
_atom_site_type_symbol
_atom_site_label
_atom_site_fract_x
_atom_site_fract_y
_atom_site_fract_z
Si Si1 0.176505 0.396766 0.306686
Si Si2 0.329130 0.181445 0.476790
Si Si3 0.182353 0.279481 0.752616
Si Si4 0.819950 0.266432 0.711201
Si Si5 0.872688 0.244237 0.907369
Si Si6 0.142697 0.843651 0.575045
Si Si7 0.244880 0.563837 0.372170
Si Si8 0.989961 0.064402 0.852332
O O1 0.190039 0.330528 0.301105
O O2 0.220563 0.428282 0.321594
O O3 0.000000 0.408468 0.500000
O O4 0.314673 0.412229 0.080536
O O5 0.233774 0.223799 0.646002
O O6 0.502734 0.205696 0.250309
O O7 0.234276 0.181854 0.525087
O O8 0.339418 0.118162 0.490448
O O9 0.267550 0.274286 0.717668
O O10 0.243616 0.331631 0.631486
O O11 0.000000 0.279886 0.000000
O O12 0.000000 0.255801 0.500000
O O13 0.716718 0.259837 0.908605
O O14 0.984004 0.190547 0.759797
O O15 0.750000 0.250000 0.000000
O O16 0.088870 0.903276 0.670513
O O17 0.196383 0.500000 0.450358
O O18 0.417515 0.570261 0.190756
O O19 0.982387 0.000000 0.846002
#
# Coordination Sequence:
#
# PCOD9192813 Si02
#       8
#     8   8   8   8   8   8   8   8
#     4  11  22  33  49  74 109 140 174 213 255 305
#     4  10  20  34  51  74 103 137 175 211 253 300
#     4  11  20  31  53  76 101 132 169 210 259 307
#     4  11  21  33  48  75 105 137 167 204 257 308
#     4  11  21  34  53  74 104 137 170 210 256 313
#     4  10  20  35  51  75 102 133 174 214 255 305
#     4  10  21  35  52  74 103 142 181 214 252 305
#     4  10  21  37  55  72 100 142 183 218 255 303
#
# _framework density 15.979457
#
# number of rings (size 3 to 8) (size 9 to 14) (size 15 to 20)
#    0.000    1.500    2.500    5.250    3.500    2.000 
#    0.000    0.000    0.000    0.375    0.000    0.875 
#    0.000    2.000    0.000    0.000    0.000    0.000 
#
# Total GULP energy -178365.925112 kJ/mol
# GULP energy per Si atom -5573.935160 kJ/mol
# Density = 1.594309 g / cm^3
# Si number density = 15.979457 Si / 1000 Ang^3
#
#
#
# Elastic Constant Matrix: (Units=GPa)
#
#
# Indices 1 2 3 4 5 6 
#
# 1 76.6094 21.1079 32.7514 -0.0094 -0.6098 0.0039
# 2 21.1079 56.9723 34.4406 -0.0025 -7.7707 0.0024
# 3 32.7514 34.4406 114.8612 -0.0095 -1.8169 0.0043
# 4 -0.0094 -0.0025 -0.0095 27.8663 0.0067 0.6012
# 5 -0.6098 -7.7707 -1.8169 0.0067 22.9669 -0.0043
# 6 0.0039 0.0024 0.0043 0.6012 -0.0043 35.1891
#
#
#
# Elastic Compliance Matrix: (Units=1/GPa)
#
#
# Indices 1 2 3 4 5 6 
#
# 1 0.015525 -0.003939 -0.003264 0.000004 -0.001179 -0.000001
# 2 -0.003939 0.023538 -0.005817 -0.000003 0.007399 0.000001
# 3 -0.003264 -0.005817 0.011363 0.000003 -0.001156 -0.000001
# 4 0.000004 -0.000003 0.000003 0.035899 -0.000011 -0.000613
# 5 -0.001179 0.007399 -0.001156 -0.000011 0.045922 0.000006
# 6 -0.000001 0.000001 -0.000001 -0.000613 0.000006 0.028428
#
#
# Mechanical properties :
#
#
# Convention : Reuss Voigt Hill
#
# Bulk Modulus (GPa) = 41.01116 47.22697 44.11906
# Shear Modulus (GPa) = 25.66155 27.88065 26.77110
#
# Velocity S-wave (km/s) = 4.01173 4.18159 4.09754
# Velocity P-wave (km/s) = 6.86872 7.27552 7.07504
#
# Compressibility (1/GPa) = 0.02438361
#
# Stress axis : x y z
#
# Youngs Moduli (GPa) = 64.41342 42.48481 88.00545
#
# Poissons Ratio (x) = 0.16736 0.28726
# Poissons Ratio (y) = 0.25375 0.51196
# Poissons Ratio (z) = 0.21025 0.24715
#
# Static dielectric constant tensor:
#      x y z
#    x 1.543520 0.000000 0.005640 
#    y 0.000000 1.536070 0.000000 
#    z 0.005640 0.000000 1.526330 
# 
# From -- ./inp_files/272802.got.cif
#   From: 2010.05.17/outbox.cif.g08.bks.cpg/sg12_137_cif.got.tgz:272802.got - 2010.06.03 13:09:07.
