data_PCOD9192028
_publ_section_title
;
Structure prediction by ZEFSAII (Michael W. Deem and Ramdas Pophale) SiO2 
 PCOD9192028
Probable space group: C 2/M
;
_chemical_formula_sum "Si O2"
_cell_formula_units_Z 64
_cell_length_a 28.128223
_cell_length_b 7.540323
_cell_length_c 23.030514
_cell_angle_alpha 90.000000
_cell_angle_beta 32.651589
_cell_angle_gamma 90.000000
_cell_volume 2635.425586
_symmetry_space_group_name_H-M "C 2/M"
_symmetry_group_IT_number 12
_symmetry_cell_setting 'monoclinic'
loop_
_space_group_symop_operation_xyz
x,y,z
-x,y,-z
-x,-y,-z
x,-y,z
1/2+x,1/2+y,z
1/2-x,1/2+y,-z
1/2-x,1/2-y,-z
1/2+x,1/2-y,z
loop_
_atom_site_type_symbol
_atom_site_label
_atom_site_fract_x
_atom_site_fract_y
_atom_site_fract_z
Si Si1 0.835482 0.288069 0.978726
Si Si2 0.648105 0.712272 0.618848
Si Si3 0.857891 0.710112 0.824636
Si Si4 0.774169 0.701382 0.218873
Si Si5 0.409478 0.281688 0.562798
Si Si6 0.447221 0.294377 0.397548
Si Si7 0.940999 0.715400 0.977760
Si Si8 0.364410 0.705076 0.237741
O O1 0.839089 0.500000 0.971714
O O2 0.738430 0.243672 0.102870
O O3 0.847831 0.217673 0.901059
O O4 0.912375 0.231029 0.942306
O O5 0.633781 0.500000 0.636610
O O6 0.750000 0.750000 0.500000
O O7 0.587966 0.782045 0.627427
O O8 0.630532 0.780061 0.702118
O O9 0.870974 0.500000 0.813155
O O10 0.946761 0.787146 0.707120
O O11 0.768590 0.500000 0.202116
O O12 0.677322 0.781073 0.314156
O O13 0.798161 0.699459 0.262430
O O14 0.859436 0.781222 0.100249
O O15 0.500000 0.229023 0.500000
O O16 0.407142 0.500000 0.564843
O O17 0.409263 0.218742 0.496296
O O18 0.420259 0.500000 0.424331
O O19 0.945622 0.500000 0.978028
O O20 0.038026 0.782871 0.889572
O O21 0.336921 0.500000 0.268871
#
# Coordination Sequence:
#
# PCOD9192028 Si02
#       8
#     8   8   8   8   8   8   8   8
#     4   9  19  35  54  79 110 145 186 232 280 328
#     4  10  22  38  58  86 114 150 192 235 288 343
#     4  10  20  33  52  80 113 146 183 227 280 338
#     4  10  21  38  60  85 113 147 197 247 284 336
#     4   9  19  35  59  87 110 140 187 241 289 330
#     4  10  20  35  57  81 109 143 185 230 280 337
#     4  10  21  36  59  86 112 149 197 243 286 332
#     4  11  23  38  57  84 121 156 189 232 290 352
#
# _framework density 24.284502
#
# number of rings (size 3 to 8) (size 9 to 14) (size 15 to 20)
#    0.000    2.125    0.000    2.625    1.750    5.500 
#    0.000    0.625    0.000    0.750    0.000    0.000 
#    0.000    0.000    0.000    0.000    0.000    0.000 
#
# Total GULP energy -178883.466402 kJ/mol
# GULP energy per Si atom -5590.108325 kJ/mol
# Density = 2.422923 g / cm^3
# Si number density = 24.284502 Si / 1000 Ang^3
#
#
#
# Elastic Constant Matrix: (Units=GPa)
#
#
# Indices 1 2 3 4 5 6 
#
# 1 55.0241 -3.1810 3.6486 0.0025 -14.2020 -0.0035
# 2 -3.1810 66.3722 -15.8758 -0.0202 6.5532 0.0153
# 3 3.6486 -15.8758 121.0844 0.0103 -12.3752 -0.0012
# 4 0.0025 -0.0202 0.0103 9.0544 0.0092 -4.0612
# 5 -14.2020 6.5532 -12.3752 0.0092 39.7915 -0.0079
# 6 -0.0035 0.0153 -0.0012 -4.0612 -0.0079 12.2586
#
#
#
# Elastic Compliance Matrix: (Units=1/GPa)
#
#
# Indices 1 2 3 4 5 6 
#
# 1 0.020025 0.000293 0.000166 -0.000009 0.007151 0.000007
# 2 0.000293 0.015713 0.001857 0.000030 -0.001906 -0.000011
# 3 0.000166 0.001857 0.008750 -0.000010 0.002475 -0.000003
# 4 -0.000009 0.000030 -0.000010 0.129720 -0.000033 0.042976
# 5 0.007151 -0.001906 0.002475 -0.000033 0.028767 0.000012
# 6 0.000007 -0.000011 -0.000003 0.042976 0.000012 0.095813
#
#
# Mechanical properties :
#
#
# Convention : Reuss Voigt Hill
#
# Bulk Modulus (GPa) = 20.35833 23.51826 21.93830
# Shear Modulus (GPa) = 16.10151 29.41348 22.75749
#
# Velocity S-wave (km/s) = 2.57774 3.48401 3.06456
# Velocity P-wave (km/s) = 4.15465 5.08822 4.64495
#
# Compressibility (1/GPa) = 0.04911995
#
# Stress axis : x y z
#
# Youngs Moduli (GPa) = 49.93658 63.64213 114.28506
#
# Poissons Ratio (x) = -0.01867 -0.01895
# Poissons Ratio (y) = -0.01465 -0.21218
# Poissons Ratio (z) = -0.00828 -0.11816
#
# Static dielectric constant tensor:
#      x y z
#    x 1.940580 0.000000 0.040360 
#    y 0.000000 1.916780 0.000030 
#    z 0.040360 0.000030 1.924100 
# 
# From -- ./inp_files/353387.got.cif
#   From: 2010.05.17/outbox.cif.g08.bks.cpg/sg12_177_cif.got.tgz:353387.got - 2010.06.03 13:09:07.
