data_PCOD9192047
_publ_section_title
;
Structure prediction by ZEFSAII (Michael W. Deem and Ramdas Pophale) SiO2 
 PCOD9192047
Probable space group: C 2/M
;
_chemical_formula_sum "Si O2"
_cell_formula_units_Z 56
_cell_length_a 20.649966
_cell_length_b 7.589257
_cell_length_c 30.337420
_cell_angle_alpha 90.000000
_cell_angle_beta 150.672923
_cell_angle_gamma 90.000000
_cell_volume 2328.687267
_symmetry_space_group_name_H-M "C 2/M"
_symmetry_group_IT_number 12
_symmetry_cell_setting 'monoclinic'
loop_
_space_group_symop_operation_xyz
x,y,z
-x,y,-z
-x,-y,-z
x,-y,z
1/2+x,1/2+y,z
1/2-x,1/2+y,-z
1/2-x,1/2-y,-z
1/2+x,1/2-y,z
loop_
_atom_site_type_symbol
_atom_site_label
_atom_site_fract_x
_atom_site_fract_y
_atom_site_fract_z
Si Si1 0.225955 0.713318 0.593935
Si Si2 0.962512 0.209442 0.384217
Si Si3 0.312589 0.700278 0.802589
Si Si4 0.154124 0.786403 0.082341
Si Si5 0.794946 0.293047 0.076637
Si Si6 0.882194 0.209428 0.605309
Si Si7 0.084590 0.787041 0.221708
O O1 0.225050 0.500000 0.593206
O O2 0.340220 0.776576 0.627802
O O3 0.285244 0.777106 0.674985
O O4 0.080820 0.762772 0.489673
O O5 0.822254 0.299779 0.305424
O O6 0.010076 0.278955 0.364377
O O7 0.941752 0.000000 0.369845
O O8 0.358093 0.500000 0.837767
O O9 0.285269 0.776927 0.834785
O O10 0.416140 0.780865 0.829245
O O11 0.218802 0.718213 0.074963
O O12 0.167017 0.000000 0.087684
O O13 0.000000 0.745570 0.000000
O O14 0.776194 0.500000 0.068804
O O15 0.951113 0.252622 0.168836
O O16 0.750000 0.250000 0.000000
O O17 0.750000 0.250000 0.500000
O O18 0.903234 0.000000 0.621514
O O19 0.091742 0.000000 0.223494
#
# Coordination Sequence:
#
# PCOD9192047 Si02
#       7
#     8   8   8   8   8   8   8
#     4   9  18  34  55  79 111 155 201 245 293 349
#     4  10  20  33  52  81 116 156 198 249 300 341
#     4  10  21  38  59  84 116 158 201 240 289 353
#     4   9  19  38  64  90 117 150 191 235 283 346
#     4  11  23  40  65  94 121 153 190 236 291 349
#     4   8  15  28  46  70 101 139 182 231 284 333
#     4  10  22  39  61  87 118 157 199 246 294 344
#
# _framework density 24.047884
#
# number of rings (size 3 to 8) (size 9 to 14) (size 15 to 20)
#    0.000    2.429    0.000    1.714    2.000    4.571 
#    0.000    3.571    0.000    3.000    0.000    0.000 
#    0.000    0.000    0.000    0.000    0.000    0.000 
#
# Total GULP energy -155977.825346 kJ/mol
# GULP energy per Si atom -5570.636619 kJ/mol
# Density = 2.399315 g / cm^3
# Si number density = 24.047884 Si / 1000 Ang^3
#
#
#
# Elastic Constant Matrix: (Units=GPa)
#
#
# Indices 1 2 3 4 5 6 
#
# 1 219.0769 5.7883 65.6129 0.0001 -19.5403 -0.0001
# 2 5.7883 65.0169 -6.0653 -0.0002 -7.5930 0.0003
# 3 65.6129 -6.0653 120.7381 0.0002 -20.7847 0.0001
# 4 0.0001 -0.0002 0.0002 9.9566 0.0001 0.9799
# 5 -19.5403 -7.5930 -20.7847 0.0001 29.6244 0.0000
# 6 -0.0001 0.0003 0.0001 0.9799 0.0000 10.5598
#
#
#
# Elastic Compliance Matrix: (Units=1/GPa)
#
#
# Indices 1 2 3 4 5 6 
#
# 1 0.005551 -0.000570 -0.002775 0.000000 0.001568 0.000000
# 2 -0.000570 0.016227 0.002020 0.000000 0.005201 -0.000001
# 3 -0.002775 0.002020 0.010994 0.000000 0.006401 0.000000
# 4 0.000000 0.000000 0.000000 0.101362 0.000000 -0.009406
# 5 0.001568 0.005201 0.006401 0.000000 0.040614 0.000000
# 6 0.000000 -0.000001 0.000000 -0.009406 0.000000 0.095572
#
#
# Mechanical properties :
#
#
# Convention : Reuss Voigt Hill
#
# Bulk Modulus (GPa) = 33.19842 59.50040 46.34941
# Shear Modulus (GPa) = 17.66725 32.66122 25.16424
#
# Velocity S-wave (km/s) = 2.71342 3.68934 3.23835
# Velocity P-wave (km/s) = 4.86333 6.55320 5.77046
#
# Compressibility (1/GPa) = 0.03012191
#
# Stress axis : x y z
#
# Youngs Moduli (GPa) = 180.15869 61.62510 90.96036
#
# Poissons Ratio (x) = 0.03512 0.25242
# Poissons Ratio (y) = 0.10267 -0.18375
# Poissons Ratio (z) = 0.49996 -0.12449
#
# Static dielectric constant tensor:
#      x y z
#    x 2.045880 0.000000 -0.023190 
#    y 0.000000 1.928540 0.000000 
#    z -0.023190 0.000000 1.930820 
# 
# From -- ./inp_files/380760.got.cif
#   From: 2010.05.17/outbox.cif.g08.bks.cpg/sg12_191_cif.got.tgz:380760.got - 2010.06.03 13:09:07.
