data_PCOD9192618
_publ_section_title
;
Structure prediction by ZEFSAII (Michael W. Deem and Ramdas Pophale) SiO2 
 PCOD9192618
Probable space group: C 2/M
;
_chemical_formula_sum "Si O2"
_cell_formula_units_Z 56
_cell_length_a 5.344109
_cell_length_b 27.154326
_cell_length_c 17.849979
_cell_angle_alpha 90.000000
_cell_angle_beta 115.720188
_cell_angle_gamma 90.000000
_cell_volume 2333.674504
_symmetry_space_group_name_H-M "C 2/M"
_symmetry_group_IT_number 12
_symmetry_cell_setting 'monoclinic'
loop_
_space_group_symop_operation_xyz
x,y,z
-x,y,-z
-x,-y,-z
x,-y,z
1/2+x,1/2+y,z
1/2-x,1/2+y,-z
1/2-x,1/2-y,-z
1/2+x,1/2-y,z
loop_
_atom_site_type_symbol
_atom_site_label
_atom_site_fract_x
_atom_site_fract_y
_atom_site_fract_z
Si Si1 0.174310 0.556729 0.382717
Si Si2 0.141927 0.420327 0.808679
Si Si3 0.718107 0.945230 0.976396
Si Si4 0.682927 0.618133 0.383981
Si Si5 0.365958 0.271012 0.592551
Si Si6 0.354079 0.632085 0.187220
Si Si7 0.631506 0.269960 0.903443
O O1 0.203599 0.500000 0.412075
O O2 0.466732 0.582297 0.399063
O O3 0.003092 0.556858 0.282204
O O4 0.976276 0.590595 0.409104
O O5 0.108368 0.451443 0.879157
O O6 0.465327 0.410065 0.832915
O O7 0.944464 0.375440 0.811206
O O8 0.775493 0.000000 0.016853
O O9 0.500000 0.919166 0.000000
O O10 0.000000 0.916570 0.000000
O O11 0.686358 0.671138 0.421960
O O12 0.558756 0.634460 0.286139
O O13 0.250000 0.250000 0.500000
O O14 0.685898 0.254151 0.634733
O O15 0.324099 0.675360 0.122736
O O16 0.304159 0.262207 0.867019
O O17 0.750000 0.250000 0.000000
#
# Coordination Sequence:
#
# PCOD9192618 Si02
#       7
#     8   8   8   8   8   8   8
#     4  10  20  36  60  88 124 166 202 252 314 363
#     4  10  20  36  52  78 104 139 187 240 298 354
#     4  10  20  34  48  69  97 129 173 224 284 345
#     4  10  21  36  59  93 126 156 210 259 290 370
#     4  10  21  38  62  96 129 167 207 248 309 351
#     4  10  21  36  54  76 107 138 185 244 296 344
#     4  10  21  38  51  68  95 137 183 233 293 365
#
# _framework density 23.996493000000001
#
# number of rings (size 3 to 8) (size 9 to 14) (size 15 to 20)
#    0.000    2.000    0.000    3.429    0.000    1.143 
#   15.429    4.286    0.000    0.000    0.000   40.000 
#    0.000    0.000    0.000    0.000    0.000    0.000 
#
# Total GULP energy -155968.039021 kJ/mol
# GULP energy per Si atom -5570.287108 kJ/mol
# Density = 2.394188 g / cm^3
# Si number density = 23.996493 Si / 1000 Ang^3
#
#
#
# Elastic Constant Matrix: (Units=GPa)
#
#
# Indices 1 2 3 4 5 6 
#
# 1 196.2794 44.9772 11.7818 0.0000 -12.9710 0.0000
# 2 44.9772 144.5195 16.5237 0.0000 -9.5382 0.0000
# 3 11.7818 16.5237 54.3517 0.0000 -9.1395 0.0000
# 4 0.0000 0.0000 0.0000 -197.6153 0.0000 93.9067
# 5 -12.9710 -9.5382 -9.1395 0.0000 22.6408 0.0000
# 6 0.0000 0.0000 0.0000 93.9067 0.0000 -30.3473
#
#
#
# Elastic Compliance Matrix: (Units=1/GPa)
#
#
# Indices 1 2 3 4 5 6 
#
# 1 0.005632 -0.001553 -0.000339 0.000000 0.002435 0.000000
# 2 -0.001553 0.007710 -0.001728 0.000000 0.001661 0.000000
# 3 -0.000339 -0.001728 0.020215 0.000000 0.007238 0.000000
# 4 0.000000 0.000000 0.000000 0.010756 0.000000 0.033284
# 5 0.002435 0.001661 0.007238 0.000000 0.049185 0.000000
# 6 0.000000 0.000000 0.000000 0.033284 0.000000 0.070042
#
#
# Mechanical properties :
#
#
# Convention : Reuss Voigt Hill
#
# Bulk Modulus (GPa) = 37.99989 60.19068 49.09529
# Shear Modulus (GPa) = 27.84705 -19.60650 4.12028
#
# Velocity S-wave (km/s) = 3.41025 -2.86152 1.31178
# Velocity P-wave (km/s) = 5.60147 3.77092 4.77474
#
# Compressibility (1/GPa) = 0.02631586
#
# Stress axis : x y z
#
# Youngs Moduli (GPa) = 177.55672 129.70046 49.46911
#
# Poissons Ratio (x) = 0.20146 0.01678
# Poissons Ratio (y) = 0.27580 0.08548
# Poissons Ratio (z) = 0.06021 0.22413
#
# Static dielectric constant tensor:
#      x y z
#    x 2.149340 0.000000 0.081080 
#    y 0.000000 1.903350 0.000000 
#    z 0.081080 0.000000 1.990120 
# 
# From -- ./inp_files/298111.got.cif
#   From: 2010.05.17/outbox.cif.g08.bks.cpg/sg12_150_cif.got.tgz:298111.got - 2010.06.03 13:09:07.
