data_PCOD9192741
_publ_section_title
;
Structure prediction by ZEFSAII (Michael W. Deem and Ramdas Pophale) SiO2 
 PCOD9192741
Probable space group: C 2/M
;
_chemical_formula_sum "Si O2"
_cell_formula_units_Z 64
_cell_length_a 20.371336
_cell_length_b 7.862317
_cell_length_c 19.915324
_cell_angle_alpha 90.000000
_cell_angle_beta 96.739742
_cell_angle_gamma 90.000000
_cell_volume 3167.712962
_symmetry_space_group_name_H-M "C 2/M"
_symmetry_group_IT_number 12
_symmetry_cell_setting 'monoclinic'
loop_
_space_group_symop_operation_xyz
x,y,z
-x,y,-z
-x,-y,-z
x,-y,z
1/2+x,1/2+y,z
1/2-x,1/2+y,-z
1/2-x,1/2-y,-z
1/2+x,1/2-y,z
loop_
_atom_site_type_symbol
_atom_site_label
_atom_site_fract_x
_atom_site_fract_y
_atom_site_fract_z
Si Si1 0.350781 0.205207 0.309740
Si Si2 0.502463 0.707286 0.117196
Si Si3 0.005456 0.203958 0.731597
Si Si4 0.732306 0.791014 0.823590
Si Si5 0.396729 0.195499 0.453231
Si Si6 0.858148 0.799241 0.914529
Si Si7 0.355345 0.199625 0.061373
Si Si8 0.463151 0.700397 0.587909
O O1 0.420795 0.246663 0.282805
O O2 0.294328 0.265464 0.251967
O O3 0.353456 0.270879 0.386890
O O4 0.346843 0.000000 0.313919
O O5 0.499514 0.500000 0.114052
O O6 0.508340 0.765834 0.195334
O O7 0.567742 0.767775 0.086285
O O8 0.433228 0.769992 0.080218
O O9 0.956969 0.255316 0.664627
O O10 0.002571 0.000000 0.735375
O O11 0.804355 0.731825 0.855626
O O12 0.682187 0.735948 0.876819
O O13 0.731713 0.000000 0.822463
O O14 0.471320 0.207075 0.431980
O O15 0.404233 0.273723 0.528059
O O16 0.378345 0.000000 0.460355
O O17 0.862570 0.000000 0.901955
O O18 0.834386 0.776950 0.987856
O O19 0.342003 0.000000 0.055545
O O20 0.479322 0.500000 0.588865
#
# Coordination Sequence:
#
# PCOD9192741 Si02
#       8
#     8   8   8   8   8   8   8   8
#     4   9  16  28  45  65  90 119 152 188 227 270
#     4  10  20  34  51  71  94 123 158 193 231 276
#     4   9  17  28  43  65  90 118 153 189 225 268
#     4   9  18  33  51  71  93 122 157 192 233 275
#     4   9  15  22  36  59  87 116 146 181 220 266
#     4  10  21  36  52  69  94 124 155 193 234 278
#     4  11  21  34  53  73  94 120 153 194 237 282
#     4   9  15  23  36  56  87 119 145 179 222 266
#
# _framework density 20.203852000000001
#
# number of rings (size 3 to 8) (size 9 to 14) (size 15 to 20)
#    0.000    2.500    1.250    2.625    0.000    3.000 
#    0.000    1.250    0.000    0.000    0.000    0.875 
#    0.000    0.000    0.000    0.000    0.000    0.000 
#
# Total GULP energy -178339.970119 kJ/mol
# GULP energy per Si atom -5573.124066 kJ/mol
# Density = 2.015787 g / cm^3
# Si number density = 20.203852 Si / 1000 Ang^3
#
#
#
# Elastic Constant Matrix: (Units=GPa)
#
#
# Indices 1 2 3 4 5 6 
#
# 1 26.7937 -6.4717 -11.9210 0.0000 8.1191 0.0000
# 2 -6.4717 11.5340 -7.4570 0.0000 -5.2185 0.0000
# 3 -11.9210 -7.4570 96.1478 0.0000 21.5949 0.0000
# 4 0.0000 0.0000 0.0000 25.3167 0.0000 4.5160
# 5 8.1191 -5.2185 21.5949 0.0000 16.4765 0.0000
# 6 0.0000 0.0000 0.0000 4.5160 0.0000 9.6807
#
#
#
# Elastic Compliance Matrix: (Units=1/GPa)
#
#
# Indices 1 2 3 4 5 6 
#
# 1 0.073623 0.030606 0.024762 0.000000 -0.059040 0.000000
# 2 0.030606 0.113983 0.011216 0.000000 0.006319 0.000000
# 3 0.024762 0.011216 0.023077 0.000000 -0.038895 0.000000
# 4 0.000000 0.000000 0.000000 0.043085 0.000000 -0.020099
# 5 -0.059040 0.006319 -0.038895 0.000000 0.142766 0.000000
# 6 0.000000 0.000000 0.000000 -0.020099 0.000000 0.112674
#
#
# Mechanical properties :
#
#
# Convention : Reuss Voigt Hill
#
# Bulk Modulus (GPa) = 2.90823 9.19736 6.05280
# Shear Modulus (GPa) = 10.19047 20.98312 15.58680
#
# Velocity S-wave (km/s) = 2.24828 3.22618 2.78056
# Velocity P-wave (km/s) = 2.86047 4.29416 3.64843
#
# Compressibility (1/GPa) = 0.34385118
#
# Stress axis : x y z
#
# Youngs Moduli (GPa) = 13.58279 8.77323 43.33383
#
# Poissons Ratio (x) = -0.26852 -1.07305
# Poissons Ratio (y) = -0.41572 -0.48602
# Poissons Ratio (z) = -0.33634 -0.09840
#
# Static dielectric constant tensor:
#      x y z
#    x 1.691770 0.000000 0.029900 
#    y 0.000000 1.739650 0.000000 
#    z 0.029900 0.000000 1.778740 
# 
# From -- ./inp_files/319253.got.cif
#   From: 2010.05.17/outbox.cif.g08.bks.cpg/sg12_160_cif.got.tgz:319253.got - 2010.06.03 13:09:07.
