data_PCOD9192288
_publ_section_title
;
Structure prediction by ZEFSAII (Michael W. Deem and Ramdas Pophale) SiO2 
 PCOD9192288
Probable space group: C 2/M
;
_chemical_formula_sum "Si O2"
_cell_formula_units_Z 48
_cell_length_a 25.395143
_cell_length_b 7.479135
_cell_length_c 11.504089
_cell_angle_alpha 90.000000
_cell_angle_beta 72.076271
_cell_angle_gamma 90.000000
_cell_volume 2078.968994
_symmetry_space_group_name_H-M "C 2/M"
_symmetry_group_IT_number 12
_symmetry_cell_setting 'monoclinic'
loop_
_space_group_symop_operation_xyz
x,y,z
-x,y,-z
-x,-y,-z
x,-y,z
1/2+x,1/2+y,z
1/2-x,1/2+y,-z
1/2-x,1/2-y,-z
1/2+x,1/2-y,z
loop_
_atom_site_type_symbol
_atom_site_label
_atom_site_fract_x
_atom_site_fract_y
_atom_site_fract_z
Si Si1 0.227313 0.284602 0.721250
Si Si2 0.170878 0.707902 0.994062
Si Si3 0.062772 0.214805 0.937286
Si Si4 0.874632 0.290008 0.344857
Si Si5 0.937097 0.719520 0.530319
Si Si6 0.338489 0.212292 0.746774
O O1 0.222363 0.500000 0.724587
O O2 0.185970 0.216935 0.649404
O O3 0.291674 0.240515 0.681174
O O4 0.203042 0.214410 0.861286
O O5 0.187173 0.500000 0.987441
O O6 0.179429 0.787793 0.115820
O O7 0.106160 0.719299 0.004416
O O8 0.087920 0.272598 0.796290
O O9 0.063155 0.000000 0.940077
O O10 0.000000 0.276503 0.000000
O O11 0.866897 0.500000 0.374391
O O12 0.907634 0.217150 0.432125
O O13 0.937919 0.500000 0.528689
O O14 0.897342 0.778153 0.661927
O O15 0.000000 0.778622 0.500000
O O16 0.343984 0.000000 0.759031
#
# Coordination Sequence:
#
# PCOD9192288 Si02
#       6
#     8   8   8   8   8   8
#     4   9  18  33  51  77 110 141 176 220 270 315
#     4   9  19  34  53  80 109 138 179 221 260 317
#     4  10  21  34  51  78 109 140 175 218 269 319
#     4   9  19  36  57  78 104 140 181 222 262 312
#     4   9  19  35  55  80 107 137 179 230 266 299
#     4  10  20  33  54  83 108 139 183 220 261 318
#
# _framework density 23.088369
#
# number of rings (size 3 to 8) (size 9 to 14) (size 15 to 20)
#    0.000    2.667    0.000    2.000    2.333    5.333 
#    0.000    0.833    0.000    1.000    0.000    0.000 
#    0.000    0.000    0.000    0.000    0.000    0.000 
#
# Total GULP energy -134033.846044 kJ/mol
# GULP energy per Si atom -5584.743585 kJ/mol
# Density = 2.303582 g / cm^3
# Si number density = 23.088369 Si / 1000 Ang^3
#
#
#
# Elastic Constant Matrix: (Units=GPa)
#
#
# Indices 1 2 3 4 5 6 
#
# 1 129.3979 2.8401 38.8673 0.0000 -7.9483 0.0000
# 2 2.8401 70.2943 5.3047 0.0000 4.4970 0.0000
# 3 38.8673 5.3047 40.3323 0.0000 20.5716 0.0000
# 4 0.0000 0.0000 0.0000 3.2698 0.0000 -7.9967
# 5 -7.9483 4.4970 20.5716 0.0000 37.1947 0.0000
# 6 0.0000 0.0000 0.0000 -7.9967 0.0000 22.4171
#
#
#
# Elastic Compliance Matrix: (Units=1/GPa)
#
#
# Indices 1 2 3 4 5 6 
#
# 1 0.015859 0.000093 -0.023706 0.000000 0.016489 0.000000
# 2 0.000093 0.014394 -0.001540 0.000000 -0.000869 0.000000
# 3 -0.023706 -0.001540 0.070107 0.000000 -0.043654 0.000000
# 4 0.000000 0.000000 0.000000 2.397314 0.000000 0.855181
# 5 0.016489 -0.000869 -0.043654 0.000000 0.054658 0.000000
# 6 0.000000 0.000000 0.000000 0.855181 0.000000 0.349673
#
#
# Mechanical properties :
#
#
# Convention : Reuss Voigt Hill
#
# Bulk Modulus (GPa) = 19.97785 37.11652 28.54718
# Shear Modulus (GPa) = 1.68407 25.44381 13.56394
#
# Velocity S-wave (km/s) = 0.85498 3.32327 2.42643
# Velocity P-wave (km/s) = 3.10583 5.55304 4.49902
#
# Compressibility (1/GPa) = 0.05005544
#
# Stress axis : x y z
#
# Youngs Moduli (GPa) = 63.05421 69.47378 14.26390
#
# Poissons Ratio (x) = -0.00648 0.33814
# Poissons Ratio (y) = -0.00588 0.02197
# Poissons Ratio (z) = 1.49475 0.10699
#
# Static dielectric constant tensor:
#      x y z
#    x 1.856460 0.000000 0.009990 
#    y 0.000000 1.852950 0.000000 
#    z 0.009990 0.000000 1.870290 
# 
# From -- ./inp_files/172141.got.cif
#   From: 2010.05.17/outbox.cif.g08.bks.cpg/sg12_87_cif.got.tgz:172141.got - 2010.06.03 13:09:07.
