data_PCOD9192270
_publ_section_title
;
Structure prediction by ZEFSAII (Michael W. Deem and Ramdas Pophale) SiO2 
 PCOD9192270
Probable space group: C 2/M
;
_chemical_formula_sum "Si O2"
_cell_formula_units_Z 50
_cell_length_a 14.820878
_cell_length_b 8.051528
_cell_length_c 21.143235
_cell_angle_alpha 90.000000
_cell_angle_beta 125.924781
_cell_angle_gamma 90.000000
_cell_volume 2043.125237
_symmetry_space_group_name_H-M "C 2/M"
_symmetry_group_IT_number 12
_symmetry_cell_setting 'monoclinic'
loop_
_space_group_symop_operation_xyz
x,y,z
-x,y,-z
-x,-y,-z
x,-y,z
1/2+x,1/2+y,z
1/2-x,1/2+y,-z
1/2-x,1/2-y,-z
1/2+x,1/2-y,z
loop_
_atom_site_type_symbol
_atom_site_label
_atom_site_fract_x
_atom_site_fract_y
_atom_site_fract_z
Si Si1 0.898955 0.193648 0.646720
Si Si2 0.261593 0.181744 0.137756
Si Si3 0.512925 0.810193 0.190336
Si Si4 0.581341 0.186938 0.973949
Si Si5 0.862615 0.806647 0.300271
Si Si6 0.660594 0.308545 0.559442
Si Si7 0.000000 0.500000 0.500000
O O1 0.785616 0.288200 0.585263
O O2 0.917041 0.209680 0.729942
O O3 0.013637 0.264362 0.663577
O O4 0.886172 0.000000 0.624611
O O5 0.390119 0.178724 0.170640
O O6 0.268470 0.249240 0.211980
O O7 0.212019 0.000000 0.120795
O O8 0.197147 0.264323 0.053173
O O9 0.484623 0.729719 0.110832
O O10 0.559667 0.000000 0.204525
O O11 0.597499 0.000000 0.956148
O O12 0.500000 0.187133 0.000000
O O13 0.835084 0.786638 0.362096
O O14 0.874790 0.000000 0.291193
O O15 0.621988 0.500000 0.530759
O O16 0.584786 0.151580 0.509437
#
# Coordination Sequence:
#
# PCOD9192270 Si02
#       7
#     8   8   8   8   8   8   2
#     4  10  20  39  66  98 129 167 218 267 314 381
#     4  10  20  33  54  81 113 153 206 265 316 368
#     4   9  19  35  53  79 113 160 208 258 317 376
#     4  10  21  34  48  71 113 158 207 259 314 378
#     4   9  21  40  66  94 128 170 217 258 318 383
#     4  11  24  45  73  98 137 174 206 264 315 381
#     4  12  26  48  72 106 136 168 218 248 320 394
#
# _framework density 24.472313
#
# number of rings (size 3 to 8) (size 9 to 14) (size 15 to 20)
#    0.000    2.080    0.800    1.680    3.360    2.240 
#    0.000    0.800    0.000    0.000    0.000    0.000 
#    0.000    0.000    0.000    0.000    0.000    0.000 
#
# Total GULP energy -139292.885046 kJ/mol
# GULP energy per Si atom -5571.715402 kJ/mol
# Density = 2.441661 g / cm^3
# Si number density = 24.472313 Si / 1000 Ang^3
#
#
#
# Elastic Constant Matrix: (Units=GPa)
#
#
# Indices 1 2 3 4 5 6 
#
# 1 46.5344 23.5238 35.5044 0.0000 6.8692 0.0000
# 2 23.5238 69.0018 34.0111 0.0000 -0.8660 0.0000
# 3 35.5044 34.0111 113.7130 0.0000 -15.6387 0.0000
# 4 0.0000 0.0000 0.0000 -1.7906 0.0000 29.0450
# 5 6.8692 -0.8660 -15.6387 0.0000 57.2211 0.0000
# 6 0.0000 0.0000 0.0000 29.0450 0.0000 -7.5687
#
#
#
# Elastic Compliance Matrix: (Units=1/GPa)
#
#
# Indices 1 2 3 4 5 6 
#
# 1 0.032846 -0.006781 -0.009127 0.000000 -0.006540 0.000000
# 2 -0.006781 0.018475 -0.003385 0.000000 0.000168 0.000000
# 3 -0.009127 -0.003385 0.013300 0.000000 0.004679 0.000000
# 4 0.000000 0.000000 0.000000 0.009118 0.000000 0.034991
# 5 -0.006540 0.000168 0.004679 0.000000 0.019543 0.000000
# 6 0.000000 0.000000 0.000000 0.034991 0.000000 0.002157
#
#
# Mechanical properties :
#
#
# Convention : Reuss Voigt Hill
#
# Bulk Modulus (GPa) = 38.41076 46.14752 42.27914
# Shear Modulus (GPa) = 35.03755 18.65303 26.84529
#
# Velocity S-wave (km/s) = 3.78792 2.76381 3.31564
# Velocity P-wave (km/s) = 5.90430 5.39285 5.65436
#
# Compressibility (1/GPa) = 0.02603437
#
# Stress axis : x y z
#
# Youngs Moduli (GPa) = 30.44471 54.12723 75.18935
#
# Poissons Ratio (x) = 0.36706 0.68623
# Poissons Ratio (y) = 0.20646 0.25454
# Poissons Ratio (z) = 0.27786 0.18324
#
# Static dielectric constant tensor:
#      x y z
#    x 1.996060 0.000000 -0.008560 
#    y 0.000000 1.928910 0.000000 
#    z -0.008560 0.000000 2.185970 
# 
# From -- ./inp_files/362795.got.cif
#   From: 2010.05.17/outbox.cif.g08.bks.cpg/sg12_182_cif.got.tgz:362795.got - 2010.06.03 13:09:07.
