data_PCOD9192250
_publ_section_title
;
Structure prediction by ZEFSAII (Michael W. Deem and Ramdas Pophale) SiO2 
 PCOD9192250
Probable space group: C 2/M
;
_chemical_formula_sum "Si O2"
_cell_formula_units_Z 56
_cell_length_a 21.301186
_cell_length_b 7.558110
_cell_length_c 21.576534
_cell_angle_alpha 90.000000
_cell_angle_beta 132.850526
_cell_angle_gamma 90.000000
_cell_volume 2546.712462
_symmetry_space_group_name_H-M "C 2/M"
_symmetry_group_IT_number 12
_symmetry_cell_setting 'monoclinic'
loop_
_space_group_symop_operation_xyz
x,y,z
-x,y,-z
-x,-y,-z
x,-y,z
1/2+x,1/2+y,z
1/2-x,1/2+y,-z
1/2-x,1/2-y,-z
1/2+x,1/2-y,z
loop_
_atom_site_type_symbol
_atom_site_label
_atom_site_fract_x
_atom_site_fract_y
_atom_site_fract_z
Si Si1 0.328207 0.706687 0.231507
Si Si2 0.516321 0.216166 0.911478
Si Si3 0.558677 0.798800 0.804327
Si Si4 0.912452 0.215847 0.410019
Si Si5 0.364330 0.216245 0.893604
Si Si6 0.113078 0.204088 0.376461
Si Si7 0.788464 0.785725 0.435086
O O1 0.318782 0.500000 0.240234
O O2 0.370045 0.718127 0.192290
O O3 0.392389 0.778331 0.327211
O O4 0.232692 0.781908 0.171822
O O5 0.540774 0.281544 0.859829
O O6 0.423586 0.271142 0.875537
O O7 0.514228 0.000000 0.907684
O O8 0.585438 0.266715 0.010028
O O9 0.469135 0.795444 0.707182
O O10 0.586009 0.000000 0.832697
O O11 0.832959 0.262714 0.400910
O O12 0.000000 0.279915 0.500000
O O13 0.918743 0.000000 0.413922
O O14 0.363338 0.000000 0.892762
O O15 0.150506 0.272480 0.466872
O O16 0.193799 0.215713 0.384332
O O17 0.088189 0.000000 0.369722
O O18 0.783251 0.000000 0.434805
#
# Coordination Sequence:
#
# PCOD9192250 Si02
#       7
#     8   8   8   8   8   8   8
#     4  10  20  33  54  79 105 138 179 221 265 315
#     4   8  16  31  53  79 105 132 171 223 271 311
#     4  11  22  34  52  77 108 143 175 215 266 320
#     4   9  17  30  50  75 103 138 178 217 254 301
#     4   8  15  31  54  80 103 129 174 227 267 311
#     4  10  20  34  52  76 107 138 174 220 267 315
#     4   9  18  33  54  77 102 136 179 224 266 309
#
# _framework density 21.989134
#
# number of rings (size 3 to 8) (size 9 to 14) (size 15 to 20)
#    0.000    2.714    0.000    2.571    2.000    3.429 
#    0.000    0.714    0.000    2.571    0.000    5.000 
#    0.000    0.000    0.000    0.000    0.000    0.000 
#
# Total GULP energy -156341.255786 kJ/mol
# GULP energy per Si atom -5583.616278 kJ/mol
# Density = 2.193909 g / cm^3
# Si number density = 21.989134 Si / 1000 Ang^3
#
#
#
# Elastic Constant Matrix: (Units=GPa)
#
#
# Indices 1 2 3 4 5 6 
#
# 1 142.9023 -2.7495 84.8151 0.0000 -10.5843 0.0000
# 2 -2.7495 46.2628 3.4941 0.0000 0.4123 0.0001
# 3 84.8151 3.4941 91.3329 0.0000 3.2685 0.0000
# 4 0.0000 0.0000 0.0000 93.3386 0.0000 13.1805
# 5 -10.5843 0.4123 3.2685 0.0000 32.1052 0.0000
# 6 0.0000 0.0001 0.0000 13.1805 0.0000 22.5775
#
#
#
# Elastic Compliance Matrix: (Units=1/GPa)
#
#
# Indices 1 2 3 4 5 6 
#
# 1 0.017363 0.002210 -0.016472 0.000000 0.007373 0.000000
# 2 0.002210 0.021961 -0.002919 0.000000 0.000744 0.000000
# 3 -0.016472 -0.002919 0.026648 0.000000 -0.008106 0.000000
# 4 0.000000 0.000000 0.000000 0.011676 0.000000 -0.006816
# 5 0.007373 0.000744 -0.008106 0.000000 0.034394 0.000000
# 6 0.000000 0.000000 0.000000 -0.006816 0.000000 0.048271
#
#
# Mechanical properties :
#
#
# Convention : Reuss Voigt Hill
#
# Bulk Modulus (GPa) = 31.63689 50.17970 40.90829
# Shear Modulus (GPa) = 24.36508 42.60015 33.48262
#
# Velocity S-wave (km/s) = 3.33235 4.40628 3.90640
# Velocity P-wave (km/s) = 5.40600 6.98261 6.24427
#
# Compressibility (1/GPa) = 0.03160867
#
# Stress axis : x y z
#
# Youngs Moduli (GPa) = 57.59371 45.53555 37.52692
#
# Poissons Ratio (x) = -0.10065 0.61816
# Poissons Ratio (y) = -0.12730 0.10955
# Poissons Ratio (z) = 0.94870 0.13293
#
# Static dielectric constant tensor:
#      x y z
#    x 1.779580 0.000000 -0.013490 
#    y 0.000000 1.856300 0.000000 
#    z -0.013490 0.000000 1.785920 
# 
# From -- ./inp_files/320193.got.cif
#   From: 2010.05.17/outbox.cif.g08.bks.cpg/sg12_161_cif.got.tgz:320193.got - 2010.06.03 13:09:07.
