data_PCOD9192809
_publ_section_title
;
Structure prediction by ZEFSAII (Michael W. Deem and Ramdas Pophale) SiO2 
 PCOD9192809
Probable space group: C 2/M
;
_chemical_formula_sum "Si O2"
_cell_formula_units_Z 48
_cell_length_a 14.514029
_cell_length_b 9.080828
_cell_length_c 29.696932
_cell_angle_alpha 90.000000
_cell_angle_beta 138.347608
_cell_angle_gamma 90.000000
_cell_volume 2601.307642
_symmetry_space_group_name_H-M "C 2/M"
_symmetry_group_IT_number 12
_symmetry_cell_setting 'monoclinic'
loop_
_space_group_symop_operation_xyz
x,y,z
-x,y,-z
-x,-y,-z
x,-y,z
1/2+x,1/2+y,z
1/2-x,1/2+y,-z
1/2-x,1/2-y,-z
1/2+x,1/2-y,z
loop_
_atom_site_type_symbol
_atom_site_label
_atom_site_fract_x
_atom_site_fract_y
_atom_site_fract_z
Si Si1 0.657234 0.177936 0.004285
Si Si2 0.835440 0.321408 0.891345
Si Si3 0.844605 0.674706 0.348918
Si Si4 0.350471 0.322302 0.259928
Si Si5 0.410815 0.331853 0.514066
Si Si6 0.826341 0.175282 0.622687
O O1 0.700208 0.224305 0.070690
O O2 0.666353 0.000000 0.005003
O O3 0.750000 0.250000 0.000000
O O4 0.495040 0.219014 0.939975
O O5 0.831685 0.500000 0.890347
O O6 0.732420 0.272106 0.814539
O O7 0.855539 0.500000 0.347253
O O8 0.793944 0.750641 0.284875
O O9 0.743655 0.704473 0.354266
O O10 0.993825 0.741871 0.416840
O O11 0.341025 0.500000 0.259367
O O12 0.513040 0.283151 0.316957
O O13 0.500000 0.332638 0.500000
O O14 0.394194 0.500000 0.523178
O O15 0.265692 0.258375 0.447963
O O16 0.815583 0.000000 0.610684
#
# Coordination Sequence:
#
# PCOD9192809 Si02
#       6
#     8   8   8   8   8   8
#     4   9  17  33  57  81 103 133 170 205 245 293
#     4   8  17  34  53  74 105 139 168 200 244 303
#     4  10  20  34  51  74 103 132 166 213 263 302
#     4  10  20  35  53  73 100 137 174 204 244 304
#     4   9  17  31  52  74  96 128 172 216 254 299
#     4   9  19  34  51  71  98 132 169 211 259 304
#
# _framework density 18.452258
#
# number of rings (size 3 to 8) (size 9 to 14) (size 15 to 20)
#    0.000    2.833    0.000    2.000    0.000    5.333 
#    0.000    5.000    0.000    0.000    0.000    0.000 
#    0.000    0.000    0.000    0.000    0.000    0.000 
#
# Total GULP energy -133917.918082 kJ/mol
# GULP energy per Si atom -5579.913253 kJ/mol
# Density = 1.841026 g / cm^3
# Si number density = 18.452258 Si / 1000 Ang^3
#
#
#
# Elastic Constant Matrix: (Units=GPa)
#
#
# Indices 1 2 3 4 5 6 
#
# 1 99.4053 26.2391 46.4539 0.0000 -16.5593 0.0000
# 2 26.2391 24.3308 23.6816 0.0000 -5.4703 0.0000
# 3 46.4539 23.6816 115.1877 0.0000 -24.8424 0.0000
# 4 0.0000 0.0000 0.0000 21.6323 0.0000 -5.2745
# 5 -16.5593 -5.4703 -24.8424 0.0000 19.9511 0.0000
# 6 0.0000 0.0000 0.0000 -5.2745 0.0000 26.1352
#
#
#
# Elastic Compliance Matrix: (Units=1/GPa)
#
#
# Indices 1 2 3 4 5 6 
#
# 1 0.015699 -0.013336 -0.002143 0.000000 0.006704 0.000000
# 2 -0.013336 0.062736 -0.008472 0.000000 -0.004417 0.000000
# 3 -0.002143 -0.008472 0.014222 0.000000 0.013607 0.000000
# 4 0.000000 0.000000 0.000000 0.048620 0.000000 0.009812
# 5 0.006704 -0.004417 0.013607 0.000000 0.071419 0.000000
# 6 0.000000 0.000000 0.000000 0.009812 0.000000 0.040243
#
#
# Mechanical properties :
#
#
# Convention : Reuss Voigt Hill
#
# Bulk Modulus (GPa) = 22.34497 47.96367 35.15432
# Shear Modulus (GPa) = 15.83482 23.04699 19.44090
#
# Velocity S-wave (km/s) = 2.93260 3.53796 3.24941
# Velocity P-wave (km/s) = 4.85827 6.53754 5.75943
#
# Compressibility (1/GPa) = 0.04475280
#
# Stress axis : x y z
#
# Youngs Moduli (GPa) = 63.70014 15.93989 70.31199
#
# Poissons Ratio (x) = 0.21258 0.15070
# Poissons Ratio (y) = 0.84953 0.59570
# Poissons Ratio (z) = 0.13653 0.13505
#
# Static dielectric constant tensor:
#      x y z
#    x 1.655300 0.000000 -0.012620 
#    y 0.000000 1.616610 0.000000 
#    z -0.012620 0.000000 1.622230 
# 
# From -- ./inp_files/308602.got.cif
#   From: 2010.05.17/outbox.cif.g08.bks.cpg/sg12_155_cif.got.tgz:308602.got - 2010.06.03 13:09:07.
