data_PCOD9192931
_publ_section_title
;
Structure prediction by ZEFSAII (Michael W. Deem and Ramdas Pophale) SiO2 
 PCOD9192931
Probable space group: C 2/M
;
_chemical_formula_sum "Si O2"
_cell_formula_units_Z 40
_cell_length_a 12.865577
_cell_length_b 13.213036
_cell_length_c 15.844993
_cell_angle_alpha 90.000000
_cell_angle_beta 143.026187
_cell_angle_gamma 90.000000
_cell_volume 1620.031382
_symmetry_space_group_name_H-M "C 2/M"
_symmetry_group_IT_number 12
_symmetry_cell_setting 'monoclinic'
loop_
_space_group_symop_operation_xyz
x,y,z
-x,y,-z
-x,-y,-z
x,-y,z
1/2+x,1/2+y,z
1/2-x,1/2+y,-z
1/2-x,1/2-y,-z
1/2+x,1/2-y,z
loop_
_atom_site_type_symbol
_atom_site_label
_atom_site_fract_x
_atom_site_fract_y
_atom_site_fract_z
Si Si1 0.355892 0.110043 0.285183
Si Si2 0.949442 0.713608 0.782101
Si Si3 0.700441 0.610836 0.963801
Si Si4 0.744127 0.112899 0.581325
Si Si5 0.199206 0.678155 0.150711
O O1 0.563430 0.118545 0.414426
O O2 0.309296 0.110763 0.354535
O O3 0.265872 0.207458 0.189007
O O4 0.300560 0.000000 0.218021
O O5 0.856789 0.784134 0.651557
O O6 0.805989 0.662764 0.750675
O O7 0.064019 0.803373 0.901518
O O8 0.105615 0.632746 0.875466
O O9 0.639117 0.500000 0.946132
O O10 0.709864 0.619554 0.866887
O O11 0.819211 0.000000 0.610357
O O12 0.000000 0.663178 0.000000
#
# Coordination Sequence:
#
# PCOD9192931 Si02
#       5
#     8   8   8   8   8
#     4   8  14  25  44  71 100 129 162 199 242 293
#     4   9  18  32  51  73  96 128 168 207 243 288
#     4  10  20  34  52  74 100 132 168 202 244 298
#     4   8  13  25  47  71  96 129 164 199 244 292
#     4   9  18  31  48  74 102 130 163 203 247 290
#
# _framework density 24.69088
#
# number of rings (size 3 to 8) (size 9 to 14) (size 15 to 20)
#    0.000    3.200    0.000    1.800    0.000    4.800 
#    0.000   12.000    0.000    1.200    0.000    9.800 
#    0.000    0.000    0.000    0.000    0.000    0.000 
#
# Total GULP energy -111384.163850 kJ/mol
# GULP energy per Si atom -5569.208192 kJ/mol
# Density = 2.463468 g / cm^3
# Si number density = 24.690880 Si / 1000 Ang^3
#
#
#
# Elastic Constant Matrix: (Units=GPa)
#
#
# Indices 1 2 3 4 5 6 
#
# 1 74.8859 -6.5646 -11.4797 0.0001 2.3284 0.0000
# 2 -6.5646 78.5936 -4.3356 0.0001 -6.0386 0.0001
# 3 -11.4797 -4.3356 69.3343 0.0003 7.3625 0.0002
# 4 0.0001 0.0001 0.0003 27.2509 0.0002 -3.2991
# 5 2.3284 -6.0386 7.3625 0.0002 22.8194 0.0001
# 6 0.0000 0.0001 0.0002 -3.2991 0.0001 21.5981
#
#
#
# Elastic Compliance Matrix: (Units=1/GPa)
#
#
# Indices 1 2 3 4 5 6 
#
# 1 0.013911 0.001155 0.002582 0.000000 -0.001947 0.000000
# 2 0.001155 0.013098 0.000678 0.000000 0.003129 0.000000
# 3 0.002582 0.000678 0.015430 0.000000 -0.005063 0.000000
# 4 0.000000 0.000000 0.000000 0.037387 0.000000 0.005711
# 5 -0.001947 0.003129 -0.005063 0.000000 0.046482 0.000000
# 6 0.000000 0.000000 0.000000 0.005711 0.000000 0.047173
#
#
# Mechanical properties :
#
#
# Convention : Reuss Voigt Hill
#
# Bulk Modulus (GPa) = 19.50473 19.78378 19.64425
# Shear Modulus (GPa) = 27.51150 30.67993 29.09572
#
# Velocity S-wave (km/s) = 3.34164 3.52882 3.43651
# Velocity P-wave (km/s) = 4.77551 4.96321 4.87026
#
# Compressibility (1/GPa) = 0.05126962
#
# Stress axis : x y z
#
# Youngs Moduli (GPa) = 71.88415 76.34766 64.80717
#
# Poissons Ratio (x) = -0.08817 -0.16735
# Poissons Ratio (y) = -0.08301 -0.04393
# Poissons Ratio (z) = -0.18562 -0.05176
#
# Static dielectric constant tensor:
#      x y z
#    x 2.110300 0.000000 -0.061020 
#    y 0.000000 1.927210 0.000000 
#    z -0.061020 0.000000 2.018820 
# 
# From -- ./inp_files/174320.got.cif
#   From: 2010.05.17/outbox.cif.g08.bks.cpg/sg12_88_cif.got.tgz:174320.got - 2010.06.03 13:09:07.
