data_PCOD9192673
_publ_section_title
;
Structure prediction by ZEFSAII (Michael W. Deem and Ramdas Pophale) SiO2 
 PCOD9192673
Probable space group: C 2/M
;
_chemical_formula_sum "Si O2"
_cell_formula_units_Z 64
_cell_length_a 16.283648
_cell_length_b 8.659661
_cell_length_c 20.372577
_cell_angle_alpha 90.000000
_cell_angle_beta 108.442788
_cell_angle_gamma 90.000000
_cell_volume 2725.210216
_symmetry_space_group_name_H-M "C 2/M"
_symmetry_group_IT_number 12
_symmetry_cell_setting 'monoclinic'
loop_
_space_group_symop_operation_xyz
x,y,z
-x,y,-z
-x,-y,-z
x,-y,z
1/2+x,1/2+y,z
1/2-x,1/2+y,-z
1/2-x,1/2-y,-z
1/2+x,1/2-y,z
loop_
_atom_site_type_symbol
_atom_site_label
_atom_site_fract_x
_atom_site_fract_y
_atom_site_fract_z
Si Si1 0.353613 0.186987 0.330721
Si Si2 0.413090 0.684964 0.716394
Si Si3 0.810946 0.320299 0.959530
Si Si4 0.100603 0.316016 0.797589
Si Si5 0.444774 0.679378 0.079624
Si Si6 0.148753 0.819444 0.163967
Si Si7 0.691936 0.183918 0.543150
Si Si8 0.944855 0.317169 0.592725
O O1 0.344700 0.236231 0.252485
O O2 0.301971 0.246101 0.381118
O O3 0.453997 0.219032 0.374779
O O4 0.343119 0.000000 0.326198
O O5 0.428827 0.500000 0.727412
O O6 0.500943 0.780552 0.752040
O O7 0.347098 0.727673 0.758341
O O8 0.393827 0.723158 0.636238
O O9 0.797549 0.500000 0.955199
O O10 0.802041 0.257544 0.883718
O O11 0.750000 0.250000 0.000000
O O12 0.906458 0.278368 0.010982
O O13 0.111950 0.500000 0.810784
O O14 0.107035 0.225946 0.867407
O O15 0.430732 0.500000 0.060260
O O16 0.546098 0.699861 0.121015
O O17 0.170106 0.000000 0.166738
O O18 0.750000 0.250000 0.500000
O O19 0.595932 0.209573 0.488688
O O20 0.706176 0.000000 0.550313
O O21 0.934706 0.500000 0.604114
#
# Coordination Sequence:
#
# PCOD9192673 Si02
#       8
#     8   8   8   8   8   8   8   8
#     4   8  15  30  53  76  98 130 171 212 253 299
#     4   9  17  30  51  79 109 136 163 208 266 313
#     4  12  25  39  56  78 107 142 180 221 263 310
#     4   9  16  29  52  80 105 132 172 217 257 303
#     4  10  20  36  58  83 112 142 172 213 263 313
#     4   9  19  36  57  81 109 140 173 212 261 314
#     4  10  20  34  50  71 101 135 171 211 258 308
#     4   9  17  31  53  76  98 130 174 217 251 298
#
# _framework density 23.484425999999999
#
# number of rings (size 3 to 8) (size 9 to 14) (size 15 to 20)
#    0.000    2.500    0.000    4.500    0.000    6.500 
#    0.000    4.375    0.000    8.250    0.000    0.000 
#    0.000    0.000    0.000    0.000    0.000    0.000 
#
# Total GULP energy -178753.337782 kJ/mol
# GULP energy per Si atom -5586.041806 kJ/mol
# Density = 2.343097 g / cm^3
# Si number density = 23.484426 Si / 1000 Ang^3
#
#
#
# Elastic Constant Matrix: (Units=GPa)
#
#
# Indices 1 2 3 4 5 6 
#
# 1 78.1977 15.9786 41.3649 0.0000 -24.6282 0.0000
# 2 15.9786 41.0371 41.3219 0.0000 -16.7845 0.0000
# 3 41.3649 41.3219 186.7026 0.0000 -37.4973 0.0000
# 4 0.0000 0.0000 0.0000 31.1373 0.0000 -7.8982
# 5 -24.6282 -16.7845 -37.4973 0.0000 51.0924 0.0000
# 6 0.0000 0.0000 0.0000 -7.8982 0.0000 20.1758
#
#
#
# Elastic Compliance Matrix: (Units=1/GPa)
#
#
# Indices 1 2 3 4 5 6 
#
# 1 0.016005 -0.001929 -0.001990 0.000000 0.005621 0.000000
# 2 -0.001929 0.033303 -0.005786 0.000000 0.005764 0.000000
# 3 -0.001990 -0.005786 0.007627 0.000000 0.002738 0.000000
# 4 0.000000 0.000000 0.000000 0.035657 0.000000 0.013958
# 5 0.005621 0.005764 0.002738 0.000000 0.026185 0.000000
# 6 0.000000 0.000000 0.000000 0.013958 0.000000 0.055029
#
#
# Mechanical properties :
#
#
# Convention : Reuss Voigt Hill
#
# Bulk Modulus (GPa) = 26.64841 55.91868 41.28355
# Shear Modulus (GPa) = 24.30447 34.29924 29.30185
#
# Velocity S-wave (km/s) = 3.22051 3.82581 3.53613
# Velocity P-wave (km/s) = 5.02004 6.58623 5.85573
#
# Compressibility (1/GPa) = 0.03752569
#
# Stress axis : x y z
#
# Youngs Moduli (GPa) = 62.47934 30.02759 131.10565
#
# Poissons Ratio (x) = 0.05792 0.26094
# Poissons Ratio (y) = 0.12052 0.75853
# Poissons Ratio (z) = 0.12435 0.17373
#
# Static dielectric constant tensor:
#      x y z
#    x 2.000890 0.000000 0.044050 
#    y 0.000000 1.794750 0.000000 
#    z 0.044050 0.000000 2.007230 
# 
# From -- ./inp_files/314024.got.cif
#   From: 2010.05.17/outbox.cif.g08.bks.cpg/sg12_158_cif.got.tgz:314024.got - 2010.06.03 13:09:07.
