data_PCOD9192463
_publ_section_title
;
Structure prediction by ZEFSAII (Michael W. Deem and Ramdas Pophale) SiO2 
 PCOD9192463
Probable space group: C 2/M
;
_chemical_formula_sum "Si O2"
_cell_formula_units_Z 64
_cell_length_a 21.671343
_cell_length_b 10.593540
_cell_length_c 22.104449
_cell_angle_alpha 90.000000
_cell_angle_beta 39.412410
_cell_angle_gamma 90.000000
_cell_volume 3221.888448
_symmetry_space_group_name_H-M "C 2/M"
_symmetry_group_IT_number 12
_symmetry_cell_setting 'monoclinic'
loop_
_space_group_symop_operation_xyz
x,y,z
-x,y,-z
-x,-y,-z
x,-y,z
1/2+x,1/2+y,z
1/2-x,1/2+y,-z
1/2-x,1/2-y,-z
1/2+x,1/2-y,z
loop_
_atom_site_type_symbol
_atom_site_label
_atom_site_fract_x
_atom_site_fract_y
_atom_site_fract_z
Si Si1 0.385985 0.225216 0.772770
Si Si2 0.517882 0.359799 0.185495
Si Si3 0.200806 0.849681 0.277043
Si Si4 0.628759 0.858767 0.688571
Si Si5 0.109625 0.651639 0.929923
Si Si6 0.147247 0.854424 0.445071
Si Si7 0.197805 0.209119 0.976641
Si Si8 0.086375 0.638571 0.582654
O O1 0.429425 0.313268 0.792927
O O2 0.354839 0.312413 0.741054
O O3 0.289961 0.155046 0.870153
O O4 0.472788 0.138285 0.685227
O O5 0.476197 0.500000 0.224325
O O6 0.438427 0.251318 0.234118
O O7 0.602284 0.362494 0.071272
O O8 0.311716 0.805024 0.180328
O O9 0.141333 0.806017 0.380672
O O10 0.206053 0.000000 0.280246
O O11 0.736561 0.857901 0.632586
O O12 0.636294 0.840632 0.610280
O O13 0.586397 0.000000 0.730978
O O14 0.106992 0.500000 0.929799
O O15 0.153319 0.690111 0.962393
O O16 0.000000 0.698057 0.000000
O O17 0.105114 0.754617 0.524013
O O18 0.110725 0.000000 0.479505
O O19 0.250000 0.250000 0.000000
O O20 0.116299 0.500000 0.536671
#
# Coordination Sequence:
#
# PCOD9192463 Si02
#       8
#     8   8   8   8   8   8   8   8
#     4   9  19  37  54  77 111 150 186 230 280 332
#     4  10  20  33  56  86 113 146 187 231 279 335
#     4   9  18  33  53  80 111 142 183 232 281 332
#     4   9  20  37  56  81 113 145 182 231 284 337
#     4   9  18  32  55  85 114 150 192 241 293 342
#     4  10  21  36  57  83 110 143 183 232 285 336
#     4   9  19  33  52  82 117 153 190 234 286 343
#     4  10  21  37  57  81 109 145 188 232 282 336
#
# _framework density 19.864125999999999
#
# number of rings (size 3 to 8) (size 9 to 14) (size 15 to 20)
#    0.000    2.625    0.000    0.750    1.750    7.500 
#    0.000    7.500    0.000    1.125    0.000    0.000 
#    0.000    0.000    0.000    0.000    0.000    0.000 
#
# Total GULP energy -178175.631668 kJ/mol
# GULP energy per Si atom -5567.988490 kJ/mol
# Density = 1.981891 g / cm^3
# Si number density = 19.864126 Si / 1000 Ang^3
#
#
#
# Elastic Constant Matrix: (Units=GPa)
#
#
# Indices 1 2 3 4 5 6 
#
# 1 38.2039 -3.7268 13.0691 0.0000 0.0076 0.0000
# 2 -3.7268 90.9682 45.0955 0.0000 4.6696 0.0000
# 3 13.0691 45.0955 57.8183 0.0000 9.8273 0.0000
# 4 0.0000 0.0000 0.0000 17.2713 0.0000 -1.3463
# 5 0.0076 4.6696 9.8273 0.0000 20.2726 0.0000
# 6 0.0000 0.0000 0.0000 -1.3463 0.0000 1.4836
#
#
#
# Elastic Compliance Matrix: (Units=1/GPa)
#
#
# Indices 1 2 3 4 5 6 
#
# 1 0.031947 0.008246 -0.014524 0.000000 0.005130 0.000000
# 2 0.008246 0.020207 -0.018344 0.000000 0.004235 0.000000
# 3 -0.014524 -0.018344 0.037235 0.000000 -0.013819 0.000000
# 4 0.000000 0.000000 0.000000 0.062307 0.000000 0.056542
# 5 0.005130 0.004235 -0.013819 0.000000 0.055049 0.000000
# 6 0.000000 0.000000 0.000000 0.056542 0.000000 0.725339
#
#
# Mechanical properties :
#
#
# Convention : Reuss Voigt Hill
#
# Bulk Modulus (GPa) = 24.91056 32.87400 28.89228
# Shear Modulus (GPa) = 5.02658 16.64234 10.83446
#
# Velocity S-wave (km/s) = 1.59247 2.89763 2.33798
# Velocity P-wave (km/s) = 3.99362 5.27071 4.67597
#
# Compressibility (1/GPa) = 0.04014361
#
# Stress axis : x y z
#
# Youngs Moduli (GPa) = 31.30154 49.48800 26.85650
#
# Poissons Ratio (x) = -0.40806 0.39007
# Poissons Ratio (y) = -0.25810 0.49266
# Poissons Ratio (z) = 0.45463 0.90781
#
# Static dielectric constant tensor:
#      x y z
#    x 1.731860 0.000000 -0.005520 
#    y 0.000000 1.668950 0.000000 
#    z -0.005520 0.000000 1.742580 
# 
# From -- ./inp_files/321259.got.cif
#   From: 2010.05.17/outbox.cif.g08.bks.cpg/sg12_161_cif.got.tgz:321259.got - 2010.06.03 13:09:07.
