data_PCOD9192969
_publ_section_title
;
Structure prediction by ZEFSAII (Michael W. Deem and Ramdas Pophale) SiO2 
 PCOD9192969
Probable space group: C 2/M
;
_chemical_formula_sum "Si O2"
_cell_formula_units_Z 64
_cell_length_a 25.742332
_cell_length_b 14.778055
_cell_length_c 15.547219
_cell_angle_alpha 90.000000
_cell_angle_beta 147.185711
_cell_angle_gamma 90.000000
_cell_volume 3205.171822
_symmetry_space_group_name_H-M "C 2/M"
_symmetry_group_IT_number 12
_symmetry_cell_setting 'monoclinic'
loop_
_space_group_symop_operation_xyz
x,y,z
-x,y,-z
-x,-y,-z
x,-y,z
1/2+x,1/2+y,z
1/2-x,1/2+y,-z
1/2-x,1/2-y,-z
1/2+x,1/2-y,z
loop_
_atom_site_type_symbol
_atom_site_label
_atom_site_fract_x
_atom_site_fract_y
_atom_site_fract_z
Si Si1 0.359488 0.603239 0.149863
Si Si2 0.591584 0.603236 0.449047
Si Si3 0.084087 0.398199 0.351860
Si Si4 0.883291 0.792240 0.348518
Si Si5 0.807568 0.897246 0.698618
Si Si6 0.410991 0.099820 0.441498
Si Si7 0.136334 0.893736 0.032747
Si Si8 0.561702 0.711569 0.241090
O O1 0.330960 0.500000 0.131270
O O2 0.475826 0.603547 0.301456
O O3 0.338106 0.669823 0.198396
O O4 0.321350 0.628225 0.002435
O O5 0.620649 0.500000 0.472839
O O6 0.636850 0.642874 0.598710
O O7 0.609626 0.667621 0.393314
O O8 0.054999 0.500000 0.286417
O O9 0.199741 0.393599 0.514227
O O10 0.055857 0.385219 0.413428
O O11 0.049963 0.317308 0.244151
O O12 0.858221 0.690129 0.338045
O O13 0.000000 0.793954 0.500000
O O14 0.872775 0.821393 0.745931
O O15 0.845607 0.000000 0.734416
O O16 0.805764 0.885191 0.798678
O O17 0.500000 0.093845 0.500000
O O18 0.362775 0.000000 0.371844
O O19 0.041202 0.834735 0.912013
O O20 0.108330 0.000000 0.986501
#
# Coordination Sequence:
#
# PCOD9192969 Si02
#       8
#     8   8   8   8   8   8   8   8
#     4   8  14  23  38  63  94 123 154 188 238 299
#     4   9  15  22  36  65  98 123 151 193 246 298
#     4  10  21  35  50  74 104 133 171 215 257 298
#     4   9  14  22  38  61  92 125 148 197 249 295
#     4  10  20  34  52  74 106 138 165 206 259 309
#     4   9  17  29  45  67  93 125 168 213 250 286
#     4   9  18  31  50  77 105 133 166 206 252 308
#     4  11  18  30  50  77 100 132 169 212 249 296
#
# _framework density 19.967728999999999
#
# number of rings (size 3 to 8) (size 9 to 14) (size 15 to 20)
#    0.000    2.625    1.250    3.000    1.750    2.500 
#    0.000    0.000    0.000    2.250    0.000    0.000 
#    0.000    0.000    0.000    0.000    0.000    0.000 
#
# Total GULP energy -178494.808013 kJ/mol
# GULP energy per Si atom -5577.962750 kJ/mol
# Density = 1.992228 g / cm^3
# Si number density = 19.967729 Si / 1000 Ang^3
#
#
#
# Elastic Constant Matrix: (Units=GPa)
#
#
# Indices 1 2 3 4 5 6 
#
# 1 55.2626 46.9486 8.3304 0.0000 -18.0165 0.0000
# 2 46.9486 113.2623 22.0821 0.0000 -15.9371 0.0000
# 3 8.3304 22.0821 35.9749 0.0000 -11.3324 0.0000
# 4 0.0000 0.0000 0.0000 10.6391 0.0000 -10.3879
# 5 -18.0165 -15.9371 -11.3324 0.0000 23.2215 0.0000
# 6 0.0000 0.0000 0.0000 -10.3879 0.0000 27.1300
#
#
#
# Elastic Compliance Matrix: (Units=1/GPa)
#
#
# Indices 1 2 3 4 5 6 
#
# 1 0.034953 -0.012723 0.006508 0.000000 0.021563 0.000000
# 2 -0.012723 0.015091 -0.007284 0.000000 -0.003069 0.000000
# 3 0.006508 -0.007284 0.036368 0.000000 0.017799 0.000000
# 4 0.000000 0.000000 0.000000 0.150114 0.000000 0.057478
# 5 0.021563 -0.003069 0.017799 0.000000 0.066373 0.000000
# 6 0.000000 0.000000 0.000000 0.057478 0.000000 0.058868
#
#
# Mechanical properties :
#
#
# Convention : Reuss Voigt Hill
#
# Bulk Modulus (GPa) = 16.83081 39.91358 28.37219
# Shear Modulus (GPa) = 12.23782 20.67402 16.45592
#
# Velocity S-wave (km/s) = 2.47833 3.22121 2.87387
# Velocity P-wave (km/s) = 4.07882 5.81957 5.02514
#
# Compressibility (1/GPa) = 0.05941486
#
# Stress axis : x y z
#
# Youngs Moduli (GPa) = 28.60946 66.26297 27.49694
#
# Poissons Ratio (x) = 0.84310 -0.17896
# Poissons Ratio (y) = 0.36401 0.20028
# Poissons Ratio (z) = -0.18620 0.48265
#
# Static dielectric constant tensor:
#      x y z
#    x 1.716380 0.000000 -0.003400 
#    y 0.000000 1.718300 0.000000 
#    z -0.003400 0.000000 1.710360 
# 
# From -- ./inp_files/246370.got.cif
#   From: 2010.05.17/outbox.cif.g08.bks.cpg/sg12_124_cif.got.tgz:246370.got - 2010.06.03 13:09:07.
