data_PCOD9192677
_publ_section_title
;
Structure prediction by ZEFSAII (Michael W. Deem and Ramdas Pophale) SiO2 
 PCOD9192677
Probable space group: C 2/M
;
_chemical_formula_sum "Si O2"
_cell_formula_units_Z 64
_cell_length_a 8.062867
_cell_length_b 30.635206
_cell_length_c 14.840451
_cell_angle_alpha 90.000000
_cell_angle_beta 116.583997
_cell_angle_gamma 90.000000
_cell_volume 3278.163125
_symmetry_space_group_name_H-M "C 2/M"
_symmetry_group_IT_number 12
_symmetry_cell_setting 'monoclinic'
loop_
_space_group_symop_operation_xyz
x,y,z
-x,y,-z
-x,-y,-z
x,-y,z
1/2+x,1/2+y,z
1/2-x,1/2+y,-z
1/2-x,1/2-y,-z
1/2+x,1/2-y,z
loop_
_atom_site_type_symbol
_atom_site_label
_atom_site_fract_x
_atom_site_fract_y
_atom_site_fract_z
Si Si1 0.685341 0.947024 0.926625
Si Si2 0.459666 0.850761 0.355446
Si Si3 0.888492 0.816183 0.313386
Si Si4 0.061263 0.051368 0.664844
Si Si5 0.116855 0.612038 0.219565
Si Si6 0.195841 0.880201 0.443452
Si Si7 0.373850 0.762606 0.617282
Si Si8 0.502299 0.447852 0.141117
O O1 0.502792 0.917360 0.877423
O O2 0.809228 0.937738 0.866974
O O3 0.647048 0.000000 0.921665
O O4 0.822328 0.933441 0.040904
O O5 0.478066 0.864912 0.256722
O O6 0.292234 0.871691 0.369855
O O7 0.647235 0.868214 0.448163
O O8 0.470317 0.798571 0.371637
O O9 0.758142 0.848993 0.223972
O O10 0.754862 0.789366 0.346427
O O11 0.022162 0.847809 0.402477
O O12 0.027459 0.778790 0.312161
O O13 0.252502 0.077013 0.696977
O O14 0.012368 0.062521 0.757700
O O15 0.891160 0.072061 0.568850
O O16 0.079890 0.000000 0.657980
O O17 0.250000 0.750000 0.500000
O O18 0.492341 0.500000 0.133277
#
# Coordination Sequence:
#
# PCOD9192677 Si02
#       8
#     8   8   8   8   8   8   8   8
#     4   9  16  31  53  78 106 138 171 212 258 304
#     4  10  21  34  50  71  99 135 166 218 257 307
#     4  10  21  31  47  74 100 131 162 208 255 312
#     4  10  20  34  50  71 103 141 173 214 255 297
#     4  10  21  32  47  72 109 136 170 208 256 304
#     4  10  20  35  50  70 100 133 176 214 259 296
#     4  11  19  29  51  71  97 129 163 203 263 309
#     4   8  16  30  53  79 102 131 174 218 261 302
#
# _framework density 19.523128
#
# number of rings (size 3 to 8) (size 9 to 14) (size 15 to 20)
#    0.000    2.250    1.250    3.000    3.500    2.000 
#    0.000    5.625    0.000    0.000    0.000    0.000 
#    0.000  122.000    0.000    0.000    0.000    0.000 
#
# Total GULP energy -178392.299067 kJ/mol
# GULP energy per Si atom -5574.759346 kJ/mol
# Density = 1.947869 g / cm^3
# Si number density = 19.523128 Si / 1000 Ang^3
#
#
#
# Elastic Constant Matrix: (Units=GPa)
#
#
# Indices 1 2 3 4 5 6 
#
# 1 76.3788 34.6333 10.0422 0.0000 13.9057 0.0000
# 2 34.6333 120.5827 26.7745 0.0000 21.6753 0.0000
# 3 10.0422 26.7745 32.8459 0.0000 18.4273 0.0000
# 4 0.0000 0.0000 0.0000 23.1145 0.0000 15.7620
# 5 13.9057 21.6753 18.4273 0.0000 29.5975 0.0000
# 6 0.0000 0.0000 0.0000 15.7620 0.0000 38.5282
#
#
#
# Elastic Compliance Matrix: (Units=1/GPa)
#
#
# Indices 1 2 3 4 5 6 
#
# 1 0.015628 -0.003822 0.001362 0.000000 -0.005392 0.000000
# 2 -0.003822 0.011302 -0.006774 0.000000 -0.002263 0.000000
# 3 0.001362 -0.006774 0.050909 0.000000 -0.027374 0.000000
# 4 0.000000 0.000000 0.000000 0.060002 0.000000 -0.024547
# 5 -0.005392 -0.002263 -0.027374 0.000000 0.055021 0.000000
# 6 0.000000 0.000000 0.000000 -0.024547 0.000000 0.035997
#
#
# Mechanical properties :
#
#
# Convention : Reuss Voigt Hill
#
# Bulk Modulus (GPa) = 16.84343 41.41195 29.12769
# Shear Modulus (GPa) = 18.71842 28.80519 23.76180
#
# Velocity S-wave (km/s) = 3.09978 3.84531 3.49250
# Velocity P-wave (km/s) = 4.63224 6.40102 5.58707
#
# Compressibility (1/GPa) = 0.05937034
#
# Stress axis : x y z
#
# Youngs Moduli (GPa) = 63.98697 88.48104 19.64303
#
# Poissons Ratio (x) = 0.33817 -0.02676
# Poissons Ratio (y) = 0.24456 0.13307
# Poissons Ratio (z) = -0.08717 0.59941
#
# Static dielectric constant tensor:
#      x y z
#    x 1.770830 0.000000 -0.031040 
#    y 0.000000 1.707730 0.000000 
#    z -0.031040 0.000000 1.703930 
# 
# From -- ./inp_files/200947.got.cif
#   From: 2010.05.17/outbox.cif.g08.bks.cpg/sg12_101_cif.got.tgz:200947.got - 2010.06.03 13:09:07.
