data_PCOD9192589
_publ_section_title
;
Structure prediction by ZEFSAII (Michael W. Deem and Ramdas Pophale) SiO2 
 PCOD9192589
Probable space group: C 2/M
;
_chemical_formula_sum "Si O2"
_cell_formula_units_Z 58
_cell_length_a 29.889251
_cell_length_b 20.492680
_cell_length_c 16.509171
_cell_angle_alpha 90.000000
_cell_angle_beta 161.943675
_cell_angle_gamma 90.000000
_cell_volume 3134.246876
_symmetry_space_group_name_H-M "C 2/M"
_symmetry_group_IT_number 12
_symmetry_cell_setting 'monoclinic'
loop_
_space_group_symop_operation_xyz
x,y,z
-x,y,-z
-x,-y,-z
x,-y,z
1/2+x,1/2+y,z
1/2-x,1/2+y,-z
1/2-x,1/2-y,-z
1/2+x,1/2-y,z
loop_
_atom_site_type_symbol
_atom_site_label
_atom_site_fract_x
_atom_site_fract_y
_atom_site_fract_z
Si Si1 0.000654 0.307733 0.594269
Si Si2 0.190220 0.808623 0.146184
Si Si3 0.329126 0.756436 0.721376
Si Si4 0.005534 0.841841 0.418895
Si Si5 0.029921 0.924985 0.793504
Si Si6 0.000000 0.500000 0.000000
Si Si7 0.846336 0.329015 0.984182
Si Si8 0.695108 0.896864 0.240563
O O1 0.055460 0.231989 0.686382
O O2 0.000000 0.330651 0.500000
O O3 0.840098 0.312216 0.355036
O O4 0.098643 0.341621 0.830892
O O5 0.214657 0.794006 0.282987
O O6 0.110086 0.743954 0.971298
O O7 0.101484 0.874604 0.979586
O O8 0.250000 0.750000 0.500000
O O9 0.292511 0.826739 0.695549
O O10 0.500000 0.750994 0.000000
O O11 0.938098 0.890340 0.237838
O O12 0.000000 0.868106 0.500000
O O13 0.173013 0.831155 0.685452
O O14 0.856668 0.923160 0.505253
O O15 0.078810 0.000000 0.882752
O O16 0.102321 0.443912 0.134980
O O17 0.885414 0.381839 0.983442
#
# Coordination Sequence:
#
# PCOD9192589 Si02
#       8
#     8   8   8   8   8   2   8   8
#     4  10  20  33  60  89 118 156 194 248 309 355
#     4  10  22  35  59  86 124 151 195 253 299 356
#     4  11  23  38  65  93 119 153 201 251 314 361
#     4   9  19  31  55  88 117 153 199 247 294 350
#     4  11  21  38  58  81 123 160 196 235 306 359
#     4  12  20  40  60  92 118 148 204 236 302 366
#     4   9  19  35  55  88 119 143 198 250 298 341
#     4  10  22  37  62  88 113 155 190 254 293 354
#
# _framework density 18.505243
#
# number of rings (size 3 to 8) (size 9 to 14) (size 15 to 20)
#    0.000    1.931    2.759    1.655    5.793    1.931 
#    0.000    0.000    6.069    1.655    0.000    0.000 
#    0.000    0.000    0.000    0.000    0.000    0.000 
#
# Total GULP energy -161486.765338 kJ/mol
# GULP energy per Si atom -5568.509150 kJ/mol
# Density = 1.846312 g / cm^3
# Si number density = 18.505243 Si / 1000 Ang^3
#
#
#
# Elastic Constant Matrix: (Units=GPa)
#
#
# Indices 1 2 3 4 5 6 
#
# 1 109.2061 30.3491 27.7933 0.0000 -29.2502 0.0000
# 2 30.3491 102.4268 26.6051 0.0000 -15.6772 0.0000
# 3 27.7933 26.6051 50.8433 0.0000 -23.8641 0.0000
# 4 0.0000 0.0000 0.0000 45.9991 0.0000 53.3772
# 5 -29.2502 -15.6772 -23.8641 0.0000 35.9357 0.0000
# 6 0.0000 0.0000 0.0000 53.3772 0.0000 79.1452
#
#
#
# Elastic Compliance Matrix: (Units=1/GPa)
#
#
# Indices 1 2 3 4 5 6 
#
# 1 0.012306 -0.001916 -0.002056 0.000000 0.007815 0.000000
# 2 -0.001916 0.011650 -0.004933 0.000000 0.000247 0.000000
# 3 -0.002056 -0.004933 0.031349 0.000000 0.016993 0.000000
# 4 0.000000 0.000000 0.000000 0.099996 0.000000 -0.067440
# 5 0.007815 0.000247 0.016993 0.000000 0.045581 0.000000
# 6 0.000000 0.000000 0.000000 -0.067440 0.000000 0.058118
#
#
# Mechanical properties :
#
#
# Convention : Reuss Voigt Hill
#
# Bulk Modulus (GPa) = 26.67009 47.99679 37.33344
# Shear Modulus (GPa) = 17.28256 44.06459 30.67358
#
# Velocity S-wave (km/s) = 3.05934 4.88504 4.07573
# Velocity P-wave (km/s) = 5.18873 7.60338 6.50900
#
# Compressibility (1/GPa) = 0.03749518
#
# Stress axis : x y z
#
# Youngs Moduli (GPa) = 81.26076 85.83791 31.89861
#
# Poissons Ratio (x) = 0.16447 0.06559
# Poissons Ratio (y) = 0.15570 0.15735
# Poissons Ratio (z) = 0.16709 0.42342
#
# Static dielectric constant tensor:
#      x y z
#    x 1.673910 0.000000 -0.007260 
#    y 0.000000 1.620310 0.000000 
#    z -0.007260 0.000000 1.663480 
# 
# From -- ./inp_files/247314.got.cif
#   From: 2010.05.17/outbox.cif.g08.bks.cpg/sg12_124_cif.got.tgz:247314.got - 2010.06.03 13:09:07.
