data_PCOD9192896
_publ_section_title
;
Structure prediction by ZEFSAII (Michael W. Deem and Ramdas Pophale) SiO2 
 PCOD9192896
Probable space group: C 2/M
;
_chemical_formula_sum "Si O2"
_cell_formula_units_Z 56
_cell_length_a 15.067268
_cell_length_b 7.705884
_cell_length_c 30.974503
_cell_angle_alpha 90.000000
_cell_angle_beta 128.216464
_cell_angle_gamma 90.000000
_cell_volume 2825.573188
_symmetry_space_group_name_H-M "C 2/M"
_symmetry_group_IT_number 12
_symmetry_cell_setting 'monoclinic'
loop_
_space_group_symop_operation_xyz
x,y,z
-x,y,-z
-x,-y,-z
x,-y,z
1/2+x,1/2+y,z
1/2-x,1/2+y,-z
1/2-x,1/2-y,-z
1/2+x,1/2-y,z
loop_
_atom_site_type_symbol
_atom_site_label
_atom_site_fract_x
_atom_site_fract_y
_atom_site_fract_z
Si Si1 0.145032 0.291006 0.937407
Si Si2 0.447844 0.789778 0.938439
Si Si3 0.453280 0.788985 0.268727
Si Si4 0.326109 0.707087 0.563867
Si Si5 0.811413 0.294918 0.144640
Si Si6 0.417935 0.706351 0.355594
Si Si7 0.789377 0.704692 0.649276
O O1 0.140484 0.500000 0.933555
O O2 0.157423 0.220641 0.892914
O O3 0.032386 0.229789 0.926858
O O4 0.250000 0.250000 0.000000
O O5 0.322367 0.727119 0.892293
O O6 0.445548 0.000000 0.938533
O O7 0.500000 0.732714 0.000000
O O8 0.379176 0.725857 0.206145
O O9 0.403190 0.733707 0.299890
O O10 0.583505 0.726506 0.303978
O O11 0.454695 0.000000 0.269616
O O12 0.332775 0.500000 0.570403
O O13 0.250000 0.750000 0.500000
O O14 0.455006 0.775080 0.597016
O O15 0.274384 0.774988 0.593273
O O16 0.837041 0.500000 0.151172
O O17 0.422194 0.500000 0.365299
O O18 0.314550 0.776654 0.353542
O O19 0.794803 0.500000 0.660855
#
# Coordination Sequence:
#
# PCOD9192896 Si02
#       7
#     8   8   8   8   8   8   8
#     4  10  20  34  52  73 100 131 165 205 253 308
#     4  10  20  34  52  75 100 129 167 208 252 305
#     4   9  19  35  53  75 103 132 170 215 260 311
#     4  10  20  34  52  79 113 144 179 218 258 305
#     4  10  21  35  52  76 103 134 168 208 259 314
#     4   9  19  35  56  79 103 138 179 217 259 306
#     4   9  18  35  57  77 102 139 177 216 261 307
#
# _framework density 19.818987
#
# number of rings (size 3 to 8) (size 9 to 14) (size 15 to 20)
#    0.000    2.429    1.429    0.429    0.000    4.286 
#    0.000    5.714    0.000    0.000    0.000    0.000 
#    0.000    0.000    0.000    0.000    0.000    0.000 
#
# Total GULP energy -156201.954426 kJ/mol
# GULP energy per Si atom -5578.641230 kJ/mol
# Density = 1.977388 g / cm^3
# Si number density = 19.818987 Si / 1000 Ang^3
#
#
#
# Elastic Constant Matrix: (Units=GPa)
#
#
# Indices 1 2 3 4 5 6 
#
# 1 201.8112 -4.1406 91.2236 0.0000 -12.1036 0.0000
# 2 -4.1406 25.4342 -16.0510 0.0000 3.6622 0.0000
# 3 91.2236 -16.0510 170.6360 0.0000 -10.6114 0.0000
# 4 0.0000 0.0000 0.0000 21.1021 0.0000 -2.7660
# 5 -12.1036 3.6622 -10.6114 0.0000 13.1648 0.0000
# 6 0.0000 0.0000 0.0000 -2.7660 0.0000 12.3364
#
#
#
# Elastic Compliance Matrix: (Units=1/GPa)
#
#
# Indices 1 2 3 4 5 6 
#
# 1 0.006744 -0.001678 -0.003525 0.000000 0.003825 0.000000
# 2 -0.001678 0.043231 0.004337 0.000000 -0.010073 0.000000
# 3 -0.003525 0.004337 0.008292 0.000000 0.002236 0.000000
# 4 0.000000 0.000000 0.000000 0.048823 0.000000 0.010947
# 5 0.003825 -0.010073 0.002236 0.000000 0.084082 0.000000
# 6 0.000000 0.000000 0.000000 0.010947 0.000000 0.083515
#
#
# Mechanical properties :
#
#
# Convention : Reuss Voigt Hill
#
# Bulk Modulus (GPa) = 17.68796 59.99394 38.84095
# Shear Modulus (GPa) = 16.93402 31.11064 24.02233
#
# Velocity S-wave (km/s) = 2.92624 3.96629 3.48528
# Velocity P-wave (km/s) = 4.51235 7.16324 5.98637
#
# Compressibility (1/GPa) = 0.05653565
#
# Stress axis : x y z
#
# Youngs Moduli (GPa) = 148.28983 23.13137 120.59804
#
# Poissons Ratio (x) = 0.03880 0.42512
# Poissons Ratio (y) = 0.24877 -0.52304
# Poissons Ratio (z) = 0.52273 -0.10032
#
# Static dielectric constant tensor:
#      x y z
#    x 1.695480 0.000000 0.001210 
#    y 0.000000 1.773720 0.000000 
#    z 0.001210 0.000000 1.673730 
# 
# From -- ./inp_files/337833.got.cif
#   From: 2010.05.17/outbox.cif.g08.bks.cpg/sg12_169_cif.got.tgz:337833.got - 2010.06.03 13:09:07.
