data_PCOD9192776
_publ_section_title
;
Structure prediction by ZEFSAII (Michael W. Deem and Ramdas Pophale) SiO2 
 PCOD9192776
Probable space group: C 2/M
;
_chemical_formula_sum "Si O2"
_cell_formula_units_Z 64
_cell_length_a 29.158949
_cell_length_b 8.861093
_cell_length_c 21.454009
_cell_angle_alpha 90.000000
_cell_angle_beta 47.736722
_cell_angle_gamma 90.000000
_cell_volume 4102.380080
_symmetry_space_group_name_H-M "C 2/M"
_symmetry_group_IT_number 12
_symmetry_cell_setting 'monoclinic'
loop_
_space_group_symop_operation_xyz
x,y,z
-x,y,-z
-x,-y,-z
x,-y,z
1/2+x,1/2+y,z
1/2-x,1/2+y,-z
1/2-x,1/2-y,-z
1/2+x,1/2-y,z
loop_
_atom_site_type_symbol
_atom_site_label
_atom_site_fract_x
_atom_site_fract_y
_atom_site_fract_z
Si Si1 0.357725 0.818198 0.178927
Si Si2 0.398380 0.681192 0.599253
Si Si3 0.773941 0.319154 0.668107
Si Si4 0.560622 0.819217 0.666381
Si Si5 0.800093 0.681540 0.500870
Si Si6 0.541687 0.679159 0.818723
Si Si7 0.051492 0.326955 0.008035
Si Si8 0.503281 0.318864 0.599301
O O1 0.289155 0.756520 0.251117
O O2 0.402695 0.750664 0.191004
O O3 0.387036 0.776706 0.084743
O O4 0.359675 0.000000 0.181642
O O5 0.389370 0.500000 0.607384
O O6 0.333438 0.764023 0.652201
O O7 0.441373 0.718025 0.499970
O O8 0.439635 0.720277 0.621904
O O9 0.768564 0.500000 0.675515
O O10 0.785934 0.273948 0.584975
O O11 0.630569 0.773759 0.582508
O O12 0.544841 0.745306 0.746706
O O13 0.515887 0.763581 0.652252
O O14 0.558723 0.000000 0.673388
O O15 0.796688 0.500000 0.500786
O O16 0.750000 0.750000 0.500000
O O17 0.548554 0.500000 0.811837
O O18 0.477851 0.726366 0.911276
O O19 0.058467 0.500000 0.023424
O O20 0.000000 0.328553 0.000000
O O21 0.504210 0.500000 0.607339
#
# Coordination Sequence:
#
# PCOD9192776 Si02
#       8
#     8   8   8   8   8   8   8   8
#     4  10  20  34  51  72  99 133 168 202 246 294
#     4   9  18  33  52  72  96 127 162 204 253 296
#     4  11  21  33  48  72 100 129 169 206 243 289
#     4  11  21  34  49  69  98 133 169 202 246 293
#     4  10  22  34  44  63  93 131 168 200 234 279
#     4  11  21  32  49  74 101 130 166 206 247 290
#     4   8  16  32  51  70  95 127 163 202 245 293
#     4   9  18  33  52  73  95 124 165 208 249 292
#
# _framework density 15.600699000000001
#
# number of rings (size 3 to 8) (size 9 to 14) (size 15 to 20)
#    0.000    2.125    1.250    4.500    0.000    7.250 
#    0.000    1.250    0.000    0.000    0.000    0.875 
#    0.000    0.000    0.000    0.000    0.000    0.000 
#
# Total GULP energy -178545.113724 kJ/mol
# GULP energy per Si atom -5579.534804 kJ/mol
# Density = 1.556519 g / cm^3
# Si number density = 15.600699 Si / 1000 Ang^3
#
#
#
# Elastic Constant Matrix: (Units=GPa)
#
#
# Indices 1 2 3 4 5 6 
#
# 1 105.5001 46.9959 69.2433 0.0026 -3.8601 -0.0013
# 2 46.9959 60.5345 58.0431 0.0006 -2.2374 0.0028
# 3 69.2433 58.0431 134.6880 0.0043 -7.0214 -0.0040
# 4 0.0026 0.0006 0.0043 22.9167 -0.0073 0.6512
# 5 -3.8601 -2.2374 -7.0214 -0.0073 7.0275 0.0063
# 6 -0.0013 0.0028 -0.0040 0.6512 0.0063 27.7282
#
#
#
# Elastic Compliance Matrix: (Units=1/GPa)
#
#
# Indices 1 2 3 4 5 6 
#
# 1 0.016245 -0.007880 -0.004875 0.000000 0.001543 0.000000
# 2 -0.007880 0.032049 -0.009973 0.000001 -0.004089 -0.000004
# 3 -0.004875 -0.009973 0.014689 0.000001 0.008823 0.000001
# 4 0.000000 0.000001 0.000001 0.043665 0.000047 -0.001025
# 5 0.001543 -0.004089 0.008823 0.000047 0.150659 -0.000033
# 6 0.000000 -0.000004 0.000001 -0.001025 -0.000033 0.036088
#
#
# Mechanical properties :
#
#
# Convention : Reuss Voigt Hill
#
# Bulk Modulus (GPa) = 57.06003 72.14301 64.60152
# Shear Modulus (GPa) = 14.50554 19.96384 17.23469
#
# Velocity S-wave (km/s) = 3.05257 3.58114 3.32737
# Velocity P-wave (km/s) = 7.00564 7.96513 7.50074
#
# Compressibility (1/GPa) = 0.01752540
#
# Stress axis : x y z
#
# Youngs Moduli (GPa) = 61.55610 31.20215 68.07895
#
# Poissons Ratio (x) = 0.24588 0.33191
# Poissons Ratio (y) = 0.48508 0.67897
# Poissons Ratio (z) = 0.30010 0.31119
#
# Static dielectric constant tensor:
#      x y z
#    x 1.496340 0.000000 -0.005030 
#    y 0.000000 1.520940 0.000000 
#    z -0.005030 0.000000 1.522060 
# 
# From -- ./inp_files/326877.got.cif
#   From: 2010.05.17/outbox.cif.g08.bks.cpg/sg12_164_cif.got.tgz:326877.got - 2010.06.03 13:09:07.
