data_PCOD9192515
_publ_section_title
;
Structure prediction by ZEFSAII (Michael W. Deem and Ramdas Pophale) SiO2 
 PCOD9192515
Probable space group: C 2/M
;
_chemical_formula_sum "Si O2"
_cell_formula_units_Z 64
_cell_length_a 24.983870
_cell_length_b 14.562535
_cell_length_c 14.198925
_cell_angle_alpha 90.000000
_cell_angle_beta 141.050195
_cell_angle_gamma 90.000000
_cell_volume 3247.533938
_symmetry_space_group_name_H-M "C 2/M"
_symmetry_group_IT_number 12
_symmetry_cell_setting 'monoclinic'
loop_
_space_group_symop_operation_xyz
x,y,z
-x,y,-z
-x,-y,-z
x,-y,z
1/2+x,1/2+y,z
1/2-x,1/2+y,-z
1/2-x,1/2-y,-z
1/2+x,1/2-y,z
loop_
_atom_site_type_symbol
_atom_site_label
_atom_site_fract_x
_atom_site_fract_y
_atom_site_fract_z
Si Si1 0.312394 0.332418 0.887009
Si Si2 0.299346 0.327685 0.196718
Si Si3 0.318674 0.900848 0.430589
Si Si4 0.404544 0.828818 0.902749
Si Si5 0.928643 0.195316 0.206859
Si Si6 0.383098 0.100170 0.077434
Si Si7 0.738968 0.104967 0.433620
Si Si8 0.876159 0.801221 0.500603
O O1 0.245399 0.272578 0.857100
O O2 0.257176 0.400042 0.749498
O O3 0.356225 0.261887 0.873692
O O4 0.385276 0.358137 0.060121
O O5 0.374455 0.327091 0.225056
O O6 0.335240 0.344719 0.350438
O O7 0.219815 0.391292 0.060688
O O8 0.279959 0.889196 0.481830
O O9 0.372359 0.809393 0.484437
O O10 0.363187 0.000000 0.488310
O O11 0.346238 0.870510 0.741081
O O12 0.500000 0.810644 0.000000
O O13 0.406864 0.891807 0.999269
O O14 0.918789 0.305596 0.172079
O O15 0.026949 0.171684 0.351968
O O16 0.409501 0.000000 0.150457
O O17 0.814778 0.169744 0.501852
O O18 0.762594 0.000000 0.443726
#
# Coordination Sequence:
#
# PCOD9192515 Si02
#       8
#     8   8   8   8   8   8   8   8
#     4   9  19  37  56  81 113 150 189 230 274 334
#     4   9  18  38  58  79 108 151 190 226 287 339
#     4  10  22  37  59  83 112 159 194 221 274 345
#     4  10  20  33  57  86 116 148 182 233 289 337
#     4  10  21  36  60  83 111 149 193 234 289 337
#     4  10  20  35  56  84 116 143 183 244 291 334
#     4  11  22  37  58  84 117 154 188 229 287 343
#     4  11  21  38  60  85 118 150 186 240 283 338
#
# _framework density 19.707260999999999
#
# number of rings (size 3 to 8) (size 9 to 14) (size 15 to 20)
#    0.000    2.250    3.750    2.625    3.500    1.500 
#    0.000    6.875    0.000    7.125    0.000    0.000 
#    0.000    0.000    0.000    0.000    0.000    0.000 
#
# Total GULP energy -178478.537143 kJ/mol
# GULP energy per Si atom -5577.454286 kJ/mol
# Density = 1.966241 g / cm^3
# Si number density = 19.707261 Si / 1000 Ang^3
#
#
#
# Elastic Constant Matrix: (Units=GPa)
#
#
# Indices 1 2 3 4 5 6 
#
# 1 48.7180 7.4648 13.2734 0.0000 10.5426 0.0000
# 2 7.4648 29.7528 -12.5991 0.0000 -3.8676 0.0000
# 3 13.2734 -12.5991 73.1160 0.0000 17.2972 0.0000
# 4 0.0000 0.0000 0.0000 3.9179 0.0000 -2.6098
# 5 10.5426 -3.8676 17.2972 0.0000 27.4575 0.0000
# 6 0.0000 0.0000 0.0000 -2.6098 0.0000 -0.0688
#
#
#
# Elastic Compliance Matrix: (Units=1/GPa)
#
#
# Indices 1 2 3 4 5 6 
#
# 1 0.024808 -0.009035 -0.004120 0.000000 -0.008203 0.000000
# 2 -0.009035 0.039591 0.007430 0.000000 0.004365 0.000000
# 3 -0.004120 0.007430 0.017725 0.000000 -0.008538 0.000000
# 4 0.000000 0.000000 0.000000 0.009711 0.000000 -0.368593
# 5 -0.008203 0.004365 -0.008538 0.000000 0.045563 0.000000
# 6 0.000000 0.000000 0.000000 -0.368593 0.000000 -0.553345
#
#
# Mechanical properties :
#
#
# Convention : Reuss Voigt Hill
#
# Bulk Modulus (GPa) = 14.14975 18.65169 16.40072
# Shear Modulus (GPa) = -13.12548 15.82451 1.34952
#
# Velocity S-wave (km/s) = -2.58354 2.83676 0.82841
# Velocity P-wave (km/s) = 1.30538 4.49606 3.04225
#
# Compressibility (1/GPa) = 0.07067262
#
# Stress axis : x y z
#
# Youngs Moduli (GPa) = 40.30906 25.25840 56.41796
#
# Poissons Ratio (x) = 0.22822 0.23245
# Poissons Ratio (y) = 0.36420 -0.41917
# Poissons Ratio (z) = 0.16608 -0.18766
#
# Static dielectric constant tensor:
#      x y z
#    x 1.668730 0.000000 -0.021360 
#    y 0.000000 1.723000 0.000000 
#    z -0.021360 0.000000 1.698560 
# 
# From -- ./inp_files/240729.got.cif
#   From: 2010.05.17/outbox.cif.g08.bks.cpg/sg12_121_cif.got.tgz:240729.got - 2010.06.03 13:09:07.
