data_PCOD9192020
_publ_section_title
;
Structure prediction by ZEFSAII (Michael W. Deem and Ramdas Pophale) SiO2 
 PCOD9192020
Probable space group: C 2/M
;
_chemical_formula_sum "Si O2"
_cell_formula_units_Z 48
_cell_length_a 24.137508
_cell_length_b 8.770245
_cell_length_c 17.654151
_cell_angle_alpha 90.000000
_cell_angle_beta 47.120063
_cell_angle_gamma 90.000000
_cell_volume 2738.579313
_symmetry_space_group_name_H-M "C 2/M"
_symmetry_group_IT_number 12
_symmetry_cell_setting 'monoclinic'
loop_
_space_group_symop_operation_xyz
x,y,z
-x,y,-z
-x,-y,-z
x,-y,z
1/2+x,1/2+y,z
1/2-x,1/2+y,-z
1/2-x,1/2-y,-z
1/2+x,1/2-y,z
loop_
_atom_site_type_symbol
_atom_site_label
_atom_site_fract_x
_atom_site_fract_y
_atom_site_fract_z
Si Si1 0.308352 0.318683 0.884421
Si Si2 0.631072 0.183708 0.614171
Si Si3 0.231926 0.817042 0.809615
Si Si4 0.962189 0.317682 0.802727
Si Si5 0.253128 0.683927 0.377182
Si Si6 0.442554 0.317522 0.986320
O O1 0.305881 0.500000 0.892504
O O2 0.281482 0.264012 0.827109
O O3 0.391603 0.259384 0.827100
O O4 0.250000 0.250000 0.000000
O O5 0.543727 0.229596 0.693995
O O6 0.674165 0.251012 0.646805
O O7 0.680385 0.229569 0.495003
O O8 0.633656 0.000000 0.616828
O O9 0.250142 0.768236 0.706988
O O10 0.243286 0.000000 0.804873
O O11 0.143585 0.787367 0.908775
O O12 0.954899 0.500000 0.803481
O O13 0.959771 0.268922 0.892805
O O14 0.258282 0.500000 0.373372
O O15 0.449829 0.500000 0.966352
O O16 0.500000 0.275887 0.000000
#
# Coordination Sequence:
#
# PCOD9192020 Si02
#       6
#     8   8   8   8   8   8
#     4  12  24  39  58  79 107 145 186 229 277 331
#     4   9  19  35  56  84 115 147 185 226 271 323
#     4  10  20  35  56  81 110 144 184 227 272 326
#     4  11  22  36  55  80 111 147 185 227 273 325
#     4   9  18  35  59  84 112 148 185 224 273 325
#     4  10  20  33  52  80 111 142 178 224 275 330
#
# _framework density 17.527335000000001
#
# number of rings (size 3 to 8) (size 9 to 14) (size 15 to 20)
#    0.000    1.833    1.667    3.000    0.000    3.667 
#    0.000    0.833    0.000    5.000    0.000    0.000 
#    0.000    0.000    0.000    0.000    0.000    0.000 
#
# Total GULP energy -134043.250283 kJ/mol
# GULP energy per Si atom -5585.135428 kJ/mol
# Density = 1.748744 g / cm^3
# Si number density = 17.527335 Si / 1000 Ang^3
#
#
#
# Elastic Constant Matrix: (Units=GPa)
#
#
# Indices 1 2 3 4 5 6 
#
# 1 151.6610 54.5201 80.5927 0.0002 -20.9106 -0.0013
# 2 54.5201 47.0768 45.0082 0.0013 -8.4997 -0.0013
# 3 80.5927 45.0082 108.6007 0.0004 -13.0522 -0.0015
# 4 0.0002 0.0013 0.0004 22.3160 -0.0004 2.2959
# 5 -20.9106 -8.4997 -13.0522 -0.0004 26.6237 -0.0001
# 6 -0.0013 -0.0013 -0.0015 2.2959 -0.0001 31.5089
#
#
#
# Elastic Compliance Matrix: (Units=1/GPa)
#
#
# Indices 1 2 3 4 5 6 
#
# 1 0.013711 -0.009649 -0.005581 0.000001 0.004952 0.000000
# 2 -0.009649 0.042450 -0.010323 -0.000002 0.000913 0.000001
# 3 -0.005581 -0.010323 0.017751 0.000000 0.001023 0.000000
# 4 0.000001 -0.000002 0.000000 0.045149 0.000001 -0.003290
# 5 0.004952 0.000913 0.001023 0.000001 0.042243 0.000000
# 6 0.000000 0.000001 0.000000 -0.003290 0.000000 0.031977
#
#
# Mechanical properties :
#
#
# Convention : Reuss Voigt Hill
#
# Bulk Modulus (GPa) = 43.84621 74.17560 59.01090
# Shear Modulus (GPa) = 19.84220 24.57090 22.20655
#
# Velocity S-wave (km/s) = 3.36828 3.74821 3.56331
# Velocity P-wave (km/s) = 6.34013 7.81946 7.11833
#
# Compressibility (1/GPa) = 0.02280699
#
# Stress axis : x y z
#
# Youngs Moduli (GPa) = 72.93599 23.55688 56.33604
#
# Poissons Ratio (x) = 0.22730 0.31439
# Poissons Ratio (y) = 0.70375 0.58155
# Poissons Ratio (z) = 0.40703 0.24317
#
# Static dielectric constant tensor:
#      x y z
#    x 1.564270 0.000000 -0.004670 
#    y 0.000000 1.593050 0.000000 
#    z -0.004670 0.000000 1.595190 
# 
# From -- ./inp_files/280805.got.cif
#   From: 2010.05.17/outbox.cif.g08.bks.cpg/sg12_141_cif.got.tgz:280805.got - 2010.06.03 13:09:07.
