data_PCOD9192157
_publ_section_title
;
Structure prediction by ZEFSAII (Michael W. Deem and Ramdas Pophale) SiO2 
 PCOD9192157
Probable space group: C 2/M
;
_chemical_formula_sum "Si O2"
_cell_formula_units_Z 64
_cell_length_a 14.793208
_cell_length_b 18.361888
_cell_length_c 16.013874
_cell_angle_alpha 90.000000
_cell_angle_beta 48.086362
_cell_angle_gamma 90.000000
_cell_volume 3236.965617
_symmetry_space_group_name_H-M "C 2/M"
_symmetry_group_IT_number 12
_symmetry_cell_setting 'monoclinic'
loop_
_space_group_symop_operation_xyz
x,y,z
-x,y,-z
-x,-y,-z
x,-y,z
1/2+x,1/2+y,z
1/2-x,1/2+y,-z
1/2-x,1/2-y,-z
1/2+x,1/2-y,z
loop_
_atom_site_type_symbol
_atom_site_label
_atom_site_fract_x
_atom_site_fract_y
_atom_site_fract_z
Si Si1 0.973252 0.361171 0.418462
Si Si2 0.577377 0.583092 0.774808
Si Si3 0.109105 0.588130 0.999894
Si Si4 0.355198 0.415245 0.095656
Si Si5 0.771674 0.078709 0.488646
Si Si6 0.360658 0.840758 0.844345
Si Si7 0.133183 0.831216 0.175962
Si Si8 0.050335 0.191370 0.559658
O O1 0.867171 0.411492 0.449216
O O2 0.927492 0.277375 0.445301
O O3 0.000000 0.378046 0.500000
O O4 0.076435 0.362343 0.282888
O O5 0.541121 0.500000 0.817941
O O6 0.662781 0.609169 0.797233
O O7 0.654974 0.581173 0.643345
O O8 0.457464 0.628765 0.832050
O O9 0.125606 0.500000 0.994482
O O10 0.237025 0.628133 0.897022
O O11 0.081662 0.621134 0.109441
O O12 0.000000 0.602020 0.000000
O O13 0.321402 0.500000 0.106510
O O14 0.275986 0.369266 0.081823
O O15 0.500000 0.407782 0.000000
O O16 0.827768 0.145414 0.504025
O O17 0.793807 0.000000 0.515358
O O18 0.356775 0.753626 0.854429
O O19 0.054386 0.831478 0.310166
O O20 0.000000 0.177288 0.500000
#
# Coordination Sequence:
#
# PCOD9192157 Si02
#       8
#     8   8   8   8   8   8   8   8
#     4  10  21  38  59  85 121 158 187 229 293 354
#     4   9  18  34  55  80 110 145 187 233 284 339
#     4  11  25  43  60  81 116 160 198 235 286 346
#     4  10  20  34  55  80 106 140 181 232 293 345
#     4  10  20  33  53  81 112 149 191 233 277 332
#     4  11  23  38  60  89 117 149 195 243 286 343
#     4  10  21  38  61  86 113 149 193 244 292 335
#     4   9  20  38  59  84 114 151 195 239 286 340
#
# _framework density 19.771604
#
# number of rings (size 3 to 8) (size 9 to 14) (size 15 to 20)
#    0.000    2.000    0.000    3.000    0.000    5.500 
#    0.000    3.750    0.000    0.000    0.000    0.000 
#    0.000    0.000    0.000    0.000    0.000    0.000 
#
# Total GULP energy -178458.935923 kJ/mol
# GULP energy per Si atom -5576.841748 kJ/mol
# Density = 1.972660 g / cm^3
# Si number density = 19.771604 Si / 1000 Ang^3
#
#
#
# Elastic Constant Matrix: (Units=GPa)
#
#
# Indices 1 2 3 4 5 6 
#
# 1 116.9187 61.9142 26.7542 0.0000 -0.2663 0.0000
# 2 61.9142 70.1531 36.3280 0.0000 -4.5610 0.0000
# 3 26.7542 36.3280 63.1309 0.0000 -2.1067 0.0000
# 4 0.0000 0.0000 0.0000 14.9018 0.0000 -4.4974
# 5 -0.2663 -4.5610 -2.1067 0.0000 32.0636 0.0000
# 6 0.0000 0.0000 0.0000 -4.4974 0.0000 22.7539
#
#
#
# Elastic Compliance Matrix: (Units=1/GPa)
#
#
# Indices 1 2 3 4 5 6 
#
# 1 0.016343 -0.015570 0.001968 0.000000 -0.001950 0.000000
# 2 -0.015570 0.035284 -0.013572 0.000000 0.003998 0.000000
# 3 0.001968 -0.013572 0.022802 0.000000 -0.000416 0.000000
# 4 0.000000 0.000000 0.000000 0.071363 0.000000 0.014105
# 5 -0.001950 0.003998 -0.000416 0.000000 0.031713 0.000000
# 6 0.000000 0.000000 0.000000 0.014105 0.000000 0.046736
#
#
# Mechanical properties :
#
#
# Convention : Reuss Voigt Hill
#
# Bulk Modulus (GPa) = 49.79574 55.57726 52.68650
# Shear Modulus (GPa) = 17.52652 22.29096 19.90874
#
# Velocity S-wave (km/s) = 2.98056 3.36135 3.17667
# Velocity P-wave (km/s) = 6.08976 6.57538 6.33722
#
# Compressibility (1/GPa) = 0.02008204
#
# Stress axis : x y z
#
# Youngs Moduli (GPa) = 61.18806 28.34167 43.85607
#
# Poissons Ratio (x) = 0.44127 -0.08633
# Poissons Ratio (y) = 0.95268 0.59521
# Poissons Ratio (z) = -0.12044 0.38465
#
# Static dielectric constant tensor:
#      x y z
#    x 1.696160 0.000000 0.037930 
#    y 0.000000 1.716300 0.000000 
#    z 0.037930 0.000000 1.771950 
# 
# From -- ./inp_files/271718.got.cif
#   From: 2010.05.17/outbox.cif.g08.bks.cpg/sg12_136_cif.got.tgz:271718.got - 2010.06.03 13:09:07.
