data_PCOD9192590
_publ_section_title
;
Structure prediction by ZEFSAII (Michael W. Deem and Ramdas Pophale) SiO2 
 PCOD9192590
Probable space group: C 2/M
;
_chemical_formula_sum "Si O2"
_cell_formula_units_Z 44
_cell_length_a 22.486823
_cell_length_b 17.776452
_cell_length_c 15.889603
_cell_angle_alpha 90.000000
_cell_angle_beta 18.344648
_cell_angle_gamma 90.000000
_cell_volume 1999.067306
_symmetry_space_group_name_H-M "C 2/M"
_symmetry_group_IT_number 12
_symmetry_cell_setting 'monoclinic'
loop_
_space_group_symop_operation_xyz
x,y,z
-x,y,-z
-x,-y,-z
x,-y,z
1/2+x,1/2+y,z
1/2-x,1/2+y,-z
1/2-x,1/2-y,-z
1/2+x,1/2-y,z
loop_
_atom_site_type_symbol
_atom_site_label
_atom_site_fract_x
_atom_site_fract_y
_atom_site_fract_z
Si Si1 0.162203 0.000000 0.212676
Si Si2 0.639216 0.849151 0.429444
Si Si3 0.299679 0.753580 0.074607
Si Si4 0.706800 0.500000 0.762960
Si Si5 0.100744 0.500000 0.674188
Si Si6 0.831103 0.332497 0.414782
Si Si7 0.695739 0.647692 0.063953
O O1 0.000000 0.000000 0.500000
O O2 0.139592 0.070647 0.181111
O O3 0.370459 0.000000 0.978419
O O4 0.743254 0.923924 0.255901
O O5 0.708765 0.836557 0.431294
O O6 0.414671 0.860389 0.739721
O O7 0.694667 0.782056 0.293623
O O8 0.447940 0.816941 0.899677
O O9 0.179908 0.793337 0.162242
O O10 0.402697 0.685585 0.884287
O O11 0.848203 0.500000 0.493621
O O12 0.500000 0.500000 0.000000
O O13 0.189733 0.420274 0.587493
O O14 0.750000 0.250000 0.500000
#
# Coordination Sequence:
#
# PCOD9192590 Si02
#       7
#     4   8   8   4   4   8   8
#     4  12  22  39  67  89 128 186 214 265 336 395
#     4  10  20  37  62  87 126 161 213 269 343 377
#     4  10  21  35  62  89 123 163 213 262 335 383
#     4  10  20  33  60  90 120 165 207 265 343 395
#     4  10  20  46  59  93 136 163 221 275 319 390
#     4  10  22  40  65  92 128 173 216 274 321 393
#     4  10  21  41  56  91 125 160 212 279 316 393
#
# _framework density 22.010265
#
# number of rings (size 3 to 8) (size 9 to 14) (size 15 to 20)
#    0.000    1.818    5.455    0.545    5.091    5.091 
#    0.000    2.727    0.000    3.273    0.000    0.000 
#    0.000    0.000    0.000    0.000    0.000    0.000 
#
# Total GULP energy -122507.033468 kJ/mol
# GULP energy per Si atom -5568.501521 kJ/mol
# Density = 2.196017 g / cm^3
# Si number density = 22.010265 Si / 1000 Ang^3
#
#
#
# Elastic Constant Matrix: (Units=GPa)
#
#
# Indices 1 2 3 4 5 6 
#
# 1 20.7805 40.1871 10.8023 0.0122 4.7946 -0.0043
# 2 40.1871 204.3595 45.8738 0.0092 12.8556 -0.0083
# 3 10.8023 45.8738 94.5685 0.0044 19.2585 -0.0112
# 4 0.0122 0.0092 0.0044 38.1691 -0.0145 2.9556
# 5 4.7946 12.8556 19.2585 -0.0145 25.7110 0.0102
# 6 -0.0043 -0.0083 -0.0112 2.9556 0.0102 35.1332
#
#
#
# Elastic Compliance Matrix: (Units=1/GPa)
#
#
# Indices 1 2 3 4 5 6 
#
# 1 0.078924 -0.015011 -0.000312 -0.000025 -0.006978 0.000010
# 2 -0.015011 0.008364 -0.002432 0.000003 0.000439 -0.000001
# 3 -0.000312 -0.002432 0.013606 -0.000005 -0.008917 0.000007
# 4 -0.000025 0.000003 -0.000005 0.026371 0.000022 -0.002218
# 5 -0.006978 0.000439 -0.008917 0.000022 0.046655 -0.000019
# 6 0.000010 -0.000001 0.000007 -0.002218 -0.000019 0.028650
#
#
# Mechanical properties :
#
#
# Convention : Reuss Voigt Hill
#
# Bulk Modulus (GPa) = 15.29458 57.04832 36.17145
# Shear Modulus (GPa) = 19.24007 34.65902 26.94954
#
# Velocity S-wave (km/s) = 2.95979 3.97252 3.50295
# Velocity P-wave (km/s) = 4.31792 6.85686 5.72979
#
# Compressibility (1/GPa) = 0.06538265
#
# Stress axis : x y z
#
# Youngs Moduli (GPa) = 12.67034 119.56653 73.49941
#
# Poissons Ratio (x) = 1.79485 0.02296
# Poissons Ratio (y) = 0.19020 0.17873
# Poissons Ratio (z) = 0.00396 0.29076
#
# Static dielectric constant tensor:
#      x y z
#    x 1.854110 -0.000280 -0.069610 
#    y -0.000280 0.094220 0.000600 
#    z -0.069610 0.000600 1.818870 
# 
# From -- ./inp_files/241413.got.cif
#   From: 2010.05.17/outbox.cif.g08.bks.cpg/sg12_121_cif.got.tgz:241413.got - 2010.06.03 13:09:07.
