data_PCOD9192212
_publ_section_title
;
Structure prediction by ZEFSAII (Michael W. Deem and Ramdas Pophale) SiO2 
 PCOD9192212
Probable space group: C 2/M
;
_chemical_formula_sum "Si O2"
_cell_formula_units_Z 64
_cell_length_a 28.573084
_cell_length_b 8.467830
_cell_length_c 13.409476
_cell_angle_alpha 90.000000
_cell_angle_beta 84.720509
_cell_angle_gamma 90.000000
_cell_volume 3230.685843
_symmetry_space_group_name_H-M "C 2/M"
_symmetry_group_IT_number 12
_symmetry_cell_setting 'monoclinic'
loop_
_space_group_symop_operation_xyz
x,y,z
-x,y,-z
-x,-y,-z
x,-y,z
1/2+x,1/2+y,z
1/2-x,1/2+y,-z
1/2-x,1/2-y,-z
1/2+x,1/2-y,z
loop_
_atom_site_type_symbol
_atom_site_label
_atom_site_fract_x
_atom_site_fract_y
_atom_site_fract_z
Si Si1 0.405263 0.688244 0.026880
Si Si2 0.632275 0.189268 0.654159
Si Si3 0.844512 0.809092 0.730586
Si Si4 0.958362 0.689932 0.212844
Si Si5 0.227182 0.819383 0.102748
Si Si6 0.199080 0.190296 0.470976
Si Si7 0.435015 0.811712 0.804746
Si Si8 0.814479 0.185036 0.166716
O O1 0.408400 0.500000 0.015303
O O2 0.437637 0.740860 0.113700
O O3 0.351813 0.724630 0.071950
O O4 0.419891 0.765303 0.920198
O O5 0.577653 0.224343 0.689556
O O6 0.657105 0.245936 0.549087
O O7 0.659124 0.281078 0.736410
O O8 0.638548 0.000000 0.663214
O O9 0.817731 0.746586 0.834667
O O10 0.815817 0.759295 0.638064
O O11 0.898044 0.757329 0.732983
O O12 0.842730 0.000000 0.732836
O O13 0.958895 0.500000 0.200147
O O14 0.011410 0.744459 0.220445
O O15 0.269523 0.796356 0.172101
O O16 0.216406 0.000000 0.083825
O O17 0.250000 0.750000 0.000000
O O18 0.250000 0.250000 0.500000
O O19 0.200174 0.000000 0.474218
O O20 0.434196 0.000000 0.796280
O O21 0.801597 0.000000 0.161313
#
# Coordination Sequence:
#
# PCOD9192212 Si02
#       8
#     8   8   8   8   8   8   8   8
#     4  10  20  33  53  83 117 153 191 232 280 334
#     4  10  20  37  60  84 112 144 180 229 285 334
#     4  10  24  42  57  79 113 149 185 229 280 336
#     4   9  20  37  56  82 115 150 191 236 280 330
#     4  11  22  36  54  78 110 148 187 225 274 334
#     4  11  23  41  65  90 115 145 185 232 282 337
#     4  11  22  36  56  81 111 150 194 237 280 332
#     4  10  20  34  53  80 112 145 185 230 277 335
#
# _framework density 19.810034999999999
#
# number of rings (size 3 to 8) (size 9 to 14) (size 15 to 20)
#    0.000    1.750    0.000    4.125    0.000   10.500 
#    0.000    0.625    0.000    3.750    0.000    0.000 
#    0.000    0.000    0.000    0.000    0.000    0.000 
#
# Total GULP energy -178644.575047 kJ/mol
# GULP energy per Si atom -5582.642970 kJ/mol
# Density = 1.976495 g / cm^3
# Si number density = 19.810035 Si / 1000 Ang^3
#
#
#
# Elastic Constant Matrix: (Units=GPa)
#
#
# Indices 1 2 3 4 5 6 
#
# 1 123.1803 10.2641 46.6537 0.0000 4.4120 0.0000
# 2 10.2641 21.9497 19.4809 0.0000 -0.5658 0.0000
# 3 46.6537 19.4809 105.2652 0.0000 -7.7220 0.0000
# 4 0.0000 0.0000 0.0000 29.5853 0.0000 1.6793
# 5 4.4120 -0.5658 -7.7220 0.0000 23.5608 0.0000
# 6 0.0000 0.0000 0.0000 1.6793 0.0000 28.4374
#
#
#
# Elastic Compliance Matrix: (Units=1/GPa)
#
#
# Indices 1 2 3 4 5 6 
#
# 1 0.010026 -0.000732 -0.004557 0.000000 -0.003389 0.000000
# 2 -0.000732 0.054662 -0.009924 0.000000 -0.001803 0.000000
# 3 -0.004557 -0.009924 0.013731 0.000000 0.005115 0.000000
# 4 0.000000 0.000000 0.000000 0.033914 0.000000 -0.002003
# 5 -0.003389 -0.001803 0.005115 0.000000 0.044711 0.000000
# 6 0.000000 0.000000 0.000000 -0.002003 0.000000 0.035283
#
#
# Mechanical properties :
#
#
# Convention : Reuss Voigt Hill
#
# Bulk Modulus (GPa) = 20.83560 44.79917 32.81738
# Shear Modulus (GPa) = 20.94225 27.91647 24.42936
#
# Velocity S-wave (km/s) = 3.25492 3.75802 3.51548
# Velocity P-wave (km/s) = 4.96654 6.44156 5.75153
#
# Compressibility (1/GPa) = 0.04799479
#
# Stress axis : x y z
#
# Youngs Moduli (GPa) = 99.73657 18.29420 72.82627
#
# Poissons Ratio (x) = 0.01338 0.33186
# Poissons Ratio (y) = 0.07296 0.72273
# Poissons Ratio (z) = 0.45449 0.18155
#
# Static dielectric constant tensor:
#      x y z
#    x 1.733790 0.000000 -0.001110 
#    y 0.000000 1.714440 0.000000 
#    z -0.001110 0.000000 1.726710 
# 
# From -- ./inp_files/243975.got.cif
#   From: 2010.05.17/outbox.cif.g08.bks.cpg/sg12_122_cif.got.tgz:243975.got - 2010.06.03 13:09:07.
