data_PCOD9192968
_publ_section_title
;
Structure prediction by ZEFSAII (Michael W. Deem and Ramdas Pophale) SiO2 
 PCOD9192968
Probable space group: C 2/M
;
_chemical_formula_sum "Si O2"
_cell_formula_units_Z 64
_cell_length_a 31.991810
_cell_length_b 14.386322
_cell_length_c 9.849573
_cell_angle_alpha 90.000000
_cell_angle_beta 121.179126
_cell_angle_gamma 90.000000
_cell_volume 3878.402475
_symmetry_space_group_name_H-M "C 2/M"
_symmetry_group_IT_number 12
_symmetry_cell_setting 'monoclinic'
loop_
_space_group_symop_operation_xyz
x,y,z
-x,y,-z
-x,-y,-z
x,-y,z
1/2+x,1/2+y,z
1/2-x,1/2+y,-z
1/2-x,1/2-y,-z
1/2+x,1/2-y,z
loop_
_atom_site_type_symbol
_atom_site_label
_atom_site_fract_x
_atom_site_fract_y
_atom_site_fract_z
Si Si1 0.312812 0.102608 0.907333
Si Si2 0.941709 0.890747 0.558989
Si Si3 0.184339 0.393915 0.414440
Si Si4 0.151603 0.783137 0.495239
Si Si5 0.552916 0.608795 0.758732
Si Si6 0.716547 0.322131 0.860266
Si Si7 0.151284 0.196409 0.989296
Si Si8 0.202580 0.889578 0.337066
O O1 0.314715 0.111409 0.747338
O O2 0.256527 0.109799 0.862263
O O3 0.331702 0.000000 0.976738
O O4 0.340855 0.192612 0.012276
O O5 0.900157 0.826778 0.552122
O O6 0.941615 0.881579 0.395162
O O7 0.996826 0.867920 0.698691
O O8 0.932381 0.000000 0.573464
O O9 0.172485 0.500000 0.432349
O O10 0.149678 0.317468 0.422206
O O11 0.239429 0.372489 0.556697
O O12 0.185500 0.778769 0.685844
O O13 0.178038 0.850285 0.431572
O O14 0.560527 0.500000 0.804245
O O15 0.594873 0.668870 0.898393
O O16 0.677280 0.355279 0.905559
O O17 0.750000 0.250000 0.000000
O O18 0.179319 0.163103 0.170533
O O19 0.194862 0.000000 0.312394
#
# Coordination Sequence:
#
# PCOD9192968 Si02
#       8
#     8   8   8   8   8   8   8   8
#     4  10  20  34  52  76 107 144 182 214 251 309
#     4   9  19  34  56  82 103 134 177 216 264 323
#     4  10  20  34  52  74 105 146 182 214 252 304
#     4  12  19  35  55  77 108 142 178 218 261 316
#     4   9  18  35  56  79 107 135 170 218 269 321
#     4  10  21  32  52  79 108 139 180 216 258 308
#     4  11  20  36  53  80 109 143 173 217 275 314
#     4  11  22  33  51  79 111 145 180 216 262 317
#
# _framework density 16.501639999999998
#
# number of rings (size 3 to 8) (size 9 to 14) (size 15 to 20)
#    0.000    1.750    3.750    3.375    0.000    1.500 
#    0.000    4.375    0.000    3.000    0.000    3.500 
#    0.000    0.000    0.000    0.000    0.000    0.000 
#
# Total GULP energy -178467.028742 kJ/mol
# GULP energy per Si atom -5577.094648 kJ/mol
# Density = 1.646408 g / cm^3
# Si number density = 16.501640 Si / 1000 Ang^3
#
#
#
# Elastic Constant Matrix: (Units=GPa)
#
#
# Indices 1 2 3 4 5 6 
#
# 1 99.6841 64.0136 23.1797 0.0000 4.8264 0.0000
# 2 64.0136 100.7630 18.5771 0.0000 10.1968 0.0000
# 3 23.1797 18.5771 33.0489 0.0000 -5.5590 0.0000
# 4 0.0000 0.0000 0.0000 6.4577 0.0000 7.5588
# 5 4.8264 10.1968 -5.5590 0.0000 26.1550 0.0000
# 6 0.0000 0.0000 0.0000 7.5588 0.0000 20.8990
#
#
#
# Elastic Compliance Matrix: (Units=1/GPa)
#
#
# Indices 1 2 3 4 5 6 
#
# 1 0.018320 -0.010201 -0.007275 0.000000 -0.000950 0.000000
# 2 -0.010201 0.017688 -0.003765 0.000000 -0.005813 0.000000
# 3 -0.007275 -0.003765 0.039357 0.000000 0.011175 0.000000
# 4 0.000000 0.000000 0.000000 0.268545 0.000000 -0.097128
# 5 -0.000950 -0.005813 0.011175 0.000000 0.043050 0.000000
# 6 0.000000 0.000000 0.000000 -0.097128 0.000000 0.082978
#
#
# Mechanical properties :
#
#
# Convention : Reuss Voigt Hill
#
# Bulk Modulus (GPa) = 30.41203 49.44854 39.93028
# Shear Modulus (GPa) = 9.55326 19.21739 14.38533
#
# Velocity S-wave (km/s) = 2.40870 3.41629 2.95575
# Velocity P-wave (km/s) = 5.11913 6.75220 5.99157
#
# Compressibility (1/GPa) = 0.03288173
#
# Stress axis : x y z
#
# Youngs Moduli (GPa) = 54.58450 56.53705 25.40860
#
# Poissons Ratio (x) = 0.57675 0.18484
# Poissons Ratio (y) = 0.55683 0.09567
# Poissons Ratio (z) = 0.39709 0.21288
#
# Static dielectric constant tensor:
#      x y z
#    x 1.561350 0.000000 -0.008810 
#    y 0.000000 1.566740 0.000000 
#    z -0.008810 0.000000 1.552430 
# 
# From -- ./inp_files/111655.got.cif
#   From: 2010.05.17/outbox.cif.g08.bks.cpg/sg12_56_cif.got.tgz:111655.got - 2010.06.03 13:09:07.
