data_PCOD9192461
_publ_section_title
;
Structure prediction by ZEFSAII (Michael W. Deem and Ramdas Pophale) SiO2 
 PCOD9192461
Probable space group: C 2/M
;
_chemical_formula_sum "Si O2"
_cell_formula_units_Z 56
_cell_length_a 10.949662
_cell_length_b 18.154611
_cell_length_c 15.149041
_cell_angle_alpha 90.000000
_cell_angle_beta 100.744970
_cell_angle_gamma 90.000000
_cell_volume 2958.630103
_symmetry_space_group_name_H-M "C 2/M"
_symmetry_group_IT_number 12
_symmetry_cell_setting 'monoclinic'
loop_
_space_group_symop_operation_xyz
x,y,z
-x,y,-z
-x,-y,-z
x,-y,z
1/2+x,1/2+y,z
1/2-x,1/2+y,-z
1/2-x,1/2-y,-z
1/2+x,1/2-y,z
loop_
_atom_site_type_symbol
_atom_site_label
_atom_site_fract_x
_atom_site_fract_y
_atom_site_fract_z
Si Si1 0.282046 0.838904 0.100844
Si Si2 0.469691 0.583625 0.891489
Si Si3 0.139907 0.910097 0.540933
Si Si4 0.069669 0.585688 0.737059
Si Si5 0.722269 0.337019 0.893406
Si Si6 0.788318 0.585855 0.728711
Si Si7 0.365099 0.089877 0.444461
O O1 0.160559 0.874443 0.130224
O O2 0.396345 0.870026 0.171155
O O3 0.279131 0.751028 0.106645
O O4 0.277767 0.859731 0.996502
O O5 0.463100 0.500000 0.855726
O O6 0.583507 0.629579 0.867594
O O7 0.500000 0.579183 0.000000
O O8 0.185563 0.888356 0.644798
O O9 0.246307 0.886262 0.485725
O O10 0.000000 0.885882 0.500000
O O11 0.140497 0.000000 0.539909
O O12 0.101586 0.500000 0.756570
O O13 0.139911 0.612216 0.658825
O O14 0.922388 0.589005 0.700039
O O15 0.792688 0.368597 0.818865
O O16 0.764494 0.500000 0.747524
O O17 0.500000 0.113261 0.500000
O O18 0.366077 0.000000 0.445846
#
# Coordination Sequence:
#
# PCOD9192461 Si02
#       7
#     8   8   8   8   8   8   8
#     4  10  22  37  55  81 111 151 199 236 283 352
#     4   9  18  35  56  76 104 146 194 240 286 341
#     4   9  17  30  52  84 117 147 185 233 283 343
#     4  10  20  33  56  86 113 145 189 237 281 338
#     4  10  22  37  56  78 114 156 188 237 296 345
#     4  10  20  34  55  86 117 147 185 233 291 344
#     4   9  15  29  51  76 110 148 183 225 281 338
#
# _framework density 18.927678
#
# number of rings (size 3 to 8) (size 9 to 14) (size 15 to 20)
#    0.000    2.429    1.429    0.857    2.000    3.429 
#    0.000    4.286    0.000    1.714    0.000    0.000 
#    0.000    0.000    0.000    0.000    0.000    0.000 
#
# Total GULP energy -156112.768274 kJ/mol
# GULP energy per Si atom -5575.456010 kJ/mol
# Density = 1.888460 g / cm^3
# Si number density = 18.927678 Si / 1000 Ang^3
#
#
#
# Elastic Constant Matrix: (Units=GPa)
#
#
# Indices 1 2 3 4 5 6 
#
# 1 91.6015 24.4387 41.0914 0.0000 0.6442 0.0000
# 2 24.4387 49.3752 27.6971 0.0000 0.6158 0.0000
# 3 41.0914 27.6971 119.8056 0.0000 -0.7889 0.0000
# 4 0.0000 0.0000 0.0000 11.3089 0.0000 0.2119
# 5 0.6442 0.6158 -0.7889 0.0000 34.0310 0.0000
# 6 0.0000 0.0000 0.0000 0.2119 0.0000 16.7921
#
#
#
# Elastic Compliance Matrix: (Units=1/GPa)
#
#
# Indices 1 2 3 4 5 6 
#
# 1 0.013831 -0.004803 -0.003635 0.000000 -0.000259 0.000000
# 2 -0.004803 0.024949 -0.004123 0.000000 -0.000456 0.000000
# 3 -0.003635 -0.004123 0.010549 0.000000 0.000388 0.000000
# 4 0.000000 0.000000 0.000000 0.088447 0.000000 -0.001116
# 5 -0.000259 -0.000456 0.000388 0.000000 0.029407 0.000000
# 6 0.000000 0.000000 0.000000 -0.001116 0.000000 0.059566
#
#
# Mechanical properties :
#
#
# Convention : Reuss Voigt Hill
#
# Bulk Modulus (GPa) = 41.31211 49.69296 45.50254
# Shear Modulus (GPa) = 19.23508 23.59673 21.41590
#
# Velocity S-wave (km/s) = 3.19131 3.53466 3.36737
# Velocity P-wave (km/s) = 5.95424 6.55512 6.26189
#
# Compressibility (1/GPa) = 0.02420597
#
# Stress axis : x y z
#
# Youngs Moduli (GPa) = 72.30239 40.08134 94.79201
#
# Poissons Ratio (x) = 0.19253 0.34457
# Poissons Ratio (y) = 0.34730 0.39086
# Poissons Ratio (z) = 0.26282 0.16527
#
# Static dielectric constant tensor:
#      x y z
#    x 1.688460 0.000000 0.001020 
#    y 0.000000 1.617880 0.000000 
#    z 0.001020 0.000000 1.657920 
# 
# From -- ./inp_files/206261.got.cif
#   From: 2010.05.17/outbox.cif.g08.bks.cpg/sg12_104_cif.got.tgz:206261.got - 2010.06.03 13:09:07.
