data_PCOD9192733
_publ_section_title
;
Structure prediction by ZEFSAII (Michael W. Deem and Ramdas Pophale) SiO2 
 PCOD9192733
Probable space group: C 2/M
;
_chemical_formula_sum "Si O2"
_cell_formula_units_Z 56
_cell_length_a 19.856052
_cell_length_b 7.717752
_cell_length_c 16.928779
_cell_angle_alpha 90.000000
_cell_angle_beta 58.250575
_cell_angle_gamma 90.000000
_cell_volume 2206.027416
_symmetry_space_group_name_H-M "C 2/M"
_symmetry_group_IT_number 12
_symmetry_cell_setting 'monoclinic'
loop_
_space_group_symop_operation_xyz
x,y,z
-x,y,-z
-x,-y,-z
x,-y,z
1/2+x,1/2+y,z
1/2-x,1/2+y,-z
1/2-x,1/2-y,-z
1/2+x,1/2-y,z
loop_
_atom_site_type_symbol
_atom_site_label
_atom_site_fract_x
_atom_site_fract_y
_atom_site_fract_z
Si Si1 0.681477 0.293407 0.106380
Si Si2 0.062286 0.700827 0.056934
Si Si3 0.419114 0.288351 0.599069
Si Si4 0.523471 0.298626 0.671177
Si Si5 0.094977 0.804467 0.782529
Si Si6 0.696147 0.204734 0.854878
Si Si7 0.313746 0.305000 0.528297
O O1 0.668870 0.500000 0.115906
O O2 0.604037 0.211904 0.116714
O O3 0.719956 0.231215 0.164703
O O4 0.750000 0.250000 0.000000
O O5 0.046021 0.500000 0.048699
O O6 0.979932 0.798312 0.112596
O O7 0.126499 0.772983 0.955499
O O8 0.500000 0.253313 0.500000
O O9 0.411139 0.500000 0.608679
O O10 0.448610 0.229394 0.667945
O O11 0.343207 0.223661 0.594872
O O12 0.502456 0.500000 0.704034
O O13 0.559891 0.213467 0.727036
O O14 0.601368 0.306412 0.568153
O O15 0.169300 0.729949 0.782541
O O16 0.116887 0.000000 0.747659
O O17 0.697778 0.000000 0.869201
O O18 0.288717 0.500000 0.563482
O O19 0.250000 0.250000 0.500000
#
# Coordination Sequence:
#
# PCOD9192733 Si02
#       7
#     8   8   8   8   8   8   8
#     4   9  17  31  51  72  93 119 155 201 249 294
#     4  10  20  34  51  70  95 128 167 211 252 291
#     4   7  11  24  48  70  87 117 157 186 215 267
#     4   8  16  31  48  69  97 126 159 198 236 277
#     4  11  21  31  48  72  98 130 165 204 248 293
#     4   9  19  34  50  69  96 129 163 204 251 292
#     4   9  16  29  52  77  98 122 154 193 234 279
#
# _framework density 25.384998
#
# number of rings (size 3 to 8) (size 9 to 14) (size 15 to 20)
#    0.000    3.000    0.000    4.286    0.000    5.143 
#    0.000    2.857    0.000   10.714    0.000    0.000 
#    0.000    0.000    0.000    0.000    0.000    0.000 
#
# Total GULP energy -156061.289574 kJ/mol
# GULP energy per Si atom -5573.617485 kJ/mol
# Density = 2.532722 g / cm^3
# Si number density = 25.384998 Si / 1000 Ang^3
#
#
#
# Elastic Constant Matrix: (Units=GPa)
#
#
# Indices 1 2 3 4 5 6 
#
# 1 232.5898 9.8598 73.5186 0.0000 76.1766 0.0001
# 2 9.8598 41.8502 1.4899 -0.0002 10.3122 0.0003
# 3 73.5186 1.4899 65.7240 -0.0001 33.4188 0.0001
# 4 0.0000 -0.0002 -0.0001 2.1863 0.0001 15.7193
# 5 76.1766 10.3122 33.4188 0.0001 72.7438 0.0000
# 6 0.0001 0.0003 0.0001 15.7193 0.0000 10.2509
#
#
#
# Elastic Compliance Matrix: (Units=1/GPa)
#
#
# Indices 1 2 3 4 5 6 
#
# 1 0.008110 -0.000312 -0.006223 0.000000 -0.005590 0.000000
# 2 -0.000312 0.024901 0.001844 -0.000001 -0.004051 0.000000
# 3 -0.006223 0.001844 0.024731 0.000000 -0.005106 0.000000
# 4 0.000000 -0.000001 0.000000 -0.045623 0.000000 0.069962
# 5 -0.005590 -0.004051 -0.005106 0.000000 0.022521 0.000000
# 6 0.000000 0.000000 0.000000 0.069962 0.000000 -0.009730
#
#
# Mechanical properties :
#
#
# Convention : Reuss Voigt Hill
#
# Bulk Modulus (GPa) = 20.67812 56.65561 38.66687
# Shear Modulus (GPa) = 99.18643 34.05591 66.62117
#
# Velocity S-wave (km/s) = 6.25761 3.66673 5.12848
# Velocity P-wave (km/s) = 7.77005 6.34772 7.09462
#
# Compressibility (1/GPa) = 0.04836029
#
# Stress axis : x y z
#
# Youngs Moduli (GPa) = 123.29771 40.15956 40.43589
#
# Poissons Ratio (x) = 0.01252 0.25162
# Poissons Ratio (y) = 0.03844 -0.07456
# Poissons Ratio (z) = 0.76725 -0.07405
#
# Static dielectric constant tensor:
#      x y z
#    x 2.020590 0.000000 0.059010 
#    y 0.000000 1.756580 0.000000 
#    z 0.059010 0.000000 2.245760 
# 
# From -- ./inp_files/280235.got.cif
#   From: 2010.05.17/outbox.cif.g08.bks.cpg/sg12_141_cif.got.tgz:280235.got - 2010.06.03 13:09:07.
