data_PCOD9192873
_publ_section_title
;
Structure prediction by ZEFSAII (Michael W. Deem and Ramdas Pophale) SiO2 
 PCOD9192873
Probable space group: C 2/M
;
_chemical_formula_sum "Si O2"
_cell_formula_units_Z 64
_cell_length_a 8.717525
_cell_length_b 32.042976
_cell_length_c 23.037139
_cell_angle_alpha 90.000000
_cell_angle_beta 33.411086
_cell_angle_gamma 90.000000
_cell_volume 3543.432217
_symmetry_space_group_name_H-M "C 2/M"
_symmetry_group_IT_number 12
_symmetry_cell_setting 'monoclinic'
loop_
_space_group_symop_operation_xyz
x,y,z
-x,y,-z
-x,-y,-z
x,-y,z
1/2+x,1/2+y,z
1/2-x,1/2+y,-z
1/2-x,1/2-y,-z
1/2+x,1/2-y,z
loop_
_atom_site_type_symbol
_atom_site_label
_atom_site_fract_x
_atom_site_fract_y
_atom_site_fract_z
Si Si1 0.443101 0.339642 0.307327
Si Si2 0.478151 0.702100 0.074614
Si Si3 0.944608 0.693523 0.306290
Si Si4 0.055021 0.297029 0.915239
Si Si5 0.817129 0.546533 0.375712
Si Si6 0.110674 0.122362 0.374183
Si Si7 0.007753 0.411806 0.429528
Si Si8 0.562293 0.768641 0.392745
O O1 0.668658 0.320270 0.191880
O O2 0.611913 0.354652 0.311091
O O3 0.264855 0.379837 0.344371
O O4 0.210562 0.302945 0.387900
O O5 0.456508 0.749761 0.107594
O O6 0.206802 0.680200 0.184779
O O7 0.500000 0.707687 0.000000
O O8 0.769453 0.679238 0.991974
O O9 0.733421 0.655757 0.379744
O O10 0.773977 0.730124 0.328704
O O11 0.051312 0.709593 0.333972
O O12 0.000000 0.291486 0.000000
O O13 0.500000 0.545214 0.500000
O O14 0.891674 0.500000 0.331983
O O15 0.788561 0.580758 0.333194
O O16 0.999378 0.558778 0.375235
O O17 0.785089 0.112516 0.483815
O O18 0.000000 0.428419 0.500000
O O19 0.250000 0.750000 0.500000
#
# Coordination Sequence:
#
# PCOD9192873 Si02
#       8
#     8   8   8   8   8   8   8   8
#     4  11  20  37  53  74 109 141 182 222 268 310
#     4  10  21  34  52  71  96 133 185 233 278 314
#     4  12  23  36  52  72 102 140 186 226 272 315
#     4  10  20  34  52  70  97 137 181 230 276 309
#     4   9  18  35  56  80 111 143 175 209 258 322
#     4  10  21  35  55  77 107 144 174 219 267 314
#     4   9  19  33  53  81 111 145 174 211 259 310
#     4  12  25  36  48  71 103 146 190 226 257 315
#
# _framework density 18.061584
#
# number of rings (size 3 to 8) (size 9 to 14) (size 15 to 20)
#    0.000    1.625    1.250    4.125    3.500    4.250 
#    0.000    1.875    0.000    0.000    0.000    0.000 
#    0.000   17.500    0.000    0.000    0.000    0.000 
#
# Total GULP energy -178137.532269 kJ/mol
# GULP energy per Si atom -5566.797883 kJ/mol
# Density = 1.802047 g / cm^3
# Si number density = 18.061584 Si / 1000 Ang^3
#
#
#
# Elastic Constant Matrix: (Units=GPa)
#
#
# Indices 1 2 3 4 5 6 
#
# 1 98.6436 43.3270 34.5587 -0.0001 -7.4271 0.0000
# 2 43.3270 78.7637 10.6688 -0.0001 -0.1446 0.0001
# 3 34.5587 10.6688 94.3694 -0.0008 -3.9408 0.0009
# 4 -0.0001 -0.0001 -0.0008 5.9687 0.0002 1.2721
# 5 -7.4271 -0.1446 -3.9408 0.0002 25.1517 -0.0001
# 6 0.0000 0.0001 0.0009 1.2721 -0.0001 19.9173
#
#
#
# Elastic Compliance Matrix: (Units=1/GPa)
#
#
# Indices 1 2 3 4 5 6 
#
# 1 0.015517 -0.007902 -0.004630 -0.000001 0.003811 0.000000
# 2 -0.007902 0.016918 0.000893 0.000000 -0.002096 0.000000
# 3 -0.004630 0.000893 0.012214 0.000002 0.000552 -0.000001
# 4 -0.000001 0.000000 0.000002 0.169852 -0.000001 -0.010848
# 5 0.003811 -0.002096 0.000552 -0.000001 0.040959 0.000000
# 6 0.000000 0.000000 -0.000001 -0.010848 0.000000 0.050900
#
#
# Mechanical properties :
#
#
# Convention : Reuss Voigt Hill
#
# Bulk Modulus (GPa) = 46.78819 49.87619 48.33219
# Shear Modulus (GPa) = 14.84733 22.42237 18.63485
#
# Velocity S-wave (km/s) = 2.87023 3.52723 3.21555
# Velocity P-wave (km/s) = 6.07827 6.65304 6.37214
#
# Compressibility (1/GPa) = 0.02137292
#
# Stress axis : x y z
#
# Youngs Moduli (GPa) = 64.44473 59.10884 81.87175
#
# Poissons Ratio (x) = 0.46706 0.37907
# Poissons Ratio (y) = 0.50922 -0.07315
# Poissons Ratio (z) = 0.29838 -0.05281
#
# Static dielectric constant tensor:
#      x y z
#    x 1.653050 0.000000 0.025600 
#    y 0.000000 1.646710 0.000000 
#    z 0.025600 0.000000 1.649760 
# 
# From -- ./inp_files/334330.got.cif
#   From: 2010.05.17/outbox.cif.g08.bks.cpg/sg12_168_cif.got.tgz:334330.got - 2010.06.03 13:09:07.
