data_PCOD9192512
_publ_section_title
;
Structure prediction by ZEFSAII (Michael W. Deem and Ramdas Pophale) SiO2 
 PCOD9192512
Probable space group: C 2/M
;
_chemical_formula_sum "Si O2"
_cell_formula_units_Z 64
_cell_length_a 25.602239
_cell_length_b 22.292711
_cell_length_c 11.732609
_cell_angle_alpha 90.000000
_cell_angle_beta 148.406272
_cell_angle_gamma 90.000000
_cell_volume 3508.146736
_symmetry_space_group_name_H-M "C 2/M"
_symmetry_group_IT_number 12
_symmetry_cell_setting 'monoclinic'
loop_
_space_group_symop_operation_xyz
x,y,z
-x,y,-z
-x,-y,-z
x,-y,z
1/2+x,1/2+y,z
1/2-x,1/2+y,-z
1/2-x,1/2-y,-z
1/2+x,1/2-y,z
loop_
_atom_site_type_symbol
_atom_site_label
_atom_site_fract_x
_atom_site_fract_y
_atom_site_fract_z
Si Si1 0.854815 0.309822 0.326249
Si Si2 0.227481 0.932205 0.070784
Si Si3 0.462270 0.309417 0.087710
Si Si4 0.980514 0.936187 0.190616
Si Si5 0.097146 0.893334 0.618665
Si Si6 0.840163 0.793301 0.642280
Si Si7 0.422334 0.218980 0.199844
Si Si8 0.233383 0.806706 0.729716
O O1 0.801186 0.375042 0.221536
O O2 0.867623 0.283193 0.220990
O O3 0.794103 0.262827 0.292197
O O4 0.968998 0.310077 0.582922
O O5 0.271339 0.000000 0.159428
O O6 0.135704 0.929323 0.989853
O O7 0.168574 0.925668 0.841436
O O8 0.505738 0.376228 0.171436
O O9 0.555015 0.269546 0.215705
O O10 0.434986 0.283785 0.161228
O O11 0.375761 0.313414 0.833557
O O12 0.047222 0.934143 0.428883
O O13 0.994976 0.000000 0.159421
O O14 0.162451 0.843048 0.681366
O O15 0.000000 0.866286 0.500000
O O16 0.750000 0.750000 0.500000
O O17 0.793075 0.827628 0.446436
O O18 0.348262 0.185140 0.975850
#
# Coordination Sequence:
#
# PCOD9192512 Si02
#       8
#     8   8   8   8   8   8   8   8
#     4  11  23  34  56  88 113 148 185 230 287 343
#     4  10  21  36  54  80 118 157 192 225 271 339
#     4  11  22  38  57  84 119 146 189 237 286 340
#     4  10  20  35  58  85 114 152 190 228 277 341
#     4  10  20  33  57  85 117 151 183 227 280 340
#     4  11  23  37  56  80 110 155 183 229 292 337
#     4  11  22  35  55  87 113 143 185 233 287 342
#     4  12  21  35  58  85 116 146 185 237 284 344
#
# _framework density 18.243251000000001
#
# number of rings (size 3 to 8) (size 9 to 14) (size 15 to 20)
#    0.000    1.250    5.000    1.500    5.250    1.500 
#    0.000    2.500    0.000    0.000    0.000    0.000 
#    0.000    4.000    0.000    0.000    0.000    0.000 
#
# Total GULP energy -178145.409399 kJ/mol
# GULP energy per Si atom -5567.044044 kJ/mol
# Density = 1.820173 g / cm^3
# Si number density = 18.243251 Si / 1000 Ang^3
#
#
#
# Elastic Constant Matrix: (Units=GPa)
#
#
# Indices 1 2 3 4 5 6 
#
# 1 37.4939 28.5756 20.2396 0.0000 -0.0544 0.0000
# 2 28.5756 102.0909 36.1327 0.0000 5.3863 0.0000
# 3 20.2396 36.1327 141.3557 0.0000 -5.3053 0.0000
# 4 0.0000 0.0000 0.0000 13.8671 0.0000 3.2777
# 5 -0.0544 5.3863 -5.3053 0.0000 28.8907 0.0000
# 6 0.0000 0.0000 0.0000 3.2777 0.0000 10.2573
#
#
#
# Elastic Compliance Matrix: (Units=1/GPa)
#
#
# Indices 1 2 3 4 5 6 
#
# 1 0.034888 -0.008882 -0.002679 0.000000 0.001230 0.000000
# 2 -0.008882 0.013218 -0.002215 0.000000 -0.002888 0.000000
# 3 -0.002679 -0.002215 0.008095 0.000000 0.001895 0.000000
# 4 0.000000 0.000000 0.000000 0.078005 0.000000 -0.024927
# 5 0.001230 -0.002888 0.001895 0.000000 0.035502 0.000000
# 6 0.000000 0.000000 0.000000 -0.024927 0.000000 0.105457
#
#
# Mechanical properties :
#
#
# Convention : Reuss Voigt Hill
#
# Bulk Modulus (GPa) = 34.90546 50.09293 42.49919
# Shear Modulus (GPa) = 16.01193 23.66919 19.84056
#
# Velocity S-wave (km/s) = 2.96580 3.60588 3.30139
# Velocity P-wave (km/s) = 5.55903 6.69735 6.15456
#
# Compressibility (1/GPa) = 0.02864882
#
# Stress axis : x y z
#
# Youngs Moduli (GPa) = 28.66298 75.65593 123.52886
#
# Poissons Ratio (x) = 0.67198 0.33091
# Poissons Ratio (y) = 0.25459 0.27365
# Poissons Ratio (z) = 0.07678 0.16760
#
# Static dielectric constant tensor:
#      x y z
#    x 1.694210 0.000000 -0.020860 
#    y 0.000000 1.657040 0.000000 
#    z -0.020860 0.000000 1.677370 
# 
# From -- ./inp_files/184978.got.cif
#   From: 2010.05.17/outbox.cif.g08.bks.cpg/sg12_93_cif.got.tgz:184978.got - 2010.06.03 13:09:07.
