data_PCOD9192905
_publ_section_title
;
Structure prediction by ZEFSAII (Michael W. Deem and Ramdas Pophale) SiO2 
 PCOD9192905
Probable space group: C 2/M
;
_chemical_formula_sum "Si O2"
_cell_formula_units_Z 56
_cell_length_a 17.111765
_cell_length_b 13.692367
_cell_length_c 19.225166
_cell_angle_alpha 90.000000
_cell_angle_beta 38.943489
_cell_angle_gamma 90.000000
_cell_volume 2831.299053
_symmetry_space_group_name_H-M "C 2/M"
_symmetry_group_IT_number 12
_symmetry_cell_setting 'monoclinic'
loop_
_space_group_symop_operation_xyz
x,y,z
-x,y,-z
-x,-y,-z
x,-y,z
1/2+x,1/2+y,z
1/2-x,1/2+y,-z
1/2-x,1/2-y,-z
1/2+x,1/2-y,z
loop_
_atom_site_type_symbol
_atom_site_label
_atom_site_fract_x
_atom_site_fract_y
_atom_site_fract_z
Si Si1 0.001816 0.888917 0.295643
Si Si2 0.061039 0.391298 0.750220
Si Si3 0.798844 0.189246 0.339301
Si Si4 0.389264 0.108964 0.123137
Si Si5 0.816972 0.278991 0.882143
Si Si6 0.032221 0.752271 0.554696
Si Si7 0.763035 0.707582 0.772917
O O1 0.890494 0.880721 0.316965
O O2 0.954364 0.838403 0.399275
O O3 0.111663 0.819418 0.191584
O O4 0.039909 0.000000 0.279438
O O5 0.095890 0.500000 0.699930
O O6 0.152856 0.299424 0.674605
O O7 0.059339 0.397088 0.834820
O O8 0.925314 0.358015 0.819626
O O9 0.656302 0.188641 0.462438
O O10 0.801508 0.170926 0.253659
O O11 0.269928 0.177145 0.207856
O O12 0.361660 0.000000 0.116339
O O13 0.500000 0.152224 0.000000
O O14 0.734510 0.316018 0.873414
O O15 0.750000 0.250000 0.000000
O O16 0.000000 0.790770 0.500000
O O17 0.910258 0.692035 0.661928
#
# Coordination Sequence:
#
# PCOD9192905 Si02
#       7
#     8   8   8   8   8   8   8
#     4  10  21  35  53  79 108 138 174 214 258 313
#     4   9  18  31  47  69  95 126 167 208 246 299
#     4   9  18  35  54  73 103 138 172 207 252 309
#     4   9  16  27  45  68  94 125 161 205 258 310
#     4  10  20  34  52  73 101 136 171 216 268 308
#     4   9  18  33  54  77 104 136 168 210 263 312
#     4   9  18  31  50  74 100 132 172 215 255 302
#
# _framework density 19.778905999999999
#
# number of rings (size 3 to 8) (size 9 to 14) (size 15 to 20)
#    0.000    2.714    0.000    1.286    0.000    3.714 
#    0.000    5.000    0.000    4.714    0.000    0.000 
#    0.000    0.000    0.000    0.000    0.000    0.000 
#
# Total GULP energy -155874.388808 kJ/mol
# GULP energy per Si atom -5566.942457 kJ/mol
# Density = 1.973389 g / cm^3
# Si number density = 19.778906 Si / 1000 Ang^3
#
#
#
# Elastic Constant Matrix: (Units=GPa)
#
#
# Indices 1 2 3 4 5 6 
#
# 1 104.6442 -2.8374 11.4757 0.0000 22.0950 0.0000
# 2 -2.8374 20.5457 -8.0825 0.0000 5.1523 0.0000
# 3 11.4757 -8.0825 68.1453 0.0000 19.7558 0.0000
# 4 0.0000 0.0000 0.0000 3.5957 0.0000 0.3368
# 5 22.0950 5.1523 19.7558 0.0000 26.9166 0.0000
# 6 0.0000 0.0000 0.0000 0.3368 0.0000 3.6758
#
#
#
# Elastic Compliance Matrix: (Units=1/GPa)
#
#
# Indices 1 2 3 4 5 6 
#
# 1 0.012166 0.005830 0.002364 0.000000 -0.012838 0.000000
# 2 0.005830 0.061841 0.014192 0.000000 -0.027039 0.000000
# 3 0.002364 0.014192 0.021989 0.000000 -0.020796 0.000000
# 4 0.000000 0.000000 0.000000 0.280516 0.000000 -0.025700
# 5 -0.012838 -0.027039 -0.020796 0.000000 0.068129 0.000000
# 6 0.000000 0.000000 0.000000 -0.025700 0.000000 0.274402
#
#
# Mechanical properties :
#
#
# Convention : Reuss Voigt Hill
#
# Bulk Modulus (GPa) = 7.10399 21.60521 14.35460
# Shear Modulus (GPa) = 6.93297 19.68958 13.31128
#
# Velocity S-wave (km/s) = 1.87426 3.15855 2.59705
# Velocity P-wave (km/s) = 2.87807 4.92433 4.03313
#
# Compressibility (1/GPa) = 0.14076602
#
# Stress axis : x y z
#
# Youngs Moduli (GPa) = 82.19929 16.17062 45.47820
#
# Poissons Ratio (x) = -0.09427 -0.10753
# Poissons Ratio (y) = -0.47918 -0.64541
# Poissons Ratio (z) = -0.19436 -0.22949
#
# Static dielectric constant tensor:
#      x y z
#    x 1.777180 0.000000 0.007460 
#    y 0.000000 1.677800 0.000000 
#    z 0.007460 0.000000 1.730250 
# 
# From -- ./inp_files/277823.got.cif
#   From: 2010.05.17/outbox.cif.g08.bks.cpg/sg12_139_cif.got.tgz:277823.got - 2010.06.03 13:09:07.
