data_PCOD9192293
_publ_section_title
;
Structure prediction by ZEFSAII (Michael W. Deem and Ramdas Pophale) SiO2 
 PCOD9192293
Probable space group: C 2/M
;
_chemical_formula_sum "Si O2"
_cell_formula_units_Z 48
_cell_length_a 20.690650
_cell_length_b 12.391683
_cell_length_c 12.316325
_cell_angle_alpha 90.000000
_cell_angle_beta 56.683497
_cell_angle_gamma 90.000000
_cell_volume 2638.818782
_symmetry_space_group_name_H-M "C 2/M"
_symmetry_group_IT_number 12
_symmetry_cell_setting 'monoclinic'
loop_
_space_group_symop_operation_xyz
x,y,z
-x,y,-z
-x,-y,-z
x,-y,z
1/2+x,1/2+y,z
1/2-x,1/2+y,-z
1/2-x,1/2-y,-z
1/2+x,1/2-y,z
loop_
_atom_site_type_symbol
_atom_site_label
_atom_site_fract_x
_atom_site_fract_y
_atom_site_fract_z
Si Si1 0.043110 0.500000 0.789788
Si Si2 0.865492 0.294858 0.348649
Si Si3 0.916500 0.123405 0.121182
Si Si4 0.285561 0.385892 0.064531
Si Si5 0.695202 0.622403 0.438666
Si Si6 0.123207 0.500000 0.954200
Si Si7 0.732895 0.655527 0.159631
O O1 0.072355 0.391077 0.704283
O O2 0.951602 0.500000 0.899371
O O3 0.088353 0.500000 0.864708
O O4 0.886254 0.211188 0.233528
O O5 0.782909 0.350173 0.396623
O O6 0.855346 0.217719 0.462285
O O7 0.919818 0.000000 0.162509
O O8 0.860618 0.119653 0.069477
O O9 0.000000 0.154740 0.000000
O O10 0.245259 0.500000 0.122964
O O11 0.303852 0.381250 0.919876
O O12 0.236624 0.283538 0.144268
O O13 0.675839 0.500000 0.491839
O O14 0.694776 0.625377 0.308418
O O15 0.180939 0.601806 0.917076
#
# Coordination Sequence:
#
# PCOD9192293 Si02
#       7
#     4   8   8   8   8   4   8
#     4  11  22  34  54  85 119 146 191 221 296 323
#     4  11  21  34  52  81 112 152 183 230 281 335
#     4  10  21  36  54  82 115 145 184 231 284 334
#     4  10  20  33  54  83 114 144 183 229 284 335
#     4  11  20  35  54  77 115 146 190 233 271 331
#     4  11  20  34  58  83 116 149 180 244 271 347
#     4  11  19  36  56  85 112 145 188 232 283 325
#
# _framework density 18.189955999999999
#
# number of rings (size 3 to 8) (size 9 to 14) (size 15 to 20)
#    0.000    1.333    5.833    0.500    4.667    0.000 
#    1.500    0.000    0.000    1.000    0.000    9.333 
#    0.000    0.000    0.000    0.000    0.000    0.000 
#
# Total GULP energy -133825.951100 kJ/mol
# GULP energy per Si atom -5576.081296 kJ/mol
# Density = 1.814855 g / cm^3
# Si number density = 18.189956 Si / 1000 Ang^3
#
#
#
# Elastic Constant Matrix: (Units=GPa)
#
#
# Indices 1 2 3 4 5 6 
#
# 1 15.6613 20.6519 32.0356 0.0000 3.3603 0.0000
# 2 20.6519 149.7092 58.7930 0.0000 -2.6166 0.0000
# 3 32.0356 58.7930 101.2920 0.0000 1.9441 0.0000
# 4 0.0000 0.0000 0.0000 15.2751 0.0000 -1.6222
# 5 3.3603 -2.6166 1.9441 0.0000 19.7345 0.0000
# 6 0.0000 0.0000 0.0000 -1.6222 0.0000 15.8664
#
#
#
# Elastic Compliance Matrix: (Units=1/GPa)
#
#
# Indices 1 2 3 4 5 6 
#
# 1 0.196510 -0.004413 -0.059047 0.000000 -0.028229 0.000000
# 2 -0.004413 0.008804 -0.003759 0.000000 0.002289 0.000000
# 3 -0.059047 -0.003759 0.030603 0.000000 0.006541 0.000000
# 4 0.000000 0.000000 0.000000 0.066184 0.000000 0.006767
# 5 -0.028229 0.002289 0.006541 0.000000 0.055139 0.000000
# 6 0.000000 0.000000 0.000000 0.006767 0.000000 0.063718
#
#
# Mechanical properties :
#
#
# Convention : Reuss Voigt Hill
#
# Bulk Modulus (GPa) = 9.85410 54.40264 32.12837
# Shear Modulus (GPa) = 8.48576 20.52065 14.50321
#
# Velocity S-wave (km/s) = 2.16222 3.36241 2.82675
# Velocity P-wave (km/s) = 3.41507 6.71174 5.32495
#
# Compressibility (1/GPa) = 0.10148059
#
# Stress axis : x y z
#
# Youngs Moduli (GPa) = 5.08881 113.57910 32.67607
#
# Poissons Ratio (x) = 0.50118 1.92943
# Poissons Ratio (y) = 0.02245 0.12282
# Poissons Ratio (z) = 0.30048 0.42691
#
# Static dielectric constant tensor:
#      x y z
#    x 1.618260 0.000000 0.018790 
#    y 0.000000 1.673470 0.000000 
#    z 0.018790 0.000000 1.624280 
# 
# From -- ./inp_files/174419.got.cif
#   From: 2010.05.17/outbox.cif.g08.bks.cpg/sg12_88_cif.got.tgz:174419.got - 2010.06.03 13:09:07.
