data_PCOD9192812
_publ_section_title
;
Structure prediction by ZEFSAII (Michael W. Deem and Ramdas Pophale) SiO2 
 PCOD9192812
Probable space group: C 2/M
;
_chemical_formula_sum "Si O2"
_cell_formula_units_Z 48
_cell_length_a 23.056148
_cell_length_b 8.756419
_cell_length_c 29.556691
_cell_angle_alpha 90.000000
_cell_angle_beta 28.476965
_cell_angle_gamma 90.000000
_cell_volume 2845.183406
_symmetry_space_group_name_H-M "C 2/M"
_symmetry_group_IT_number 12
_symmetry_cell_setting 'monoclinic'
loop_
_space_group_symop_operation_xyz
x,y,z
-x,y,-z
-x,-y,-z
x,-y,z
1/2+x,1/2+y,z
1/2-x,1/2+y,-z
1/2-x,1/2-y,-z
1/2+x,1/2-y,z
loop_
_atom_site_type_symbol
_atom_site_label
_atom_site_fract_x
_atom_site_fract_y
_atom_site_fract_z
Si Si1 0.114709 0.317736 0.089393
Si Si2 0.452235 0.316538 0.280997
Si Si3 0.213608 0.816269 0.475937
Si Si4 0.805899 0.183287 0.145775
Si Si5 0.956732 0.816876 0.680560
Si Si6 0.465565 0.315146 0.950519
O O1 0.119744 0.500000 0.088484
O O2 0.033864 0.252486 0.185626
O O3 0.058886 0.263879 0.080065
O O4 0.250000 0.250000 0.000000
O O5 0.451033 0.500000 0.279480
O O6 0.314072 0.254101 0.374030
O O7 0.507906 0.272036 0.292023
O O8 0.250000 0.750000 0.500000
O O9 0.071007 0.774959 0.570090
O O10 0.223598 0.000000 0.469365
O O11 0.672373 0.248599 0.243849
O O12 0.905208 0.226827 0.115503
O O13 0.800124 0.000000 0.149805
O O14 0.863015 0.227972 0.057949
O O15 0.948105 0.000000 0.686220
O O16 0.462114 0.500000 0.947740
#
# Coordination Sequence:
#
# PCOD9192812 Si02
#       6
#     8   8   8   8   8   8
#     4  12  24  36  52  75 102 135 168 202 246 298
#     4  10  20  34  51  74 103 135 168 208 253 299
#     4   9  17  30  47  71 102 135 168 207 252 298
#     4   9  18  32  53  75  98 130 167 206 249 292
#     4   9  18  30  48  75 104 130 163 204 248 295
#     4   9  19  36  52  72 101 132 167 207 247 293
#
# _framework density 16.870618
#
# number of rings (size 3 to 8) (size 9 to 14) (size 15 to 20)
#    0.000    2.333    0.000    5.500    0.000    8.000 
#    0.000    1.667    0.000    1.000    0.000    7.000 
#    0.000    0.000    0.000    0.000    0.000    0.000 
#
# Total GULP energy -133845.853599 kJ/mol
# GULP energy per Si atom -5576.910567 kJ/mol
# Density = 1.683222 g / cm^3
# Si number density = 16.870618 Si / 1000 Ang^3
#
#
#
# Elastic Constant Matrix: (Units=GPa)
#
#
# Indices 1 2 3 4 5 6 
#
# 1 64.8559 32.3220 65.7547 0.0026 -3.4610 -0.0046
# 2 32.3220 63.0805 56.0803 0.0017 -1.0460 0.0004
# 3 65.7547 56.0803 184.4150 0.0008 -16.9311 -0.0015
# 4 0.0026 0.0017 0.0008 33.8615 -0.0005 -3.9772
# 5 -3.4610 -1.0460 -16.9311 -0.0005 27.3938 0.0017
# 6 -0.0046 0.0004 -0.0015 -3.9772 0.0017 25.5572
#
#
#
# Elastic Compliance Matrix: (Units=1/GPa)
#
#
# Indices 1 2 3 4 5 6 
#
# 1 0.026299 -0.006907 -0.007417 -0.000001 -0.001525 0.000004
# 2 -0.006907 0.023853 -0.005075 -0.000001 -0.003099 -0.000002
# 3 -0.007417 -0.005075 0.010079 0.000001 0.005098 -0.000001
# 4 -0.000001 -0.000001 0.000001 0.030082 0.000000 0.004681
# 5 -0.001525 -0.003099 0.005098 0.000000 0.039345 -0.000002
# 6 0.000004 -0.000002 -0.000001 0.004681 -0.000002 0.039856
#
#
# Mechanical properties :
#
#
# Convention : Reuss Voigt Hill
#
# Bulk Modulus (GPa) = 46.65909 68.96281 57.81095
# Shear Modulus (GPa) = 23.20664 27.90880 25.55772
#
# Velocity S-wave (km/s) = 3.71289 4.07170 3.89643
# Velocity P-wave (km/s) = 6.78953 7.94174 7.38813
#
# Compressibility (1/GPa) = 0.02143205
#
# Stress axis : x y z
#
# Youngs Moduli (GPa) = 38.02387 41.92428 99.22109
#
# Poissons Ratio (x) = 0.28958 0.73590
# Poissons Ratio (y) = 0.26264 0.50357
# Poissons Ratio (z) = 0.28201 0.21277
#
# Static dielectric constant tensor:
#      x y z
#    x 1.476330 0.000000 -0.073930 
#    y 0.000000 1.564870 0.000000 
#    z -0.073930 0.000000 1.533740 
# 
# From -- ./inp_files/236601.got.cif
#   From: 2010.05.17/outbox.cif.g08.bks.cpg/sg12_119_cif.got.tgz:236601.got - 2010.06.03 13:09:07.
