data_PCOD9192240
_publ_section_title
;
Structure prediction by ZEFSAII (Michael W. Deem and Ramdas Pophale) SiO2 
 PCOD9192240
Probable space group: C 2/M
;
_chemical_formula_sum "Si O2"
_cell_formula_units_Z 36
_cell_length_a 22.431856
_cell_length_b 7.459459
_cell_length_c 9.241349
_cell_angle_alpha 90.000000
_cell_angle_beta 71.894486
_cell_angle_gamma 90.000000
_cell_volume 1469.784142
_symmetry_space_group_name_H-M "C 2/M"
_symmetry_group_IT_number 12
_symmetry_cell_setting 'monoclinic'
loop_
_space_group_symop_operation_xyz
x,y,z
-x,y,-z
-x,-y,-z
x,-y,z
1/2+x,1/2+y,z
1/2-x,1/2+y,-z
1/2-x,1/2-y,-z
1/2+x,1/2-y,z
loop_
_atom_site_type_symbol
_atom_site_label
_atom_site_fract_x
_atom_site_fract_y
_atom_site_fract_z
Si Si1 0.443811 0.795286 0.946967
Si Si2 0.255787 0.500000 0.810370
Si Si3 0.665166 0.203598 0.412965
Si Si4 0.848847 0.500000 0.316559
Si Si5 0.572230 0.500000 0.412754
Si Si6 0.007974 0.500000 0.665431
Si Si7 0.144172 0.000000 0.051400
O O1 0.382009 0.676896 0.005253
O O2 0.434726 0.000000 0.005900
O O3 0.471310 0.831116 0.765677
O O4 0.500000 0.715941 0.000000
O O5 0.287229 0.323975 0.713735
O O6 0.184779 0.500000 0.812124
O O7 0.283879 0.500000 0.952036
O O8 0.679163 0.168447 0.570909
O O9 0.602383 0.321084 0.457999
O O10 0.658752 0.000000 0.356826
O O11 0.921893 0.500000 0.316666
O O12 0.500000 0.500000 0.500000
O O13 0.600768 0.500000 0.229323
O O14 0.000000 0.500000 0.500000
#
# Coordination Sequence:
#
# PCOD9192240 Si02
#       7
#     8   4   8   4   4   4   4
#     4   9  21  40  59  84 114 155 190 231 291 350
#     4  10  20  35  47  82 109 157 195 230 282 337
#     4   8  19  31  46  66 106 161 185 219 274 355
#     4  10  20  33  54  72 121 153 185 235 288 346
#     4  10  22  29  45  82 119 143 181 234 299 339
#     4  10  23  33  60  91 113 148 184 239 299 335
#     4  10  21  30  60  81 106 147 204 238 267 345
#
# _framework density 24.493393000000001
#
# number of rings (size 3 to 8) (size 9 to 14) (size 15 to 20)
#    1.333    1.556    0.000    1.000    9.333    4.000 
#    0.000    0.000    0.000    1.333    0.000    0.000 
#    0.000    0.000    0.000    0.000    0.000    0.000 
#
# Total GULP energy -100301.346739 kJ/mol
# GULP energy per Si atom -5572.297041 kJ/mol
# Density = 2.443765 g / cm^3
# Si number density = 24.493393 Si / 1000 Ang^3
#
#
#
# Elastic Constant Matrix: (Units=GPa)
#
#
# Indices 1 2 3 4 5 6 
#
# 1 156.7449 58.1571 33.8153 0.0000 21.5105 0.0000
# 2 58.1571 165.3721 13.7429 0.0000 8.5265 0.0000
# 3 33.8153 13.7429 62.3853 0.0000 11.9892 0.0000
# 4 0.0000 0.0000 0.0000 18.4378 0.0000 -0.7244
# 5 21.5105 8.5265 11.9892 0.0000 39.2364 0.0000
# 6 0.0000 0.0000 0.0000 -0.7244 0.0000 8.9281
#
#
#
# Elastic Compliance Matrix: (Units=1/GPa)
#
#
# Indices 1 2 3 4 5 6 
#
# 1 0.008485 -0.002540 -0.003455 0.000000 -0.003044 0.000000
# 2 -0.002540 0.006956 -0.000141 0.000000 -0.000076 0.000000
# 3 -0.003455 -0.000141 0.018659 0.000000 -0.003777 0.000000
# 4 0.000000 0.000000 0.000000 0.054410 0.000000 0.004415
# 5 -0.003044 -0.000076 -0.003777 0.000000 0.028326 0.000000
# 6 0.000000 0.000000 0.000000 0.004415 0.000000 0.112364
#
#
# Mechanical properties :
#
#
# Convention : Reuss Voigt Hill
#
# Bulk Modulus (GPa) = 45.81134 66.21478 56.01306
# Shear Modulus (GPa) = 20.10073 31.90629 26.00351
#
# Velocity S-wave (km/s) = 2.86782 3.61314 3.26184
# Velocity P-wave (km/s) = 5.45069 6.67074 6.09134
#
# Compressibility (1/GPa) = 0.02182866
#
# Stress axis : x y z
#
# Youngs Moduli (GPa) = 117.85099 143.76382 53.59369
#
# Poissons Ratio (x) = 0.36516 0.18515
# Poissons Ratio (y) = 0.29934 0.00755
# Poissons Ratio (z) = 0.40715 0.02026
#
# Static dielectric constant tensor:
#      x y z
#    x 1.986190 0.000000 0.003180 
#    y 0.000000 1.992330 0.000000 
#    z 0.003180 0.000000 2.056500 
# 
# From -- ./inp_files/171198.got.cif
#   From: 2010.05.17/outbox.cif.g08.bks.cpg/sg12_86_cif.got.tgz:171198.got - 2010.06.03 13:09:07.
