data_PCOD9192147
_publ_section_title
;
Structure prediction by ZEFSAII (Michael W. Deem and Ramdas Pophale) SiO2 
 PCOD9192147
Probable space group: C 2/M
;
_chemical_formula_sum "Si O2"
_cell_formula_units_Z 56
_cell_length_a 31.039306
_cell_length_b 8.550624
_cell_length_c 12.083967
_cell_angle_alpha 90.000000
_cell_angle_beta 63.672634
_cell_angle_gamma 90.000000
_cell_volume 2874.487884
_symmetry_space_group_name_H-M "C 2/M"
_symmetry_group_IT_number 12
_symmetry_cell_setting 'monoclinic'
loop_
_space_group_symop_operation_xyz
x,y,z
-x,y,-z
-x,-y,-z
x,-y,z
1/2+x,1/2+y,z
1/2-x,1/2+y,-z
1/2-x,1/2-y,-z
1/2+x,1/2-y,z
loop_
_atom_site_type_symbol
_atom_site_label
_atom_site_fract_x
_atom_site_fract_y
_atom_site_fract_z
Si Si1 0.851510 0.814046 0.941609
Si Si2 0.769541 0.311542 0.173436
Si Si3 0.388573 0.813217 0.427856
Si Si4 0.297510 0.188404 0.385571
Si Si5 0.968396 0.183036 0.188916
Si Si6 0.433444 0.817399 0.004012
Si Si7 0.657057 0.688449 0.300046
O O1 0.888546 0.730093 0.980876
O O2 0.858987 0.768830 0.805439
O O3 0.857736 0.000000 0.943377
O O4 0.798109 0.768609 0.041818
O O5 0.772433 0.500000 0.157743
O O6 0.795014 0.265547 0.259949
O O7 0.713497 0.269262 0.245946
O O8 0.344782 0.759994 0.397503
O O9 0.436942 0.734050 0.329000
O O10 0.373298 0.766866 0.568569
O O11 0.393151 0.000000 0.412835
O O12 0.250000 0.250000 0.500000
O O13 0.296379 0.000000 0.389926
O O14 0.017631 0.278572 0.117868
O O15 0.979747 0.000000 0.178712
O O16 0.937764 0.222208 0.113293
O O17 0.431213 0.000000 0.034841
O O18 0.653930 0.500000 0.315349
#
# Coordination Sequence:
#
# PCOD9192147 Si02
#       7
#     8   8   8   8   8   8   8
#     4  11  23  38  58  85 115 153 202 246 291 344
#     4  10  20  36  57  82 115 155 197 242 295 347
#     4  11  22  36  57  88 121 157 196 237 291 349
#     4  10  20  33  53  80 113 148 186 232 281 337
#     4  11  22  39  65  93 120 150 186 234 291 349
#     4  11  22  40  64  90 120 150 188 239 292 346
#     4  10  22  39  57  80 116 160 202 245 288 342
#
# _framework density 19.481731
#
# number of rings (size 3 to 8) (size 9 to 14) (size 15 to 20)
#    0.000    1.429    1.429    5.571    0.000    4.000 
#    0.000    0.714    0.000    4.286    0.000    0.000 
#    0.000    0.000    0.000    0.000    0.000    0.000 
#
# Total GULP energy -156568.750452 kJ/mol
# GULP energy per Si atom -5591.741088 kJ/mol
# Density = 1.943739 g / cm^3
# Si number density = 19.481731 Si / 1000 Ang^3
#
#
#
# Elastic Constant Matrix: (Units=GPa)
#
#
# Indices 1 2 3 4 5 6 
#
# 1 34.7012 -0.9926 15.0678 0.0000 -0.7796 0.0000
# 2 -0.9926 23.7496 2.0030 0.0000 2.5846 0.0000
# 3 15.0678 2.0030 95.6563 0.0000 -9.6190 0.0000
# 4 0.0000 0.0000 0.0000 31.5845 0.0000 -6.1605
# 5 -0.7796 2.5846 -9.6190 0.0000 20.0810 0.0000
# 6 0.0000 0.0000 0.0000 -6.1605 0.0000 24.3411
#
#
#
# Elastic Compliance Matrix: (Units=1/GPa)
#
#
# Indices 1 2 3 4 5 6 
#
# 1 0.031043 0.001886 -0.005077 0.000000 -0.001470 0.000000
# 2 0.001886 0.043030 -0.001836 0.000000 -0.006345 0.000000
# 3 -0.005077 -0.001836 0.011868 0.000000 0.005724 0.000000
# 4 0.000000 0.000000 0.000000 0.033305 0.000000 0.008429
# 5 -0.001470 -0.006345 0.005724 0.000000 0.053300 0.000000
# 6 0.000000 0.000000 0.000000 0.008429 0.000000 0.043216
#
#
# Mechanical properties :
#
#
# Convention : Reuss Voigt Hill
#
# Bulk Modulus (GPa) = 13.17773 20.69595 16.93684
# Shear Modulus (GPa) = 19.91138 24.40324 22.15731
#
# Velocity S-wave (km/s) = 3.20043 3.54308 3.37610
# Velocity P-wave (km/s) = 4.52060 5.23299 4.88979
#
# Compressibility (1/GPa) = 0.07588561
#
# Stress axis : x y z
#
# Youngs Moduli (GPa) = 32.21338 23.23956 84.26090
#
# Poissons Ratio (x) = -0.04382 0.42781
# Poissons Ratio (y) = -0.06074 0.15471
# Poissons Ratio (z) = 0.16355 0.04267
#
# Static dielectric constant tensor:
#      x y z
#    x 1.678990 0.000000 0.003860 
#    y 0.000000 1.659280 0.000000 
#    z 0.003860 0.000000 1.669180 
# 
# From -- ./inp_files/180869.got.cif
#   From: 2010.05.17/outbox.cif.g08.bks.cpg/sg12_91_cif.got.tgz:180869.got - 2010.06.03 13:09:07.
