data_PCOD9192785
_publ_section_title
;
Structure prediction by ZEFSAII (Michael W. Deem and Ramdas Pophale) SiO2 
 PCOD9192785
Probable space group: C 2/M
;
_chemical_formula_sum "Si O2"
_cell_formula_units_Z 64
_cell_length_a 14.612543
_cell_length_b 8.448465
_cell_length_c 32.626805
_cell_angle_alpha 90.000000
_cell_angle_beta 63.394991
_cell_angle_gamma 90.000000
_cell_volume 3601.401844
_symmetry_space_group_name_H-M "C 2/M"
_symmetry_group_IT_number 12
_symmetry_cell_setting 'monoclinic'
loop_
_space_group_symop_operation_xyz
x,y,z
-x,y,-z
-x,-y,-z
x,-y,z
1/2+x,1/2+y,z
1/2-x,1/2+y,-z
1/2-x,1/2-y,-z
1/2+x,1/2-y,z
loop_
_atom_site_type_symbol
_atom_site_label
_atom_site_fract_x
_atom_site_fract_y
_atom_site_fract_z
Si Si1 0.355455 0.691318 0.248278
Si Si2 0.101900 0.191316 0.502788
Si Si3 0.176534 0.689336 0.573040
Si Si4 0.640970 0.808635 0.253420
Si Si5 0.429275 0.191191 0.822209
Si Si6 0.676175 0.191202 0.073098
Si Si7 0.397692 0.308640 0.997667
Si Si8 0.425709 0.689348 0.323953
O O1 0.356318 0.500000 0.247373
O O2 0.248161 0.745871 0.250911
O O3 0.454029 0.750972 0.203710
O O4 0.372019 0.742344 0.292175
O O5 0.111091 0.250604 0.547437
O O6 0.206360 0.242525 0.458968
O O7 0.000000 0.245874 0.500000
O O8 0.100941 0.000000 0.503675
O O9 0.175471 0.500000 0.573292
O O10 0.132133 0.749856 0.624545
O O11 0.624673 0.757502 0.209444
O O12 0.542303 0.749410 0.297983
O O13 0.640219 0.000000 0.254269
O O14 0.370963 0.246744 0.874546
O O15 0.429295 0.000000 0.822484
O O16 0.612109 0.249204 0.046829
O O17 0.675465 0.000000 0.073392
O O18 0.793556 0.242383 0.041707
O O19 0.398635 0.500000 0.996838
O O20 0.500000 0.254048 0.000000
O O21 0.426238 0.500000 0.324300
#
# Coordination Sequence:
#
# PCOD9192785 Si02
#       8
#     8   8   8   8   8   8   8   8
#     4   9  19  34  52  74  99 128 164 205 244 287
#     4   9  19  36  55  76 103 133 166 205 248 292
#     4  10  20  34  53  76 102 133 168 205 246 292
#     4   9  18  34  53  73  98 128 163 202 245 291
#     4   9  18  32  50  71  98 130 161 198 244 295
#     4   9  18  32  48  70  99 128 160 199 245 292
#     4   9  18  32  50  71  95 126 164 203 242 287
#     4  10  20  34  51  73 102 132 164 204 246 289
#
# _framework density 17.770859000000002
#
# number of rings (size 3 to 8) (size 9 to 14) (size 15 to 20)
#    0.000    2.750    0.000    0.750    0.000    4.500 
#    0.000    5.000    0.000    0.000    0.000    0.000 
#    0.000    0.000    0.000    0.000    0.000    0.000 
#
# Total GULP energy -178457.395962 kJ/mol
# GULP energy per Si atom -5576.793624 kJ/mol
# Density = 1.773041 g / cm^3
# Si number density = 17.770859 Si / 1000 Ang^3
#
#
#
# Elastic Constant Matrix: (Units=GPa)
#
#
# Indices 1 2 3 4 5 6 
#
# 1 169.1009 19.9796 77.4899 0.0000 -0.0078 0.0000
# 2 19.9796 4.6166 17.5703 0.0000 0.1673 0.0000
# 3 77.4899 17.5703 165.7520 0.0000 -0.0127 0.0000
# 4 0.0000 0.0000 0.0000 14.1903 0.0000 -11.8437
# 5 -0.0078 0.1673 -0.0127 0.0000 7.0223 0.0000
# 6 0.0000 0.0000 0.0000 -11.8437 0.0000 8.8931
#
#
#
# Elastic Compliance Matrix: (Units=1/GPa)
#
#
# Indices 1 2 3 4 5 6 
#
# 1 0.012116 -0.051834 -0.000169 0.000000 0.001248 0.000000
# 2 -0.051834 0.585391 -0.037822 -0.000002 -0.014070 -0.000002
# 3 -0.000169 -0.037822 0.010122 0.000000 0.000919 0.000000
# 4 0.000000 -0.000002 0.000000 -0.631691 0.000000 -0.841279
# 5 0.001248 -0.014070 0.000919 0.000000 0.142741 0.000000
# 6 0.000000 -0.000002 0.000000 -0.841279 0.000000 -1.007959
#
#
# Mechanical properties :
#
#
# Convention : Reuss Voigt Hill
#
# Bulk Modulus (GPa) = 2.33657 63.28324 32.80990
# Shear Modulus (GPa) = -8.81881 20.98313 6.08216
#
# Velocity S-wave (km/s) = -2.23009 3.43995 1.85202
# Velocity P-wave (km/s) = 2.30507 7.17396 4.80376
#
# Compressibility (1/GPa) = 0.42797776
#
# Stress axis : x y z
#
# Youngs Moduli (GPa) = 82.53786 1.70826 98.79825
#
# Poissons Ratio (x) = 0.08855 0.01674
# Poissons Ratio (y) = 4.27829 3.73673
# Poissons Ratio (z) = 0.01398 0.06461
#
# Static dielectric constant tensor:
#      x y z
#    x 1.597120 0.000000 -0.000070 
#    y 0.000000 1.608060 0.000000 
#    z -0.000070 0.000000 1.585570 
# 
# From -- ./inp_files/375059.got.cif
#   From: 2010.05.17/outbox.cif.g08.bks.cpg/sg12_188_cif.got.tgz:375059.got - 2010.06.03 13:09:07.
