data_PCOD9192838
_publ_section_title
;
Structure prediction by ZEFSAII (Michael W. Deem and Ramdas Pophale) SiO2 
 PCOD9192838
Probable space group: C 2/M
;
_chemical_formula_sum "Si O2"
_cell_formula_units_Z 64
_cell_length_a 29.227396
_cell_length_b 8.798754
_cell_length_c 16.219762
_cell_angle_alpha 90.000000
_cell_angle_beta 116.495132
_cell_angle_gamma 90.000000
_cell_volume 3733.063310
_symmetry_space_group_name_H-M "C 2/M"
_symmetry_group_IT_number 12
_symmetry_cell_setting 'monoclinic'
loop_
_space_group_symop_operation_xyz
x,y,z
-x,y,-z
-x,-y,-z
x,-y,z
1/2+x,1/2+y,z
1/2-x,1/2+y,-z
1/2-x,1/2-y,-z
1/2+x,1/2-y,z
loop_
_atom_site_type_symbol
_atom_site_label
_atom_site_fract_x
_atom_site_fract_y
_atom_site_fract_z
Si Si1 0.222118 0.316899 0.099410
Si Si2 0.069024 0.181050 0.727473
Si Si3 0.360372 0.681169 0.642896
Si Si4 0.960846 0.318376 0.646197
Si Si5 0.672491 0.316787 0.900932
Si Si6 0.586641 0.177712 0.565603
Si Si7 0.707027 0.182508 0.276092
Si Si8 0.806184 0.678884 0.442262
O O1 0.219816 0.500000 0.093505
O O2 0.279721 0.270879 0.118983
O O3 0.209670 0.270875 0.182487
O O4 0.184723 0.248990 0.000561
O O5 0.118722 0.231396 0.819006
O O6 0.078424 0.223946 0.639725
O O7 0.017024 0.261975 0.713079
O O8 0.063535 0.000000 0.731089
O O9 0.359022 0.500000 0.641393
O O10 0.416433 0.740774 0.663668
O O11 0.340271 0.746654 0.712747
O O12 0.322684 0.745244 0.541423
O O13 0.955931 0.500000 0.649311
O O14 0.949178 0.280107 0.540631
O O15 0.672633 0.500000 0.905158
O O16 0.644296 0.191713 0.577305
O O17 0.577063 0.000000 0.578078
O O18 0.758050 0.241457 0.362235
O O19 0.705131 0.000000 0.279053
O O20 0.795952 0.500000 0.447226
#
# Coordination Sequence:
#
# PCOD9192838 Si02
#       8
#     8   8   8   8   8   8   8   8
#     4   9  19  35  55  78 104 136 170 205 250 304
#     4  11  21  32  51  78 105 136 173 211 256 307
#     4  11  22  36  53  74 102 137 176 215 258 303
#     4  10  21  37  53  72 102 138 176 216 257 300
#     4   9  19  35  53  77 108 135 164 206 253 303
#     4   9  19  33  49  72 104 139 173 211 253 299
#     4  11  21  34  53  77 105 136 173 214 256 305
#     4  10  20  34  51  75 107 141 176 212 254 302
#
# _framework density 17.144096000000001
#
# number of rings (size 3 to 8) (size 9 to 14) (size 15 to 20)
#    0.000    2.000    0.000    4.875    0.000    7.500 
#    0.000    2.500    0.000    0.750    0.000    5.250 
#    0.000    0.000    0.000    0.000    0.000    0.000 
#
# Total GULP energy -178746.512470 kJ/mol
# GULP energy per Si atom -5585.828515 kJ/mol
# Density = 1.710508 g / cm^3
# Si number density = 17.144096 Si / 1000 Ang^3
#
#
#
# Elastic Constant Matrix: (Units=GPa)
#
#
# Indices 1 2 3 4 5 6 
#
# 1 99.0268 47.5441 94.4231 0.0000 -1.1244 0.0000
# 2 47.5441 68.1342 46.8680 0.0000 -5.2757 0.0000
# 3 94.4231 46.8680 114.7582 0.0000 -1.3909 0.0000
# 4 0.0000 0.0000 0.0000 25.6985 0.0000 0.4289
# 5 -1.1244 -5.2757 -1.3909 0.0000 31.0087 0.0000
# 6 0.0000 0.0000 0.0000 0.4289 0.0000 31.1561
#
#
#
# Elastic Compliance Matrix: (Units=1/GPa)
#
#
# Indices 1 2 3 4 5 6 
#
# 1 0.050855 -0.009464 -0.037997 0.000000 -0.001470 0.000000
# 2 -0.009464 0.022475 -0.001350 0.000000 0.003420 0.000000
# 3 -0.037997 -0.001350 0.040532 0.000000 0.000211 0.000000
# 4 0.000000 0.000000 0.000000 0.038922 0.000000 -0.000536
# 5 -0.001470 0.003420 0.000211 0.000000 0.032787 0.000000
# 6 0.000000 0.000000 0.000000 -0.000536 0.000000 0.032104
#
#
# Mechanical properties :
#
#
# Convention : Reuss Voigt Hill
#
# Bulk Modulus (GPa) = 61.57676 73.28773 67.43224
# Shear Modulus (GPa) = 15.59043 23.77826 19.68434
#
# Velocity S-wave (km/s) = 3.01886 3.72824 3.39214
# Velocity P-wave (km/s) = 6.93877 7.83415 7.40001
#
# Compressibility (1/GPa) = 0.01623989
#
# Stress axis : x y z
#
# Youngs Moduli (GPa) = 19.66356 44.49478 24.67203
#
# Poissons Ratio (x) = 0.42109 0.93745
# Poissons Ratio (y) = 0.18609 0.03332
# Poissons Ratio (z) = 0.74715 0.06009
#
# Static dielectric constant tensor:
#      x y z
#    x 1.588760 0.000000 0.000340 
#    y 0.000000 1.572250 0.000000 
#    z 0.000340 0.000000 1.553160 
# 
# From -- ./inp_files/249130.got.cif
#   From: 2010.05.17/outbox.cif.g08.bks.cpg/sg12_125_cif.got.tgz:249130.got - 2010.06.03 13:09:07.
