data_PCOD9192229
_publ_section_title
;
Structure prediction by ZEFSAII (Michael W. Deem and Ramdas Pophale) SiO2 
 PCOD9192229
Probable space group: C 2/M
;
_chemical_formula_sum "Si O2"
_cell_formula_units_Z 50
_cell_length_a 28.709405
_cell_length_b 7.541337
_cell_length_c 11.848565
_cell_angle_alpha 90.000000
_cell_angle_beta 61.768386
_cell_angle_gamma 90.000000
_cell_volume 2260.139230
_symmetry_space_group_name_H-M "C 2/M"
_symmetry_group_IT_number 12
_symmetry_cell_setting 'monoclinic'
loop_
_space_group_symop_operation_xyz
x,y,z
-x,y,-z
-x,-y,-z
x,-y,z
1/2+x,1/2+y,z
1/2-x,1/2+y,-z
1/2-x,1/2-y,-z
1/2+x,1/2-y,z
loop_
_atom_site_type_symbol
_atom_site_label
_atom_site_fract_x
_atom_site_fract_y
_atom_site_fract_z
Si Si1 0.772671 0.710551 0.718307
Si Si2 0.072384 0.786664 0.836980
Si Si3 0.135528 0.211901 0.540975
Si Si4 0.340723 0.295660 0.100710
Si Si5 0.652773 0.790677 0.163973
Si Si6 0.500000 0.000000 0.000000
Si Si7 0.440045 0.285926 0.572832
O O1 0.768043 0.500000 0.742775
O O2 0.806332 0.733415 0.566169
O O3 0.713529 0.784657 0.789175
O O4 0.807762 0.779913 0.783602
O O5 0.113216 0.746094 0.688936
O O6 0.104432 0.725279 0.912645
O O7 0.060063 0.000000 0.849908
O O8 0.022592 0.658849 0.889532
O O9 0.094608 0.280455 0.493149
O O10 0.135329 0.000000 0.534053
O O11 0.342030 0.500000 0.137919
O O12 0.338498 0.289331 0.968607
O O13 0.593751 0.761054 0.278111
O O14 0.661701 0.000000 0.142085
O O15 0.500000 0.221327 0.500000
O O16 0.441686 0.500000 0.564559
#
# Coordination Sequence:
#
# PCOD9192229 Si02
#       7
#     8   8   8   8   8   2   8
#     4   9  19  35  58  87 120 160 198 248 312 364
#     4  10  24  44  64  91 124 161 209 255 307 370
#     4   9  19  37  58  85 119 154 197 250 306 366
#     4  10  21  38  58  83 121 162 203 249 302 373
#     4  10  20  33  53  85 122 153 197 253 302 360
#     4  12  26  44  68  90 118 172 206 256 318 354
#     4   9  18  34  56  80 108 151 199 242 302 366
#
# _framework density 22.122530999999999
#
# number of rings (size 3 to 8) (size 9 to 14) (size 15 to 20)
#    0.000    2.400    0.000    1.200    2.240    3.520 
#    0.000    3.200    0.000    0.000    0.000    0.000 
#    0.000    0.000    0.000    0.000    0.000    0.000 
#
# Total GULP energy -139249.050645 kJ/mol
# GULP energy per Si atom -5569.962026 kJ/mol
# Density = 2.207218 g / cm^3
# Si number density = 22.122531 Si / 1000 Ang^3
#
#
#
# Elastic Constant Matrix: (Units=GPa)
#
#
# Indices 1 2 3 4 5 6 
#
# 1 33.8621 11.0342 15.6530 0.0000 -18.1627 0.0000
# 2 11.0342 77.5906 14.6475 0.0000 -1.9804 0.0000
# 3 15.6530 14.6475 94.9186 0.0000 -12.9224 0.0000
# 4 0.0000 0.0000 0.0000 49.9205 0.0000 5.6788
# 5 -18.1627 -1.9804 -12.9224 0.0000 27.4675 0.0000
# 6 0.0000 0.0000 0.0000 5.6788 0.0000 2.8067
#
#
#
# Elastic Compliance Matrix: (Units=1/GPa)
#
#
# Indices 1 2 3 4 5 6 
#
# 1 0.049273 -0.005643 -0.003071 0.000000 0.030729 0.000000
# 2 -0.005643 0.013921 -0.001698 0.000000 -0.003526 0.000000
# 3 -0.003071 -0.001698 0.011764 0.000000 0.003381 0.000000
# 4 0.000000 0.000000 0.000000 0.026021 0.000000 -0.052647
# 5 0.030729 -0.003526 0.003381 0.000000 0.058063 0.000000
# 6 0.000000 0.000000 0.000000 -0.052647 0.000000 0.462810
#
#
# Mechanical properties :
#
#
# Convention : Reuss Voigt Hill
#
# Bulk Modulus (GPa) = 18.47267 32.11563 25.29415
# Shear Modulus (GPa) = 7.56750 27.04139 17.30444
#
# Velocity S-wave (km/s) = 1.85153 3.50000 2.79983
# Velocity P-wave (km/s) = 3.59710 5.55716 4.68087
#
# Compressibility (1/GPa) = 0.05413403
#
# Stress axis : x y z
#
# Youngs Moduli (GPa) = 20.29529 71.83319 85.00406
#
# Poissons Ratio (x) = 0.40535 0.26106
# Poissons Ratio (y) = 0.11453 0.14432
# Poissons Ratio (z) = 0.06233 0.12196
#
# Static dielectric constant tensor:
#      x y z
#    x 1.886070 0.000000 -0.027770 
#    y 0.000000 1.821680 0.000000 
#    z -0.027770 0.000000 1.794050 
# 
# From -- ./inp_files/179810.got.cif
#   From: 2010.05.17/outbox.cif.g08.bks.cpg/sg12_90_cif.got.tgz:179810.got - 2010.06.03 13:09:07.
