data_PCOD9192661
_publ_section_title
;
Structure prediction by ZEFSAII (Michael W. Deem and Ramdas Pophale) SiO2 
 PCOD9192661
Probable space group: C 2/M
;
_chemical_formula_sum "Si O2"
_cell_formula_units_Z 56
_cell_length_a 27.267699
_cell_length_b 7.546027
_cell_length_c 12.375088
_cell_angle_alpha 90.000000
_cell_angle_beta 93.018146
_cell_angle_gamma 90.000000
_cell_volume 2542.800675
_symmetry_space_group_name_H-M "C 2/M"
_symmetry_group_IT_number 12
_symmetry_cell_setting 'monoclinic'
loop_
_space_group_symop_operation_xyz
x,y,z
-x,y,-z
-x,-y,-z
x,-y,z
1/2+x,1/2+y,z
1/2-x,1/2+y,-z
1/2-x,1/2-y,-z
1/2+x,1/2-y,z
loop_
_atom_site_type_symbol
_atom_site_label
_atom_site_fract_x
_atom_site_fract_y
_atom_site_fract_z
Si Si1 0.362333 0.783013 0.099772
Si Si2 0.674521 0.211606 0.675811
Si Si3 0.475185 0.216032 0.110745
Si Si4 0.375194 0.289698 0.538304
Si Si5 0.779943 0.793890 0.650427
Si Si6 0.936203 0.709005 0.741643
Si Si7 0.160649 0.284939 0.141148
O O1 0.335958 0.721353 0.205480
O O2 0.419129 0.724911 0.109994
O O3 0.362046 0.000000 0.100047
O O4 0.338901 0.728557 0.983117
O O5 0.630319 0.243921 0.587436
O O6 0.725684 0.284534 0.633420
O O7 0.680533 0.000000 0.684956
O O8 0.511809 0.277721 0.209739
O O9 0.472989 0.000000 0.112230
O O10 0.500000 0.265773 0.000000
O O11 0.374030 0.500000 0.548383
O O12 0.325779 0.213479 0.590328
O O13 0.421303 0.231797 0.615355
O O14 0.795848 0.781571 0.777605
O O15 0.777338 0.000000 0.618775
O O16 0.937240 0.500000 0.763568
O O17 0.890315 0.777319 0.808078
O O18 0.161392 0.500000 0.144700
#
# Coordination Sequence:
#
# PCOD9192661 Si02
#       7
#     8   8   8   8   8   8   8
#     4   9  17  29  47  74 104 128 154 195 243 285
#     4  10  20  34  50  69  97 130 163 200 241 284
#     4   9  14  25  49  79 103 122 153 196 237 280
#     4  10  20  34  51  69  94 127 166 206 240 279
#     4   9  19  33  49  70  96 127 162 202 243 281
#     4   9  16  28  51  78  99 122 156 198 240 282
#     4   9  16  28  48  75 101 125 156 194 237 287
#
# _framework density 22.022962
#
# number of rings (size 3 to 8) (size 9 to 14) (size 15 to 20)
#    0.000    2.714    1.429    0.857    0.000    1.714 
#    0.000    1.429    0.000    6.429    0.000    0.000 
#    0.000    0.000    0.000    0.000    0.000    0.000 
#
# Total GULP energy -156260.381399 kJ/mol
# GULP energy per Si atom -5580.727907 kJ/mol
# Density = 2.197284 g / cm^3
# Si number density = 22.022962 Si / 1000 Ang^3
#
#
#
# Elastic Constant Matrix: (Units=GPa)
#
#
# Indices 1 2 3 4 5 6 
#
# 1 24.7098 1.0690 3.4009 0.0000 17.6323 0.0000
# 2 1.0690 52.7895 -12.0332 0.0000 -3.6367 0.0000
# 3 3.4009 -12.0332 121.5885 0.0000 23.3105 0.0000
# 4 0.0000 0.0000 0.0000 4.6406 0.0000 2.3971
# 5 17.6323 -3.6367 23.3105 0.0000 29.5340 0.0000
# 6 0.0000 0.0000 0.0000 2.3971 0.0000 -0.9031
#
#
#
# Elastic Compliance Matrix: (Units=1/GPa)
#
#
# Indices 1 2 3 4 5 6 
#
# 1 0.076874 -0.003441 0.007529 0.000000 -0.052261 0.000000
# 2 -0.003441 0.019561 0.001386 0.000000 0.003369 0.000000
# 3 0.007529 0.001386 0.010581 0.000000 -0.012675 0.000000
# 4 0.000000 0.000000 0.000000 0.090884 0.000000 0.241229
# 5 -0.052261 0.003369 -0.012675 0.000000 0.075479 0.000000
# 6 0.000000 0.000000 0.000000 0.241229 0.000000 -0.467008
#
#
# Mechanical properties :
#
#
# Convention : Reuss Voigt Hill
#
# Bulk Modulus (GPa) = 8.47713 20.44013 14.45863
# Shear Modulus (GPa) = -30.25633 20.43105 -4.91264
#
# Velocity S-wave (km/s) = -3.71057 3.04915 -1.49517
# Velocity P-wave (km/s) = 3.80792 4.65809 1.89705
#
# Compressibility (1/GPa) = 0.11796439
#
# Stress axis : x y z
#
# Youngs Moduli (GPa) = 13.00823 51.12235 94.50758
#
# Poissons Ratio (x) = 0.17590 -0.71150
# Poissons Ratio (y) = 0.04476 -0.13101
# Poissons Ratio (z) = -0.09793 -0.07087
#
# Static dielectric constant tensor:
#      x y z
#    x 1.810640 0.000000 0.012530 
#    y 0.000000 1.823060 0.000000 
#    z 0.012530 0.000000 1.820020 
# 
# From -- ./inp_files/186856.got.cif
#   From: 2010.05.17/outbox.cif.g08.bks.cpg/sg12_94_cif.got.tgz:186856.got - 2010.06.03 13:09:07.
