data_PCOD9192936
_publ_section_title
;
Structure prediction by ZEFSAII (Michael W. Deem and Ramdas Pophale) SiO2 
 PCOD9192936
Probable space group: C 2/M
;
_chemical_formula_sum "Si O2"
_cell_formula_units_Z 64
_cell_length_a 20.980422
_cell_length_b 8.354753
_cell_length_c 20.322167
_cell_angle_alpha 90.000000
_cell_angle_beta 89.862627
_cell_angle_gamma 90.000000
_cell_volume 3562.186077
_symmetry_space_group_name_H-M "C 2/M"
_symmetry_group_IT_number 12
_symmetry_cell_setting 'monoclinic'
loop_
_space_group_symop_operation_xyz
x,y,z
-x,y,-z
-x,-y,-z
x,-y,z
1/2+x,1/2+y,z
1/2-x,1/2+y,-z
1/2-x,1/2-y,-z
1/2+x,1/2-y,z
loop_
_atom_site_type_symbol
_atom_site_label
_atom_site_fract_x
_atom_site_fract_y
_atom_site_fract_z
Si Si1 0.068660 0.693494 0.674442
Si Si2 0.821058 0.691401 0.925304
Si Si3 0.927812 0.806579 0.677081
Si Si4 0.675942 0.193516 0.572276
Si Si5 0.678826 0.693449 0.424958
Si Si6 0.569601 0.691429 0.171966
Si Si7 0.819350 0.306626 0.076230
Si Si8 0.570903 0.193325 0.825454
O O1 0.068972 0.500000 0.674219
O O2 0.123283 0.749606 0.624455
O O3 0.080650 0.746776 0.749785
O O4 0.997998 0.750385 0.655703
O O5 0.820647 0.500000 0.925741
O O6 0.876318 0.749961 0.877372
O O7 0.751353 0.751758 0.904273
O O8 0.830990 0.747372 0.000899
O O9 0.872220 0.749983 0.628581
O O10 0.918193 0.752943 0.752742
O O11 0.927235 0.000000 0.676876
O O12 0.661878 0.250387 0.498395
O O13 0.748274 0.246034 0.588745
O O14 0.675570 0.000000 0.572716
O O15 0.678534 0.500000 0.424227
O O16 0.569148 0.500000 0.172244
O O17 0.499326 0.751930 0.153210
O O18 0.820180 0.500000 0.076491
O O19 0.873780 0.249635 0.125927
O O20 0.571870 0.000000 0.825610
#
# Coordination Sequence:
#
# PCOD9192936 Si02
#       8
#     8   8   8   8   8   8   8   8
#     4   9  18  32  51  73  97 126 159 198 241 286
#     4  10  20  34  52  75 103 132 165 206 248 293
#     4   9  19  34  51  71  96 127 162 200 239 284
#     4   9  18  32  49  71  97 124 157 197 240 285
#     4   9  18  33  51  70  94 126 162 198 237 283
#     4  10  20  34  52  74 101 132 166 205 248 294
#     4   9  19  35  54  75 100 132 168 205 246 293
#     4   9  18  34  54  74  98 130 167 205 246 293
#
# _framework density 17.966494999999998
#
# number of rings (size 3 to 8) (size 9 to 14) (size 15 to 20)
#    0.000    2.750    0.000    0.750    0.000    4.500 
#    0.000    8.750    0.000    3.000    0.000    0.000 
#    0.000    0.000    0.000    0.000    0.000    0.000 
#
# Total GULP energy -178457.305366 kJ/mol
# GULP energy per Si atom -5576.790793 kJ/mol
# Density = 1.792560 g / cm^3
# Si number density = 17.966495 Si / 1000 Ang^3
#
#
#
# Elastic Constant Matrix: (Units=GPa)
#
#
# Indices 1 2 3 4 5 6 
#
# 1 260.3303 23.2174 185.3235 0.0000 1.8317 0.0000
# 2 23.2174 3.8857 18.8117 0.0000 2.4872 0.0000
# 3 185.3235 18.8117 152.7001 0.0000 1.2755 0.0000
# 4 0.0000 0.0000 0.0000 22.3673 0.0000 -3.0851
# 5 1.8317 2.4872 1.2755 0.0000 44.8248 0.0000
# 6 0.0000 0.0000 0.0000 -3.0851 0.0000 30.3457
#
#
#
# Elastic Compliance Matrix: (Units=1/GPa)
#
#
# Indices 1 2 3 4 5 6 
#
# 1 0.028315 -0.007277 -0.033470 0.000000 0.000199 0.000000
# 2 -0.007277 0.692926 -0.076232 0.000000 -0.035982 0.000000
# 3 -0.033470 -0.076232 0.056528 0.000000 0.003989 0.000000
# 4 0.000000 0.000000 0.000000 0.045344 0.000000 0.004610
# 5 0.000199 -0.035982 0.003989 0.000000 0.024184 0.000000
# 6 0.000000 0.000000 0.000000 0.004610 0.000000 0.033422
#
#
# Mechanical properties :
#
#
# Convention : Reuss Voigt Hill
#
# Bulk Modulus (GPa) = 1.83888 96.84681 49.34285
# Shear Modulus (GPa) = 3.85818 32.14512 18.00165
#
# Velocity S-wave (km/s) = 1.46700 4.23445 3.16880
# Velocity P-wave (km/s) = 1.97362 8.82771 6.39624
#
# Compressibility (1/GPa) = 0.54381028
#
# Stress axis : x y z
#
# Youngs Moduli (GPa) = 35.31636 1.44316 17.69048
#
# Poissons Ratio (x) = 0.01050 0.59210
# Poissons Ratio (y) = 0.25699 1.34858
# Poissons Ratio (z) = 1.18204 0.11002
#
# Static dielectric constant tensor:
#      x y z
#    x 1.590550 0.000000 0.008720 
#    y 0.000000 1.624820 0.000000 
#    z 0.008720 0.000000 1.610970 
# 
# From -- ./inp_files/314082.got.cif
#   From: 2010.05.17/outbox.cif.g08.bks.cpg/sg12_158_cif.got.tgz:314082.got - 2010.06.03 13:09:07.
