data_PCOD9192988
_publ_section_title
;
Structure prediction by ZEFSAII (Michael W. Deem and Ramdas Pophale) SiO2 
 PCOD9192988
Probable space group: C 2/M
;
_chemical_formula_sum "Si O2"
_cell_formula_units_Z 56
_cell_length_a 8.667303
_cell_length_b 11.031496
_cell_length_c 30.734262
_cell_angle_alpha 90.000000
_cell_angle_beta 70.322838
_cell_angle_gamma 90.000000
_cell_volume 2767.004469
_symmetry_space_group_name_H-M "C 2/M"
_symmetry_group_IT_number 12
_symmetry_cell_setting 'monoclinic'
loop_
_space_group_symop_operation_xyz
x,y,z
-x,y,-z
-x,-y,-z
x,-y,z
1/2+x,1/2+y,z
1/2-x,1/2+y,-z
1/2-x,1/2-y,-z
1/2+x,1/2-y,z
loop_
_atom_site_type_symbol
_atom_site_label
_atom_site_fract_x
_atom_site_fract_y
_atom_site_fract_z
Si Si1 0.323736 0.864743 0.080320
Si Si2 0.324505 0.139206 0.221442
Si Si3 0.962978 0.135301 0.952371
Si Si4 0.456704 0.365024 0.819416
Si Si5 0.804663 0.134275 0.672744
Si Si6 0.891078 0.636671 0.549633
Si Si7 0.095759 0.297104 0.611890
O O1 0.443138 0.751908 0.075135
O O2 0.178991 0.859540 0.129629
O O3 0.227033 0.855026 0.043572
O O4 0.399923 0.000000 0.075902
O O5 0.428945 0.247510 0.190543
O O6 0.148037 0.140075 0.215012
O O7 0.300618 0.165750 0.274716
O O8 0.389096 0.000000 0.209784
O O9 0.015679 0.000000 0.931318
O O10 0.000000 0.136535 0.000000
O O11 0.536085 0.500000 0.814465
O O12 0.693940 0.134190 0.640080
O O13 0.954884 0.222330 0.649819
O O14 0.871173 0.000000 0.674457
O O15 0.844469 0.500000 0.541551
O O16 0.729997 0.711943 0.575974
O O17 0.000000 0.689314 0.500000
O O18 0.002800 0.634314 0.582210
#
# Coordination Sequence:
#
# PCOD9192988 Si02
#       7
#     8   8   8   8   8   8   8
#     4  10  21  36  55  79 107 140 178 219 264 316
#     4  10  21  36  55  79 106 138 176 217 262 314
#     4  10  21  36  54  79 109 140 178 222 266 315
#     4  10  21  37  55  79 109 139 176 220 264 314
#     4  10  20  35  53  75 103 133 169 211 254 304
#     4  10  20  34  52  75 102 132 168 208 250 300
#     4  10  20  34  53  75 101 134 168 206 255 302
#
# _framework density 20.238491
#
# number of rings (size 3 to 8) (size 9 to 14) (size 15 to 20)
#    0.000    2.000    0.000    3.429    0.000    2.000 
#    0.000    3.571    0.000    6.857    0.000    0.000 
#    0.000    0.000    0.000    0.000    0.000    0.000 
#
# Total GULP energy -156197.745743 kJ/mol
# GULP energy per Si atom -5578.490919 kJ/mol
# Density = 2.019243 g / cm^3
# Si number density = 20.238491 Si / 1000 Ang^3
#
#
#
# Elastic Constant Matrix: (Units=GPa)
#
#
# Indices 1 2 3 4 5 6 
#
# 1 41.6065 32.3121 -12.3365 0.0000 -0.2597 0.0000
# 2 32.3121 155.3332 23.3614 0.0000 -28.4367 0.0000
# 3 -12.3365 23.3614 40.1906 0.0000 7.3040 0.0000
# 4 0.0000 0.0000 0.0000 6.2787 0.0000 -10.3693
# 5 -0.2597 -28.4367 7.3040 0.0000 23.7866 0.0000
# 6 0.0000 0.0000 0.0000 -10.3693 0.0000 2.9533
#
#
#
# Elastic Compliance Matrix: (Units=1/GPa)
#
#
# Indices 1 2 3 4 5 6 
#
# 1 0.053796 -0.024196 0.037839 0.000000 -0.039958 0.000000
# 2 -0.024196 0.021499 -0.025998 0.000000 0.033421 0.000000
# 3 0.037839 -0.025998 0.060560 0.000000 -0.049263 0.000000
# 4 0.000000 0.000000 0.000000 -0.033190 0.000000 -0.116536
# 5 -0.039958 0.033421 -0.049263 0.000000 0.096686 0.000000
# 6 0.000000 0.000000 0.000000 -0.116536 0.000000 -0.070563
#
#
# Mechanical properties :
#
#
# Convention : Reuss Voigt Hill
#
# Bulk Modulus (GPa) = 8.99724 35.97826 22.48775
# Shear Modulus (GPa) = 26.24039 19.52326 22.88182
#
# Velocity S-wave (km/s) = 3.60468 3.10927 3.36610
# Velocity P-wave (km/s) = 4.66693 5.54128 5.12279
#
# Compressibility (1/GPa) = 0.11114518
#
# Stress axis : x y z
#
# Youngs Moduli (GPa) = 18.58881 46.51310 16.51246
#
# Poissons Ratio (x) = 1.12545 -0.62481
# Poissons Ratio (y) = 0.44978 0.42928
# Poissons Ratio (z) = -0.70338 1.20923
#
# Static dielectric constant tensor:
#      x y z
#    x 1.693250 0.000000 0.026290 
#    y 0.000000 1.720480 0.000000 
#    z 0.026290 0.000000 1.747780 
# 
# From -- ./inp_files/355756.got.cif
#   From: 2010.05.17/outbox.cif.g08.bks.cpg/sg12_178_cif.got.tgz:355756.got - 2010.06.03 13:09:07.
