data_PCOD9192817
_publ_section_title
;
Structure prediction by ZEFSAII (Michael W. Deem and Ramdas Pophale) SiO2 
 PCOD9192817
Probable space group: C 2/M
;
_chemical_formula_sum "Si O2"
_cell_formula_units_Z 64
_cell_length_a 24.509704
_cell_length_b 7.707930
_cell_length_c 15.948738
_cell_angle_alpha 90.000000
_cell_angle_beta 78.034094
_cell_angle_gamma 90.000000
_cell_volume 2947.551461
_symmetry_space_group_name_H-M "C 2/M"
_symmetry_group_IT_number 12
_symmetry_cell_setting 'monoclinic'
loop_
_space_group_symop_operation_xyz
x,y,z
-x,y,-z
-x,-y,-z
x,-y,z
1/2+x,1/2+y,z
1/2-x,1/2+y,-z
1/2-x,1/2-y,-z
1/2+x,1/2-y,z
loop_
_atom_site_type_symbol
_atom_site_label
_atom_site_fract_x
_atom_site_fract_y
_atom_site_fract_z
Si Si1 0.457412 0.788515 0.941558
Si Si2 0.549664 0.201582 0.237615
Si Si3 0.668639 0.200853 0.453717
Si Si4 0.950002 0.286447 0.577190
Si Si5 0.785816 0.299592 0.210931
Si Si6 0.793449 0.798711 0.385337
Si Si7 0.323301 0.712064 0.837553
Si Si8 0.330847 0.299647 0.019394
O O1 0.473587 0.727283 0.842801
O O2 0.453429 0.000000 0.940816
O O3 0.500000 0.738960 0.000000
O O4 0.396898 0.716786 0.983354
O O5 0.537322 0.276184 0.332603
O O6 0.616572 0.216107 0.204909
O O7 0.533236 0.000000 0.245864
O O8 0.611459 0.273786 0.433550
O O9 0.729645 0.274006 0.409059
O O10 0.669509 0.211196 0.554812
O O11 0.669900 0.000000 0.427225
O O12 0.948486 0.500000 0.578269
O O13 0.000000 0.235351 0.500000
O O14 0.780992 0.500000 0.234744
O O15 0.812960 0.213875 0.283271
O O16 0.723930 0.229066 0.211508
O O17 0.815628 0.288252 0.111524
O O18 0.790733 0.000000 0.410364
O O19 0.325732 0.500000 0.836993
O O20 0.307367 0.767189 0.937586
O O21 0.315027 0.500000 0.032979
#
# Coordination Sequence:
#
# PCOD9192817 Si02
#       8
#     8   8   8   8   8   8   8   8
#     4   9  18  34  53  75 104 138 180 223 259 305
#     4   9  17  31  53  77 101 135 177 218 261 308
#     4   9  18  34  54  76 102 136 177 220 267 318
#     4   9  17  31  52  79 107 134 175 225 270 314
#     4  11  21  33  50  76 107 137 172 212 260 315
#     4  10  20  34  53  76 105 139 176 218 264 322
#     4   9  19  33  51  75 104 137 172 212 258 312
#     4  10  20  34  51  74 105 138 172 212 263 314
#
# _framework density 21.712935999999999
#
# number of rings (size 3 to 8) (size 9 to 14) (size 15 to 20)
#    0.000    2.500    0.000    2.250    0.000    3.250 
#    2.250    0.625    0.000    1.500    0.000    0.000 
#    0.000    0.000    0.000    0.000    0.000    0.000 
#
# Total GULP energy -178540.913261 kJ/mol
# GULP energy per Si atom -5579.403539 kJ/mol
# Density = 2.166352 g / cm^3
# Si number density = 21.712936 Si / 1000 Ang^3
#
#
#
# Elastic Constant Matrix: (Units=GPa)
#
#
# Indices 1 2 3 4 5 6 
#
# 1 57.2083 1.4377 31.9537 0.0000 25.1199 0.0000
# 2 1.4377 45.2009 1.4677 0.0000 2.1002 0.0000
# 3 31.9537 1.4677 154.3726 0.0000 25.8826 0.0000
# 4 0.0000 0.0000 0.0000 4.4757 0.0000 -1.2557
# 5 25.1199 2.1002 25.8826 0.0000 30.8679 0.0000
# 6 0.0000 0.0000 0.0000 -1.2557 0.0000 13.6540
#
#
#
# Elastic Compliance Matrix: (Units=1/GPa)
#
#
# Indices 1 2 3 4 5 6 
#
# 1 0.027878 0.000153 -0.002288 0.000000 -0.020778 0.000000
# 2 0.000153 0.022195 0.000037 0.000000 -0.001665 0.000000
# 3 -0.002288 0.000037 0.007725 0.000000 -0.004618 0.000000
# 4 0.000000 0.000000 0.000000 0.229344 0.000000 0.021091
# 5 -0.020778 -0.001665 -0.004618 0.000000 0.053291 0.000000
# 6 0.000000 0.000000 0.000000 0.021091 0.000000 0.075178
#
#
# Mechanical properties :
#
#
# Convention : Reuss Voigt Hill
#
# Bulk Modulus (GPa) = 18.65641 36.27778 27.46709
# Shear Modulus (GPa) = 11.42401 24.59437 18.00919
#
# Velocity S-wave (km/s) = 2.29626 3.36922 2.88309
# Velocity P-wave (km/s) = 3.95492 5.64621 4.87448
#
# Compressibility (1/GPa) = 0.05360088
#
# Stress axis : x y z
#
# Youngs Moduli (GPa) = 35.87071 45.05560 129.44305
#
# Poissons Ratio (x) = -0.00690 0.29619
# Poissons Ratio (y) = -0.00549 -0.00473
# Poissons Ratio (z) = 0.08208 -0.00164
#
# Static dielectric constant tensor:
#      x y z
#    x 1.769850 0.000000 0.018640 
#    y 0.000000 1.804920 0.000000 
#    z 0.018640 0.000000 1.832460 
# 
# From -- ./inp_files/243784.got.cif
#   From: 2010.05.17/outbox.cif.g08.bks.cpg/sg12_122_cif.got.tgz:243784.got - 2010.06.03 13:09:07.
