data_PCOD9192338
_publ_section_title
;
Structure prediction by ZEFSAII (Michael W. Deem and Ramdas Pophale) SiO2 
 PCOD9192338
Probable space group: C 2/M
;
_chemical_formula_sum "Si O2"
_cell_formula_units_Z 56
_cell_length_a 9.242181
_cell_length_b 23.273883
_cell_length_c 14.687776
_cell_angle_alpha 90.000000
_cell_angle_beta 120.242112
_cell_angle_gamma 90.000000
_cell_volume 2729.387952
_symmetry_space_group_name_H-M "C 2/M"
_symmetry_group_IT_number 12
_symmetry_cell_setting 'monoclinic'
loop_
_space_group_symop_operation_xyz
x,y,z
-x,y,-z
-x,-y,-z
x,-y,z
1/2+x,1/2+y,z
1/2-x,1/2+y,-z
1/2-x,1/2-y,-z
1/2+x,1/2-y,z
loop_
_atom_site_type_symbol
_atom_site_label
_atom_site_fract_x
_atom_site_fract_y
_atom_site_fract_z
Si Si1 0.220815 0.682166 0.323084
Si Si2 0.060751 0.711676 0.617388
Si Si3 0.595340 0.655368 0.202639
Si Si4 0.727387 0.119701 0.916007
Si Si5 0.846369 0.065183 0.142536
Si Si6 0.622614 0.935080 0.246484
Si Si7 0.981114 0.726197 0.101469
O O1 0.383393 0.721850 0.376727
O O2 0.225458 0.613619 0.333543
O O3 0.139431 0.694693 0.198212
O O4 0.085241 0.704676 0.354380
O O5 0.228738 0.677898 0.701537
O O6 0.000000 0.690579 0.500000
O O7 0.636872 0.625311 0.119664
O O8 0.489609 0.608513 0.223113
O O9 0.482923 0.711315 0.147180
O O10 0.567679 0.086916 0.822574
O O11 0.671780 0.185125 0.920749
O O12 0.779848 0.088777 0.025176
O O13 0.698135 0.064467 0.168746
O O14 0.908392 0.000000 0.151506
O O15 0.631637 0.000000 0.285223
O O16 0.000000 0.729671 0.000000
#
# Coordination Sequence:
#
# PCOD9192338 Si02
#       7
#     8   8   8   8   8   8   8
#     4  10  22  40  63  97 122 159 204 255 312 368
#     4  11  23  44  67  94 119 157 205 265 327 372
#     4  11  24  38  55  90 125 156 204 261 312 368
#     4  11  20  37  58  87 124 165 208 246 291 362
#     4  11  24  38  58  86 123 174 208 241 298 363
#     4  10  21  38  61  87 126 169 210 244 288 361
#     4  10  20  33  54  86 128 161 189 236 306 366
#
# _framework density 20.517420999999999
#
# number of rings (size 3 to 8) (size 9 to 14) (size 15 to 20)
#    0.000    1.429    2.857    4.286    4.000    6.286 
#    0.000    0.000    0.000    2.143    0.000    0.000 
#    0.000    0.000    0.000    0.000    0.000    0.000 
#
# Total GULP energy -156498.873785 kJ/mol
# GULP energy per Si atom -5589.245492 kJ/mol
# Density = 2.047072 g / cm^3
# Si number density = 20.517421 Si / 1000 Ang^3
#
#
#
# Elastic Constant Matrix: (Units=GPa)
#
#
# Indices 1 2 3 4 5 6 
#
# 1 59.5592 43.0829 5.2404 0.0000 -9.1936 0.0000
# 2 43.0829 160.1577 10.5917 0.0000 0.1522 0.0000
# 3 5.2404 10.5917 68.7204 0.0000 -11.1392 0.0000
# 4 0.0000 0.0000 0.0000 11.6174 0.0000 -1.2913
# 5 -9.1936 0.1522 -11.1392 0.0000 11.5362 0.0000
# 6 0.0000 0.0000 0.0000 -1.2913 0.0000 15.8651
#
#
#
# Elastic Compliance Matrix: (Units=1/GPa)
#
#
# Indices 1 2 3 4 5 6 
#
# 1 0.025106 -0.006965 0.002865 0.000000 0.022866 0.000000
# 2 -0.006965 0.008255 -0.001966 0.000000 -0.007558 0.000000
# 3 0.002865 -0.001966 0.017796 0.000000 0.019493 0.000000
# 4 0.000000 0.000000 0.000000 0.086864 0.000000 0.007070
# 5 0.022866 -0.007558 0.019493 0.000000 0.123828 0.000000
# 6 0.000000 0.000000 0.000000 0.007070 0.000000 0.063607
#
#
# Mechanical properties :
#
#
# Convention : Reuss Voigt Hill
#
# Bulk Modulus (GPa) = 25.62446 45.14081 35.38263
# Shear Modulus (GPa) = 14.26149 23.10522 18.68336
#
# Velocity S-wave (km/s) = 2.63932 3.35942 3.02090
# Velocity P-wave (km/s) = 4.66950 6.09070 5.42682
#
# Compressibility (1/GPa) = 0.03902522
#
# Stress axis : x y z
#
# Youngs Moduli (GPa) = 39.83184 121.14472 56.19232
#
# Poissons Ratio (x) = 0.84374 -0.16102
# Poissons Ratio (y) = 0.27742 0.11049
# Poissons Ratio (z) = -0.11414 0.23820
#
# Static dielectric constant tensor:
#      x y z
#    x 1.747790 0.000000 0.023010 
#    y 0.000000 1.777090 0.000000 
#    z 0.023010 0.000000 1.724780 
# 
# From -- ./inp_files/198350.got.cif
#   From: 2010.05.17/outbox.cif.g08.bks.cpg/sg12_100_cif.got.tgz:198350.got - 2010.06.03 13:09:07.
