data_PCOD9192277
_publ_section_title
;
Structure prediction by ZEFSAII (Michael W. Deem and Ramdas Pophale) SiO2 
 PCOD9192277
Probable space group: C 2/M
;
_chemical_formula_sum "Si O2"
_cell_formula_units_Z 64
_cell_length_a 20.839255
_cell_length_b 8.719126
_cell_length_c 20.333094
_cell_angle_alpha 90.000000
_cell_angle_beta 82.112100
_cell_angle_gamma 90.000000
_cell_volume 3659.569143
_symmetry_space_group_name_H-M "C 2/M"
_symmetry_group_IT_number 12
_symmetry_cell_setting 'monoclinic'
loop_
_space_group_symop_operation_xyz
x,y,z
-x,y,-z
-x,-y,-z
x,-y,z
1/2+x,1/2+y,z
1/2-x,1/2+y,-z
1/2-x,1/2-y,-z
1/2+x,1/2-y,z
loop_
_atom_site_type_symbol
_atom_site_label
_atom_site_fract_x
_atom_site_fract_y
_atom_site_fract_z
Si Si1 0.566628 0.184793 0.455356
Si Si2 0.047431 0.314851 0.179272
Si Si3 0.033790 0.816913 0.322913
Si Si4 0.398793 0.185458 0.185146
Si Si5 0.816869 0.683867 0.464202
Si Si6 0.167924 0.685215 0.074034
Si Si7 0.883187 0.183482 0.329189
Si Si8 0.306373 0.814808 0.079001
O O1 0.500000 0.234244 0.500000
O O2 0.568779 0.253539 0.382350
O O3 0.626244 0.229700 0.493104
O O4 0.565527 0.000000 0.450418
O O5 0.048193 0.500000 0.181523
O O6 0.058683 0.251649 0.250880
O O7 0.103795 0.264326 0.121775
O O8 0.974516 0.268227 0.168404
O O9 0.957388 0.773597 0.337814
O O10 0.037980 0.000000 0.320216
O O11 0.373154 0.252626 0.257375
O O12 0.354918 0.234212 0.129863
O O13 0.397217 0.000000 0.188928
O O14 0.814461 0.500000 0.462156
O O15 0.750000 0.750000 0.500000
O O16 0.835841 0.747070 0.390039
O O17 0.170165 0.500000 0.075832
O O18 0.234046 0.749352 0.095860
O O19 0.168460 0.731418 0.997103
O O20 0.878369 0.000000 0.329681
O O21 0.303031 0.000000 0.080615
#
# Coordination Sequence:
#
# PCOD9192277 Si02
#       8
#     8   8   8   8   8   8   8   8
#     4  10  20  36  59  82 104 137 178 217 260 314
#     4   9  18  33  53  76 105 138 174 217 263 310
#     4  10  20  33  54  82 109 137 174 221 265 309
#     4   9  18  33  54  78 103 136 176 218 262 310
#     4  11  23  39  58  80 109 141 175 219 267 316
#     4   9  18  33  53  77 105 139 173 212 261 311
#     4  10  20  35  55  79 108 141 176 217 265 316
#     4   9  18  33  53  77 105 137 175 214 258 312
#
# _framework density 17.488398
#
# number of rings (size 3 to 8) (size 9 to 14) (size 15 to 20)
#    0.000    2.375    1.250    1.125    0.000    3.750 
#    2.250    2.500    0.000    0.000    0.000    7.000 
#    0.000    0.000    0.000    0.000    0.000    0.000 
#
# Total GULP energy -178542.961921 kJ/mol
# GULP energy per Si atom -5579.467560 kJ/mol
# Density = 1.744859 g / cm^3
# Si number density = 17.488398 Si / 1000 Ang^3
#
#
#
# Elastic Constant Matrix: (Units=GPa)
#
#
# Indices 1 2 3 4 5 6 
#
# 1 132.4956 32.6742 109.3785 0.0000 -2.7292 0.0000
# 2 32.6742 14.6604 32.6779 0.0000 -1.9214 0.0000
# 3 109.3785 32.6779 155.1418 0.0000 -2.0942 0.0000
# 4 0.0000 0.0000 0.0000 19.9942 0.0000 -1.6737
# 5 -2.7292 -1.9214 -2.0942 0.0000 34.2510 0.0000
# 6 0.0000 0.0000 0.0000 -1.6737 0.0000 26.2123
#
#
#
# Elastic Compliance Matrix: (Units=1/GPa)
#
#
# Indices 1 2 3 4 5 6 
#
# 1 0.023024 -0.028600 -0.010213 0.000000 -0.000394 0.000000
# 2 -0.028600 0.165173 -0.014545 0.000000 0.006098 0.000000
# 3 -0.010213 -0.014545 0.016702 0.000000 -0.000609 0.000000
# 4 0.000000 0.000000 0.000000 0.050283 0.000000 0.003211
# 5 -0.000394 0.006098 -0.000609 0.000000 0.029470 0.000000
# 6 0.000000 0.000000 0.000000 0.003211 0.000000 0.038355
#
#
# Mechanical properties :
#
#
# Convention : Reuss Voigt Hill
#
# Bulk Modulus (GPa) = 10.18518 72.41767 41.30143
# Shear Modulus (GPa) = 10.81198 24.59597 17.70397
#
# Velocity S-wave (km/s) = 2.48913 3.75429 3.18516
# Velocity P-wave (km/s) = 3.75469 7.76478 6.09875
#
# Compressibility (1/GPa) = 0.09818185
#
# Stress axis : x y z
#
# Youngs Moduli (GPa) = 43.43361 6.05427 59.87346
#
# Poissons Ratio (x) = 0.17315 0.61152
# Poissons Ratio (y) = 1.24219 0.87086
# Poissons Ratio (z) = 0.44361 0.08806
#
# Static dielectric constant tensor:
#      x y z
#    x 1.583520 0.000000 0.000290 
#    y 0.000000 1.589070 0.000000 
#    z 0.000290 0.000000 1.574620 
# 
# From -- ./inp_files/319114.got.cif
#   From: 2010.05.17/outbox.cif.g08.bks.cpg/sg12_160_cif.got.tgz:319114.got - 2010.06.03 13:09:07.
