data_PCOD9192671
_publ_section_title
;
Structure prediction by ZEFSAII (Michael W. Deem and Ramdas Pophale) SiO2 
 PCOD9192671
Probable space group: C 2/M
;
_chemical_formula_sum "Si O2"
_cell_formula_units_Z 48
_cell_length_a 28.715423
_cell_length_b 8.721604
_cell_length_c 20.399775
_cell_angle_alpha 90.000000
_cell_angle_beta 145.966758
_cell_angle_gamma 90.000000
_cell_volume 2859.380413
_symmetry_space_group_name_H-M "C 2/M"
_symmetry_group_IT_number 12
_symmetry_cell_setting 'monoclinic'
loop_
_space_group_symop_operation_xyz
x,y,z
-x,y,-z
-x,-y,-z
x,-y,z
1/2+x,1/2+y,z
1/2-x,1/2+y,-z
1/2-x,1/2-y,-z
1/2+x,1/2-y,z
loop_
_atom_site_type_symbol
_atom_site_label
_atom_site_fract_x
_atom_site_fract_y
_atom_site_fract_z
Si Si1 0.939864 0.823289 0.865892
Si Si2 0.841537 0.315104 0.093387
Si Si3 0.801965 0.318771 0.787339
Si Si4 0.944751 0.685941 0.340360
Si Si5 0.623809 0.814461 0.598689
Si Si6 0.403843 0.315156 0.028677
O O1 0.859810 0.727613 0.793289
O O2 0.001607 0.769086 0.880602
O O3 0.915672 0.000000 0.825959
O O4 0.000000 0.822302 0.000000
O O5 0.838713 0.500000 0.089006
O O6 0.901051 0.264407 0.222748
O O7 0.875128 0.253145 0.063738
O O8 0.750000 0.250000 0.000000
O O9 0.803114 0.500000 0.797337
O O10 0.708497 0.257974 0.672227
O O11 0.843429 0.241492 0.900006
O O12 0.944995 0.500000 0.340957
O O13 0.893490 0.731024 0.345665
O O14 0.040602 0.732436 0.462380
O O15 0.630325 0.000000 0.604176
O O16 0.401033 0.500000 0.026566
#
# Coordination Sequence:
#
# PCOD9192671 Si02
#       6
#     8   8   8   8   8   8
#     4   8  16  31  49  68  93 127 164 200 241 290
#     4  11  21  33  50  75 104 132 163 198 240 289
#     4  11  20  29  47  77 104 125 156 201 250 293
#     4   8  17  32  51  72  94 127 167 200 234 283
#     4   9  16  32  54  71  93 128 166 200 236 285
#     4  10  20  34  50  70  98 133 168 200 240 289
#
# _framework density 16.786853000000001
#
# number of rings (size 3 to 8) (size 9 to 14) (size 15 to 20)
#    0.000    2.500    0.000    5.500    0.000    5.000 
#    0.000    4.167    0.000    1.000    0.000    0.000 
#    0.000    0.000    0.000    0.000    0.000    0.000 
#
# Total GULP energy -133821.392721 kJ/mol
# GULP energy per Si atom -5575.891363 kJ/mol
# Density = 1.674865 g / cm^3
# Si number density = 16.786853 Si / 1000 Ang^3
#
#
#
# Elastic Constant Matrix: (Units=GPa)
#
#
# Indices 1 2 3 4 5 6 
#
# 1 144.2259 43.4782 76.2656 0.0000 21.2402 0.0000
# 2 43.4782 56.9817 36.5074 0.0000 12.0546 0.0000
# 3 76.2656 36.5074 98.6390 0.0000 19.0435 0.0000
# 4 0.0000 0.0000 0.0000 14.9591 0.0000 -0.5056
# 5 21.2402 12.0546 19.0435 0.0000 30.9601 0.0000
# 6 0.0000 0.0000 0.0000 -0.5056 0.0000 20.9777
#
#
#
# Elastic Compliance Matrix: (Units=1/GPa)
#
#
# Indices 1 2 3 4 5 6 
#
# 1 0.012649 -0.004178 -0.007798 0.000000 -0.002254 0.000000
# 2 -0.004178 0.024881 -0.005290 0.000000 -0.003568 0.000000
# 3 -0.007798 -0.005290 0.018944 0.000000 -0.004243 0.000000
# 4 0.000000 0.000000 0.000000 0.066903 0.000000 0.001612
# 5 -0.002254 -0.003568 -0.004243 0.000000 0.037845 0.000000
# 6 0.000000 0.000000 0.000000 0.001612 0.000000 0.047709
#
#
# Mechanical properties :
#
#
# Convention : Reuss Voigt Hill
#
# Bulk Modulus (GPa) = 45.57373 68.03877 56.80625
# Shear Modulus (GPa) = 19.93802 22.95240 21.44521
#
# Velocity S-wave (km/s) = 3.45007 3.70169 3.57809
# Velocity P-wave (km/s) = 6.56338 7.67392 7.14027
#
# Compressibility (1/GPa) = 0.02194247
#
# Stress axis : x y z
#
# Youngs Moduli (GPa) = 79.05966 40.19096 52.78656
#
# Poissons Ratio (x) = 0.16792 0.41163
# Poissons Ratio (y) = 0.33032 0.27922
# Poissons Ratio (z) = 0.61651 0.21259
#
# Static dielectric constant tensor:
#      x y z
#    x 1.568500 0.000000 0.009460 
#    y 0.000000 1.560970 0.000000 
#    z 0.009460 0.000000 1.555370 
# 
# From -- ./inp_files/323869.got.cif
#   From: 2010.05.17/outbox.cif.g08.bks.cpg/sg12_162_cif.got.tgz:323869.got - 2010.06.03 13:09:07.
