data_PCOD9192407
_publ_section_title
;
Structure prediction by ZEFSAII (Michael W. Deem and Ramdas Pophale) SiO2 
 PCOD9192407
Probable space group: C 2/M
;
_chemical_formula_sum "Si O2"
_cell_formula_units_Z 42
_cell_length_a 15.603743
_cell_length_b 7.348779
_cell_length_c 15.499872
_cell_angle_alpha 90.000000
_cell_angle_beta 68.590672
_cell_angle_gamma 90.000000
_cell_volume 1654.703133
_symmetry_space_group_name_H-M "C 2/M"
_symmetry_group_IT_number 12
_symmetry_cell_setting 'monoclinic'
loop_
_space_group_symop_operation_xyz
x,y,z
-x,y,-z
-x,-y,-z
x,-y,z
1/2+x,1/2+y,z
1/2-x,1/2+y,-z
1/2-x,1/2-y,-z
1/2+x,1/2-y,z
loop_
_atom_site_type_symbol
_atom_site_label
_atom_site_fract_x
_atom_site_fract_y
_atom_site_fract_z
Si Si1 0.897759 0.786688 0.712493
Si Si2 0.000000 0.000000 0.000000
Si Si3 0.393500 0.202573 0.346368
Si Si4 0.250130 0.215940 0.100638
Si Si5 0.106341 0.719379 0.471764
Si Si6 0.425827 0.778969 0.142907
O O1 0.835555 0.714032 0.812606
O O2 0.849474 0.766768 0.636439
O O3 0.996479 0.692116 0.675935
O O4 0.916169 0.000000 0.718467
O O5 0.992226 0.161012 0.926453
O O6 0.357449 0.288365 0.448999
O O7 0.393286 0.278625 0.250329
O O8 0.353551 0.000000 0.353998
O O9 0.343671 0.281758 0.109743
O O10 0.250256 0.000000 0.114918
O O11 0.250000 0.250000 0.000000
O O12 0.105967 0.500000 0.477711
O O13 0.000000 0.783375 0.500000
O O14 0.440500 0.000000 0.136338
#
# Coordination Sequence:
#
# PCOD9192407 Si02
#       6
#     8   2   8   8   8   8
#     4  10  20  33  55  86 118 151 192 243 297 349
#     4  12  26  40  68  90 118 156 206 248 288 374
#     4   9  19  36  59  83 114 154 196 243 295 352
#     4  10  24  41  58  81 119 157 194 245 301 357
#     4   8  15  31  53  81 112 150 195 236 288 352
#     4  10  24  44  62  88 123 157 197 252 301 348
#
# _framework density 25.382196
#
# number of rings (size 3 to 8) (size 9 to 14) (size 15 to 20)
#    0.000    2.476    0.000    2.000    5.333    4.952 
#    0.000    0.952    0.000    0.000    0.000    0.000 
#    0.000    0.000    0.000    0.000    0.000    0.000 
#
# Total GULP energy -117023.563323 kJ/mol
# GULP energy per Si atom -5572.550634 kJ/mol
# Density = 2.532442 g / cm^3
# Si number density = 25.382196 Si / 1000 Ang^3
#
#
#
# Elastic Constant Matrix: (Units=GPa)
#
#
# Indices 1 2 3 4 5 6 
#
# 1 46.0993 -0.8678 56.3808 0.0000 10.1278 0.0000
# 2 -0.8678 131.4430 2.1173 -0.0001 1.5166 -0.0002
# 3 56.3808 2.1173 232.6824 0.0000 41.1161 -0.0001
# 4 0.0000 -0.0001 0.0000 8.0733 0.0000 9.2071
# 5 10.1278 1.5166 41.1161 0.0000 49.3996 0.0000
# 6 0.0000 -0.0002 -0.0001 9.2071 0.0000 -2.5504
#
#
#
# Elastic Compliance Matrix: (Units=1/GPa)
#
#
# Indices 1 2 3 4 5 6 
#
# 1 0.030843 0.000325 -0.007453 0.000000 -0.000130 0.000000
# 2 0.000325 0.007614 -0.000111 0.000000 -0.000208 0.000000
# 3 -0.007453 -0.000111 0.006840 0.000000 -0.004162 0.000000
# 4 0.000000 0.000000 0.000000 0.024206 0.000000 0.087386
# 5 -0.000130 -0.000208 -0.004162 0.000000 0.023740 0.000000
# 6 0.000000 0.000000 0.000000 0.087386 0.000000 -0.076625
#
#
# Mechanical properties :
#
#
# Convention : Reuss Voigt Hill
#
# Bulk Modulus (GPa) = 32.44887 58.38725 45.41806
# Shear Modulus (GPa) = 120.85910 34.49079 77.67495
#
# Velocity S-wave (km/s) = 6.90790 3.69027 5.53792
# Velocity P-wave (km/s) = 8.74284 6.41955 7.66968
#
# Compressibility (1/GPa) = 0.03081771
#
# Stress axis : x y z
#
# Youngs Moduli (GPa) = 32.42255 131.33355 146.19576
#
# Poissons Ratio (x) = -0.04271 1.08967
# Poissons Ratio (y) = -0.01054 0.01628
# Poissons Ratio (z) = 0.24166 0.01463
#
# Static dielectric constant tensor:
#      x y z
#    x 1.913720 0.000000 -0.090140 
#    y 0.000000 1.892360 0.000000 
#    z -0.090140 0.000000 2.126040 
# 
# From -- ./inp_files/220780.got.cif
#   From: 2010.05.17/outbox.cif.g08.bks.cpg/sg12_111_cif.got.tgz:220780.got - 2010.06.03 13:09:07.
