data_PCOD9192347
_publ_section_title
;
Structure prediction by ZEFSAII (Michael W. Deem and Ramdas Pophale) SiO2 
 PCOD9192347
Probable space group: C 2/M
;
_chemical_formula_sum "Si O2"
_cell_formula_units_Z 52
_cell_length_a 9.929157
_cell_length_b 21.928388
_cell_length_c 9.559827
_cell_angle_alpha 90.000000
_cell_angle_beta 82.517626
_cell_angle_gamma 90.000000
_cell_volume 2063.741285
_symmetry_space_group_name_H-M "C 2/M"
_symmetry_group_IT_number 12
_symmetry_cell_setting 'monoclinic'
loop_
_space_group_symop_operation_xyz
x,y,z
-x,y,-z
-x,-y,-z
x,-y,z
1/2+x,1/2+y,z
1/2-x,1/2+y,-z
1/2-x,1/2-y,-z
1/2+x,1/2-y,z
loop_
_atom_site_type_symbol
_atom_site_label
_atom_site_fract_x
_atom_site_fract_y
_atom_site_fract_z
Si Si1 0.113374 0.566202 0.203993
Si Si2 0.121623 0.260231 0.692193
Si Si3 0.888209 0.606397 0.403334
Si Si4 0.143867 0.772245 0.129922
Si Si5 0.708687 0.000000 0.922781
Si Si6 0.171754 0.122683 0.635343
Si Si7 0.937106 0.910990 0.860541
O O1 0.150033 0.500000 0.265745
O O2 0.207478 0.617066 0.263173
O O3 0.954528 0.578231 0.254978
O O4 0.144324 0.552710 0.039542
O O5 0.101126 0.320323 0.604560
O O6 0.268842 0.268249 0.740896
O O7 0.124675 0.192918 0.624208
O O8 0.999752 0.260734 0.823219
O O9 0.739940 0.595686 0.486895
O O10 0.000000 0.583935 0.500000
O O11 0.104091 0.841515 0.106903
O O12 0.250000 0.750000 0.000000
O O13 0.806141 0.051874 0.839465
O O14 0.049204 0.087589 0.724539
O O15 0.000000 0.933975 0.000000
#
# Coordination Sequence:
#
# PCOD9192347 Si02
#       7
#     8   8   8   8   4   8   8
#     4   9  19  34  56  87 119 156 204 263 310 364
#     4  11  23  40  61  89 133 167 203 260 321 373
#     4  10  21  37  60  88 126 161 210 257 313 379
#     4  11  23  37  60  93 124 167 207 254 310 382
#     4  10  21  34  59  85 118 157 208 263 327 373
#     4  10  20  33  54  90 116 155 203 253 305 371
#     4  11  20  35  57  86 120 156 205 262 312 371
#
# _framework density 25.196956
#
# number of rings (size 3 to 8) (size 9 to 14) (size 15 to 20)
#    0.462    1.231    1.538    4.846    3.231    2.769 
#    0.000    2.308    1.692    0.923    0.000    1.077 
#    0.000    0.000    0.000    0.000    0.000    0.000 
#
# Total GULP energy -144784.274414 kJ/mol
# GULP energy per Si atom -5568.625939 kJ/mol
# Density = 2.513961 g / cm^3
# Si number density = 25.196956 Si / 1000 Ang^3
#
#
#
# Elastic Constant Matrix: (Units=GPa)
#
#
# Indices 1 2 3 4 5 6 
#
# 1 110.0573 17.2544 39.6238 0.0000 -35.8737 0.0000
# 2 17.2544 60.2494 26.5549 0.0000 -18.6975 0.0000
# 3 39.6238 26.5549 121.4449 0.0000 -69.5062 0.0000
# 4 0.0000 0.0000 0.0000 71.1496 0.0000 65.4232
# 5 -35.8737 -18.6975 -69.5062 0.0000 71.3088 0.0000
# 6 0.0000 0.0000 0.0000 65.4232 0.0000 191.8584
#
#
#
# Elastic Compliance Matrix: (Units=1/GPa)
#
#
# Indices 1 2 3 4 5 6 
#
# 1 0.011029 -0.001454 -0.000731 0.000000 0.004455 0.000000
# 2 -0.001454 0.018691 -0.002774 0.000000 0.001466 0.000000
# 3 -0.000731 -0.002774 0.019117 0.000000 0.017539 0.000000
# 4 0.000000 0.000000 0.000000 0.020475 0.000000 -0.006982
# 5 0.004455 0.001466 0.017539 0.000000 0.033745 0.000000
# 6 0.000000 0.000000 0.000000 -0.006982 0.000000 0.007593
#
#
# Mechanical properties :
#
#
# Convention : Reuss Voigt Hill
#
# Bulk Modulus (GPa) = 25.69307 50.95753 38.32530
# Shear Modulus (GPa) = 37.44162 80.75126 59.09644
#
# Velocity S-wave (km/s) = 3.85899 5.66724 4.84817
# Velocity P-wave (km/s) = 5.48405 7.94299 6.82517
#
# Compressibility (1/GPa) = 0.03892101
#
# Stress axis : x y z
#
# Youngs Moduli (GPa) = 90.66691 53.50032 52.30900
#
# Poissons Ratio (x) = 0.07779 0.03824
# Poissons Ratio (y) = 0.13182 0.14508
# Poissons Ratio (z) = 0.06628 0.14839
#
# Static dielectric constant tensor:
#      x y z
#    x 2.037870 0.000000 0.078430 
#    y 0.000000 2.006880 0.000000 
#    z 0.078430 0.000000 2.161660 
# 
# From -- ./inp_files/134777.got.cif
#   From: 2010.05.17/outbox.cif.g08.bks.cpg/sg12_68_cif.got.tgz:134777.got - 2010.06.03 13:09:07.
