data_PCOD9192255
_publ_section_title
;
Structure prediction by ZEFSAII (Michael W. Deem and Ramdas Pophale) SiO2 
 PCOD9192255
Probable space group: C 2/M
;
_chemical_formula_sum "Si O2"
_cell_formula_units_Z 48
_cell_length_a 25.283175
_cell_length_b 15.641129
_cell_length_c 5.533734
_cell_angle_alpha 90.000000
_cell_angle_beta 89.629606
_cell_angle_gamma 90.000000
_cell_volume 2188.310343
_symmetry_space_group_name_H-M "C 2/M"
_symmetry_group_IT_number 12
_symmetry_cell_setting 'monoclinic'
loop_
_space_group_symop_operation_xyz
x,y,z
-x,y,-z
-x,-y,-z
x,-y,z
1/2+x,1/2+y,z
1/2-x,1/2+y,-z
1/2-x,1/2-y,-z
1/2+x,1/2-y,z
loop_
_atom_site_type_symbol
_atom_site_label
_atom_site_fract_x
_atom_site_fract_y
_atom_site_fract_z
Si Si1 0.878689 0.300861 0.605625
Si Si2 0.721097 0.599095 0.118528
Si Si3 0.834672 0.405902 0.976256
Si Si4 0.798244 0.192105 0.397363
Si Si5 0.557150 0.904458 0.735124
Si Si6 0.015716 0.233143 0.243811
O O1 0.832898 0.333085 0.778813
O O2 0.852039 0.248387 0.391833
O O3 0.911469 0.382710 0.511204
O O4 0.922004 0.247234 0.746685
O O5 0.708092 0.500000 0.073844
O O6 0.785187 0.604463 0.154808
O O7 0.710168 0.650966 0.868126
O O8 0.694987 0.628944 0.370683
O O9 0.827231 0.500000 0.865494
O O10 0.893769 0.402961 0.081063
O O11 0.750000 0.250000 0.500000
O O12 0.516722 0.825112 0.761914
O O13 0.533653 0.000000 0.739741
O O14 0.000000 0.193655 0.500000
O O15 0.000000 0.187110 0.000000
#
# Coordination Sequence:
#
# PCOD9192255 Si02
#       6
#     8   8   8   8   8   8
#     4  11  22  34  55  80 115 151 207 238 291 336
#     4  11  25  43  61  88 121 161 204 251 300 360
#     4  10  20  33  54  79 115 160 200 237 283 345
#     4  12  24  39  65  87 122 156 203 253 307 350
#     4  10  21  35  53  79 120 166 201 235 282 346
#     4  10  21  35  52  75 113 153 193 241 277 337
#
# _framework density 21.934733000000001
#
# number of rings (size 3 to 8) (size 9 to 14) (size 15 to 20)
#    0.000    1.333    3.333    2.500    2.333    4.000 
#    0.000    0.000    0.000    0.000    0.000    0.000 
#    0.000   56.000    0.000    0.000    0.000    0.000 
#
# Total GULP energy -133843.695290 kJ/mol
# GULP energy per Si atom -5576.820637 kJ/mol
# Density = 2.188481 g / cm^3
# Si number density = 21.934733 Si / 1000 Ang^3
#
#
#
# Elastic Constant Matrix: (Units=GPa)
#
#
# Indices 1 2 3 4 5 6 
#
# 1 65.1565 15.2388 7.3708 0.0000 14.9754 0.0000
# 2 15.2388 45.8246 23.9330 0.0000 8.8170 0.0000
# 3 7.3708 23.9330 125.1997 0.0000 9.4897 0.0000
# 4 0.0000 0.0000 0.0000 29.6621 0.0000 3.5796
# 5 14.9754 8.8170 9.4897 0.0000 41.8260 0.0000
# 6 0.0000 0.0000 0.0000 3.5796 0.0000 18.0914
#
#
#
# Elastic Compliance Matrix: (Units=1/GPa)
#
#
# Indices 1 2 3 4 5 6 
#
# 1 0.017719 -0.005031 0.000325 0.000000 -0.005357 0.000000
# 2 -0.005031 0.026393 -0.004542 0.000000 -0.002732 0.000000
# 3 0.000325 -0.004542 0.008926 0.000000 -0.001184 0.000000
# 4 0.000000 0.000000 0.000000 0.034538 0.000000 -0.006834
# 5 -0.005357 -0.002732 -0.001184 0.000000 0.026671 0.000000
# 6 0.000000 0.000000 0.000000 -0.006834 0.000000 0.056627
#
#
# Mechanical properties :
#
#
# Convention : Reuss Voigt Hill
#
# Bulk Modulus (GPa) = 28.95095 36.58511 32.76803
# Shear Modulus (GPa) = 24.88991 30.55848 27.72419
#
# Velocity S-wave (km/s) = 3.37222 3.73655 3.55905
# Velocity P-wave (km/s) = 5.32821 5.94399 5.64450
#
# Compressibility (1/GPa) = 0.03454118
#
# Stress axis : x y z
#
# Youngs Moduli (GPa) = 56.43698 37.88855 112.03087
#
# Poissons Ratio (x) = 0.19062 -0.03637
# Poissons Ratio (y) = 0.28394 0.50885
# Poissons Ratio (z) = -0.01832 0.17209
#
# Static dielectric constant tensor:
#      x y z
#    x 1.815440 0.000000 0.012470 
#    y 0.000000 1.829830 0.000000 
#    z 0.012470 0.000000 1.928470 
# 
# From -- ./inp_files/28150.got.cif
#   From: 2010.05.17/outbox.cif.g08.bks.cpg/sg12_15_cif.got.tgz:28150.got - 2010.06.03 13:09:07.
