data_PCOD9192489
_publ_section_title
;
Structure prediction by ZEFSAII (Michael W. Deem and Ramdas Pophale) SiO2 
 PCOD9192489
Probable space group: C 2/M
;
_chemical_formula_sum "Si O2"
_cell_formula_units_Z 42
_cell_length_a 7.932113
_cell_length_b 33.373272
_cell_length_c 8.455864
_cell_angle_alpha 90.000000
_cell_angle_beta 117.527787
_cell_angle_gamma 90.000000
_cell_volume 1985.019997
_symmetry_space_group_name_H-M "C 2/M"
_symmetry_group_IT_number 12
_symmetry_cell_setting 'monoclinic'
loop_
_space_group_symop_operation_xyz
x,y,z
-x,y,-z
-x,-y,-z
x,-y,z
1/2+x,1/2+y,z
1/2-x,1/2+y,-z
1/2-x,1/2-y,-z
1/2+x,1/2-y,z
loop_
_atom_site_type_symbol
_atom_site_label
_atom_site_fract_x
_atom_site_fract_y
_atom_site_fract_z
Si Si1 0.500000 0.500000 0.500000
Si Si2 0.777332 0.500000 0.874694
Si Si3 0.714510 0.571550 0.075214
Si Si4 0.412338 0.295315 0.717353
Si Si5 0.401199 0.147788 0.283105
Si Si6 0.785793 0.500000 0.344990
Si Si7 0.707284 0.792962 0.283449
O O1 0.714738 0.500000 0.668158
O O2 0.595567 0.500000 0.367731
O O3 0.717443 0.542779 0.924232
O O4 0.000000 0.500000 0.000000
O O5 0.855808 0.608202 0.163883
O O6 0.763279 0.539746 0.231821
O O7 0.500000 0.586915 0.000000
O O8 0.293091 0.328345 0.760097
O O9 0.374904 0.251610 0.775160
O O10 0.316178 0.293018 0.500699
O O11 0.634652 0.302879 0.780028
O O12 0.500000 0.139949 0.500000
O O13 0.538958 0.175923 0.239786
O O14 0.000000 0.500000 0.500000
#
# Coordination Sequence:
#
# PCOD9192489 Si02
#       7
#     2   4   8   8   8   4   8
#     4  12  20  42  76 106 124 170 232 268 316 416
#     4  11  24  45  74 102 132 179 222 276 337 403
#     4  11  22  45  62  89 141 173 205 267 342 389
#     4   9  15  27  50  83 119 163 212 277 326 381
#     4  10  20  33  56  89 123 170 221 270 328 390
#     4  11  22  41  72 100 122 167 218 270 327 403
#     4   9  15  27  50  83 121 159 218 272 326 380
#
# _framework density 21.158477999999999
#
# number of rings (size 3 to 8) (size 9 to 14) (size 15 to 20)
#    0.000    1.905    3.810    2.286    0.000    0.000 
#    3.429    3.810    0.000    1.143    0.000    0.000 
#    0.000    0.000    0.000    0.762    0.000    0.000 
#
# Total GULP energy -116952.951298 kJ/mol
# GULP energy per Si atom -5569.188157 kJ/mol
# Density = 2.111032 g / cm^3
# Si number density = 21.158478 Si / 1000 Ang^3
#
#
#
# Elastic Constant Matrix: (Units=GPa)
#
#
# Indices 1 2 3 4 5 6 
#
# 1 135.2812 48.0398 11.6723 0.0000 4.0965 0.0000
# 2 48.0398 137.5428 32.5776 0.0000 2.1810 0.0000
# 3 11.6723 32.5776 52.6365 0.0000 16.8978 0.0000
# 4 0.0000 0.0000 0.0000 5.5186 0.0000 11.7143
# 5 4.0965 2.1810 16.8978 0.0000 23.4227 0.0000
# 6 0.0000 0.0000 0.0000 11.7143 0.0000 37.4386
#
#
#
# Elastic Compliance Matrix: (Units=1/GPa)
#
#
# Indices 1 2 3 4 5 6 
#
# 1 0.008482 -0.003060 0.000518 0.000000 -0.001572 0.000000
# 2 -0.003060 0.009909 -0.006936 0.000000 0.004617 0.000000
# 3 0.000518 -0.006936 0.029930 0.000000 -0.021037 0.000000
# 4 0.000000 0.000000 0.000000 0.539585 0.000000 -0.168832
# 5 -0.001572 0.004617 -0.021037 0.000000 0.057715 0.000000
# 6 0.000000 0.000000 0.000000 -0.168832 0.000000 0.079537
#
#
# Mechanical properties :
#
#
# Convention : Reuss Voigt Hill
#
# Bulk Modulus (GPa) = 34.05624 56.67108 45.36366
# Shear Modulus (GPa) = 6.63216 28.82070 17.72643
#
# Velocity S-wave (km/s) = 1.77238 3.69471 2.89761
# Velocity P-wave (km/s) = 4.50768 6.71144 5.71676
#
# Compressibility (1/GPa) = 0.02936320
#
# Stress axis : x y z
#
# Youngs Moduli (GPa) = 117.90217 100.91891 33.41151
#
# Poissons Ratio (x) = 0.30882 -0.01730
# Poissons Ratio (y) = 0.36079 0.23175
# Poissons Ratio (z) = -0.06105 0.70000
#
# Static dielectric constant tensor:
#      x y z
#    x 1.781020 0.000000 0.007610 
#    y 0.000000 1.774750 0.000000 
#    z 0.007610 0.000000 1.773260 
# 
# From -- ./inp_files/41846.got.cif
#   From: 2010.05.17/outbox.cif.g08.bks.cpg/sg12_21_cif.got.tgz:41846.got - 2010.06.03 13:09:07.
