data_PCOD9192660
_publ_section_title
;
Structure prediction by ZEFSAII (Michael W. Deem and Ramdas Pophale) SiO2 
 PCOD9192660
Probable space group: C 2/M
;
_chemical_formula_sum "Si O2"
_cell_formula_units_Z 48
_cell_length_a 24.768346
_cell_length_b 16.347738
_cell_length_c 17.940201
_cell_angle_alpha 90.000000
_cell_angle_beta 21.334021
_cell_angle_gamma 90.000000
_cell_volume 2642.712434
_symmetry_space_group_name_H-M "C 2/M"
_symmetry_group_IT_number 12
_symmetry_cell_setting 'monoclinic'
loop_
_space_group_symop_operation_xyz
x,y,z
-x,y,-z
-x,-y,-z
x,-y,z
1/2+x,1/2+y,z
1/2-x,1/2+y,-z
1/2-x,1/2-y,-z
1/2+x,1/2-y,z
loop_
_atom_site_type_symbol
_atom_site_label
_atom_site_fract_x
_atom_site_fract_y
_atom_site_fract_z
Si Si1 0.718528 0.327340 0.592525
Si Si2 0.041485 0.596899 0.616682
Si Si3 0.896958 0.095370 0.400461
Si Si4 0.661781 0.207176 0.789804
Si Si5 0.229843 0.097853 0.958122
Si Si6 0.157133 0.700077 0.327315
O O1 0.750000 0.250000 0.500000
O O2 0.870696 0.366240 0.426684
O O3 0.630224 0.388679 0.652879
O O4 0.641250 0.288363 0.764353
O O5 0.064638 0.500000 0.584040
O O6 0.108517 0.638315 0.456139
O O7 0.865465 0.613233 0.840394
O O8 0.782371 0.149979 0.594301
O O9 0.876039 0.000000 0.443751
O O10 0.067327 0.119037 0.197132
O O11 0.731425 0.235636 0.778399
O O12 0.500000 0.167353 0.000000
O O13 0.266816 0.149556 0.836813
O O14 0.230472 0.000000 0.940357
O O15 0.000000 0.735742 0.500000
#
# Coordination Sequence:
#
# PCOD9192660 Si02
#       6
#     8   8   8   8   8   8
#     4   9  18  32  48  71  97 124 160 199 238 282
#     4   9  16  28  49  75 102 129 156 191 239 293
#     4  10  20  34  51  71  97 128 163 202 242 284
#     4  10  20  34  50  69  96 128 164 203 240 284
#     4   9  17  30  50  76 102 126 155 195 242 291
#     4   9  17  31  50  74 100 127 158 193 240 292
#
# _framework density 18.163157000000002
#
# number of rings (size 3 to 8) (size 9 to 14) (size 15 to 20)
#    0.000    2.667    0.000    2.000    0.000    2.333 
#    0.000   16.667    0.000    8.500    0.000    0.000 
#    0.000    0.000    0.000    0.000    0.000    0.000 
#
# Total GULP energy -133732.935902 kJ/mol
# GULP energy per Si atom -5572.205663 kJ/mol
# Density = 1.812182 g / cm^3
# Si number density = 18.163157 Si / 1000 Ang^3
#
#
#
# Elastic Constant Matrix: (Units=GPa)
#
#
# Indices 1 2 3 4 5 6 
#
# 1 52.4306 10.0815 13.9985 -0.0005 -22.8810 0.0006
# 2 10.0815 37.4363 29.2635 -0.0003 -13.9082 0.0005
# 3 13.9985 29.2635 115.9184 -0.0006 -22.7154 0.0007
# 4 -0.0005 -0.0003 -0.0006 23.3374 0.0004 -5.4667
# 5 -22.8810 -13.9082 -22.7154 0.0004 21.4547 -0.0003
# 6 0.0006 0.0005 0.0007 -5.4667 -0.0003 22.5109
#
#
#
# Elastic Compliance Matrix: (Units=1/GPa)
#
#
# Indices 1 2 3 4 5 6 
#
# 1 0.037716 0.004524 0.003483 0.000000 0.046843 0.000000
# 2 0.004524 0.038828 -0.005641 0.000000 0.024023 0.000000
# 3 0.003483 -0.005641 0.012166 0.000000 0.012938 0.000000
# 4 0.000000 0.000000 0.000000 0.045434 0.000000 0.011033
# 5 0.046843 0.024023 0.012938 0.000000 0.125838 0.000000
# 6 0.000000 0.000000 0.000000 0.011033 0.000000 0.047102
#
#
# Mechanical properties :
#
#
# Convention : Reuss Voigt Hill
#
# Bulk Modulus (GPa) = 10.70203 34.71916 22.71059
# Shear Modulus (GPa) = 14.99255 23.62340 19.30798
#
# Velocity S-wave (km/s) = 2.87616 3.61033 3.26395
# Velocity P-wave (km/s) = 4.11518 6.04450 5.17062
#
# Compressibility (1/GPa) = 0.09344024
#
# Stress axis : x y z
#
# Youngs Moduli (GPa) = 26.51421 25.75463 82.19950
#
# Poissons Ratio (x) = -0.11651 -0.28628
# Poissons Ratio (y) = -0.11994 0.46368
# Poissons Ratio (z) = -0.09234 0.14528
#
# Static dielectric constant tensor:
#      x y z
#    x 1.635730 0.000000 -0.019840 
#    y 0.000000 1.615090 0.000000 
#    z -0.019840 0.000000 1.644880 
# 
# From -- ./inp_files/61713.got.cif
#   From: 2010.05.17/outbox.cif.g08.bks.cpg/sg12_31_cif.got.tgz:61713.got - 2010.06.03 13:09:07.
