data_PCOD9192449
_publ_section_title
;
Structure prediction by ZEFSAII (Michael W. Deem and Ramdas Pophale) SiO2 
 PCOD9192449
Probable space group: C 2/M
;
_chemical_formula_sum "Si O2"
_cell_formula_units_Z 56
_cell_length_a 19.403732
_cell_length_b 7.461838
_cell_length_c 18.598055
_cell_angle_alpha 90.000000
_cell_angle_beta 67.912042
_cell_angle_gamma 90.000000
_cell_volume 2495.137641
_symmetry_space_group_name_H-M "C 2/M"
_symmetry_group_IT_number 12
_symmetry_cell_setting 'monoclinic'
loop_
_space_group_symop_operation_xyz
x,y,z
-x,y,-z
-x,-y,-z
x,-y,z
1/2+x,1/2+y,z
1/2-x,1/2+y,-z
1/2-x,1/2-y,-z
1/2+x,1/2-y,z
loop_
_atom_site_type_symbol
_atom_site_label
_atom_site_fract_x
_atom_site_fract_y
_atom_site_fract_z
Si Si1 0.432910 0.718821 0.976248
Si Si2 0.925759 0.219125 0.485946
Si Si3 0.026358 0.780106 0.199874
Si Si4 0.727894 0.287326 0.926714
Si Si5 0.110451 0.787321 0.659472
Si Si6 0.659984 0.295741 0.240727
Si Si7 0.780737 0.784373 0.631999
O O1 0.430297 0.500000 0.975143
O O2 0.445787 0.779065 0.889375
O O3 0.500000 0.773566 0.000000
O O4 0.356554 0.777266 0.042679
O O5 0.918565 0.280752 0.406264
O O6 0.849205 0.274240 0.555071
O O7 0.000000 0.275948 0.500000
O O8 0.927402 0.000000 0.485322
O O9 0.084314 0.717291 0.238062
O O10 0.943695 0.723360 0.255326
O O11 0.029112 0.000000 0.196698
O O12 0.730938 0.500000 0.912764
O O13 0.782629 0.202707 0.847781
O O14 0.750000 0.250000 0.000000
O O15 0.197926 0.761525 0.638517
O O16 0.099285 0.000000 0.661064
O O17 0.640227 0.500000 0.268604
O O18 0.699347 0.217547 0.295540
O O19 0.781353 0.000000 0.632089
#
# Coordination Sequence:
#
# PCOD9192449 Si02
#       7
#     8   8   8   8   8   8   8
#     4   9  18  31  50  75 102 134 173 216 263 310
#     4   9  17  33  57  84 107 138 186 227 261 312
#     4   9  17  32  52  74 101 137 180 223 260 306
#     4  11  21  35  57  81 107 140 178 225 271 318
#     4  10  20  33  56  83 108 138 181 228 264 316
#     4  10  20  36  55  76 104 142 184 221 265 319
#     4  10  21  35  54  79 113 145 171 218 279 326
#
# _framework density 22.443653000000001
#
# number of rings (size 3 to 8) (size 9 to 14) (size 15 to 20)
#    0.000    2.286    1.429    1.714    2.000    4.000 
#    0.000    0.714    0.000    5.143    0.000    0.000 
#    0.000    0.000    0.000    0.000    0.000    0.000 
#
# Total GULP energy -156376.770197 kJ/mol
# GULP energy per Si atom -5584.884650 kJ/mol
# Density = 2.239257 g / cm^3
# Si number density = 22.443653 Si / 1000 Ang^3
#
#
#
# Elastic Constant Matrix: (Units=GPa)
#
#
# Indices 1 2 3 4 5 6 
#
# 1 148.5083 -5.7371 24.8813 0.0000 -12.1963 0.0000
# 2 -5.7371 65.6989 -3.5698 -0.0001 1.5019 -0.0001
# 3 24.8813 -3.5698 80.6867 0.0000 -8.5689 0.0001
# 4 0.0000 -0.0001 0.0000 5.0586 0.0000 -3.9619
# 5 -12.1963 1.5019 -8.5689 0.0000 43.6667 0.0000
# 6 0.0000 -0.0001 0.0001 -3.9619 0.0000 11.8730
#
#
#
# Elastic Compliance Matrix: (Units=1/GPa)
#
#
# Indices 1 2 3 4 5 6 
#
# 1 0.007225 0.000484 -0.002036 0.000000 0.001602 0.000000
# 2 0.000484 0.015297 0.000496 0.000001 -0.000294 0.000000
# 3 -0.002036 0.000496 0.013258 0.000000 0.002016 0.000000
# 4 0.000000 0.000001 0.000000 0.267627 0.000000 0.089303
# 5 0.001602 -0.000294 0.002016 0.000000 0.023754 0.000000
# 6 0.000000 0.000000 0.000000 0.089303 0.000000 0.114024
#
#
# Mechanical properties :
#
#
# Convention : Reuss Voigt Hill
#
# Bulk Modulus (GPa) = 29.70285 36.22696 32.96490
# Shear Modulus (GPa) = 11.00063 30.74096 20.87080
#
# Velocity S-wave (km/s) = 2.21632 3.70495 3.05277
# Velocity P-wave (km/s) = 4.45113 5.87185 5.21014
#
# Compressibility (1/GPa) = 0.03366681
#
# Stress axis : x y z
#
# Youngs Moduli (GPa) = 138.40731 65.37279 75.42824
#
# Poissons Ratio (x) = -0.03162 0.15361
# Poissons Ratio (y) = -0.06694 -0.03745
# Poissons Ratio (z) = 0.28186 -0.03245
#
# Static dielectric constant tensor:
#      x y z
#    x 1.825880 0.000000 -0.010980 
#    y 0.000000 1.887730 0.000000 
#    z -0.010980 0.000000 1.802920 
# 
# From -- ./inp_files/275092.got.cif
#   From: 2010.05.17/outbox.cif.g08.bks.cpg/sg12_138_cif.got.tgz:275092.got - 2010.06.03 13:09:07.
