data_PCOD9192314
_publ_section_title
;
Structure prediction by ZEFSAII (Michael W. Deem and Ramdas Pophale) SiO2 
 PCOD9192314
Probable space group: C 2/M
;
_chemical_formula_sum "Si O2"
_cell_formula_units_Z 42
_cell_length_a 29.045051
_cell_length_b 7.442148
_cell_length_c 7.506069
_cell_angle_alpha 90.000000
_cell_angle_beta 80.503309
_cell_angle_gamma 90.000000
_cell_volume 1600.257561
_symmetry_space_group_name_H-M "C 2/M"
_symmetry_group_IT_number 12
_symmetry_cell_setting 'monoclinic'
loop_
_space_group_symop_operation_xyz
x,y,z
-x,y,-z
-x,-y,-z
x,-y,z
1/2+x,1/2+y,z
1/2-x,1/2+y,-z
1/2-x,1/2-y,-z
1/2+x,1/2-y,z
loop_
_atom_site_type_symbol
_atom_site_label
_atom_site_fract_x
_atom_site_fract_y
_atom_site_fract_z
Si Si1 0.622582 0.285538 0.938085
Si Si2 0.682668 0.206526 0.394517
Si Si3 0.046770 0.780626 0.706357
Si Si4 0.084033 0.202995 0.313764
Si Si5 0.000000 0.500000 0.000000
Si Si6 0.280078 0.790761 0.249464
O O1 0.622559 0.500000 0.956096
O O2 0.591410 0.206610 0.117770
O O3 0.596563 0.241705 0.771939
O O4 0.676149 0.229109 0.907988
O O5 0.637681 0.303988 0.348367
O O6 0.700131 0.281270 0.573871
O O7 0.729631 0.208901 0.245114
O O8 0.668440 0.000000 0.428184
O O9 0.053550 0.727087 0.496165
O O10 0.039772 0.000000 0.722111
O O11 0.011817 0.659665 0.841348
O O12 0.066656 0.000000 0.295436
O O13 0.270830 0.000000 0.278758
#
# Coordination Sequence:
#
# PCOD9192314 Si02
#       6
#     8   8   8   8   2   8
#     4  10  21  38  62  89 122 165 207 251 311 373
#     4  10  20  33  54  84 122 165 212 259 306 360
#     4  10  23  45  68  95 130 160 199 261 318 379
#     4  10  21  38  62  89 122 165 207 251 311 373
#     4  12  26  44  78  98 124 162 214 252 326 406
#     4  10  20  33  54  84 122 165 212 259 306 360
#
# _framework density 26.245775999999999
#
# number of rings (size 3 to 8) (size 9 to 14) (size 15 to 20)
#    0.000    1.905    1.905    1.429    2.667    3.048 
#    0.000    1.905    0.000    4.571    0.000    0.000 
#    0.000    0.000    0.000    0.000    0.000    0.000 
#
# Total GULP energy -117227.757210 kJ/mol
# GULP energy per Si atom -5582.274153 kJ/mol
# Density = 2.618604 g / cm^3
# Si number density = 26.245776 Si / 1000 Ang^3
#
#
#
# Elastic Constant Matrix: (Units=GPa)
#
#
# Indices 1 2 3 4 5 6 
#
# 1 136.3211 -8.5586 29.3396 0.0000 -23.9923 0.0000
# 2 -8.5586 120.5629 20.1735 0.0000 -14.1167 0.0000
# 3 29.3396 20.1735 172.2300 0.0000 -40.1336 0.0000
# 4 0.0000 0.0000 0.0000 15.7767 0.0000 -22.1313
# 5 -23.9923 -14.1167 -40.1336 0.0000 45.0594 0.0000
# 6 0.0000 0.0000 0.0000 -22.1313 0.0000 -2.4801
#
#
#
# Elastic Compliance Matrix: (Units=1/GPa)
#
#
# Indices 1 2 3 4 5 6 
#
# 1 0.008283 0.001182 -0.000550 0.000000 0.004292 0.000000
# 2 0.001182 0.008811 -0.000560 0.000000 0.002891 0.000000
# 3 -0.000550 -0.000560 0.007390 0.000000 0.006114 0.000000
# 4 0.000000 0.000000 0.000000 0.004689 0.000000 -0.041842
# 5 0.004292 0.002891 0.006114 0.000000 0.030830 0.000000
# 6 0.000000 0.000000 0.000000 -0.041842 0.000000 -0.029828
#
#
# Mechanical properties :
#
#
# Convention : Reuss Voigt Hill
#
# Bulk Modulus (GPa) = 40.59981 56.78035 48.69008
# Shear Modulus (GPa) = 130.75807 37.54851 84.15329
#
# Velocity S-wave (km/s) = 7.06603 3.78650 5.66861
# Velocity P-wave (km/s) = 9.05949 6.38732 7.83812
#
# Compressibility (1/GPa) = 0.02463066
#
# Stress axis : x y z
#
# Youngs Moduli (GPa) = 120.72263 113.50004 135.31555
#
# Poissons Ratio (x) = -0.13421 0.07437
# Poissons Ratio (y) = -0.14275 0.07573
# Poissons Ratio (z) = 0.06635 0.06352
#
# Static dielectric constant tensor:
#      x y z
#    x 2.078880 0.000000 0.001450 
#    y 0.000000 1.973720 0.000000 
#    z 0.001450 0.000000 2.108600 
# 
# From -- ./inp_files/107890.got.cif
#   From: 2010.05.17/outbox.cif.g08.bks.cpg/sg12_54_cif.got.tgz:107890.got - 2010.06.03 13:09:07.
