data_PCOD9192264
_publ_section_title
;
Structure prediction by ZEFSAII (Michael W. Deem and Ramdas Pophale) SiO2 
 PCOD9192264
Probable space group: C 2/M
;
_chemical_formula_sum "Si O2"
_cell_formula_units_Z 56
_cell_length_a 29.085291
_cell_length_b 7.447244
_cell_length_c 19.763119
_cell_angle_alpha 90.000000
_cell_angle_beta 144.423629
_cell_angle_gamma 90.000000
_cell_volume 2490.513722
_symmetry_space_group_name_H-M "C 2/M"
_symmetry_group_IT_number 12
_symmetry_cell_setting 'monoclinic'
loop_
_space_group_symop_operation_xyz
x,y,z
-x,y,-z
-x,-y,-z
x,-y,z
1/2+x,1/2+y,z
1/2-x,1/2+y,-z
1/2-x,1/2-y,-z
1/2+x,1/2-y,z
loop_
_atom_site_type_symbol
_atom_site_label
_atom_site_fract_x
_atom_site_fract_y
_atom_site_fract_z
Si Si1 0.217208 0.714732 0.886103
Si Si2 0.042875 0.280879 0.699782
Si Si3 0.768862 0.216407 0.806566
Si Si4 0.441361 0.211994 0.986986
Si Si5 0.169783 0.286277 0.442904
Si Si6 0.500906 0.218923 0.800757
Si Si7 0.870653 0.719330 0.455577
O O1 0.214605 0.500000 0.876647
O O2 0.126841 0.780094 0.772234
O O3 0.268204 0.781770 0.883613
O O4 0.250000 0.750000 0.000000
O O5 0.042736 0.500000 0.698488
O O6 0.036502 0.225653 0.771077
O O7 0.962534 0.224398 0.565784
O O8 0.688845 0.278026 0.673978
O O9 0.767977 0.000000 0.805457
O O10 0.848413 0.268263 0.862797
O O11 0.458242 0.285561 0.082323
O O12 0.458459 0.000000 0.011308
O O13 0.500000 0.286307 0.000000
O O14 0.162075 0.500000 0.438332
O O15 0.250000 0.250000 0.500000
O O16 0.090906 0.224367 0.310190
O O17 0.164763 0.222038 0.514246
O O18 0.504582 0.000000 0.804729
O O19 0.871488 0.500000 0.454744
#
# Coordination Sequence:
#
# PCOD9192264 Si02
#       7
#     8   8   8   8   8   8   8
#     4  10  20  33  54  81 105 135 174 213 255 305
#     4   8  14  28  51  74  97 131 170 207 248 297
#     4  10  21  35  51  77 109 134 165 215 267 310
#     4  10  21  35  52  73  99 138 180 212 249 304
#     4   9  17  29  48  70  93 125 163 206 251 294
#     4   8  15  29  47  68  94 124 164 208 245 288
#     4   8  16  31  49  72 103 134 165 206 257 306
#
# _framework density 22.485320000000002
#
# number of rings (size 3 to 8) (size 9 to 14) (size 15 to 20)
#    0.000    3.000    0.000    2.571    2.000    2.571 
#    0.000    3.571    0.000    4.286    0.000    2.000 
#    0.000    0.000    0.000    0.000    0.000    0.000 
#
# Total GULP energy -156274.167370 kJ/mol
# GULP energy per Si atom -5581.220263 kJ/mol
# Density = 2.243414 g / cm^3
# Si number density = 22.485320 Si / 1000 Ang^3
#
#
#
# Elastic Constant Matrix: (Units=GPa)
#
#
# Indices 1 2 3 4 5 6 
#
# 1 119.1542 -1.3110 50.7999 0.0000 25.9753 0.0000
# 2 -1.3110 62.7644 -6.8505 0.0000 -4.7011 0.0000
# 3 50.7999 -6.8505 106.7650 0.0000 -2.4487 0.0000
# 4 0.0000 0.0000 0.0000 4.3729 0.0000 -0.0920
# 5 25.9753 -4.7011 -2.4487 0.0000 29.3418 0.0000
# 6 0.0000 0.0000 0.0000 -0.0920 0.0000 7.0810
#
#
#
# Elastic Compliance Matrix: (Units=1/GPa)
#
#
# Indices 1 2 3 4 5 6 
#
# 1 0.014460 -0.001516 -0.007291 0.000000 -0.013653 0.000000
# 2 -0.001516 0.016414 0.001869 0.000000 0.004128 0.000000
# 3 -0.007291 0.001869 0.013135 0.000000 0.007850 0.000000
# 4 0.000000 0.000000 0.000000 0.228743 0.000000 0.002971
# 5 -0.013653 0.004128 0.007850 0.000000 0.047484 0.000000
# 6 0.000000 0.000000 0.000000 0.002971 0.000000 0.141263
#
#
# Mechanical properties :
#
#
# Convention : Reuss Voigt Hill
#
# Bulk Modulus (GPa) = 33.18466 41.55117 37.36791
# Shear Modulus (GPa) = 10.30037 24.56214 17.43126
#
# Velocity S-wave (km/s) = 2.14263 3.30868 2.78731
# Velocity P-wave (km/s) = 4.57292 5.75464 5.19747
#
# Compressibility (1/GPa) = 0.03013441
#
# Stress axis : x y z
#
# Youngs Moduli (GPa) = 69.15424 60.92295 76.13007
#
# Poissons Ratio (x) = 0.09238 0.55505
# Poissons Ratio (y) = 0.10486 -0.14232
# Poissons Ratio (z) = 0.50419 -0.11389
#
# Static dielectric constant tensor:
#      x y z
#    x 1.832850 0.000000 0.000530 
#    y 0.000000 1.965170 0.000000 
#    z 0.000530 0.000000 1.830250 
# 
# From -- ./inp_files/292511.got.cif
#   From: 2010.05.17/outbox.cif.g08.bks.cpg/sg12_147_cif.got.tgz:292511.got - 2010.06.03 13:09:07.
