data_PCOD9192669
_publ_section_title
;
Structure prediction by ZEFSAII (Michael W. Deem and Ramdas Pophale) SiO2 
 PCOD9192669
Probable space group: C 2/M
;
_chemical_formula_sum "Si O2"
_cell_formula_units_Z 64
_cell_length_a 29.068873
_cell_length_b 8.507701
_cell_length_c 23.333465
_cell_angle_alpha 90.000000
_cell_angle_beta 37.371376
_cell_angle_gamma 90.000000
_cell_volume 3502.621704
_symmetry_space_group_name_H-M "C 2/M"
_symmetry_group_IT_number 12
_symmetry_cell_setting 'monoclinic'
loop_
_space_group_symop_operation_xyz
x,y,z
-x,y,-z
-x,-y,-z
x,-y,z
1/2+x,1/2+y,z
1/2-x,1/2+y,-z
1/2-x,1/2-y,-z
1/2+x,1/2-y,z
loop_
_atom_site_type_symbol
_atom_site_label
_atom_site_fract_x
_atom_site_fract_y
_atom_site_fract_z
Si Si1 0.671090 0.192381 0.786776
Si Si2 0.644272 0.189839 0.942742
Si Si3 0.524782 0.689820 0.612832
Si Si4 0.185501 0.812188 0.021760
Si Si5 0.985801 0.189806 0.778233
Si Si6 0.973389 0.310558 0.142597
Si Si7 0.425241 0.820085 0.614631
Si Si8 0.664674 0.688225 0.397768
O O1 0.670408 0.240639 0.853975
O O2 0.595968 0.245157 0.827902
O O3 0.749478 0.244547 0.679996
O O4 0.670028 0.000000 0.787530
O O5 0.646786 0.000000 0.942392
O O6 0.690601 0.253431 0.951155
O O7 0.556260 0.239652 0.037926
O O8 0.525933 0.500000 0.610954
O O9 0.516555 0.742687 0.686282
O O10 0.453247 0.743630 0.645685
O O11 0.601399 0.747575 0.505248
O O12 0.101977 0.760993 0.126492
O O13 0.187495 0.000000 0.019954
O O14 0.250000 0.750000 0.000000
O O15 0.031454 0.254136 0.787275
O O16 0.987782 0.000000 0.777796
O O17 0.972899 0.500000 0.141953
O O18 0.500000 0.817124 0.500000
O O19 0.363128 0.730743 0.638667
O O20 0.402692 0.000000 0.645878
O O21 0.664828 0.500000 0.402537
#
# Coordination Sequence:
#
# PCOD9192669 Si02
#       8
#     8   8   8   8   8   8   8   8
#     4   9  17  30  50  74  96 120 153 194 236 274
#     4   9  17  31  51  72  95 124 156 189 229 278
#     4   9  17  31  50  68  89 124 164 191 220 272
#     4  10  20  34  50  70  98 126 154 191 232 274
#     4   9  19  34  50  68  92 124 159 193 229 272
#     4   9  17  31  51  72  93 120 156 194 231 276
#     4   9  17  29  45  66  93 121 150 189 233 272
#     4   9  17  30  48  69  94 123 156 192 227 271
#
# _framework density 18.272027999999999
#
# number of rings (size 3 to 8) (size 9 to 14) (size 15 to 20)
#    0.000    2.875    0.000    1.125    0.000    5.000 
#    0.000    7.500    0.000    3.000    0.000    0.000 
#    0.000    0.000    0.000    0.000    0.000    0.000 
#
# Total GULP energy -178366.303294 kJ/mol
# GULP energy per Si atom -5573.946978 kJ/mol
# Density = 1.823044 g / cm^3
# Si number density = 18.272028 Si / 1000 Ang^3
#
#
#
# Elastic Constant Matrix: (Units=GPa)
#
#
# Indices 1 2 3 4 5 6 
#
# 1 133.3737 10.7658 55.6406 0.0060 7.0424 -0.0038
# 2 10.7658 2.1476 9.5406 0.0127 1.8946 -0.0065
# 3 55.6406 9.5406 71.2988 0.0097 17.8119 -0.0079
# 4 0.0060 0.0127 0.0097 13.5934 -0.0042 6.3959
# 5 7.0424 1.8946 17.8119 -0.0042 28.2011 0.0032
# 6 -0.0038 -0.0065 -0.0079 6.3959 0.0032 23.2305
#
#
#
# Elastic Compliance Matrix: (Units=1/GPa)
#
#
# Indices 1 2 3 4 5 6 
#
# 1 0.013118 -0.048447 -0.004452 0.000057 0.002791 -0.000029
# 2 -0.048447 1.340514 -0.144966 -0.001460 0.013601 0.000719
# 3 -0.004452 -0.144966 0.040591 0.000133 -0.014787 -0.000062
# 4 0.000057 -0.001460 0.000133 0.084515 0.000015 -0.023269
# 5 0.002791 0.013601 -0.014787 0.000015 0.043189 -0.000011
# 6 -0.000029 0.000719 -0.000062 -0.023269 -0.000011 0.049454
#
#
# Mechanical properties :
#
#
# Convention : Reuss Voigt Hill
#
# Bulk Modulus (GPa) = 1.00151 39.85713 20.42932
# Shear Modulus (GPa) = 2.17397 21.72987 11.95192
#
# Velocity S-wave (km/s) = 1.09195 3.45228 2.56033
# Velocity P-wave (km/s) = 1.46257 6.14423 4.46602
#
# Compressibility (1/GPa) = 0.99849526
#
# Stress axis : x y z
#
# Youngs Moduli (GPa) = 76.23057 0.74598 24.63572
#
# Poissons Ratio (x) = 0.03614 0.10967
# Poissons Ratio (y) = 3.69314 3.57133
# Poissons Ratio (z) = 0.33935 0.10814
#
# Static dielectric constant tensor:
#      x y z
#    x 1.607740 0.000000 -0.010040 
#    y 0.000000 1.627830 0.000000 
#    z -0.010040 0.000000 1.651610 
# 
# From -- ./inp_files/324142.got.cif
#   From: 2010.05.17/outbox.cif.g08.bks.cpg/sg12_163_cif.got.tgz:324142.got - 2010.06.03 13:09:07.
