data_PCOD9192316
_publ_section_title
;
Structure prediction by ZEFSAII (Michael W. Deem and Ramdas Pophale) SiO2 
 PCOD9192316
Probable space group: C 2/M
;
_chemical_formula_sum "Si O2"
_cell_formula_units_Z 64
_cell_length_a 14.440000
_cell_length_b 9.364352
_cell_length_c 31.844743
_cell_angle_alpha 90.000000
_cell_angle_beta 42.165480
_cell_angle_gamma 90.000000
_cell_volume 2890.564001
_symmetry_space_group_name_H-M "C 2/M"
_symmetry_group_IT_number 12
_symmetry_cell_setting 'monoclinic'
loop_
_space_group_symop_operation_xyz
x,y,z
-x,y,-z
-x,-y,-z
x,-y,z
1/2+x,1/2+y,z
1/2-x,1/2+y,-z
1/2-x,1/2-y,-z
1/2+x,1/2-y,z
loop_
_atom_site_type_symbol
_atom_site_label
_atom_site_fract_x
_atom_site_fract_y
_atom_site_fract_z
Si Si1 0.196752 0.833510 0.078433
Si Si2 0.714676 0.833722 0.245809
Si Si3 0.409352 0.340336 0.578114
Si Si4 0.226371 0.331631 0.859050
Si Si5 0.306831 0.762175 0.528109
Si Si6 0.047128 0.833046 0.045538
Si Si7 0.463475 0.655196 0.333137
Si Si8 0.688977 0.664977 0.699698
O O1 0.170989 0.807547 0.136179
O O2 0.072875 0.820352 0.087102
O O3 0.244412 0.000000 0.058900
O O4 0.315447 0.727528 0.022233
O O5 0.739549 0.744913 0.195664
O O6 0.565497 0.779804 0.312784
O O7 0.824971 0.812255 0.246033
O O8 0.710842 0.000000 0.236617
O O9 0.460040 0.500000 0.572444
O O10 0.529230 0.219112 0.536612
O O11 0.337955 0.348213 0.556093
O O12 0.295960 0.282624 0.647692
O O13 0.214532 0.500000 0.856224
O O14 0.081791 0.264008 0.922613
O O15 0.250000 0.750000 0.500000
O O16 0.183151 0.845356 0.593245
O O17 0.025305 0.000000 0.043166
O O18 0.529371 0.500000 0.317741
O O19 0.432159 0.671894 0.293923
O O20 0.741208 0.500000 0.678159
#
# Coordination Sequence:
#
# PCOD9192316 Si02
#       8
#     8   8   8   8   8   8   8   8
#     4   9  20  38  59  86 122 159 190 227 281 340
#     4  11  24  41  60  83 111 146 192 242 287 333
#     4  10  21  37  58  85 114 145 187 233 277 337
#     4  11  23  39  59  84 117 155 193 234 283 339
#     4  10  20  33  54  85 116 143 175 224 283 335
#     4  10  20  36  60  89 120 155 194 235 279 328
#     4  10  22  40  60  82 109 147 190 229 279 342
#     4   9  21  41  60  79 111 150 184 229 290 347
#
# _framework density 22.141009
#
# number of rings (size 3 to 8) (size 9 to 14) (size 15 to 20)
#    0.000    2.000    0.000    3.000    0.000   10.000 
#    0.000    7.500    0.000    0.000    0.000    0.000 
#    0.000    0.000    0.000    0.000    0.000    0.000 
#
# Total GULP energy -178179.939815 kJ/mol
# GULP energy per Si atom -5568.123119 kJ/mol
# Density = 2.209062 g / cm^3
# Si number density = 22.141009 Si / 1000 Ang^3
#
#
#
# Elastic Constant Matrix: (Units=GPa)
#
#
# Indices 1 2 3 4 5 6 
#
# 1 124.8758 45.1583 31.4076 0.0001 37.2600 0.0001
# 2 45.1583 71.3216 27.4394 0.0001 13.9916 0.0002
# 3 31.4076 27.4394 58.9059 0.0000 23.3485 0.0000
# 4 0.0001 0.0001 0.0000 10.1185 0.0000 -1.3182
# 5 37.2600 13.9916 23.3485 0.0000 44.8480 0.0000
# 6 0.0001 0.0002 0.0000 -1.3182 0.0000 20.4508
#
#
#
# Elastic Compliance Matrix: (Units=1/GPa)
#
#
# Indices 1 2 3 4 5 6 
#
# 1 0.012981 -0.006317 -0.000611 0.000000 -0.008496 0.000000
# 2 -0.006317 0.020237 -0.007102 0.000000 0.002632 0.000000
# 3 -0.000611 -0.007102 0.024609 0.000000 -0.010089 0.000000
# 4 0.000000 0.000000 0.000000 0.099666 0.000000 0.006424
# 5 -0.008496 0.002632 -0.010089 0.000000 0.033787 0.000000
# 6 0.000000 0.000000 0.000000 0.006424 0.000000 0.049312
#
#
# Mechanical properties :
#
#
# Convention : Reuss Voigt Hill
#
# Bulk Modulus (GPa) = 33.59487 51.45708 42.52598
# Shear Modulus (GPa) = 17.94855 25.15666 21.55260
#
# Velocity S-wave (km/s) = 2.85028 3.37442 3.12336
# Velocity P-wave (km/s) = 5.10276 6.20269 5.67941
#
# Compressibility (1/GPa) = 0.02976645
#
# Stress axis : x y z
#
# Youngs Moduli (GPa) = 77.03476 49.41497 40.63567
#
# Poissons Ratio (x) = 0.31218 0.02483
# Poissons Ratio (y) = 0.48666 0.28858
# Poissons Ratio (z) = 0.04707 0.35093
#
# Static dielectric constant tensor:
#      x y z
#    x 1.850730 0.000000 0.005310 
#    y 0.000000 1.786380 0.000000 
#    z 0.005310 0.000000 1.867280 
# 
# From -- ./inp_files/375482.got.cif
#   From: 2010.05.17/outbox.cif.g08.bks.cpg/sg12_188_cif.got.tgz:375482.got - 2010.06.03 13:09:07.
