data_PCOD9192737
_publ_section_title
;
Structure prediction by ZEFSAII (Michael W. Deem and Ramdas Pophale) SiO2 
 PCOD9192737
Probable space group: C 2/M
;
_chemical_formula_sum "Si O2"
_cell_formula_units_Z 64
_cell_length_a 28.325247
_cell_length_b 9.090784
_cell_length_c 19.998580
_cell_angle_alpha 90.000000
_cell_angle_beta 131.071853
_cell_angle_gamma 90.000000
_cell_volume 3882.218922
_symmetry_space_group_name_H-M "C 2/M"
_symmetry_group_IT_number 12
_symmetry_cell_setting 'monoclinic'
loop_
_space_group_symop_operation_xyz
x,y,z
-x,y,-z
-x,-y,-z
x,-y,z
1/2+x,1/2+y,z
1/2-x,1/2+y,-z
1/2-x,1/2-y,-z
1/2+x,1/2-y,z
loop_
_atom_site_type_symbol
_atom_site_label
_atom_site_fract_x
_atom_site_fract_y
_atom_site_fract_z
Si Si1 0.707591 0.322283 0.402209
Si Si2 0.326006 0.674734 0.253469
Si Si3 0.719066 0.324489 0.645979
Si Si4 0.953909 0.332364 0.372307
Si Si5 0.693566 0.178294 0.906954
Si Si6 0.431523 0.331591 0.693966
Si Si7 0.922293 0.831278 0.524103
Si Si8 0.555649 0.832504 0.799142
O O1 0.710006 0.500000 0.411120
O O2 0.750000 0.250000 0.500000
O O3 0.734680 0.268011 0.356835
O O4 0.635268 0.273357 0.342921
O O5 0.328469 0.500000 0.242665
O O6 0.280612 0.700834 0.274229
O O7 0.395775 0.729977 0.338187
O O8 0.306497 0.761934 0.169045
O O9 0.727453 0.500000 0.641438
O O10 0.648140 0.286531 0.558006
O O11 0.944973 0.500000 0.386569
O O12 0.950874 0.333147 0.287951
O O13 0.022466 0.270085 0.452057
O O14 0.626138 0.224289 0.875620
O O15 0.696085 0.000000 0.909284
O O16 0.750000 0.250000 0.000000
O O17 0.436356 0.500000 0.720445
O O18 0.427361 0.330052 0.609328
O O19 0.495822 0.251249 0.771879
O O20 0.931518 0.000000 0.509937
O O21 0.553070 0.000000 0.819976
#
# Coordination Sequence:
#
# PCOD9192737 Si02
#       8
#     8   8   8   8   8   8   8   8
#     4  11  21  33  49  70  96 131 176 222 262 297
#     4  10  20  34  51  70  98 133 165 202 250 298
#     4  10  21  35  48  67  95 130 174 215 253 300
#     4   9  17  29  44  65  94 126 167 207 244 292
#     4  10  20  35  56  82 108 130 160 196 240 301
#     4   9  17  29  46  67  94 128 168 211 250 292
#     4   9  16  29  45  62  90 127 170 211 249 292
#     4   8  16  29  46  71  99 126 158 198 240 289
#
# _framework density 16.485417000000002
#
# number of rings (size 3 to 8) (size 9 to 14) (size 15 to 20)
#    0.000    2.500    1.250    2.250    0.000    6.500 
#    0.000    2.500    0.000    0.000    0.000    0.875 
#    0.000    7.000    0.000    0.000    0.000    0.000 
#
# Total GULP energy -178413.551184 kJ/mol
# GULP energy per Si atom -5575.423475 kJ/mol
# Density = 1.644790 g / cm^3
# Si number density = 16.485417 Si / 1000 Ang^3
#
#
#
# Elastic Constant Matrix: (Units=GPa)
#
#
# Indices 1 2 3 4 5 6 
#
# 1 113.3697 54.4445 43.5551 0.0000 22.2322 0.0000
# 2 54.4445 62.9043 33.6884 0.0000 12.3204 0.0000
# 3 43.5551 33.6884 77.9300 0.0000 24.8086 0.0000
# 4 0.0000 0.0000 0.0000 21.8747 0.0000 4.3528
# 5 22.2322 12.3204 24.8086 0.0000 24.0574 0.0000
# 6 0.0000 0.0000 0.0000 4.3528 0.0000 29.0550
#
#
#
# Elastic Compliance Matrix: (Units=1/GPa)
#
#
# Indices 1 2 3 4 5 6 
#
# 1 0.016785 -0.012119 -0.001757 0.000000 -0.007494 0.000000
# 2 -0.012119 0.029505 -0.007051 0.000000 0.003361 0.000000
# 3 -0.001757 -0.007051 0.022622 0.000000 -0.018094 0.000000
# 4 0.000000 0.000000 0.000000 0.047120 0.000000 -0.007059
# 5 -0.007494 0.003361 -0.018094 0.000000 0.065430 0.000000
# 6 0.000000 0.000000 0.000000 -0.007059 0.000000 0.035475
#
#
# Mechanical properties :
#
#
# Convention : Reuss Voigt Hill
#
# Bulk Modulus (GPa) = 36.95790 57.50889 47.23339
# Shear Modulus (GPa) = 18.66995 23.16514 20.91755
#
# Velocity S-wave (km/s) = 3.36893 3.75265 3.56596
# Velocity P-wave (km/s) = 6.13190 7.33055 6.75785
#
# Compressibility (1/GPa) = 0.02705782
#
# Stress axis : x y z
#
# Youngs Moduli (GPa) = 59.57577 33.89307 44.20480
#
# Poissons Ratio (x) = 0.41077 0.07765
# Poissons Ratio (y) = 0.72203 0.31169
# Poissons Ratio (z) = 0.10465 0.23898
#
# Static dielectric constant tensor:
#      x y z
#    x 1.564340 0.000000 -0.003790 
#    y 0.000000 1.563860 0.000000 
#    z -0.003790 0.000000 1.559670 
# 
# From -- ./inp_files/326944.got.cif
#   From: 2010.05.17/outbox.cif.g08.bks.cpg/sg12_164_cif.got.tgz:326944.got - 2010.06.03 13:09:07.
