data_PCOD9192140
_publ_section_title
;
Structure prediction by ZEFSAII (Michael W. Deem and Ramdas Pophale) SiO2 
 PCOD9192140
Probable space group: C 2/M
;
_chemical_formula_sum "Si O2"
_cell_formula_units_Z 56
_cell_length_a 19.390792
_cell_length_b 7.729150
_cell_length_c 17.856071
_cell_angle_alpha 90.000000
_cell_angle_beta 125.296628
_cell_angle_gamma 90.000000
_cell_volume 2184.211377
_symmetry_space_group_name_H-M "C 2/M"
_symmetry_group_IT_number 12
_symmetry_cell_setting 'monoclinic'
loop_
_space_group_symop_operation_xyz
x,y,z
-x,y,-z
-x,-y,-z
x,-y,z
1/2+x,1/2+y,z
1/2-x,1/2+y,-z
1/2-x,1/2-y,-z
1/2+x,1/2-y,z
loop_
_atom_site_type_symbol
_atom_site_label
_atom_site_fract_x
_atom_site_fract_y
_atom_site_fract_z
Si Si1 0.071194 0.289247 0.312615
Si Si2 0.678171 0.299508 0.512995
Si Si3 0.204402 0.795449 0.091365
Si Si4 0.587783 0.710279 0.595825
Si Si5 0.971423 0.800997 0.068572
Si Si6 0.612354 0.203563 0.783927
Si Si7 0.149878 0.693710 0.221619
O O1 0.074273 0.500000 0.313994
O O2 0.094541 0.230084 0.410482
O O3 0.144278 0.225674 0.300980
O O4 0.975322 0.227522 0.237735
O O5 0.690513 0.500000 0.534171
O O6 0.750000 0.250000 0.500000
O O7 0.660665 0.225272 0.584277
O O8 0.297330 0.720887 0.134759
O O9 0.186473 0.777299 0.169716
O O10 0.204644 0.000000 0.076154
O O11 0.123513 0.726233 0.994856
O O12 0.500000 0.759418 0.500000
O O13 0.588117 0.500000 0.601170
O O14 0.603240 0.778549 0.688527
O O15 0.047650 0.688261 0.147689
O O16 0.973196 0.000000 0.097284
O O17 0.000000 0.814627 0.000000
O O18 0.614483 0.000000 0.803008
O O19 0.185011 0.500000 0.246450
#
# Coordination Sequence:
#
# PCOD9192140 Si02
#       7
#     8   8   8   8   8   8   8
#     4  10  22  39  55  78 112 146 179 220 271 319
#     4  11  24  40  59  81 110 143 178 224 270 321
#     4   9  19  35  55  81 107 137 180 224 264 314
#     4  10  21  39  58  79 108 141 177 221 272 315
#     4   8  15  31  53  76 106 140 176 218 263 316
#     4  10  21  37  58  80 106 143 185 222 260 319
#     4  10  20  33  53  80 110 141 175 221 271 317
#
# _framework density 25.638544
#
# number of rings (size 3 to 8) (size 9 to 14) (size 15 to 20)
#    0.000    2.286    1.429    1.714    2.000    5.714 
#    0.000    0.714    0.000    0.000    0.000    0.000 
#    0.000    0.000    0.000    0.000    0.000    0.000 
#
# Total GULP energy -156339.901812 kJ/mol
# GULP energy per Si atom -5583.567922 kJ/mol
# Density = 2.558019 g / cm^3
# Si number density = 25.638544 Si / 1000 Ang^3
#
#
#
# Elastic Constant Matrix: (Units=GPa)
#
#
# Indices 1 2 3 4 5 6 
#
# 1 123.4024 2.6762 -0.1660 0.0000 16.9096 0.0000
# 2 2.6762 49.7644 5.1883 0.0000 -0.8512 0.0000
# 3 -0.1660 5.1883 50.3786 0.0000 23.2173 0.0000
# 4 0.0000 0.0000 0.0000 22.6703 0.0000 0.2064
# 5 16.9096 -0.8512 23.2173 0.0000 54.5927 0.0000
# 6 0.0000 0.0000 0.0000 0.2064 0.0000 13.6247
#
#
#
# Elastic Compliance Matrix: (Units=1/GPa)
#
#
# Indices 1 2 3 4 5 6 
#
# 1 0.008583 -0.000692 0.001654 0.000000 -0.003373 0.000000
# 2 -0.000692 0.020468 -0.002930 0.000000 0.001780 0.000000
# 3 0.001654 -0.002930 0.025390 0.000000 -0.011356 0.000000
# 4 0.000000 0.000000 0.000000 0.044117 0.000000 -0.000668
# 5 -0.003373 0.001780 -0.011356 0.000000 0.024219 0.000000
# 6 0.000000 0.000000 0.000000 -0.000668 0.000000 0.073406
#
#
# Mechanical properties :
#
#
# Convention : Reuss Voigt Hill
#
# Bulk Modulus (GPa) = 19.80008 26.54914 23.17461
# Shear Modulus (GPa) = 23.04629 32.56733 27.80681
#
# Velocity S-wave (km/s) = 3.00141 3.56792 3.29685
# Velocity P-wave (km/s) = 4.44419 5.22982 4.85293
#
# Compressibility (1/GPa) = 0.05050485
#
# Stress axis : x y z
#
# Youngs Moduli (GPa) = 116.51026 48.85714 39.38490
#
# Poissons Ratio (x) = 0.03379 -0.06513
# Poissons Ratio (y) = 0.08059 0.11541
# Poissons Ratio (z) = -0.19268 0.14317
#
# Static dielectric constant tensor:
#      x y z
#    x 1.840930 0.000000 0.303770 
#    y 0.000000 1.912510 0.000000 
#    z 0.303770 0.000000 1.853450 
# 
# From -- ./inp_files/320245.got.cif
#   From: 2010.05.17/outbox.cif.g08.bks.cpg/sg12_161_cif.got.tgz:320245.got - 2010.06.03 13:09:07.
