data_PCOD9192784
_publ_section_title
;
Structure prediction by ZEFSAII (Michael W. Deem and Ramdas Pophale) SiO2 
 PCOD9192784
Probable space group: C 2/M
;
_chemical_formula_sum "Si O2"
_cell_formula_units_Z 64
_cell_length_a 14.592418
_cell_length_b 8.490668
_cell_length_c 32.954364
_cell_angle_alpha 90.000000
_cell_angle_beta 62.078103
_cell_angle_gamma 90.000000
_cell_volume 3607.706863
_symmetry_space_group_name_H-M "C 2/M"
_symmetry_group_IT_number 12
_symmetry_cell_setting 'monoclinic'
loop_
_space_group_symop_operation_xyz
x,y,z
-x,y,-z
-x,-y,-z
x,-y,z
1/2+x,1/2+y,z
1/2-x,1/2+y,-z
1/2-x,1/2-y,-z
1/2+x,1/2-y,z
loop_
_atom_site_type_symbol
_atom_site_label
_atom_site_fract_x
_atom_site_fract_y
_atom_site_fract_z
Si Si1 0.339847 0.809585 0.254628
Si Si2 0.100541 0.190324 0.504061
Si Si3 0.172890 0.688419 0.573086
Si Si4 0.637422 0.690300 0.247805
Si Si5 0.434003 0.190195 0.821850
Si Si6 0.673466 0.190234 0.073275
Si Si7 0.607288 0.190403 0.997647
Si Si8 0.410743 0.688449 0.324475
O O1 0.238477 0.755945 0.251341
O O2 0.447070 0.758917 0.210673
O O3 0.345753 0.749542 0.299434
O O4 0.338857 0.000000 0.255735
O O5 0.105806 0.250975 0.548965
O O6 0.208351 0.240345 0.460410
O O7 0.000000 0.243890 0.500000
O O8 0.099266 0.000000 0.505386
O O9 0.171375 0.500000 0.573568
O O10 0.131861 0.749935 0.624266
O O11 0.638705 0.500000 0.246458
O O12 0.631420 0.751500 0.203129
O O13 0.529913 0.739933 0.291649
O O14 0.386787 0.245228 0.874235
O O15 0.433351 0.000000 0.822043
O O16 0.791480 0.249037 0.046791
O O17 0.674078 0.000000 0.073520
O O18 0.620200 0.240609 0.041958
O O19 0.608670 0.000000 0.996507
O O20 0.500000 0.244342 0.000000
O O21 0.408764 0.500000 0.325015
#
# Coordination Sequence:
#
# PCOD9192784 Si02
#       8
#     8   8   8   8   8   8   8   8
#     4   9  18  34  53  72  96 127 163 201 241 285
#     4   9  19  36  55  74  99 131 165 203 246 291
#     4  10  20  34  53  76 101 130 165 203 244 291
#     4   9  19  34  52  73  97 128 165 202 239 285
#     4   9  18  32  50  71  97 127 158 198 244 289
#     4   9  18  32  48  70  99 127 157 196 245 292
#     4   9  18  32  50  71  95 126 164 202 238 283
#     4  10  20  34  51  73 102 132 163 201 243 287
#
# _framework density 17.739801
#
# number of rings (size 3 to 8) (size 9 to 14) (size 15 to 20)
#    0.000    2.750    0.000    0.750    0.000    4.500 
#    0.000    7.500    0.000    0.000    0.000    0.000 
#    0.000    0.000    0.000    0.000    0.000    0.000 
#
# Total GULP energy -178459.683246 kJ/mol
# GULP energy per Si atom -5576.865101 kJ/mol
# Density = 1.769942 g / cm^3
# Si number density = 17.739801 Si / 1000 Ang^3
#
#
#
# Elastic Constant Matrix: (Units=GPa)
#
#
# Indices 1 2 3 4 5 6 
#
# 1 160.7190 19.4793 69.0056 0.0000 13.4611 0.0000
# 2 19.4793 4.6861 17.6585 0.0000 1.8531 0.0000
# 3 69.0056 17.6585 155.5545 0.0000 12.9323 0.0000
# 4 0.0000 0.0000 0.0000 28.9813 0.0000 2.8277
# 5 13.4611 1.8531 12.9323 0.0000 9.1007 0.0000
# 6 0.0000 0.0000 0.0000 2.8277 0.0000 -4.5456
#
#
#
# Elastic Compliance Matrix: (Units=1/GPa)
#
#
# Indices 1 2 3 4 5 6 
#
# 1 0.013345 -0.056502 0.001337 0.000000 -0.010133 0.000000
# 2 -0.056502 0.614737 -0.046789 0.000000 0.024885 0.000000
# 3 0.001337 -0.046789 0.011929 0.000000 -0.009400 0.000000
# 4 0.000000 0.000000 0.000000 0.032530 0.000000 0.020237
# 5 -0.010133 0.024885 -0.009400 0.000000 0.133160 0.000000
# 6 0.000000 0.000000 0.000000 0.020237 0.000000 -0.207404
#
#
# Mechanical properties :
#
#
# Convention : Reuss Voigt Hill
#
# Bulk Modulus (GPa) = 2.29304 59.24960 30.77132
# Shear Modulus (GPa) = 5.27664 21.02838 13.15251
#
# Velocity S-wave (km/s) = 1.72653 3.44667 2.72584
# Velocity P-wave (km/s) = 2.29564 7.02219 5.22403
#
# Compressibility (1/GPa) = 0.43610177
#
# Stress axis : x y z
#
# Youngs Moduli (GPa) = 74.93445 1.62671 83.83169
#
# Poissons Ratio (x) = 0.09191 -0.11204
# Poissons Ratio (y) = 4.23396 3.92237
# Poissons Ratio (z) = -0.10015 0.07611
#
# Static dielectric constant tensor:
#      x y z
#    x 1.595920 0.000000 -0.010290 
#    y 0.000000 1.606860 0.000000 
#    z -0.010290 0.000000 1.584130 
# 
# From -- ./inp_files/338800.got.cif
#   From: 2010.05.17/outbox.cif.g08.bks.cpg/sg12_170_cif.got.tgz:338800.got - 2010.06.03 13:09:07.
