data_PCOD9192164
_publ_section_title
;
Structure prediction by ZEFSAII (Michael W. Deem and Ramdas Pophale) SiO2 
 PCOD9192164
Probable space group: C 2/M
;
_chemical_formula_sum "Si O2"
_cell_formula_units_Z 40
_cell_length_a 15.268508
_cell_length_b 8.755065
_cell_length_c 30.948110
_cell_angle_alpha 90.000000
_cell_angle_beta 29.966010
_cell_angle_gamma 90.000000
_cell_volume 2066.396040
_symmetry_space_group_name_H-M "C 2/M"
_symmetry_group_IT_number 12
_symmetry_cell_setting 'monoclinic'
loop_
_space_group_symop_operation_xyz
x,y,z
-x,y,-z
-x,-y,-z
x,-y,z
1/2+x,1/2+y,z
1/2-x,1/2+y,-z
1/2-x,1/2-y,-z
1/2+x,1/2-y,z
loop_
_atom_site_type_symbol
_atom_site_label
_atom_site_fract_x
_atom_site_fract_y
_atom_site_fract_z
Si Si1 0.204893 0.817204 0.728693
Si Si2 0.524338 0.185844 0.720906
Si Si3 0.410271 0.815765 0.404493
Si Si4 0.390067 0.827956 0.909036
Si Si5 0.182138 0.173495 0.907776
O O1 0.139914 0.748936 0.710854
O O2 0.401894 0.768994 0.656074
O O3 0.068572 0.762499 0.823741
O O4 0.198126 0.000000 0.729295
O O5 0.593249 0.229814 0.644426
O O6 0.321821 0.239337 0.814269
O O7 0.520896 0.000000 0.725353
O O8 0.250000 0.750000 0.500000
O O9 0.403242 0.000000 0.408811
O O10 0.295502 0.836038 0.902915
O O11 0.427649 0.000000 0.907684
O O12 0.250000 0.750000 0.000000
O O13 0.136983 0.000000 0.912009
O O14 0.000000 0.249867 0.000000
#
# Coordination Sequence:
#
# PCOD9192164 Si02
#       5
#     8   8   8   8   8
#     4  10  21  38  59  84 116 151 189 238 292 344
#     4   9  19  37  58  82 113 150 192 234 285 343
#     4  10  23  40  61  86 113 151 195 240 291 349
#     4  10  20  33  53  81 114 152 190 231 281 338
#     4   8  15  28  51  77 102 140 185 223 266 327
#
# _framework density 19.357374
#
# number of rings (size 3 to 8) (size 9 to 14) (size 15 to 20)
#    0.000    2.600    0.000    2.400    2.800    3.200 
#    0.000    4.000    0.000    3.000    0.000    0.000 
#    0.000    0.000    0.000    0.000    0.000    0.000 
#
# Total GULP energy -111518.845670 kJ/mol
# GULP energy per Si atom -5575.942284 kJ/mol
# Density = 1.931332 g / cm^3
# Si number density = 19.357374 Si / 1000 Ang^3
#
#
#
# Elastic Constant Matrix: (Units=GPa)
#
#
# Indices 1 2 3 4 5 6 
#
# 1 80.4236 28.0238 78.7000 0.0001 2.2801 -0.0002
# 2 28.0238 37.7240 44.9230 -0.0002 1.2462 -0.0005
# 3 78.7000 44.9230 214.4980 -0.0003 7.9841 -0.0002
# 4 0.0001 -0.0002 -0.0003 33.0321 -0.0001 1.1134
# 5 2.2801 1.2462 7.9841 -0.0001 36.9120 0.0000
# 6 -0.0002 -0.0005 -0.0002 1.1134 0.0000 22.2696
#
#
#
# Elastic Compliance Matrix: (Units=1/GPa)
#
#
# Indices 1 2 3 4 5 6 
#
# 1 0.021350 -0.008698 -0.006022 0.000000 0.000277 0.000000
# 2 -0.008698 0.038866 -0.004960 0.000000 0.000298 0.000001
# 3 -0.006022 -0.004960 0.007954 0.000000 -0.001181 0.000000
# 4 0.000000 0.000000 0.000000 0.030325 0.000000 -0.001516
# 5 0.000277 0.000298 -0.001181 0.000000 0.027320 0.000000
# 6 0.000000 0.000001 0.000000 -0.001516 0.000000 0.044980
#
#
# Mechanical properties :
#
#
# Convention : Reuss Voigt Hill
#
# Bulk Modulus (GPa) = 34.70913 70.65991 52.68452
# Shear Modulus (GPa) = 22.75226 30.50930 26.63078
#
# Velocity S-wave (km/s) = 3.43210 3.97433 3.71313
# Velocity P-wave (km/s) = 5.80305 7.59226 6.75714
#
# Compressibility (1/GPa) = 0.02881086
#
# Stress axis : x y z
#
# Youngs Moduli (GPa) = 46.83788 25.72941 125.71929
#
# Poissons Ratio (x) = 0.22380 0.75709
# Poissons Ratio (y) = 0.40740 0.62351
# Poissons Ratio (z) = 0.28206 0.12761
#
# Static dielectric constant tensor:
#      x y z
#    x 1.667970 0.000000 -0.005630 
#    y 0.000000 1.681800 0.000000 
#    z -0.005630 0.000000 1.680910 
# 
# From -- ./inp_files/211242.got.cif
#   From: 2010.05.17/outbox.cif.g08.bks.cpg/sg12_106_cif.got.tgz:211242.got - 2010.06.03 13:09:07.
