data_PCOD9192638
_publ_section_title
;
Structure prediction by ZEFSAII (Michael W. Deem and Ramdas Pophale) SiO2 
 PCOD9192638
Probable space group: C 2/M
;
_chemical_formula_sum "Si O2"
_cell_formula_units_Z 56
_cell_length_a 14.754566
_cell_length_b 8.778106
_cell_length_c 20.805492
_cell_angle_alpha 90.000000
_cell_angle_beta 69.330682
_cell_angle_gamma 90.000000
_cell_volume 2521.220714
_symmetry_space_group_name_H-M "C 2/M"
_symmetry_group_IT_number 12
_symmetry_cell_setting 'monoclinic'
loop_
_space_group_symop_operation_xyz
x,y,z
-x,y,-z
-x,-y,-z
x,-y,z
1/2+x,1/2+y,z
1/2-x,1/2+y,-z
1/2-x,1/2-y,-z
1/2+x,1/2-y,z
loop_
_atom_site_type_symbol
_atom_site_label
_atom_site_fract_x
_atom_site_fract_y
_atom_site_fract_z
Si Si1 0.759677 0.823361 0.100691
Si Si2 0.902141 0.175402 0.942444
Si Si3 0.901036 0.825541 0.548133
Si Si4 0.840206 0.828809 0.706484
Si Si5 0.296385 0.814007 0.366311
Si Si6 0.913442 0.680790 0.149515
Si Si7 0.990729 0.682598 0.268468
O O1 0.668401 0.729980 0.097254
O O2 0.815636 0.757028 0.147943
O O3 0.732750 0.000000 0.116546
O O4 0.837933 0.815062 0.022860
O O5 0.997463 0.277825 0.919746
O O6 0.931850 0.000000 0.926416
O O7 0.792109 0.757948 0.566364
O O8 0.000000 0.749302 0.500000
O O9 0.904761 0.834195 0.624629
O O10 0.899683 0.000000 0.522792
O O11 0.902304 0.733487 0.740014
O O12 0.741544 0.776504 0.696687
O O13 0.827099 0.000000 0.733975
O O14 0.407368 0.765603 0.340367
O O15 0.292942 0.000000 0.371415
O O16 0.899104 0.500000 0.155829
O O17 0.955332 0.735244 0.207571
O O18 0.988833 0.500000 0.268666
#
# Coordination Sequence:
#
# PCOD9192638 Si02
#       7
#     8   8   8   8   8   8   8
#     4  10  21  38  59  82 107 134 170 216 268 319
#     4  10  21  38  59  81 106 137 171 214 267 319
#     4   7  11  24  49  75  95 123 167 210 247 297
#     4   8  16  30  50  72  95 128 168 209 250 296
#     4   7  14  29  48  67  94 131 165 199 245 299
#     4  11  23  35  51  77 108 142 181 220 259 309
#     4  10  20  34  49  70 101 136 171 206 251 302
#
# _framework density 22.211462000000001
#
# number of rings (size 3 to 8) (size 9 to 14) (size 15 to 20)
#    0.857    2.143    0.000    1.714    0.000    5.714 
#    0.000    2.857    0.000    0.429    0.000    0.000 
#    0.000    0.000    0.000    0.000    0.000    0.000 
#
# Total GULP energy -155940.567546 kJ/mol
# GULP energy per Si atom -5569.305984 kJ/mol
# Density = 2.216091 g / cm^3
# Si number density = 22.211462 Si / 1000 Ang^3
#
#
#
# Elastic Constant Matrix: (Units=GPa)
#
#
# Indices 1 2 3 4 5 6 
#
# 1 95.7256 5.9453 -0.7461 0.0000 -5.8504 0.0000
# 2 5.9453 17.7720 0.5361 0.0000 0.7522 0.0000
# 3 -0.7461 0.5361 36.7627 0.0000 -16.9347 0.0000
# 4 0.0000 0.0000 0.0000 8.7862 0.0000 2.2441
# 5 -5.8504 0.7522 -16.9347 0.0000 33.9012 0.0000
# 6 0.0000 0.0000 0.0000 2.2441 0.0000 19.4117
#
#
#
# Elastic Compliance Matrix: (Units=1/GPa)
#
#
# Indices 1 2 3 4 5 6 
#
# 1 0.010861 -0.003795 0.001530 0.000000 0.002723 0.000000
# 2 -0.003795 0.057740 -0.002352 0.000000 -0.003111 0.000000
# 3 0.001530 -0.002352 0.035606 0.000000 0.018102 0.000000
# 4 0.000000 0.000000 0.000000 0.117277 0.000000 -0.013558
# 5 0.002723 -0.003111 0.018102 0.000000 0.039079 0.000000
# 6 0.000000 0.000000 0.000000 -0.013558 0.000000 0.053083
#
#
# Mechanical properties :
#
#
# Convention : Reuss Voigt Hill
#
# Bulk Modulus (GPa) = 10.52927 17.97009 14.24968
# Shear Modulus (GPa) = 14.10291 22.05483 18.07887
#
# Velocity S-wave (km/s) = 2.52253 3.15453 2.85606
# Velocity P-wave (km/s) = 3.63799 4.62343 4.15999
#
# Compressibility (1/GPa) = 0.09497334
#
# Stress axis : x y z
#
# Youngs Moduli (GPa) = 92.07654 17.31888 28.08540
#
# Poissons Ratio (x) = 0.06572 -0.04297
# Poissons Ratio (y) = 0.34939 0.06606
# Poissons Ratio (z) = -0.14087 0.04073
#
# Static dielectric constant tensor:
#      x y z
#    x 1.831780 0.000000 -0.035810 
#    y 0.000000 1.754830 0.000000 
#    z -0.035810 0.000000 1.934460 
# 
# From -- ./inp_files/359426.got.cif
#   From: 2010.05.17/outbox.cif.g08.bks.cpg/sg12_180_cif.got.tgz:359426.got - 2010.06.03 13:09:07.
