data_PCOD9192594
_publ_section_title
;
Structure prediction by ZEFSAII (Michael W. Deem and Ramdas Pophale) SiO2 
 PCOD9192594
Probable space group: C 2/M
;
_chemical_formula_sum "Si O2"
_cell_formula_units_Z 44
_cell_length_a 10.980061
_cell_length_b 23.085187
_cell_length_c 11.474845
_cell_angle_alpha 90.000000
_cell_angle_beta 140.614887
_cell_angle_gamma 90.000000
_cell_volume 1845.597283
_symmetry_space_group_name_H-M "C 2/M"
_symmetry_group_IT_number 12
_symmetry_cell_setting 'monoclinic'
loop_
_space_group_symop_operation_xyz
x,y,z
-x,y,-z
-x,-y,-z
x,-y,z
1/2+x,1/2+y,z
1/2-x,1/2+y,-z
1/2-x,1/2-y,-z
1/2+x,1/2-y,z
loop_
_atom_site_type_symbol
_atom_site_label
_atom_site_fract_x
_atom_site_fract_y
_atom_site_fract_z
Si Si1 0.859511 0.314251 0.558595
Si Si2 0.500000 0.099151 0.500000
Si Si3 0.766829 0.000000 0.742203
Si Si4 0.531220 0.124918 0.884691
Si Si5 0.049148 0.871406 0.733477
Si Si6 0.547796 0.000000 0.829177
Si Si7 0.937257 0.000000 0.226181
Si Si8 0.000000 0.787438 0.500000
O O1 0.651136 0.341640 0.376602
O O2 0.888789 0.255178 0.508081
O O3 0.016475 0.358073 0.619179
O O4 0.925675 0.322377 0.740733
O O5 0.678288 0.057071 0.619661
O O6 0.980509 0.000000 0.847793
O O7 0.660699 0.000000 0.789143
O O8 0.453362 0.062982 0.776345
O O9 0.500000 0.124441 0.000000
O O10 0.765179 0.128387 0.044313
O O11 0.105185 0.831987 0.664345
O O12 0.008273 0.938990 0.676591
O O13 0.708519 0.000000 0.048811
#
# Coordination Sequence:
#
# PCOD9192594 Si02
#       8
#     8   4   4   8   8   4   4   4
#     4  11  23  45  69  97 136 179 230 282 334 404
#     4  10  20  33  62  99 130 172 218 268 338 392
#     4  11  17  35  59  97 134 174 216 273 335 396
#     4  11  24  42  68  99 138 183 230 278 345 409
#     4  11  24  45  66 101 138 176 231 282 340 408
#     4  10  21  37  60 101 147 176 220 281 335 420
#     4  10  22  37  67 101 137 179 225 275 348 406
#     4  11  26  46  70 100 136 185 234 282 338 401
#
# _framework density 23.840520000000001
#
# number of rings (size 3 to 8) (size 9 to 14) (size 15 to 20)
#    0.000    1.273    3.636    2.182    0.000    1.818 
#    0.000    7.273    0.000    0.000    0.000    0.000 
#    0.000    0.000    0.000    0.000    0.000    0.000 
#
# Total GULP energy -122550.395202 kJ/mol
# GULP energy per Si atom -5570.472509 kJ/mol
# Density = 2.378626 g / cm^3
# Si number density = 23.840520 Si / 1000 Ang^3
#
#
#
# Elastic Constant Matrix: (Units=GPa)
#
#
# Indices 1 2 3 4 5 6 
#
# 1 94.9075 50.0578 31.6501 0.0000 -12.9938 0.0000
# 2 50.0578 200.8791 54.3245 0.0000 -12.8764 0.0000
# 3 31.6501 54.3245 80.6915 0.0000 2.4751 0.0000
# 4 0.0000 0.0000 0.0000 39.8684 0.0000 -8.9755
# 5 -12.9938 -12.8764 2.4751 0.0000 39.3707 0.0000
# 6 0.0000 0.0000 0.0000 -8.9755 0.0000 33.0913
#
#
#
# Elastic Compliance Matrix: (Units=1/GPa)
#
#
# Indices 1 2 3 4 5 6 
#
# 1 0.013508 -0.002004 -0.004073 0.000000 0.004059 0.000000
# 2 -0.002004 0.006590 -0.003703 0.000000 0.001727 0.000000
# 3 -0.004073 -0.003703 0.016594 0.000000 -0.003599 0.000000
# 4 0.000000 0.000000 0.000000 0.026714 0.000000 0.007246
# 5 0.004059 0.001727 -0.003599 0.000000 0.027530 0.000000
# 6 0.000000 0.000000 0.000000 0.007246 0.000000 0.032185
#
#
# Mechanical properties :
#
#
# Convention : Reuss Voigt Hill
#
# Bulk Modulus (GPa) = 58.37767 72.06031 65.21899
# Shear Modulus (GPa) = 33.69456 38.49579 36.09517
#
# Velocity S-wave (km/s) = 3.76351 4.02272 3.89527
# Velocity P-wave (km/s) = 6.58978 7.20194 6.90265
#
# Compressibility (1/GPa) = 0.01712984
#
# Stress axis : x y z
#
# Youngs Moduli (GPa) = 74.03131 151.75124 60.26227
#
# Poissons Ratio (x) = 0.30416 0.24547
# Poissons Ratio (y) = 0.14838 0.22317
# Poissons Ratio (z) = 0.30156 0.56197
#
# Static dielectric constant tensor:
#      x y z
#    x 2.043690 0.000000 -0.000420 
#    y 0.000000 1.934480 0.000000 
#    z -0.000420 0.000000 1.908420 
# 
# From -- ./inp_files/136143.got.cif
#   From: 2010.05.17/outbox.cif.g08.bks.cpg/sg12_69_cif.got.tgz:136143.got - 2010.06.03 13:09:07.
