data_PCOD9192554
_publ_section_title
;
Structure prediction by ZEFSAII (Michael W. Deem and Ramdas Pophale) SiO2 
 PCOD9192554
Probable space group: C 2/M
;
_chemical_formula_sum "Si O2"
_cell_formula_units_Z 48
_cell_length_a 5.546903
_cell_length_b 23.438359
_cell_length_c 16.143532
_cell_angle_alpha 90.000000
_cell_angle_beta 99.229539
_cell_angle_gamma 90.000000
_cell_volume 2071.653490
_symmetry_space_group_name_H-M "C 2/M"
_symmetry_group_IT_number 12
_symmetry_cell_setting 'monoclinic'
loop_
_space_group_symop_operation_xyz
x,y,z
-x,y,-z
-x,-y,-z
x,-y,z
1/2+x,1/2+y,z
1/2-x,1/2+y,-z
1/2-x,1/2-y,-z
1/2+x,1/2-y,z
loop_
_atom_site_type_symbol
_atom_site_label
_atom_site_fract_x
_atom_site_fract_y
_atom_site_fract_z
Si Si1 0.230178 0.782275 0.765146
Si Si2 0.113944 0.067178 0.117828
Si Si3 0.390939 0.128848 0.912461
Si Si4 0.705206 0.566887 0.314169
Si Si5 0.838836 0.440012 0.572282
Si Si6 0.542530 0.333787 0.587803
O O1 0.463918 0.740081 0.779433
O O2 0.315296 0.832092 0.831273
O O3 0.182396 0.799323 0.666782
O O4 0.377411 0.090304 0.102243
O O5 0.113723 0.076274 0.217300
O O6 0.859027 0.096077 0.075752
O O7 0.102438 0.000000 0.100329
O O8 0.500000 0.160358 0.000000
O O9 0.642475 0.500000 0.332455
O O10 0.627815 0.620900 0.367689
O O11 0.997603 0.565378 0.336977
O O12 0.702850 0.500000 0.568882
O O13 0.710617 0.381296 0.555923
O O14 0.000000 0.444624 0.500000
O O15 0.500000 0.297641 0.500000
#
# Coordination Sequence:
#
# PCOD9192554 Si02
#       6
#     8   8   8   8   8   8
#     4  12  30  52  76 100 138 181 245 320 371 412
#     4  11  24  43  72 114 159 194 224 269 344 440
#     4  12  26  48  79 109 143 187 237 289 358 431
#     4  10  21  37  61  97 142 191 229 272 336 421
#     4  10  20  33  57  96 139 179 228 282 340 413
#     4  12  24  40  69  95 136 183 237 291 358 419
#
# _framework density 23.169898
#
# number of rings (size 3 to 8) (size 9 to 14) (size 15 to 20)
#    0.000    0.833    3.333    3.500    2.333    4.000 
#    0.000    0.000    0.000    0.000    0.000    0.000 
#    0.000    0.000    0.000    0.000    0.000    0.000 
#
# Total GULP energy -133632.282911 kJ/mol
# GULP energy per Si atom -5568.011788 kJ/mol
# Density = 2.311716 g / cm^3
# Si number density = 23.169898 Si / 1000 Ang^3
#
#
#
# Elastic Constant Matrix: (Units=GPa)
#
#
# Indices 1 2 3 4 5 6 
#
# 1 103.5525 22.2362 23.9983 0.0000 13.2059 0.0000
# 2 22.2362 40.1167 23.2029 0.0000 14.4709 0.0000
# 3 23.9983 23.2029 152.3154 0.0000 32.2519 0.0000
# 4 0.0000 0.0000 0.0000 1.5016 0.0000 11.6590
# 5 13.2059 14.4709 32.2519 0.0000 38.1920 0.0000
# 6 0.0000 0.0000 0.0000 11.6590 0.0000 43.3660
#
#
#
# Elastic Compliance Matrix: (Units=1/GPa)
#
#
# Indices 1 2 3 4 5 6 
#
# 1 0.011116 -0.005317 -0.000675 0.000000 -0.001259 0.000000
# 2 -0.005317 0.032244 -0.002285 0.000000 -0.008449 0.000000
# 3 -0.000675 -0.002285 0.008265 0.000000 -0.005880 0.000000
# 4 0.000000 0.000000 0.000000 -0.612402 0.000000 0.164645
# 5 -0.001259 -0.008449 -0.005880 0.000000 0.034786 0.000000
# 6 0.000000 0.000000 0.000000 0.164645 0.000000 -0.021205
#
#
# Mechanical properties :
#
#
# Convention : Reuss Voigt Hill
#
# Bulk Modulus (GPa) = 28.51370 48.31770 38.41570
# Shear Modulus (GPa) = -9.63476 31.71507 11.04016
#
# Velocity S-wave (km/s) = -2.04141 3.70375 2.18523
# Velocity P-wave (km/s) = 2.60319 6.26013 4.79405
#
# Compressibility (1/GPa) = 0.03507086
#
# Stress axis : x y z
#
# Youngs Moduli (GPa) = 89.96379 31.01379 120.99422
#
# Poissons Ratio (x) = 0.16489 0.08165
# Poissons Ratio (y) = 0.47831 0.27649
# Poissons Ratio (z) = 0.06071 0.07087
#
# Static dielectric constant tensor:
#      x y z
#    x 2.276590 0.000000 0.075110 
#    y 0.000000 1.856530 0.000000 
#    z 0.075110 0.000000 2.067320 
# 
# From -- ./inp_files/253247.got.cif
#   From: 2010.05.17/outbox.cif.g08.bks.cpg/sg12_127_cif.got.tgz:253247.got - 2010.06.03 13:09:07.
