data_PCOD9192405
_publ_section_title
;
Structure prediction by ZEFSAII (Michael W. Deem and Ramdas Pophale) SiO2 
 PCOD9192405
Probable space group: C 2/M
;
_chemical_formula_sum "Si O2"
_cell_formula_units_Z 58
_cell_length_a 23.301891
_cell_length_b 7.729670
_cell_length_c 20.101555
_cell_angle_alpha 90.000000
_cell_angle_beta 48.907759
_cell_angle_gamma 90.000000
_cell_volume 2728.681615
_symmetry_space_group_name_H-M "C 2/M"
_symmetry_group_IT_number 12
_symmetry_cell_setting 'monoclinic'
loop_
_space_group_symop_operation_xyz
x,y,z
-x,y,-z
-x,-y,-z
x,-y,z
1/2+x,1/2+y,z
1/2-x,1/2+y,-z
1/2-x,1/2-y,-z
1/2+x,1/2-y,z
loop_
_atom_site_type_symbol
_atom_site_label
_atom_site_fract_x
_atom_site_fract_y
_atom_site_fract_z
Si Si1 0.264846 0.290636 0.199720
Si Si2 0.167879 0.794334 0.591660
Si Si3 0.907274 0.291618 0.622835
Si Si4 0.956971 0.294979 0.859452
Si Si5 0.496936 0.204386 0.321778
Si Si6 0.622621 0.290446 0.772716
Si Si7 0.500000 0.500000 0.500000
Si Si8 0.294359 0.697206 0.032127
O O1 0.275359 0.500000 0.189460
O O2 0.180510 0.264620 0.292028
O O3 0.328116 0.225760 0.203059
O O4 0.273757 0.217933 0.118402
O O5 0.250000 0.750000 0.500000
O O6 0.093799 0.730733 0.607791
O O7 0.157106 0.729505 0.675696
O O8 0.161699 0.000000 0.598095
O O9 0.918596 0.500000 0.601125
O O10 0.957233 0.232051 0.649239
O O11 0.934696 0.156552 0.546983
O O12 0.942930 0.500000 0.865742
O O13 0.972312 0.226381 0.772548
O O14 0.034739 0.263570 0.839872
O O15 0.883637 0.213815 0.949207
O O16 0.511424 0.000000 0.309690
O O17 0.624941 0.500000 0.770644
O O18 0.271821 0.500000 0.057987
O O19 0.250000 0.750000 0.000000
#
# Coordination Sequence:
#
# PCOD9192405 Si02
#       8
#     8   8   8   8   8   8   2   8
#     4   9  20  41  64  84 120 168 207 244 311 375
#     4  10  20  33  55  86 116 146 199 254 307 365
#     4  10  22  43  64  87 124 164 207 262 312 374
#     4  10  20  37  59  89 123 157 200 251 309 370
#     4   9  19  37  60  80 113 159 198 246 313 367
#     4   9  19  38  60  83 114 162 207 246 300 370
#     4  12  26  40  60  98 120 158 218 246 316 384
#     4  11  22  38  61  91 121 158 207 256 308 370
#
# _framework density 21.255685
#
# number of rings (size 3 to 8) (size 9 to 14) (size 15 to 20)
#    0.000    2.207    0.000    2.276    0.966    4.966 
#    6.207    5.517    0.000    0.000    0.000    0.000 
#    0.000    0.000    0.000    0.000    0.000    0.000 
#
# Total GULP energy -161620.958485 kJ/mol
# GULP energy per Si atom -5573.136499 kJ/mol
# Density = 2.120731 g / cm^3
# Si number density = 21.255685 Si / 1000 Ang^3
#
#
#
# Elastic Constant Matrix: (Units=GPa)
#
#
# Indices 1 2 3 4 5 6 
#
# 1 112.9315 4.1494 22.6938 0.0103 3.7988 -0.0128
# 2 4.1494 53.5429 -2.5177 0.0072 10.1505 -0.0096
# 3 22.6938 -2.5177 68.1381 0.0055 -6.4026 -0.0115
# 4 0.0103 0.0072 0.0055 18.4100 -0.0045 -8.2203
# 5 3.7988 10.1505 -6.4026 -0.0045 14.7505 0.0067
# 6 -0.0128 -0.0096 -0.0115 -8.2203 0.0067 16.5843
#
#
#
# Elastic Compliance Matrix: (Units=1/GPa)
#
#
# Indices 1 2 3 4 5 6 
#
# 1 0.009721 -0.000174 -0.003615 -0.000003 -0.003953 0.000005
# 2 -0.000174 0.021507 -0.000557 -0.000005 -0.014997 0.000016
# 3 -0.003615 -0.000557 0.016663 0.000002 0.008547 0.000006
# 4 -0.000003 -0.000005 0.000002 0.069757 0.000010 0.034576
# 5 -0.003953 -0.014997 0.008547 0.000010 0.082842 -0.000034
# 6 0.000005 0.000016 0.000006 0.034576 -0.000034 0.077437
#
#
# Mechanical properties :
#
#
# Convention : Reuss Voigt Hill
#
# Bulk Modulus (GPa) = 25.51108 31.47371 28.49239
# Shear Modulus (GPa) = 16.68423 23.96809 20.32616
#
# Velocity S-wave (km/s) = 2.80470 3.36163 3.09572
# Velocity P-wave (km/s) = 4.74516 5.46871 5.11973
#
# Compressibility (1/GPa) = 0.03919866
#
# Stress axis : x y z
#
# Youngs Moduli (GPa) = 102.87193 46.49663 60.01408
#
# Poissons Ratio (x) = 0.00809 0.21698
# Poissons Ratio (y) = 0.01789 0.03340
# Poissons Ratio (z) = 0.37193 0.02588
#
# Static dielectric constant tensor:
#      x y z
#    x 1.749560 0.000000 0.085620 
#    y 0.000000 1.818600 0.000000 
#    z 0.085620 0.000000 1.800850 
# 
# From -- ./inp_files/324545.got.cif
#   From: 2010.05.17/outbox.cif.g08.bks.cpg/sg12_163_cif.got.tgz:324545.got - 2010.06.03 13:09:07.
