data_PCOD9192331
_publ_section_title
;
Structure prediction by ZEFSAII (Michael W. Deem and Ramdas Pophale) SiO2 
 PCOD9192331
Probable space group: C 2/M
;
_chemical_formula_sum "Si O2"
_cell_formula_units_Z 64
_cell_length_a 35.294250
_cell_length_b 8.926957
_cell_length_c 17.377711
_cell_angle_alpha 90.000000
_cell_angle_beta 39.576627
_cell_angle_gamma 90.000000
_cell_volume 3488.302437
_symmetry_space_group_name_H-M "C 2/M"
_symmetry_group_IT_number 12
_symmetry_cell_setting 'monoclinic'
loop_
_space_group_symop_operation_xyz
x,y,z
-x,y,-z
-x,-y,-z
x,-y,z
1/2+x,1/2+y,z
1/2-x,1/2+y,-z
1/2-x,1/2-y,-z
1/2+x,1/2-y,z
loop_
_atom_site_type_symbol
_atom_site_label
_atom_site_fract_x
_atom_site_fract_y
_atom_site_fract_z
Si Si1 0.408332 0.178618 0.715628
Si Si2 0.234776 0.820180 0.795760
Si Si3 0.301193 0.679833 0.973098
Si Si4 0.510836 0.322529 0.640718
Si Si5 0.627841 0.179148 0.403733
Si Si6 0.943323 0.828306 0.146529
Si Si7 0.979832 0.677708 0.848659
Si Si8 0.368907 0.178218 0.135113
O O1 0.362763 0.253017 0.846754
O O2 0.472756 0.245194 0.632791
O O3 0.384900 0.210311 0.666492
O O4 0.409286 0.000000 0.724449
O O5 0.304408 0.780788 0.682593
O O6 0.192978 0.739204 0.800093
O O7 0.229591 0.000000 0.794791
O O8 0.212054 0.783167 0.917421
O O9 0.300811 0.500000 0.966007
O O10 0.250000 0.750000 0.000000
O O11 0.507156 0.500000 0.640198
O O12 0.578328 0.266017 0.529043
O O13 0.483113 0.266147 0.764160
O O14 0.620654 0.000000 0.425899
O O15 0.965318 0.730610 0.183838
O O16 0.890456 0.757513 0.179526
O O17 0.931254 0.000000 0.187816
O O18 0.000000 0.829294 0.000000
O O19 0.982402 0.500000 0.830591
O O20 0.919725 0.710499 0.990896
O O21 0.367798 0.000000 0.147756
#
# Coordination Sequence:
#
# PCOD9192331 Si02
#       8
#     8   8   8   8   8   8   8   8
#     4  11  22  39  59  80 107 144 186 231 283 334
#     4  10  21  37  55  78 109 147 186 224 272 328
#     4  11  21  35  55  81 111 144 181 225 276 330
#     4  12  25  38  55  82 109 140 186 236 279 327
#     4  10  22  41  58  74 103 147 190 230 279 331
#     4   9  17  31  54  83 115 147 176 217 270 323
#     4  10  20  36  57  82 114 149 182 221 270 327
#     4  10  20  33  54  86 116 145 181 220 266 325
#
# _framework density 18.347033
#
# number of rings (size 3 to 8) (size 9 to 14) (size 15 to 20)
#    0.000    1.625    1.250    4.125    0.000    9.000 
#    0.000    0.000    0.000    0.750    0.000    0.000 
#    0.000    0.000    0.000    0.000    0.000    0.000 
#
# Total GULP energy -178823.728217 kJ/mol
# GULP energy per Si atom -5588.241507 kJ/mol
# Density = 1.830527 g / cm^3
# Si number density = 18.347033 Si / 1000 Ang^3
#
#
#
# Elastic Constant Matrix: (Units=GPa)
#
#
# Indices 1 2 3 4 5 6 
#
# 1 104.3861 30.9810 15.4049 0.0004 -28.1883 -0.0002
# 2 30.9810 50.1361 20.4402 -0.0014 -10.8755 -0.0002
# 3 15.4049 20.4402 46.6283 0.0010 -17.2930 0.0000
# 4 0.0004 -0.0014 0.0010 26.1267 0.0003 -3.9598
# 5 -28.1883 -10.8755 -17.2930 0.0003 21.6256 0.0001
# 6 -0.0002 -0.0002 0.0000 -3.9598 0.0001 33.9054
#
#
#
# Elastic Compliance Matrix: (Units=1/GPa)
#
#
# Indices 1 2 3 4 5 6 
#
# 1 0.017597 -0.008420 0.006843 -0.000001 0.024175 0.000000
# 2 -0.008420 0.028743 -0.012123 0.000002 -0.006214 0.000000
# 3 0.006843 -0.012123 0.036317 -0.000003 0.031864 0.000000
# 4 -0.000001 0.000002 -0.000003 0.038965 -0.000003 0.004551
# 5 0.024175 -0.006214 0.031864 -0.000003 0.100108 -0.000001
# 6 0.000000 0.000000 0.000000 0.004551 -0.000001 0.030025
#
#
# Mechanical properties :
#
#
# Convention : Reuss Voigt Hill
#
# Bulk Modulus (GPa) = 18.09693 37.20030 27.64861
# Shear Modulus (GPa) = 16.80256 25.28651 21.04454
#
# Velocity S-wave (km/s) = 3.02953 3.71649 3.39045
# Velocity P-wave (km/s) = 4.70346 6.22385 5.51629
#
# Compressibility (1/GPa) = 0.05525799
#
# Stress axis : x y z
#
# Youngs Moduli (GPa) = 56.82780 34.79101 27.53522
#
# Poissons Ratio (x) = 0.29293 -0.18842
# Poissons Ratio (y) = 0.47847 0.33381
# Poissons Ratio (z) = -0.38887 0.42177
#
# Static dielectric constant tensor:
#      x y z
#    x 1.629070 0.000000 -0.010820 
#    y 0.000000 1.606410 0.000000 
#    z -0.010820 0.000000 1.630720 
# 
# From -- ./inp_files/295439.got.cif
#   From: 2010.05.17/outbox.cif.g08.bks.cpg/sg12_148_cif.got.tgz:295439.got - 2010.06.03 13:09:07.
