data_PCOD9192900
_publ_section_title
;
Structure prediction by ZEFSAII (Michael W. Deem and Ramdas Pophale) SiO2 
 PCOD9192900
Probable space group: C 2/M
;
_chemical_formula_sum "Si O2"
_cell_formula_units_Z 56
_cell_length_a 8.417925
_cell_length_b 19.482082
_cell_length_c 22.507178
_cell_angle_alpha 90.000000
_cell_angle_beta 124.126082
_cell_angle_gamma 90.000000
_cell_volume 3055.550945
_symmetry_space_group_name_H-M "C 2/M"
_symmetry_group_IT_number 12
_symmetry_cell_setting 'monoclinic'
loop_
_space_group_symop_operation_xyz
x,y,z
-x,y,-z
-x,-y,-z
x,-y,z
1/2+x,1/2+y,z
1/2-x,1/2+y,-z
1/2-x,1/2-y,-z
1/2+x,1/2-y,z
loop_
_atom_site_type_symbol
_atom_site_label
_atom_site_fract_x
_atom_site_fract_y
_atom_site_fract_z
Si Si1 0.675642 0.327837 0.577484
Si Si2 0.491700 0.079194 0.866698
Si Si3 0.256428 0.420945 0.709751
Si Si4 0.891607 0.079194 0.133302
Si Si5 0.807577 0.671999 1.000000
Si Si6 0.556811 0.827836 0.577484
Si Si7 0.127176 0.579055 0.290249
O O1 0.500000 0.353296 0.500000
O O2 0.628935 0.250000 0.585957
O O3 0.864765 0.327548 0.576510
O O4 0.719740 0.373925 0.644019
O O5 0.301285 0.078527 0.867523
O O6 0.429735 0.101341 0.787882
O O7 0.562677 0.000000 0.878521
O O8 0.640232 0.129767 0.929633
O O9 0.291816 0.500000 0.699362
O O10 0.433910 0.398659 0.787881
O O11 0.212318 0.373925 0.644019
O O12 0.066197 0.419626 0.710798
O O13 0.851333 0.129767 0.070367
O O14 0.927114 0.000000 0.121479
O O15 0.750000 0.750000 0.000000
O O16 0.000000 0.672161 0.000000
O O17 0.500000 0.853295 0.500000
O O18 0.193728 0.500000 0.300637
#
# Coordination Sequence:
#
# PCOD9192900 Si02
#       7
#     8   8   8   8   8   8   8
#     4  10  20  34  52  73 100 133 167 204 246 294
#     4   9  18  34  55  75  97 130 169 206 245 291
#     4   9  19  35  53  75 102 130 163 205 250 294
#     4   9  18  34  55  75  97 130 169 206 245 291
#     4  10  21  35  51  75 105 132 164 206 248 292
#     4  10  20  34  52  73 100 133 167 204 246 294
#     4   9  19  35  53  75 102 130 163 205 250 294
#
# _framework density 18.327300000000001
#
# number of rings (size 3 to 8) (size 9 to 14) (size 15 to 20)
#    0.000    2.571    0.000    2.143    0.000    6.857 
#    0.000    5.714    0.000    4.286    0.000    0.000 
#    0.000    0.000    0.000    0.000    0.000    0.000 
#
# Total GULP energy -156209.541491 kJ/mol
# GULP energy per Si atom -5578.912196 kJ/mol
# Density = 1.828559 g / cm^3
# Si number density = 18.327300 Si / 1000 Ang^3
#
#
#
# Elastic Constant Matrix: (Units=GPa)
#
#
# Indices 1 2 3 4 5 6 
#
# 1 16.4256 17.1379 26.0656 0.0000 -3.6527 0.0000
# 2 17.1379 96.4640 121.0205 0.0000 -5.2388 0.0000
# 3 26.0656 121.0205 222.4171 0.0000 -6.7356 0.0000
# 4 0.0000 0.0000 0.0000 35.2875 0.0000 -0.5716
# 5 -3.6527 -5.2388 -6.7356 0.0000 31.5511 0.0000
# 6 0.0000 0.0000 0.0000 -0.5716 0.0000 23.9571
#
#
#
# Elastic Compliance Matrix: (Units=1/GPa)
#
#
# Indices 1 2 3 4 5 6 
#
# 1 0.077818 -0.007165 -0.005017 0.000000 0.006749 0.000000
# 2 -0.007165 0.033408 -0.017307 0.000000 0.001023 0.000000
# 3 -0.005017 -0.017307 0.014490 0.000000 -0.000361 0.000000
# 4 0.000000 0.000000 0.000000 0.028350 0.000000 0.000676
# 5 0.006749 0.001023 -0.000361 0.000000 0.032569 0.000000
# 6 0.000000 0.000000 0.000000 0.000676 0.000000 0.041757
#
#
# Mechanical properties :
#
#
# Convention : Reuss Voigt Hill
#
# Bulk Modulus (GPa) = 14.98380 73.75054 44.36717
# Shear Modulus (GPa) = 16.14905 29.56466 22.85685
#
# Velocity S-wave (km/s) = 2.97163 4.02076 3.53533
# Velocity P-wave (km/s) = 4.46851 7.86661 6.39731
#
# Compressibility (1/GPa) = 0.06673873
#
# Stress axis : x y z
#
# Youngs Moduli (GPa) = 12.85047 29.93294 69.01237
#
# Poissons Ratio (x) = 0.21446 0.34623
# Poissons Ratio (y) = 0.09207 1.19441
# Poissons Ratio (z) = 0.06447 0.51805
#
# Static dielectric constant tensor:
#      x y z
#    x 1.634510 0.000000 0.000700 
#    y 0.000000 1.614260 0.000000 
#    z 0.000700 0.000000 1.620570 
# 
# From -- ./inp_files/314387.got.cif
#   From: 2010.05.17/outbox.cif.g08.bks.cpg/sg12_158_cif.got.tgz:314387.got - 2010.06.03 13:09:07.
