data_PCOD9192350
_publ_section_title
;
Structure prediction by ZEFSAII (Michael W. Deem and Ramdas Pophale) SiO2 
 PCOD9192350
Probable space group: C 2/M
;
_chemical_formula_sum "Si O2"
_cell_formula_units_Z 50
_cell_length_a 17.302431
_cell_length_b 18.405134
_cell_length_c 15.922388
_cell_angle_alpha 90.000000
_cell_angle_beta 25.974038
_cell_angle_gamma 90.000000
_cell_volume 2220.713667
_symmetry_space_group_name_H-M "C 2/M"
_symmetry_group_IT_number 12
_symmetry_cell_setting 'monoclinic'
loop_
_space_group_symop_operation_xyz
x,y,z
-x,y,-z
-x,-y,-z
x,-y,z
1/2+x,1/2+y,z
1/2-x,1/2+y,-z
1/2-x,1/2-y,-z
1/2+x,1/2-y,z
loop_
_atom_site_type_symbol
_atom_site_label
_atom_site_fract_x
_atom_site_fract_y
_atom_site_fract_z
Si Si1 0.669384 0.421498 0.564904
Si Si2 0.500000 0.500000 0.500000
Si Si3 0.317922 0.087438 0.769799
Si Si4 0.751669 0.917521 0.973783
Si Si5 0.308465 0.643615 0.758556
Si Si6 0.273717 0.866249 0.635680
Si Si7 0.800507 0.799742 0.592240
O O1 0.739138 0.500000 0.467607
O O2 0.461027 0.421869 0.752615
O O3 0.688803 0.413794 0.645466
O O4 0.748615 0.355633 0.433751
O O5 0.375997 0.564417 0.662476
O O6 0.521756 0.110191 0.565248
O O7 0.219632 0.121099 0.785200
O O8 0.300993 0.000000 0.780511
O O9 0.264986 0.110618 0.915259
O O10 0.690652 0.867303 0.956532
O O11 0.679020 0.000000 0.042297
O O12 0.484779 0.691209 0.607577
O O13 0.225724 0.677259 0.755909
O O14 0.254776 0.783590 0.624681
#
# Coordination Sequence:
#
# PCOD9192350 Si02
#       7
#     8   2   8   8   8   8   8
#     4  10  20  33  55  78 101 127 170 214 259 301
#     4   8  12  20  48  72 100 122 154 198 244 288
#     4  10  20  34  55  73  99 138 178 211 243 297
#     4   9  18  31  50  82 106 124 163 218 260 289
#     4   9  15  27  49  78 103 129 161 205 256 296
#     4  11  20  36  50  73 102 140 176 204 247 306
#     4   9  19  30  51  76 105 132 165 210 255 303
#
# _framework density 22.515284000000001
#
# number of rings (size 3 to 8) (size 9 to 14) (size 15 to 20)
#    0.000    2.560    0.800    4.320    6.720    0.640 
#    0.000    9.600    0.000    2.880    0.000    3.360 
#    0.000    0.000    0.000    0.000    0.000    0.000 
#
# Total GULP energy -139192.341909 kJ/mol
# GULP energy per Si atom -5567.693676 kJ/mol
# Density = 2.246404 g / cm^3
# Si number density = 22.515284 Si / 1000 Ang^3
#
#
#
# Elastic Constant Matrix: (Units=GPa)
#
#
# Indices 1 2 3 4 5 6 
#
# 1 -64.8413 -126.3834 14.6881 0.0234 40.5722 0.0142
# 2 -126.3834 -35.5112 9.8960 0.0117 24.0077 0.0341
# 3 14.6881 9.8960 57.1870 -0.0119 29.9161 0.0262
# 4 0.0234 0.0117 -0.0119 8.2711 0.0143 11.2845
# 5 40.5722 24.0077 29.9161 0.0143 46.6412 -0.0201
# 6 0.0142 0.0341 0.0262 11.2845 -0.0201 22.3875
#
#
#
# Elastic Compliance Matrix: (Units=1/GPa)
#
#
# Indices 1 2 3 4 5 6 
#
# 1 0.002840 -0.008690 -0.000411 -0.000062 0.002266 0.000045
# 2 -0.008690 0.006041 -0.001717 -0.000002 0.005551 0.000004
# 3 -0.000411 -0.001717 0.025946 0.000397 -0.015400 -0.000241
# 4 -0.000062 -0.000002 0.000397 0.387134 -0.000402 -0.195137
# 5 0.002266 0.005551 -0.015400 -0.000402 0.026490 0.000235
# 6 0.000045 0.000004 -0.000241 -0.195137 0.000235 0.143028
#
#
# Mechanical properties :
#
#
# Convention : Reuss Voigt Hill
#
# Bulk Modulus (GPa) = 75.81710 -27.41823 24.19944
# Shear Modulus (GPa) = 8.09701 19.36887 13.73294
#
# Velocity S-wave (km/s) = 1.89843 2.93619 2.47237
# Velocity P-wave (km/s) = 6.20903 0.84207 4.34989
#
# Compressibility (1/GPa) = 0.01318964
#
# Stress axis : x y z
#
# Youngs Moduli (GPa) = 352.11852 165.54138 38.54174
#
# Poissons Ratio (x) = 1.43851 0.01585
# Poissons Ratio (y) = 3.05982 0.06619
# Poissons Ratio (z) = 0.14482 0.28431
#
# Static dielectric constant tensor:
#      x y z
#    x 1.917770 0.000000 0.040580 
#    y 0.000000 1.838770 0.000010 
#    z 0.040580 0.000010 1.883190 
# 
# From -- ./inp_files/226279.got.cif
#   From: 2010.05.17/outbox.cif.g08.bks.cpg/sg12_114_cif.got.tgz:226279.got - 2010.06.03 13:09:07.
