data_PCOD9192944
_publ_section_title
;
Structure prediction by ZEFSAII (Michael W. Deem and Ramdas Pophale) SiO2 
 PCOD9192944
Probable space group: C 2/M
;
_chemical_formula_sum "Si O2"
_cell_formula_units_Z 64
_cell_length_a 11.478992
_cell_length_b 13.226964
_cell_length_c 25.312174
_cell_angle_alpha 90.000000
_cell_angle_beta 109.395735
_cell_angle_gamma 90.000000
_cell_volume 3625.091558
_symmetry_space_group_name_H-M "C 2/M"
_symmetry_group_IT_number 12
_symmetry_cell_setting 'monoclinic'
loop_
_space_group_symop_operation_xyz
x,y,z
-x,y,-z
-x,-y,-z
x,-y,z
1/2+x,1/2+y,z
1/2-x,1/2+y,-z
1/2-x,1/2-y,-z
1/2+x,1/2-y,z
loop_
_atom_site_type_symbol
_atom_site_label
_atom_site_fract_x
_atom_site_fract_y
_atom_site_fract_z
Si Si1 0.101443 0.733756 0.468888
Si Si2 0.824227 0.747371 0.095157
Si Si3 0.931418 0.881476 0.383773
Si Si4 0.470329 0.254713 0.285185
Si Si5 0.846734 0.617432 0.626037
Si Si6 0.858751 0.384828 0.995917
Si Si7 0.710726 0.884784 0.805940
Si Si8 0.006758 0.884699 0.185862
O O1 0.250000 0.750000 0.500000
O O2 0.099242 0.648684 0.422746
O O3 0.000000 0.709436 0.500000
O O4 0.043339 0.835066 0.434337
O O5 0.717413 0.822232 0.058956
O O6 0.791737 0.677743 0.140120
O O7 0.935742 0.818014 0.131729
O O8 0.851779 0.674928 0.049960
O O9 0.925091 0.818908 0.328530
O O10 0.801264 0.868394 0.394464
O O11 0.949252 0.000000 0.376310
O O12 0.589898 0.191973 0.322233
O O13 0.372314 0.173498 0.249142
O O14 0.493008 0.330485 0.240182
O O15 0.872184 0.500000 0.641745
O O16 0.811634 0.500000 0.994045
O O17 0.000000 0.388651 0.000000
O O18 0.850067 0.887408 0.806850
O O19 0.666924 0.000000 0.807359
O O20 0.958999 0.000000 0.180088
#
# Coordination Sequence:
#
# PCOD9192944 Si02
#       8
#     8   8   8   8   8   8   8   8
#     4  11  22  39  61  86 116 149 187 232 278 327
#     4  10  20  34  52  75 102 138 176 216 267 325
#     4  10  21  37  59  83 111 149 187 224 275 333
#     4  10  20  35  56  80 109 141 181 226 269 320
#     4  10  21  37  58  83 113 147 185 228 276 328
#     4  10  20  34  52  74 102 134 174 222 269 316
#     4  10  20  34  53  77 107 140 175 218 271 323
#     4  10  20  34  53  77 106 139 177 220 267 321
#
# _framework density 17.654727000000001
#
# number of rings (size 3 to 8) (size 9 to 14) (size 15 to 20)
#    0.000    1.875    1.250    3.000    0.000    1.000 
#    0.000    0.000    0.000   18.000    0.000    0.000 
#    0.000    0.000    0.000    0.000    0.000    0.000 
#
# Total GULP energy -178415.116052 kJ/mol
# GULP energy per Si atom -5575.472377 kJ/mol
# Density = 1.761454 g / cm^3
# Si number density = 17.654727 Si / 1000 Ang^3
#
#
#
# Elastic Constant Matrix: (Units=GPa)
#
#
# Indices 1 2 3 4 5 6 
#
# 1 84.8826 51.2980 42.2503 0.0000 8.8547 0.0000
# 2 51.2980 149.6851 54.1725 0.0000 5.1680 0.0000
# 3 42.2503 54.1725 97.3247 0.0000 10.3730 0.0000
# 4 0.0000 0.0000 0.0000 1.4327 0.0000 14.7845
# 5 8.8547 5.1680 10.3730 0.0000 14.2178 0.0000
# 6 0.0000 0.0000 0.0000 14.7845 0.0000 23.7719
#
#
#
# Elastic Compliance Matrix: (Units=1/GPa)
#
#
# Indices 1 2 3 4 5 6 
#
# 1 0.017081 -0.004000 -0.004565 0.000000 -0.005854 0.000000
# 2 -0.004000 0.009304 -0.003630 0.000000 0.001757 0.000000
# 3 -0.004565 -0.003630 0.015000 0.000000 -0.006781 0.000000
# 4 0.000000 0.000000 0.000000 -0.128830 0.000000 0.080123
# 5 -0.005854 0.001757 -0.006781 0.000000 0.078289 0.000000
# 6 0.000000 0.000000 0.000000 0.080123 0.000000 -0.007765
#
#
# Mechanical properties :
#
#
# Convention : Reuss Voigt Hill
#
# Bulk Modulus (GPa) = 58.83699 69.70379 64.27039
# Shear Modulus (GPa) = 380.67919 20.16259 200.42089
#
# Velocity S-wave (km/s) = 14.70009 3.38309 10.66625
# Velocity P-wave (km/s) = 17.93104 7.40458 13.71769
#
# Compressibility (1/GPa) = 0.01699611
#
# Stress axis : x y z
#
# Youngs Moduli (GPa) = 58.54483 107.47583 66.66696
#
# Poissons Ratio (x) = 0.42985 0.30434
# Poissons Ratio (y) = 0.23415 0.24200
# Poissons Ratio (z) = 0.26726 0.39014
#
# Static dielectric constant tensor:
#      x y z
#    x 1.583410 0.000000 0.003850 
#    y 0.000000 1.605800 0.000000 
#    z 0.003850 0.000000 1.594650 
# 
# From -- ./inp_files/335194.got.cif
#   From: 2010.05.17/outbox.cif.g08.bks.cpg/sg12_168_cif.got.tgz:335194.got - 2010.06.03 13:09:07.
