data_PCOD9192088
_publ_section_title
;
Structure prediction by ZEFSAII (Michael W. Deem and Ramdas Pophale) SiO2 
 PCOD9192088
Probable space group: C 2/M
;
_chemical_formula_sum "Si O2"
_cell_formula_units_Z 64
_cell_length_a 28.938312
_cell_length_b 8.525185
_cell_length_c 14.611278
_cell_angle_alpha 90.000000
_cell_angle_beta 74.251031
_cell_angle_gamma 90.000000
_cell_volume 3469.348716
_symmetry_space_group_name_H-M "C 2/M"
_symmetry_group_IT_number 12
_symmetry_cell_setting 'monoclinic'
loop_
_space_group_symop_operation_xyz
x,y,z
-x,y,-z
-x,-y,-z
x,-y,z
1/2+x,1/2+y,z
1/2-x,1/2+y,-z
1/2-x,1/2-y,-z
1/2+x,1/2-y,z
loop_
_atom_site_type_symbol
_atom_site_label
_atom_site_fract_x
_atom_site_fract_y
_atom_site_fract_z
Si Si1 0.205883 0.189196 0.362560
Si Si2 0.945074 0.689331 0.520608
Si Si3 0.126462 0.687613 0.277832
Si Si4 0.684765 0.812446 0.714201
Si Si5 0.415663 0.690112 0.885889
Si Si6 0.883558 0.190239 0.105293
Si Si7 0.483172 0.679891 0.115613
Si Si8 0.365322 0.687706 0.436723
O O1 0.176374 0.249148 0.291106
O O2 0.260820 0.243397 0.333330
O O3 0.175438 0.240440 0.467921
O O4 0.205614 0.000000 0.362036
O O5 0.944835 0.500000 0.516059
O O6 0.914278 0.737047 0.626472
O O7 0.915949 0.753137 0.449115
O O8 0.000000 0.742458 0.500000
O O9 0.127654 0.500000 0.275239
O O10 0.112731 0.751667 0.186330
O O11 0.663858 0.751723 0.821146
O O12 0.650241 0.751540 0.652642
O O13 0.684896 0.000000 0.713677
O O14 0.417759 0.500000 0.884585
O O15 0.471159 0.749748 0.856521
O O16 0.391639 0.736623 0.995434
O O17 0.930105 0.249989 0.138019
O O18 0.884511 0.000000 0.107729
O O19 0.477703 0.500000 0.150895
O O20 0.500000 0.673176 0.000000
O O21 0.634047 0.500000 0.566208
#
# Coordination Sequence:
#
# PCOD9192088 Si02
#       8
#     8   8   8   8   8   8   8   8
#     4   9  20  38  56  74  98 131 171 212 255 305
#     4   9  19  36  54  76 111 145 169 203 253 303
#     4  10  20  33  53  78 102 133 173 213 252 300
#     4  11  22  35  53  77 105 134 164 208 265 312
#     4   9  17  32  54  75 101 138 174 210 251 298
#     4   9  18  33  52  76 104 134 172 213 252 297
#     4   7  12  26  48  71  95 127 166 204 241 284
#     4  10  20  35  56  79 102 132 173 213 248 300
#
# _framework density 18.447267
#
# number of rings (size 3 to 8) (size 9 to 14) (size 15 to 20)
#    0.000    2.750    0.000    3.000    0.000    3.750 
#    0.000    3.750    0.000    2.250    0.000    0.000 
#    0.000    0.000    0.000    0.000    0.000    0.000 
#
# Total GULP energy -178417.022082 kJ/mol
# GULP energy per Si atom -5575.531940 kJ/mol
# Density = 1.840528 g / cm^3
# Si number density = 18.447267 Si / 1000 Ang^3
#
#
#
# Elastic Constant Matrix: (Units=GPa)
#
#
# Indices 1 2 3 4 5 6 
#
# 1 115.5419 17.8261 51.8120 0.0000 3.0591 0.0000
# 2 17.8261 10.4629 13.4983 0.0000 0.1173 0.0000
# 3 51.8120 13.4983 62.9051 0.0000 13.3637 0.0000
# 4 0.0000 0.0000 0.0000 22.3295 0.0000 -0.0906
# 5 3.0591 0.1173 13.3637 0.0000 30.8177 0.0000
# 6 0.0000 0.0000 0.0000 -0.0906 0.0000 16.1196
#
#
#
# Elastic Compliance Matrix: (Units=1/GPa)
#
#
# Indices 1 2 3 4 5 6 
#
# 1 0.015199 -0.012347 -0.010529 0.000000 0.003104 0.000000
# 2 -0.012347 0.147090 -0.023720 0.000000 0.010952 0.000000
# 3 -0.010529 -0.023720 0.032403 0.000000 -0.012916 0.000000
# 4 0.000000 0.000000 0.000000 0.044785 0.000000 0.000252
# 5 0.003104 0.010952 -0.012916 0.000000 0.037700 0.000000
# 6 0.000000 0.000000 0.000000 0.000252 0.000000 0.062038
#
#
# Mechanical properties :
#
#
# Convention : Reuss Voigt Hill
#
# Bulk Modulus (GPa) = 9.85216 39.46475 24.65846
# Shear Modulus (GPa) = 10.72414 20.90492 15.81453
#
# Velocity S-wave (km/s) = 2.41372 3.36999 2.93112
# Velocity P-wave (km/s) = 3.62220 6.04832 4.98511
#
# Compressibility (1/GPa) = 0.10150055
#
# Stress axis : x y z
#
# Youngs Moduli (GPa) = 65.79433 6.79857 30.86164
#
# Poissons Ratio (x) = 0.08394 0.32493
# Poissons Ratio (y) = 0.81234 0.73204
# Poissons Ratio (z) = 0.69273 0.16126
#
# Static dielectric constant tensor:
#      x y z
#    x 1.645950 0.000000 -0.021660 
#    y 0.000000 1.628400 0.000000 
#    z -0.021660 0.000000 1.628670 
# 
# From -- ./inp_files/243874.got.cif
#   From: 2010.05.17/outbox.cif.g08.bks.cpg/sg12_122_cif.got.tgz:243874.got - 2010.06.03 13:09:07.
