data_PCOD9192649
_publ_section_title
;
Structure prediction by ZEFSAII (Michael W. Deem and Ramdas Pophale) SiO2 
 PCOD9192649
Probable space group: C 2/M
;
_chemical_formula_sum "Si O2"
_cell_formula_units_Z 40
_cell_length_a 26.782263
_cell_length_b 14.405702
_cell_length_c 17.654918
_cell_angle_alpha 90.000000
_cell_angle_beta 19.550263
_cell_angle_gamma 90.000000
_cell_volume 2279.381584
_symmetry_space_group_name_H-M "C 2/M"
_symmetry_group_IT_number 12
_symmetry_cell_setting 'monoclinic'
loop_
_space_group_symop_operation_xyz
x,y,z
-x,y,-z
-x,-y,-z
x,-y,z
1/2+x,1/2+y,z
1/2-x,1/2+y,-z
1/2-x,1/2-y,-z
1/2+x,1/2-y,z
loop_
_atom_site_type_symbol
_atom_site_label
_atom_site_fract_x
_atom_site_fract_y
_atom_site_fract_z
Si Si1 0.899806 0.111364 0.215788
Si Si2 0.257626 0.000000 0.878968
Si Si3 0.426798 0.849830 0.352368
Si Si4 0.986874 0.500000 0.891109
Si Si5 0.748520 0.500000 0.363516
Si Si6 0.066720 0.500000 0.526626
Si Si7 0.996990 0.143958 0.763781
O O1 0.742682 0.162961 0.434110
O O2 0.982004 0.135779 0.175632
O O3 0.869668 0.000000 0.258543
O O4 0.000000 0.132670 0.000000
O O5 0.404312 0.000000 0.720420
O O6 0.312512 0.000000 0.713165
O O7 0.152298 0.088646 0.043697
O O8 0.417178 0.911543 0.441717
O O9 0.500958 0.751166 0.260334
O O10 0.506800 0.911029 0.173167
O O11 0.134002 0.500000 0.734564
O O12 0.846065 0.500000 0.148123
O O13 0.639069 0.588401 0.526950
#
# Coordination Sequence:
#
# PCOD9192649 Si02
#       7
#     8   4   8   4   4   4   8
#     4  11  19  32  56  85 117 149 180 224 278 335
#     4  10  22  41  62  82 107 143 189 239 283 325
#     4  11  21  36  56  83 114 145 185 226 277 333
#     4  10  20  34  49  75 116 151 180 215 263 325
#     4  10  20  34  49  75 116 151 180 215 263 325
#     4  10  22  41  62  82 107 143 189 239 283 325
#     4  11  21  36  56  83 114 145 185 226 277 333
#
# _framework density 17.54862
#
# number of rings (size 3 to 8) (size 9 to 14) (size 15 to 20)
#    0.000    1.400    6.000    1.800    0.000    4.000 
#    0.000    0.000    0.000    9.600    0.000    0.000 
#    0.000    0.000    0.000    0.000    0.000    0.000 
#
# Total GULP energy -111713.358534 kJ/mol
# GULP energy per Si atom -5585.667927 kJ/mol
# Density = 1.750868 g / cm^3
# Si number density = 17.548620 Si / 1000 Ang^3
#
#
#
# Elastic Constant Matrix: (Units=GPa)
#
#
# Indices 1 2 3 4 5 6 
#
# 1 32.8252 -0.4629 4.1275 0.0000 4.5357 0.0000
# 2 -0.4629 114.9096 22.6097 0.0001 -0.0371 -0.0001
# 3 4.1275 22.6097 76.2818 0.0001 11.3058 -0.0002
# 4 0.0000 0.0001 0.0001 4.7354 0.0000 -1.8269
# 5 4.5357 -0.0371 11.3058 0.0000 32.4000 0.0001
# 6 0.0000 -0.0001 -0.0002 -1.8269 0.0001 9.9258
#
#
#
# Elastic Compliance Matrix: (Units=1/GPa)
#
#
# Indices 1 2 3 4 5 6 
#
# 1 0.031166 0.000362 -0.001210 0.000000 -0.003940 0.000000
# 2 0.000362 0.009278 -0.002914 0.000000 0.000977 0.000000
# 3 -0.001210 -0.002914 0.014778 0.000000 -0.004991 0.000000
# 4 0.000000 0.000000 0.000000 0.227318 0.000000 0.041840
# 5 -0.003940 0.000977 -0.004991 0.000000 0.033158 0.000000
# 6 0.000000 0.000000 0.000000 0.041840 0.000000 0.108448
#
#
# Mechanical properties :
#
#
# Convention : Reuss Voigt Hill
#
# Bulk Modulus (GPa) = 20.96497 30.72948 25.84723
# Shear Modulus (GPa) = 11.17145 22.59507 16.88326
#
# Velocity S-wave (km/s) = 2.52583 3.59216 3.10511
# Velocity P-wave (km/s) = 4.52539 5.89525 5.25514
#
# Compressibility (1/GPa) = 0.04769861
#
# Stress axis : x y z
#
# Youngs Moduli (GPa) = 32.08617 107.78558 67.66719
#
# Poissons Ratio (x) = -0.03905 0.08186
# Poissons Ratio (y) = -0.01162 0.19720
# Poissons Ratio (z) = 0.03882 0.31412
#
# Static dielectric constant tensor:
#      x y z
#    x 1.574310 0.000000 0.007780 
#    y 0.000000 1.621370 0.000000 
#    z 0.007780 0.000000 1.586410 
# 
# From -- ./inp_files/183342.got.cif
#   From: 2010.05.17/outbox.cif.g08.bks.cpg/sg12_92_cif.got.tgz:183342.got - 2010.06.03 13:09:07.
