data_PCOD9192404
_publ_section_title
;
Structure prediction by ZEFSAII (Michael W. Deem and Ramdas Pophale) SiO2 
 PCOD9192404
Probable space group: C 2/M
;
_chemical_formula_sum "Si O2"
_cell_formula_units_Z 40
_cell_length_a 23.019346
_cell_length_b 18.926858
_cell_length_c 9.129231
_cell_angle_alpha 90.000000
_cell_angle_beta 148.853560
_cell_angle_gamma 90.000000
_cell_volume 2057.249892
_symmetry_space_group_name_H-M "C 2/M"
_symmetry_group_IT_number 12
_symmetry_cell_setting 'monoclinic'
loop_
_space_group_symop_operation_xyz
x,y,z
-x,y,-z
-x,-y,-z
x,-y,z
1/2+x,1/2+y,z
1/2-x,1/2+y,-z
1/2-x,1/2-y,-z
1/2+x,1/2-y,z
loop_
_atom_site_type_symbol
_atom_site_label
_atom_site_fract_x
_atom_site_fract_y
_atom_site_fract_z
Si Si1 0.320086 0.674288 0.528878
Si Si2 0.759400 0.793672 0.868792
Si Si3 0.398962 0.081270 0.888574
Si Si4 0.469824 0.847500 0.602849
Si Si5 0.960337 0.804878 0.127074
O O1 0.267848 0.737788 0.320144
O O2 0.217507 0.623892 0.353907
O O3 0.426189 0.650408 0.656296
O O4 0.385485 0.694634 0.818353
O O5 0.663282 0.852715 0.664151
O O6 0.750000 0.750000 0.000000
O O7 0.880477 0.824616 0.090264
O O8 0.377215 0.000000 0.803792
O O9 0.500000 0.107999 0.000000
O O10 0.457115 0.090491 0.171788
O O11 0.500000 0.837183 0.500000
O O12 0.502623 0.775307 0.757997
#
# Coordination Sequence:
#
# PCOD9192404 Si02
#       5
#     8   8   8   8   8
#     4  10  21  35  55  82 113 152 183 232 288 343
#     4  11  19  32  54  85 123 145 176 230 287 351
#     4  11  24  40  58  79 111 153 199 239 272 330
#     4  11  21  34  55  88 119 144 183 229 288 346
#     4  10  20  33  55  86 115 146 178 229 295 342
#
# _framework density 19.443434
#
# number of rings (size 3 to 8) (size 9 to 14) (size 15 to 20)
#    0.000    1.400    4.000    1.800    5.600    0.400 
#    0.000    2.000    0.000    1.200    0.000    5.600 
#    0.000    0.000    0.000    0.000    0.000    0.000 
#
# Total GULP energy -111450.736002 kJ/mol
# GULP energy per Si atom -5572.536800 kJ/mol
# Density = 1.939918 g / cm^3
# Si number density = 19.443434 Si / 1000 Ang^3
#
#
#
# Elastic Constant Matrix: (Units=GPa)
#
#
# Indices 1 2 3 4 5 6 
#
# 1 159.9724 36.4413 62.9336 0.0000 48.2484 0.0000
# 2 36.4413 26.2960 17.3204 0.0000 7.8242 0.0000
# 3 62.9336 17.3204 80.3089 0.0000 25.0286 0.0000
# 4 0.0000 0.0000 0.0000 14.9533 0.0000 6.5223
# 5 48.2484 7.8242 25.0286 0.0000 44.9623 0.0000
# 6 0.0000 0.0000 0.0000 6.5223 0.0000 11.3411
#
#
#
# Elastic Compliance Matrix: (Units=1/GPa)
#
#
# Indices 1 2 3 4 5 6 
#
# 1 0.014512 -0.013603 -0.005230 0.000000 -0.010294 0.000000
# 2 -0.013603 0.057390 -0.003816 0.000000 0.006735 0.000000
# 3 -0.005230 -0.003816 0.018654 0.000000 -0.004107 0.000000
# 4 0.000000 0.000000 0.000000 0.089267 0.000000 -0.051338
# 5 -0.010294 0.006735 -0.004107 0.000000 0.034402 0.000000
# 6 0.000000 0.000000 0.000000 -0.051338 0.000000 0.117699
#
#
# Mechanical properties :
#
#
# Convention : Reuss Voigt Hill
#
# Bulk Modulus (GPa) = 22.09655 55.55197 38.82426
# Shear Modulus (GPa) = 12.74506 24.24348 18.49427
#
# Velocity S-wave (km/s) = 2.56304 3.53494 3.08747
# Velocity P-wave (km/s) = 4.48866 6.73009 5.72024
#
# Compressibility (1/GPa) = 0.04525594
#
# Stress axis : x y z
#
# Youngs Moduli (GPa) = 68.90713 17.42472 53.60870
#
# Poissons Ratio (x) = 0.23703 0.28040
# Poissons Ratio (y) = 0.93736 0.20458
# Poissons Ratio (z) = 0.36041 0.06650
#
# Static dielectric constant tensor:
#      x y z
#    x 1.798470 0.000000 0.036230 
#    y 0.000000 1.659820 0.000000 
#    z 0.036230 0.000000 1.743860 
# 
# From -- ./inp_files/46892.got.cif
#   From: 2010.05.17/outbox.cif.g08.bks.cpg/sg12_24_cif.got.tgz:46892.got - 2010.06.03 13:09:07.
