data_PCOD9192415
_publ_section_title
;
Structure prediction by ZEFSAII (Michael W. Deem and Ramdas Pophale) SiO2 
 PCOD9192415
Probable space group: C 2/M
;
_chemical_formula_sum "Si O2"
_cell_formula_units_Z 40
_cell_length_a 11.840689
_cell_length_b 12.646360
_cell_length_c 24.415083
_cell_angle_alpha 90.000000
_cell_angle_beta 26.366021
_cell_angle_gamma 90.000000
_cell_volume 1623.623431
_symmetry_space_group_name_H-M "C 2/M"
_symmetry_group_IT_number 12
_symmetry_cell_setting 'monoclinic'
loop_
_space_group_symop_operation_xyz
x,y,z
-x,y,-z
-x,-y,-z
x,-y,z
1/2+x,1/2+y,z
1/2-x,1/2+y,-z
1/2-x,1/2-y,-z
1/2+x,1/2-y,z
loop_
_atom_site_type_symbol
_atom_site_label
_atom_site_fract_x
_atom_site_fract_y
_atom_site_fract_z
Si Si1 0.295872 0.614047 0.457589
Si Si2 0.822733 0.340474 0.282252
Si Si3 0.918341 0.119459 0.830267
Si Si4 0.054326 0.330193 0.889984
Si Si5 0.008765 0.320892 0.314456
O O1 0.306223 0.500000 0.425351
O O2 0.534287 0.627502 0.395803
O O3 0.054513 0.619948 0.602095
O O4 0.341141 0.712832 0.398054
O O5 0.954026 0.374305 0.168031
O O6 0.921473 0.378739 0.297623
O O7 0.880980 0.214517 0.262002
O O8 0.749900 0.115535 0.847554
O O9 0.002630 0.000000 0.805827
O O10 0.715194 0.160873 0.963913
O O11 0.201091 0.217498 0.819694
#
# Coordination Sequence:
#
# PCOD9192415 Si02
#       5
#     8   8   8   8   8
#     4  10  21  39  60  80 109 150 188 224 275 334
#     4  10  20  33  55  87 114 141 184 233 273 322
#     4  10  20  36  59  84 112 146 185 227 273 327
#     4   9  18  34  55  79 110 144 180 222 270 325
#     4   9  20  36  56  84 112 140 186 235 272 322
#
# _framework density 24.636254999999998
#
# number of rings (size 3 to 8) (size 9 to 14) (size 15 to 20)
#    0.000    2.400    0.000    2.400    0.000   12.000 
#    0.000    9.000    0.000   18.000    0.000   14.000 
#    0.000    0.000    0.000    0.000    0.000    0.000 
#
# Total GULP energy -111551.397014 kJ/mol
# GULP energy per Si atom -5577.569851 kJ/mol
# Density = 2.458018 g / cm^3
# Si number density = 24.636255 Si / 1000 Ang^3
#
#
#
# Elastic Constant Matrix: (Units=GPa)
#
#
# Indices 1 2 3 4 5 6 
#
# 1 110.5412 -3.6685 37.9928 -0.0020 36.6545 0.0001
# 2 -3.6685 140.8783 31.6545 -0.0012 -4.2171 -0.0009
# 3 37.9928 31.6545 97.3374 -0.0102 17.6129 -0.0048
# 4 -0.0020 -0.0012 -0.0102 11.3988 0.0011 -3.4963
# 5 36.6545 -4.2171 17.6129 0.0011 37.0131 -0.0007
# 6 0.0001 -0.0009 -0.0048 -3.4963 -0.0007 7.5281
#
#
#
# Elastic Compliance Matrix: (Units=1/GPa)
#
#
# Indices 1 2 3 4 5 6 
#
# 1 0.014476 0.000824 -0.003656 -0.000001 -0.012502 -0.000004
# 2 0.000824 0.007880 -0.003172 -0.000003 0.001591 -0.000002
# 3 -0.003656 -0.003172 0.013287 0.000016 -0.003063 0.000015
# 4 -0.000001 -0.000003 0.000016 0.102303 -0.000009 0.047514
# 5 -0.012502 0.001591 -0.003063 -0.000009 0.041037 -0.000002
# 6 -0.000004 -0.000002 0.000015 0.047514 -0.000002 0.154904
#
#
# Mechanical properties :
#
#
# Convention : Reuss Voigt Hill
#
# Bulk Modulus (GPa) = 42.31141 53.41272 47.86207
# Shear Modulus (GPa) = 14.13336 30.03985 22.08661
#
# Velocity S-wave (km/s) = 2.39776 3.49569 2.99742
# Velocity P-wave (km/s) = 4.98773 6.16609 5.60795
#
# Compressibility (1/GPa) = 0.02363429
#
# Stress axis : x y z
#
# Youngs Moduli (GPa) = 69.08038 126.90006 75.26424
#
# Poissons Ratio (x) = -0.10459 0.27517
# Poissons Ratio (y) = -0.05694 0.23876
# Poissons Ratio (z) = 0.25256 0.40257
#
# Static dielectric constant tensor:
#      x y z
#    x 1.977470 0.000000 0.001620 
#    y 0.000000 1.990250 0.000000 
#    z 0.001620 0.000000 1.985840 
# 
# From -- ./inp_files/360514.got.cif
#   From: 2010.05.17/outbox.cif.g08.bks.cpg/sg12_181_cif.got.tgz:360514.got - 2010.06.03 13:09:07.
