data_PCOD9192014
_publ_section_title
;
Structure prediction by ZEFSAII (Michael W. Deem and Ramdas Pophale) SiO2 
 PCOD9192014
Probable space group: C 2/M
;
_chemical_formula_sum "Si O2"
_cell_formula_units_Z 64
_cell_length_a 21.199000
_cell_length_b 13.113685
_cell_length_c 25.567335
_cell_angle_alpha 90.000000
_cell_angle_beta 149.409810
_cell_angle_gamma 90.000000
_cell_volume 3617.036941
_symmetry_space_group_name_H-M "C 2/M"
_symmetry_group_IT_number 12
_symmetry_cell_setting 'monoclinic'
loop_
_space_group_symop_operation_xyz
x,y,z
-x,y,-z
-x,-y,-z
x,-y,z
1/2+x,1/2+y,z
1/2-x,1/2+y,-z
1/2-x,1/2-y,-z
1/2+x,1/2-y,z
loop_
_atom_site_type_symbol
_atom_site_label
_atom_site_fract_x
_atom_site_fract_y
_atom_site_fract_z
Si Si1 0.820919 0.719389 0.497001
Si Si2 0.314248 0.611696 0.241156
Si Si3 0.950417 0.615372 0.905315
Si Si4 0.558486 0.384056 0.486750
Si Si5 0.938218 0.769290 0.097330
Si Si6 0.915561 0.119625 0.709498
Si Si7 0.188173 0.382698 0.910202
Si Si8 0.943281 0.269810 0.270651
O O1 0.750000 0.750000 0.500000
O O2 0.842553 0.811715 0.471241
O O3 0.730310 0.638664 0.405068
O O4 0.958360 0.692162 0.615866
O O5 0.299775 0.500000 0.204504
O O6 0.198093 0.622919 0.196298
O O7 0.442322 0.610168 0.364352
O O8 0.329187 0.706501 0.213479
O O9 0.981801 0.500000 0.909122
O O10 0.003372 0.703988 0.907363
O O11 0.000000 0.623812 0.000000
O O12 0.500000 0.347520 0.500000
O O13 0.605847 0.500000 0.528675
O O14 0.873126 0.686955 0.088988
O O15 0.037497 0.832174 0.202580
O O16 0.828155 0.844284 0.001574
O O17 0.987585 0.185435 0.716508
O O18 0.944766 0.000000 0.726682
O O19 0.186430 0.500000 0.923635
O O20 0.107371 0.359506 0.801205
#
# Coordination Sequence:
#
# PCOD9192014 Si02
#       8
#     8   8   8   8   8   8   8   8
#     4   9  19  33  51  81 112 144 181 222 270 318
#     4   9  17  30  51  77 105 135 168 209 259 317
#     4  10  20  33  52  80 108 134 165 209 269 322
#     4   9  18  32  52  80 108 139 176 220 277 330
#     4  10  21  35  53  79 106 135 171 214 264 314
#     4  10  20  34  54  77 106 143 178 216 261 314
#     4  10  20  35  55  77 104 136 172 216 263 312
#     4   9  18  34  54  80 106 136 177 218 265 307
#
# _framework density 17.694042
#
# number of rings (size 3 to 8) (size 9 to 14) (size 15 to 20)
#    0.000    2.500    0.000    1.875    1.750    3.500 
#    0.000    8.750    0.000    7.125    0.000    0.000 
#    0.000    0.000    0.000    0.000    0.000    0.000 
#
# Total GULP energy -178279.249382 kJ/mol
# GULP energy per Si atom -5571.226543 kJ/mol
# Density = 1.765377 g / cm^3
# Si number density = 17.694042 Si / 1000 Ang^3
#
#
#
# Elastic Constant Matrix: (Units=GPa)
#
#
# Indices 1 2 3 4 5 6 
#
# 1 52.7224 16.2743 5.3294 0.0000 1.4040 0.0000
# 2 16.2743 74.6914 35.7923 -0.0004 -1.2163 -0.0001
# 3 5.3294 35.7923 70.8718 -0.0004 -0.3478 -0.0001
# 4 0.0000 -0.0004 -0.0004 20.4149 -0.0001 4.0494
# 5 1.4040 -1.2163 -0.3478 -0.0001 18.4940 0.0000
# 6 0.0000 -0.0001 -0.0001 4.0494 0.0000 19.0348
#
#
#
# Elastic Compliance Matrix: (Units=1/GPa)
#
#
# Indices 1 2 3 4 5 6 
#
# 1 0.020446 -0.004939 0.000948 0.000000 -0.001859 0.000000
# 2 -0.004939 0.018875 -0.009154 0.000000 0.001444 0.000000
# 3 0.000948 -0.009154 0.018660 0.000000 -0.000323 0.000000
# 4 0.000000 0.000000 0.000000 0.051142 0.000000 -0.010880
# 5 -0.001859 0.001444 -0.000323 0.000000 0.054302 0.000000
# 6 0.000000 0.000000 0.000000 -0.010880 0.000000 0.054850
#
#
# Mechanical properties :
#
#
# Convention : Reuss Voigt Hill
#
# Bulk Modulus (GPa) = 31.55572 34.78640 33.17106
# Shear Modulus (GPa) = 19.59807 20.98139 20.28973
#
# Velocity S-wave (km/s) = 3.33169 3.44726 3.38997
# Velocity P-wave (km/s) = 5.71603 5.96217 5.84040
#
# Compressibility (1/GPa) = 0.03168998
#
# Stress axis : x y z
#
# Youngs Moduli (GPa) = 48.91018 52.98113 53.59059
#
# Poissons Ratio (x) = 0.26169 -0.05080
# Poissons Ratio (y) = 0.24159 0.49055
# Poissons Ratio (z) = -0.04636 0.48497
#
# Static dielectric constant tensor:
#      x y z
#    x 1.597970 0.000000 -0.000330 
#    y 0.000000 1.590360 0.000000 
#    z -0.000330 0.000000 1.636930 
# 
# From -- ./inp_files/366050.got.cif
#   From: 2010.05.17/outbox.cif.g08.bks.cpg/sg12_184_cif.got.tgz:366050.got - 2010.06.03 13:09:07.
