data_PCOD9192867
_publ_section_title
;
Structure prediction by ZEFSAII (Michael W. Deem and Ramdas Pophale) SiO2 
 PCOD9192867
Probable space group: C 2/M
;
_chemical_formula_sum "Si O2"
_cell_formula_units_Z 48
_cell_length_a 12.382717
_cell_length_b 25.582633
_cell_length_c 9.274058
_cell_angle_alpha 90.000000
_cell_angle_beta 142.383164
_cell_angle_gamma 90.000000
_cell_volume 1793.204540
_symmetry_space_group_name_H-M "C 2/M"
_symmetry_group_IT_number 12
_symmetry_cell_setting 'monoclinic'
loop_
_space_group_symop_operation_xyz
x,y,z
-x,y,-z
-x,-y,-z
x,-y,z
1/2+x,1/2+y,z
1/2-x,1/2+y,-z
1/2-x,1/2-y,-z
1/2+x,1/2-y,z
loop_
_atom_site_type_symbol
_atom_site_label
_atom_site_fract_x
_atom_site_fract_y
_atom_site_fract_z
Si Si1 0.053573 0.395978 0.227693
Si Si2 0.289617 0.688704 0.537335
Si Si3 0.574950 0.558124 0.435699
Si Si4 0.236170 0.441544 0.875890
Si Si5 0.687943 0.327596 0.045538
Si Si6 0.797072 0.711676 0.847797
O O1 0.107560 0.342602 0.370177
O O2 0.248238 0.419417 0.438799
O O3 0.000000 0.392703 0.000000
O O4 0.917639 0.432099 0.169370
O O5 0.250000 0.750000 0.500000
O O6 0.472549 0.674042 0.807518
O O7 0.316265 0.683507 0.393731
O O8 0.500000 0.583825 0.500000
O O9 0.627596 0.500000 0.536899
O O10 0.421346 0.556551 0.156199
O O11 0.213827 0.500000 0.782836
O O12 0.248822 0.382942 0.820181
O O13 0.757809 0.319089 0.954526
O O14 0.747207 0.273160 0.181091
O O15 0.000000 0.712001 0.000000
#
# Coordination Sequence:
#
# PCOD9192867 Si02
#       6
#     8   8   8   8   8   8
#     4  12  23  35  58  85 125 166 209 258 321 389
#     4  12  24  40  62  96 130 167 213 270 328 391
#     4  10  20  34  51  80 116 159 207 246 303 378
#     4  11  23  39  59  87 126 171 213 264 318 377
#     4  11  24  42  65  94 134 173 212 272 324 389
#     4  11  23  41  65  94 130 170 216 263 330 393
#
# _framework density 26.767723
#
# number of rings (size 3 to 8) (size 9 to 14) (size 15 to 20)
#    0.000    0.833    5.000    3.500    2.333    0.667 
#    0.000    0.000    0.000    0.500    0.000    1.167 
#    0.000    0.000    0.000    0.000    0.000    0.000 
#
# Total GULP energy -134090.289629 kJ/mol
# GULP energy per Si atom -5587.095401 kJ/mol
# Density = 2.670680 g / cm^3
# Si number density = 26.767723 Si / 1000 Ang^3
#
#
#
# Elastic Constant Matrix: (Units=GPa)
#
#
# Indices 1 2 3 4 5 6 
#
# 1 65.6232 16.7433 35.1221 0.0000 10.6835 0.0000
# 2 16.7433 191.0304 21.6501 0.0000 11.2152 0.0000
# 3 35.1221 21.6501 120.6501 0.0000 21.1807 0.0000
# 4 0.0000 0.0000 0.0000 109.9072 0.0000 53.5817
# 5 10.6835 11.2152 21.1807 0.0000 48.9360 0.0000
# 6 0.0000 0.0000 0.0000 53.5817 0.0000 56.8666
#
#
#
# Elastic Compliance Matrix: (Units=1/GPa)
#
#
# Indices 1 2 3 4 5 6 
#
# 1 0.018368 -0.000958 -0.004881 0.000000 -0.001678 0.000000
# 2 -0.000958 0.005428 -0.000556 0.000000 -0.000794 0.000000
# 3 -0.004881 -0.000556 0.010389 0.000000 -0.003304 0.000000
# 4 0.000000 0.000000 0.000000 0.016829 0.000000 -0.015857
# 5 -0.001678 -0.000794 -0.003304 0.000000 0.022413 0.000000
# 6 0.000000 0.000000 0.000000 -0.015857 0.000000 0.032526
#
#
# Mechanical properties :
#
#
# Convention : Reuss Voigt Hill
#
# Bulk Modulus (GPa) = 46.73668 58.25941 52.49805
# Shear Modulus (GPa) = 39.72181 63.39450 51.55815
#
# Velocity S-wave (km/s) = 3.85638 4.87182 4.39353
# Velocity P-wave (km/s) = 6.10957 7.31151 6.73740
#
# Compressibility (1/GPa) = 0.02139647
#
# Stress axis : x y z
#
# Youngs Moduli (GPa) = 54.44148 184.21729 96.25647
#
# Poissons Ratio (x) = 0.17653 0.46979
# Poissons Ratio (y) = 0.05217 0.05349
# Poissons Ratio (z) = 0.26571 0.10237
#
# Static dielectric constant tensor:
#      x y z
#    x 3.075930 0.000000 -0.316400 
#    y 0.000000 2.289460 0.000000 
#    z -0.316400 0.000000 2.176400 
# 
# From -- ./inp_files/149843.got.cif
#   From: 2010.05.17/outbox.cif.g08.bks.cpg/sg12_75_cif.got.tgz:149843.got - 2010.06.03 13:09:07.
