data_PCOD9192174
_publ_section_title
;
Structure prediction by ZEFSAII (Michael W. Deem and Ramdas Pophale) SiO2 
 PCOD9192174
Probable space group: C 2/M
;
_chemical_formula_sum "Si O2"
_cell_formula_units_Z 40
_cell_length_a 28.266651
_cell_length_b 8.942268
_cell_length_c 9.266096
_cell_angle_alpha 90.000000
_cell_angle_beta 109.573059
_cell_angle_gamma 90.000000
_cell_volume 2206.830029
_symmetry_space_group_name_H-M "C 2/M"
_symmetry_group_IT_number 12
_symmetry_cell_setting 'monoclinic'
loop_
_space_group_symop_operation_xyz
x,y,z
-x,y,-z
-x,-y,-z
x,-y,z
1/2+x,1/2+y,z
1/2-x,1/2+y,-z
1/2-x,1/2-y,-z
1/2+x,1/2-y,z
loop_
_atom_site_type_symbol
_atom_site_label
_atom_site_fract_x
_atom_site_fract_y
_atom_site_fract_z
Si Si1 0.704745 0.179860 0.862328
Si Si2 0.893717 0.319845 0.054086
Si Si3 0.393983 0.677584 0.738878
Si Si4 0.204881 0.820305 0.545745
Si Si5 0.003491 0.327936 0.178979
O O1 0.652407 0.215587 0.889297
O O2 0.705211 0.249531 0.704267
O O3 0.709933 0.000000 0.860996
O O4 0.750000 0.250000 0.000000
O O5 0.896456 0.500000 0.040053
O O6 0.948508 0.271972 0.169582
O O7 0.885947 0.250697 0.887959
O O8 0.396323 0.500000 0.759405
O O9 0.347487 0.714221 0.588185
O O10 0.447173 0.735758 0.732701
O O11 0.250000 0.750000 0.500000
O O12 0.210475 0.000000 0.559245
O O13 0.010217 0.500000 0.231519
O O14 0.000000 0.326532 0.000000
#
# Coordination Sequence:
#
# PCOD9192174 Si02
#       5
#     8   8   8   8   8
#     4  11  23  39  59  82 109 142 181 225 274 325
#     4   9  19  35  55  80 109 142 180 220 263 317
#     4  10  20  33  53  82 111 140 177 222 269 315
#     4  11  24  40  57  80 110 143 182 225 272 326
#     4   8  15  30  52  77 106 141 180 218 258 312
#
# _framework density 18.125546
#
# number of rings (size 3 to 8) (size 9 to 14) (size 15 to 20)
#    0.000    2.200    0.000    4.200    0.000   11.600 
#    0.000    1.000    0.000    6.000    0.000    0.000 
#    0.000    0.000    0.000    0.000    0.000    0.000 
#
# Total GULP energy -111633.082915 kJ/mol
# GULP energy per Si atom -5581.654146 kJ/mol
# Density = 1.808429 g / cm^3
# Si number density = 18.125546 Si / 1000 Ang^3
#
#
#
# Elastic Constant Matrix: (Units=GPa)
#
#
# Indices 1 2 3 4 5 6 
#
# 1 201.3694 73.6348 103.2470 0.0000 17.6337 0.0000
# 2 73.6348 57.1076 62.4298 0.0000 11.2945 0.0000
# 3 103.2470 62.4298 127.2204 0.0000 12.0467 0.0000
# 4 0.0000 0.0000 0.0000 30.3300 0.0000 2.6080
# 5 17.6337 11.2945 12.0467 0.0000 27.7272 0.0000
# 6 0.0000 0.0000 0.0000 2.6080 0.0000 30.8109
#
#
#
# Elastic Compliance Matrix: (Units=1/GPa)
#
#
# Indices 1 2 3 4 5 6 
#
# 1 0.010283 -0.008661 -0.003973 0.000000 -0.001285 0.000000
# 2 -0.008661 0.046693 -0.015231 0.000000 -0.006894 0.000000
# 3 -0.003973 -0.015231 0.018493 0.000000 0.000697 0.000000
# 4 0.000000 0.000000 0.000000 0.033212 0.000000 -0.002811
# 5 -0.001285 -0.006894 0.000697 0.000000 0.039389 0.000000
# 6 0.000000 0.000000 0.000000 -0.002811 0.000000 0.032694
#
#
# Mechanical properties :
#
#
# Convention : Reuss Voigt Hill
#
# Bulk Modulus (GPa) = 50.66477 96.03562 73.35019
# Shear Modulus (GPa) = 20.56982 27.53266 24.05124
#
# Velocity S-wave (km/s) = 3.37241 3.90166 3.64665
# Velocity P-wave (km/s) = 6.57092 8.56714 7.63456
#
# Compressibility (1/GPa) = 0.01973758
#
# Stress axis : x y z
#
# Youngs Moduli (GPa) = 97.24998 21.41665 54.07323
#
# Poissons Ratio (x) = 0.18549 0.21485
# Poissons Ratio (y) = 0.84226 0.82362
# Poissons Ratio (z) = 0.38641 0.32621
#
# Static dielectric constant tensor:
#      x y z
#    x 1.641820 0.000000 0.015520 
#    y 0.000000 1.611190 0.000000 
#    z 0.015520 0.000000 1.589560 
# 
# From -- ./inp_files/92828.got.cif
#   From: 2010.05.17/outbox.cif.g08.bks.cpg/sg12_47_cif.got.tgz:92828.got - 2010.06.03 13:09:07.
