data_PCOD9192756
_publ_section_title
;
Structure prediction by ZEFSAII (Michael W. Deem and Ramdas Pophale) SiO2 
 PCOD9192756
Probable space group: C 2/M
;
_chemical_formula_sum "Si O2"
_cell_formula_units_Z 48
_cell_length_a 27.152527
_cell_length_b 13.628078
_cell_length_c 27.457036
_cell_angle_alpha 90.000000
_cell_angle_beta 15.946791
_cell_angle_gamma 90.000000
_cell_volume 2791.435443
_symmetry_space_group_name_H-M "C 2/M"
_symmetry_group_IT_number 12
_symmetry_cell_setting 'monoclinic'
loop_
_space_group_symop_operation_xyz
x,y,z
-x,y,-z
-x,-y,-z
x,-y,z
1/2+x,1/2+y,z
1/2-x,1/2+y,-z
1/2-x,1/2-y,-z
1/2+x,1/2-y,z
loop_
_atom_site_type_symbol
_atom_site_label
_atom_site_fract_x
_atom_site_fract_y
_atom_site_fract_z
Si Si1 0.249326 0.278449 0.557116
Si Si2 0.276767 0.611815 0.344787
Si Si3 0.150079 0.387863 0.258752
Si Si4 0.406373 0.114208 0.869718
Si Si5 0.805061 0.113142 0.209626
Si Si6 0.847813 0.745569 0.829107
O O1 0.250000 0.250000 0.500000
O O2 0.170959 0.187603 0.662970
O O3 0.458862 0.290358 0.370333
O O4 0.110919 0.367417 0.692423
O O5 0.347468 0.500000 0.283505
O O6 0.315809 0.653744 0.253760
O O7 0.060315 0.605501 0.552732
O O8 0.223929 0.500000 0.186316
O O9 0.177118 0.349865 0.288171
O O10 0.229879 0.315671 0.142505
O O11 0.381139 0.167633 0.841323
O O12 0.365824 0.000000 0.904251
O O13 0.277808 0.170928 0.029458
O O14 0.747530 0.000000 0.272981
O O15 0.000000 0.114759 0.000000
#
# Coordination Sequence:
#
# PCOD9192756 Si02
#       6
#     8   8   8   8   8   8
#     4   9  19  33  49  72  99 129 168 204 238 288
#     4   9  17  30  47  69 100 134 164 196 243 296
#     4   9  16  28  47  68  98 134 161 195 241 291
#     4  10  20  34  51  71  99 130 164 207 249 288
#     4   9  17  26  40  69 102 130 161 195 238 297
#     4   9  19  34  50  74  99 128 169 202 240 298
#
# _framework density 17.195453000000001
#
# number of rings (size 3 to 8) (size 9 to 14) (size 15 to 20)
#    0.000    2.833    0.000    1.000    2.333    6.667 
#    0.000    6.667    0.000    0.000    0.000    2.333 
#    0.000    5.333    0.000    0.000    0.000    0.000 
#
# Total GULP energy -133648.263399 kJ/mol
# GULP energy per Si atom -5568.677642 kJ/mol
# Density = 1.715632 g / cm^3
# Si number density = 17.195453 Si / 1000 Ang^3
#
#
#
# Elastic Constant Matrix: (Units=GPa)
#
#
# Indices 1 2 3 4 5 6 
#
# 1 87.4370 29.5101 7.6928 0.0003 21.3940 -0.0004
# 2 29.5101 77.4190 32.2128 0.0101 9.5222 -0.0061
# 3 7.6928 32.2128 51.4151 0.0079 12.3185 -0.0060
# 4 0.0003 0.0101 0.0079 14.6974 -0.0056 2.4142
# 5 21.3940 9.5222 12.3185 -0.0056 26.0901 0.0021
# 6 -0.0004 -0.0061 -0.0060 2.4142 0.0021 26.8268
#
#
#
# Elastic Compliance Matrix: (Units=1/GPa)
#
#
# Indices 1 2 3 4 5 6 
#
# 1 0.016565 -0.006721 0.004960 -0.000004 -0.013473 0.000001
# 2 -0.006721 0.020241 -0.012658 -0.000006 0.004101 0.000002
# 3 0.004960 -0.012658 0.029887 -0.000014 -0.013559 0.000006
# 4 -0.000004 -0.000006 -0.000014 0.069060 0.000027 -0.006215
# 5 -0.013473 0.004101 -0.013559 0.000027 0.054281 -0.000009
# 6 0.000001 0.000002 0.000006 -0.006215 -0.000009 0.037835
#
#
# Mechanical properties :
#
#
# Convention : Reuss Voigt Hill
#
# Bulk Modulus (GPa) = 26.41680 39.45583 32.93631
# Shear Modulus (GPa) = 18.56480 23.31322 20.93901
#
# Velocity S-wave (km/s) = 3.28934 3.68608 3.49335
# Velocity P-wave (km/s) = 5.46099 6.41183 5.95542
#
# Compressibility (1/GPa) = 0.03785470
#
# Stress axis : x y z
#
# Youngs Moduli (GPa) = 60.36742 49.40405 33.45967
#
# Poissons Ratio (x) = 0.33205 -0.16597
# Poissons Ratio (y) = 0.40573 0.42355
# Poissons Ratio (z) = -0.29944 0.62538
#
# Static dielectric constant tensor:
#      x y z
#    x 1.622590 -0.000020 -0.015770 
#    y -0.000020 1.562450 0.000010 
#    z -0.015770 0.000010 1.654320 
# 
# From -- ./inp_files/94307.got.cif
#   From: 2010.05.17/outbox.cif.g08.bks.cpg/sg12_48_cif.got.tgz:94307.got - 2010.06.03 13:09:07.
