data_PCOD9192008
_publ_section_title
;
Structure prediction by ZEFSAII (Michael W. Deem and Ramdas Pophale) SiO2 
 PCOD9192008
Probable space group: C 2/M
;
_chemical_formula_sum "Si O2"
_cell_formula_units_Z 56
_cell_length_a 29.740026
_cell_length_b 14.837375
_cell_length_c 8.532043
_cell_angle_alpha 90.000000
_cell_angle_beta 131.410001
_cell_angle_gamma 90.000000
_cell_volume 2823.645576
_symmetry_space_group_name_H-M "C 2/M"
_symmetry_group_IT_number 12
_symmetry_cell_setting 'monoclinic'
loop_
_space_group_symop_operation_xyz
x,y,z
-x,y,-z
-x,-y,-z
x,-y,z
1/2+x,1/2+y,z
1/2-x,1/2+y,-z
1/2-x,1/2-y,-z
1/2+x,1/2-y,z
loop_
_atom_site_type_symbol
_atom_site_label
_atom_site_fract_x
_atom_site_fract_y
_atom_site_fract_z
Si Si1 0.363872 0.813736 0.516610
Si Si2 0.647815 0.294163 0.020286
Si Si3 0.797287 0.826390 0.164876
Si Si4 0.804501 0.597378 0.879766
Si Si5 0.948936 0.257361 0.992118
Si Si6 0.751886 0.601224 0.408353
Si Si7 0.477835 0.106636 0.625159
O O1 0.338798 0.720383 0.390386
O O2 0.306789 0.875898 0.419643
O O3 0.410613 0.858281 0.504338
O O4 0.398796 0.796157 0.758959
O O5 0.655986 0.186876 0.005548
O O6 0.700152 0.326505 0.258247
O O7 0.662289 0.346407 0.893100
O O8 0.584491 0.304778 0.958921
O O9 0.752899 0.898269 0.137900
O O10 0.750000 0.750000 0.000000
O O11 0.835650 0.500000 0.968757
O O12 0.777905 0.604562 0.643332
O O13 0.980802 0.338437 0.158514
O O14 0.000000 0.214135 0.000000
O O15 0.729412 0.500000 0.327845
O O16 0.500000 0.124553 0.500000
O O17 0.480717 0.000000 0.660916
#
# Coordination Sequence:
#
# PCOD9192008 Si02
#       7
#     8   8   8   8   8   8   8
#     4  11  19  36  56  79 116 154 194 240 289 346
#     4  11  20  38  55  81 119 150 194 243 297 349
#     4  10  20  34  54  80 113 157 187 238 292 352
#     4  10  20  33  52  79 111 151 188 229 288 352
#     4  10  22  35  59  81 108 156 199 241 285 346
#     4  11  21  33  56  85 114 154 193 239 299 353
#     4  10  22  38  54  80 116 155 202 246 287 348
#
# _framework density 19.832515999999998
#
# number of rings (size 3 to 8) (size 9 to 14) (size 15 to 20)
#    0.000    1.571    4.286    2.571    0.000    4.286 
#    0.000    2.143    0.000    0.429    0.000    3.000 
#    0.000   12.571    0.000    0.000    0.000    0.000 
#
# Total GULP energy -156325.360360 kJ/mol
# GULP energy per Si atom -5583.048584 kJ/mol
# Density = 1.978738 g / cm^3
# Si number density = 19.832516 Si / 1000 Ang^3
#
#
#
# Elastic Constant Matrix: (Units=GPa)
#
#
# Indices 1 2 3 4 5 6 
#
# 1 153.3515 14.8514 1.4478 0.0000 0.4807 0.0000
# 2 14.8514 32.8461 1.0789 0.0000 5.9994 0.0000
# 3 1.4478 1.0789 46.2880 0.0000 1.8765 0.0000
# 4 0.0000 0.0000 0.0000 12.7304 0.0000 -2.1019
# 5 0.4807 5.9994 1.8765 0.0000 29.2303 0.0000
# 6 0.0000 0.0000 0.0000 -2.1019 0.0000 19.7452
#
#
#
# Elastic Compliance Matrix: (Units=1/GPa)
#
#
# Indices 1 2 3 4 5 6 
#
# 1 0.006829 -0.003183 -0.000162 0.000000 0.000551 0.000000
# 2 -0.003183 0.033125 -0.000400 0.000000 -0.006721 0.000000
# 3 -0.000162 -0.000400 0.021671 0.000000 -0.001306 0.000000
# 4 0.000000 0.000000 0.000000 0.079957 0.000000 0.008511
# 5 0.000551 -0.006721 -0.001306 0.000000 0.035665 0.000000
# 6 0.000000 0.000000 0.000000 0.008511 0.000000 0.051551
#
#
# Mechanical properties :
#
#
# Convention : Reuss Voigt Hill
#
# Bulk Modulus (GPa) = 18.47225 29.69355 24.08290
# Shear Modulus (GPa) = 19.65920 26.68169 23.17044
#
# Velocity S-wave (km/s) = 3.15185 3.67188 3.42176
# Velocity P-wave (km/s) = 4.75183 5.74296 5.27074
#
# Compressibility (1/GPa) = 0.05413525
#
# Stress axis : x y z
#
# Youngs Moduli (GPa) = 146.43344 30.18870 46.14412
#
# Poissons Ratio (x) = 0.09610 0.00746
# Poissons Ratio (y) = 0.46612 0.01846
# Poissons Ratio (z) = 0.02369 0.01208
#
# Static dielectric constant tensor:
#      x y z
#    x 1.755440 0.000000 -0.029510 
#    y 0.000000 1.672010 0.000000 
#    z -0.029510 0.000000 1.704950 
# 
# From -- ./inp_files/104460.got.cif
#   From: 2010.05.17/outbox.cif.g08.bks.cpg/sg12_53_cif.got.tgz:104460.got - 2010.06.03 13:09:07.
