data_PCOD9192735
_publ_section_title
;
Structure prediction by ZEFSAII (Michael W. Deem and Ramdas Pophale) SiO2 
 PCOD9192735
Probable space group: C 2/M
;
_chemical_formula_sum "Si O2"
_cell_formula_units_Z 64
_cell_length_a 16.185980
_cell_length_b 9.574182
_cell_length_c 19.874634
_cell_angle_alpha 90.000000
_cell_angle_beta 105.607883
_cell_angle_gamma 90.000000
_cell_volume 2966.352280
_symmetry_space_group_name_H-M "C 2/M"
_symmetry_group_IT_number 12
_symmetry_cell_setting 'monoclinic'
loop_
_space_group_symop_operation_xyz
x,y,z
-x,y,-z
-x,-y,-z
x,-y,z
1/2+x,1/2+y,z
1/2-x,1/2+y,-z
1/2-x,1/2-y,-z
1/2+x,1/2-y,z
loop_
_atom_site_type_symbol
_atom_site_label
_atom_site_fract_x
_atom_site_fract_y
_atom_site_fract_z
Si Si1 0.773785 0.330867 0.226194
Si Si2 0.667496 0.161717 0.403954
Si Si3 0.592414 0.165015 0.639551
Si Si4 0.329092 0.839136 0.097824
Si Si5 0.922456 0.832257 0.849216
Si Si6 0.539021 0.836639 0.265905
Si Si7 0.874938 0.160201 0.985310
Si Si8 0.629208 0.662179 0.523356
O O1 0.778114 0.500000 0.223658
O O2 0.817938 0.292404 0.305347
O O3 0.827895 0.280976 0.173295
O O4 0.675499 0.294512 0.193117
O O5 0.629487 0.196014 0.322614
O O6 0.626330 0.260190 0.451419
O O7 0.769762 0.170721 0.433617
O O8 0.642944 0.000000 0.412362
O O9 0.526144 0.183267 0.686250
O O10 0.578947 0.257209 0.570892
O O11 0.594550 0.000000 0.622321
O O12 0.226886 0.839854 0.056698
O O13 0.357903 0.000000 0.103798
O O14 0.378761 0.752892 0.052494
O O15 0.975922 0.753777 0.803884
O O16 0.925891 0.794953 0.929251
O O17 0.932509 0.000000 0.846973
O O18 0.536830 0.000000 0.246792
O O19 0.898025 0.000000 0.005492
O O20 0.605818 0.500000 0.513276
#
# Coordination Sequence:
#
# PCOD9192735 Si02
#       8
#     8   8   8   8   8   8   8   8
#     4   8  15  29  49  71  93 122 160 195 232 281
#     4   9  19  36  54  73  99 126 153 190 235 279
#     4  10  20  34  51  70  97 130 158 190 235 282
#     4   8  13  23  41  65  91 117 149 191 233 274
#     4   9  17  30  49  70  94 125 158 195 237 280
#     4  10  21  34  49  71  97 126 159 194 233 278
#     4   8  14  24  39  64  94 119 147 187 237 283
#     4  10  20  34  54  77  97 121 157 196 230 273
#
# _framework density 21.575320000000001
#
# number of rings (size 3 to 8) (size 9 to 14) (size 15 to 20)
#    0.000    3.000    0.000    2.625    0.000    2.500 
#    0.000    5.000    0.000    0.750    0.000    5.250 
#    0.000    0.000    0.000    0.000    0.000    0.000 
#
# Total GULP energy -178659.831557 kJ/mol
# GULP energy per Si atom -5583.119736 kJ/mol
# Density = 2.152621 g / cm^3
# Si number density = 21.575320 Si / 1000 Ang^3
#
#
#
# Elastic Constant Matrix: (Units=GPa)
#
#
# Indices 1 2 3 4 5 6 
#
# 1 69.4629 18.7059 22.4822 0.0000 -7.7038 0.0000
# 2 18.7059 73.5748 85.0487 0.0000 -28.0261 0.0000
# 3 22.4822 85.0487 153.2818 0.0000 -28.2926 0.0000
# 4 0.0000 0.0000 0.0000 35.5923 0.0000 -16.3563
# 5 -7.7038 -28.0261 -28.2926 0.0000 38.9324 0.0000
# 6 0.0000 0.0000 0.0000 -16.3563 0.0000 15.2118
#
#
#
# Elastic Compliance Matrix: (Units=1/GPa)
#
#
# Indices 1 2 3 4 5 6 
#
# 1 0.015461 -0.003486 -0.000268 0.000000 0.000355 0.000000
# 2 -0.003486 0.046496 -0.022216 0.000000 0.016636 0.000000
# 3 -0.000268 -0.022216 0.018396 0.000000 -0.002677 0.000000
# 4 0.000000 0.000000 0.000000 0.055539 0.000000 0.059718
# 5 0.000355 0.016636 -0.002677 0.000000 0.035786 0.000000
# 6 0.000000 0.000000 0.000000 0.059718 0.000000 0.129950
#
#
# Mechanical properties :
#
#
# Convention : Reuss Voigt Hill
#
# Bulk Modulus (GPa) = 35.19564 60.97701 48.08633
# Shear Modulus (GPa) = 13.77262 29.28614 21.52938
#
# Velocity S-wave (km/s) = 2.52930 3.68828 3.16234
# Velocity P-wave (km/s) = 4.98780 6.81627 5.97243
#
# Compressibility (1/GPa) = 0.02841261
#
# Stress axis : x y z
#
# Youngs Moduli (GPa) = 64.67890 21.50726 54.35990
#
# Poissons Ratio (x) = 0.07496 0.01458
# Poissons Ratio (y) = 0.22544 1.20768
# Poissons Ratio (z) = 0.01734 0.47781
#
# Static dielectric constant tensor:
#      x y z
#    x 1.897700 0.000000 0.039800 
#    y 0.000000 1.717340 0.000000 
#    z 0.039800 0.000000 1.760470 
# 
# From -- ./inp_files/314021.got.cif
#   From: 2010.05.17/outbox.cif.g08.bks.cpg/sg12_158_cif.got.tgz:314021.got - 2010.06.03 13:09:07.
