data_PCOD9192904
_publ_section_title
;
Structure prediction by ZEFSAII (Michael W. Deem and Ramdas Pophale) SiO2 
 PCOD9192904
Probable space group: C 2/M
;
_chemical_formula_sum "Si O2"
_cell_formula_units_Z 64
_cell_length_a 21.573264
_cell_length_b 8.983125
_cell_length_c 21.994559
_cell_angle_alpha 90.000000
_cell_angle_beta 121.536241
_cell_angle_gamma 90.000000
_cell_volume 3632.920458
_symmetry_space_group_name_H-M "C 2/M"
_symmetry_group_IT_number 12
_symmetry_cell_setting 'monoclinic'
loop_
_space_group_symop_operation_xyz
x,y,z
-x,y,-z
-x,-y,-z
x,-y,z
1/2+x,1/2+y,z
1/2-x,1/2+y,-z
1/2-x,1/2-y,-z
1/2+x,1/2-y,z
loop_
_atom_site_type_symbol
_atom_site_label
_atom_site_fract_x
_atom_site_fract_y
_atom_site_fract_z
Si Si1 0.591518 0.823035 0.421466
Si Si2 0.067338 0.178189 0.286322
Si Si3 0.666590 0.824958 0.584685
Si Si4 0.459100 0.332126 0.413719
Si Si5 0.305423 0.675864 0.731400
Si Si6 0.411104 0.173181 0.217817
Si Si7 0.223962 0.822971 0.801236
Si Si8 0.772880 0.673642 0.073912
O O1 0.606703 0.738435 0.367074
O O2 0.644183 0.781454 0.504751
O O3 0.510271 0.772629 0.399722
O O4 0.594359 0.000000 0.414320
O O5 0.115559 0.220439 0.252556
O O6 0.987220 0.248003 0.246256
O O7 0.063188 0.000000 0.286630
O O8 0.618309 0.733632 0.607676
O O9 0.749568 0.806910 0.646350
O O10 0.647147 0.000000 0.580601
O O11 0.500000 0.339011 0.500000
O O12 0.455339 0.500000 0.386876
O O13 0.305967 0.500000 0.747386
O O14 0.271745 0.764982 0.770081
O O15 0.357878 0.253151 0.239324
O O16 0.359912 0.180351 0.131388
O O17 0.421053 0.000000 0.239107
O O18 0.219274 0.000000 0.799497
O O19 0.256389 0.760053 0.881544
O O20 0.751978 0.500000 0.064531
O O21 0.750000 0.750000 0.000000
#
# Coordination Sequence:
#
# PCOD9192904 Si02
#       8
#     8   8   8   8   8   8   8   8
#     4  10  20  34  52  73 100 138 182 233 292 350
#     4  11  23  37  55  78 108 148 191 237 286 339
#     4   9  19  35  53  72  99 138 183 231 291 350
#     4   9  17  29  46  69  95 121 158 215 274 328
#     4  10  22  39  55  76 110 149 190 236 288 340
#     4   9  20  37  58  84 115 150 184 226 275 326
#     4  10  20  35  58  87 116 149 188 228 272 327
#     4   9  18  33  59  93 124 152 183 226 272 317
#
# _framework density 17.616679999999999
#
# number of rings (size 3 to 8) (size 9 to 14) (size 15 to 20)
#    0.750    1.625    0.000    2.625    1.750    4.000 
#    0.000    0.000    0.000    0.750    0.000    5.250 
#    0.000    0.000    0.000    0.000    0.000    0.000 
#
# Total GULP energy -178384.846517 kJ/mol
# GULP energy per Si atom -5574.526454 kJ/mol
# Density = 1.757658 g / cm^3
# Si number density = 17.616680 Si / 1000 Ang^3
#
#
#
# Elastic Constant Matrix: (Units=GPa)
#
#
# Indices 1 2 3 4 5 6 
#
# 1 118.0194 68.0030 43.4156 0.0000 -19.8737 0.0000
# 2 68.0030 108.7912 46.6225 0.0000 -11.8467 0.0000
# 3 43.4156 46.6225 83.6901 0.0000 -15.3180 0.0000
# 4 0.0000 0.0000 0.0000 28.6239 0.0000 -4.0162
# 5 -19.8737 -11.8467 -15.3180 0.0000 13.2450 0.0000
# 6 0.0000 0.0000 0.0000 -4.0162 0.0000 23.8439
#
#
#
# Elastic Compliance Matrix: (Units=1/GPa)
#
#
# Indices 1 2 3 4 5 6 
#
# 1 0.016058 -0.007862 -0.001050 0.000000 0.015849 0.000000
# 2 -0.007862 0.016079 -0.005589 0.000000 -0.003878 0.000000
# 3 -0.001050 -0.005589 0.018271 0.000000 0.014557 0.000000
# 4 0.000000 0.000000 0.000000 0.035781 0.000000 0.006027
# 5 0.015849 -0.003878 0.014557 0.000000 0.112647 0.000000
# 6 0.000000 0.000000 0.000000 0.006027 0.000000 0.042955
#
#
# Mechanical properties :
#
#
# Convention : Reuss Voigt Hill
#
# Bulk Modulus (GPa) = 46.71274 69.62030 58.16652
# Shear Modulus (GPa) = 17.99023 23.30654 20.64838
#
# Velocity S-wave (km/s) = 3.19910 3.64123 3.42730
# Velocity P-wave (km/s) = 6.34187 7.56858 6.98222
#
# Compressibility (1/GPa) = 0.02140744
#
# Stress axis : x y z
#
# Youngs Moduli (GPa) = 62.27316 62.19325 54.73070
#
# Poissons Ratio (x) = 0.48896 0.05746
# Poissons Ratio (y) = 0.48959 0.30588
# Poissons Ratio (z) = 0.06538 0.34758
#
# Static dielectric constant tensor:
#      x y z
#    x 1.588330 0.000000 0.004210 
#    y 0.000000 1.594950 0.000000 
#    z 0.004210 0.000000 1.628740 
# 
# From -- ./inp_files/320163.got.cif
#   From: 2010.05.17/outbox.cif.g08.bks.cpg/sg12_161_cif.got.tgz:320163.got - 2010.06.03 13:09:07.
