data_PCOD9192374
_publ_section_title
;
Structure prediction by ZEFSAII (Michael W. Deem and Ramdas Pophale) SiO2 
 PCOD9192374
Probable space group: C 2/M
;
_chemical_formula_sum "Si O2"
_cell_formula_units_Z 48
_cell_length_a 22.692284
_cell_length_b 10.729518
_cell_length_c 25.221266
_cell_angle_alpha 90.000000
_cell_angle_beta 155.405364
_cell_angle_gamma 90.000000
_cell_volume 2555.776433
_symmetry_space_group_name_H-M "C 2/M"
_symmetry_group_IT_number 12
_symmetry_cell_setting 'monoclinic'
loop_
_space_group_symop_operation_xyz
x,y,z
-x,y,-z
-x,-y,-z
x,-y,z
1/2+x,1/2+y,z
1/2-x,1/2+y,-z
1/2-x,1/2-y,-z
1/2+x,1/2-y,z
loop_
_atom_site_type_symbol
_atom_site_label
_atom_site_fract_x
_atom_site_fract_y
_atom_site_fract_z
Si Si1 0.473032 0.721174 0.198651
Si Si2 0.839666 0.650911 0.880617
Si Si3 0.199284 0.641796 0.032079
Si Si4 0.830247 0.855354 0.363268
Si Si5 0.231431 0.638162 0.605112
Si Si6 0.138423 0.640154 0.418056
O O1 0.353177 0.643729 0.130874
O O2 0.614496 0.649449 0.296846
O O3 0.515885 0.827912 0.276270
O O4 0.402719 0.778301 0.088670
O O5 0.839959 0.500000 0.881675
O O6 0.794695 0.690633 0.902753
O O7 0.736744 0.683137 0.747968
O O8 0.000000 0.692690 0.000000
O O9 0.145427 0.500000 0.989625
O O10 0.782687 0.754935 0.367742
O O11 0.000000 0.853953 0.500000
O O12 0.786637 0.000000 0.339254
O O13 0.219301 0.500000 0.619766
O O14 0.115966 0.646170 0.463000
O O15 0.191723 0.500000 0.450737
O O16 0.250000 0.750000 0.500000
#
# Coordination Sequence:
#
# PCOD9192374 Si02
#       6
#     8   8   8   8   8   8
#     4  10  20  34  55  82 114 151 190 231 279 347
#     4   9  18  34  56  81 110 144 187 238 288 337
#     4  10  20  33  55  83 113 149 187 235 287 335
#     4  10  22  38  59  87 113 144 195 248 288 336
#     4  10  21  37  57  82 116 153 189 230 287 350
#     4   9  19  34  53  80 112 147 185 227 275 334
#
# _framework density 18.780985000000001
#
# number of rings (size 3 to 8) (size 9 to 14) (size 15 to 20)
#    0.000    2.333    0.000    2.000    2.333    5.667 
#    0.000    0.000    0.000    5.500    0.000    0.000 
#    0.000    0.000    0.000    0.000    0.000    0.000 
#
# Total GULP energy -133678.007231 kJ/mol
# GULP energy per Si atom -5569.916968 kJ/mol
# Density = 1.873824 g / cm^3
# Si number density = 18.780985 Si / 1000 Ang^3
#
#
#
# Elastic Constant Matrix: (Units=GPa)
#
#
# Indices 1 2 3 4 5 6 
#
# 1 81.1598 38.7386 44.4821 -0.0001 -24.4184 0.0000
# 2 38.7386 100.6562 34.4841 -0.0002 -20.9999 -0.0002
# 3 44.4821 34.4841 114.3971 -0.0006 -27.3577 -0.0004
# 4 -0.0001 -0.0002 -0.0006 -9.4947 -0.0002 -4.7029
# 5 -24.4184 -20.9999 -27.3577 -0.0002 32.4720 -0.0001
# 6 0.0000 -0.0002 -0.0004 -4.7029 -0.0001 25.0682
#
#
#
# Elastic Compliance Matrix: (Units=1/GPa)
#
#
# Indices 1 2 3 4 5 6 
#
# 1 0.019069 -0.004212 -0.004217 0.000000 0.008063 0.000000
# 2 -0.004212 0.012837 -0.001257 0.000000 0.004075 0.000000
# 3 -0.004217 -0.001257 0.012282 -0.000001 0.006364 0.000000
# 4 0.000000 0.000000 -0.000001 -0.096367 -0.000001 -0.018079
# 5 0.008063 0.004075 0.006364 -0.000001 0.044855 0.000000
# 6 0.000000 0.000000 0.000000 -0.018079 0.000000 0.036499
#
#
# Mechanical properties :
#
#
# Convention : Reuss Voigt Hill
#
# Bulk Modulus (GPa) = 40.29756 59.06917 49.68336
# Shear Modulus (GPa) = 87.99801 21.50966 54.75384
#
# Velocity S-wave (km/s) = 6.85249 3.38788 5.40529
# Velocity P-wave (km/s) = 9.17125 6.84277 8.09121
#
# Compressibility (1/GPa) = 0.02481540
#
# Stress axis : x y z
#
# Youngs Moduli (GPa) = 52.44157 77.90143 81.42043
#
# Poissons Ratio (x) = 0.32812 0.34334
# Poissons Ratio (y) = 0.22089 0.10236
# Poissons Ratio (z) = 0.22114 0.09794
#
# Static dielectric constant tensor:
#      x y z
#    x 1.654000 0.000000 -0.008380 
#    y 0.000000 1.635310 0.000000 
#    z -0.008380 0.000000 1.675550 
# 
# From -- ./inp_files/321327.got.cif
#   From: 2010.05.17/outbox.cif.g08.bks.cpg/sg12_161_cif.got.tgz:321327.got - 2010.06.03 13:09:07.
