data_PCOD9192548
_publ_section_title
;
Structure prediction by ZEFSAII (Michael W. Deem and Ramdas Pophale) SiO2 
 PCOD9192548
Probable space group: C 2/M
;
_chemical_formula_sum "Si O2"
_cell_formula_units_Z 56
_cell_length_a 9.943431
_cell_length_b 30.148485
_cell_length_c 23.187740
_cell_angle_alpha 90.000000
_cell_angle_beta 154.907700
_cell_angle_gamma 90.000000
_cell_volume 2947.851726
_symmetry_space_group_name_H-M "C 2/M"
_symmetry_group_IT_number 12
_symmetry_cell_setting 'monoclinic'
loop_
_space_group_symop_operation_xyz
x,y,z
-x,y,-z
-x,-y,-z
x,-y,z
1/2+x,1/2+y,z
1/2-x,1/2+y,-z
1/2-x,1/2-y,-z
1/2+x,1/2-y,z
loop_
_atom_site_type_symbol
_atom_site_label
_atom_site_fract_x
_atom_site_fract_y
_atom_site_fract_z
Si Si1 0.593556 0.244364 0.602296
Si Si2 0.815442 0.851054 0.662888
Si Si3 0.669049 0.164305 0.334349
Si Si4 0.204054 0.948538 0.020024
Si Si5 0.765170 0.050331 0.463443
Si Si6 0.310449 0.398544 0.287037
Si Si7 0.809381 0.890577 0.783516
O O1 0.500000 0.244323 0.500000
O O2 0.777180 0.197786 0.677251
O O3 0.808142 0.288315 0.688972
O O4 0.250000 0.250000 0.500000
O O5 0.500000 0.856629 0.500000
O O6 0.866560 0.881691 0.738436
O O7 0.088608 0.864335 0.723711
O O8 0.653815 0.128596 0.278091
O O9 0.373957 0.152345 0.260813
O O10 0.000000 0.159424 0.500000
O O11 0.569277 0.936648 0.174422
O O12 0.170184 0.000000 0.987441
O O13 0.000000 0.944412 0.000000
O O14 0.088246 0.910642 0.930442
O O15 0.445917 0.070172 0.314865
O O16 0.000000 0.052170 0.500000
O O17 0.887305 0.079431 0.564220
O O18 0.733629 0.000000 0.469969
#
# Coordination Sequence:
#
# PCOD9192548 Si02
#       7
#     8   8   8   8   8   8   8
#     4  10  20  33  57  93 130 162 198 254 309 370
#     4  11  22  38  60  92 132 161 197 247 318 375
#     4  11  18  34  61  91 122 153 210 258 307 358
#     4  11  24  43  65  90 117 161 219 263 305 366
#     4  11  20  34  59  88 113 150 206 269 314 353
#     4  12  21  38  61  89 124 161 202 258 310 369
#     4  12  21  38  61  88 121 160 205 256 305 370
#
# _framework density 18.996886
#
# number of rings (size 3 to 8) (size 9 to 14) (size 15 to 20)
#    0.000    0.857    5.714    4.286    0.000    2.857 
#    0.000    4.286    0.000    5.143    0.000    0.000 
#    0.000    0.000    0.000    0.000    0.000    0.000 
#
# Total GULP energy -155931.447242 kJ/mol
# GULP energy per Si atom -5568.980259 kJ/mol
# Density = 1.895365 g / cm^3
# Si number density = 18.996886 Si / 1000 Ang^3
#
#
#
# Elastic Constant Matrix: (Units=GPa)
#
#
# Indices 1 2 3 4 5 6 
#
# 1 100.1381 20.0144 5.6795 -0.0607 -6.0302 -0.1643
# 2 20.0144 88.3015 3.7774 -0.0159 -6.5031 -0.0644
# 3 5.6795 3.7774 36.8479 -0.1261 -3.6216 -0.2892
# 4 -0.0607 -0.0159 -0.1261 25.8069 0.0236 14.4242
# 5 -6.0302 -6.5031 -3.6216 0.0236 18.2930 0.1136
# 6 -0.1643 -0.0644 -0.2892 14.4242 0.1136 56.9221
#
#
#
# Elastic Compliance Matrix: (Units=1/GPa)
#
#
# Indices 1 2 3 4 5 6 
#
# 1 0.010638 -0.002177 -0.001171 0.000007 0.002501 0.000016
# 2 -0.002177 0.012098 -0.000563 -0.000003 0.003472 -0.000002
# 3 -0.001171 -0.000563 0.027862 0.000067 0.004929 0.000111
# 4 0.000007 -0.000003 0.000067 0.045143 0.000027 -0.011439
# 5 0.002501 0.003472 0.004929 0.000027 0.057701 -0.000086
# 6 0.000016 -0.000002 0.000111 -0.011439 -0.000086 0.020467
#
#
# Mechanical properties :
#
#
# Convention : Reuss Voigt Hill
#
# Bulk Modulus (GPa) = 23.37727 31.58114 27.47921
# Shear Modulus (GPa) = 25.51137 33.25882 29.38509
#
# Velocity S-wave (km/s) = 3.66857 4.18874 3.93725
# Velocity P-wave (km/s) = 5.50246 6.32886 5.93007
#
# Compressibility (1/GPa) = 0.04277659
#
# Stress axis : x y z
#
# Youngs Moduli (GPa) = 93.99940 82.65794 35.89076
#
# Poissons Ratio (x) = 0.17995 0.04201
# Poissons Ratio (y) = 0.20464 0.02022
# Poissons Ratio (z) = 0.11003 0.04658
#
# Static dielectric constant tensor:
#      x y z
#    x 1.906430 0.000080 -0.021630 
#    y 0.000080 1.768540 -0.000020 
#    z -0.021630 -0.000020 1.628640 
# 
# From -- ./inp_files/303048.got.cif
#   From: 2010.05.17/outbox.cif.g08.bks.cpg/sg12_152_cif.got.tgz:303048.got - 2010.06.03 13:09:07.
