data_PCOD9192421
_publ_section_title
;
Structure prediction by ZEFSAII (Michael W. Deem and Ramdas Pophale) SiO2 
 PCOD9192421
Probable space group: C 2/M
;
_chemical_formula_sum "Si O2"
_cell_formula_units_Z 56
_cell_length_a 24.316782
_cell_length_b 21.044751
_cell_length_c 17.290210
_cell_angle_alpha 90.000000
_cell_angle_beta 164.085438
_cell_angle_gamma 90.000000
_cell_volume 2426.182011
_symmetry_space_group_name_H-M "C 2/M"
_symmetry_group_IT_number 12
_symmetry_cell_setting 'monoclinic'
loop_
_space_group_symop_operation_xyz
x,y,z
-x,y,-z
-x,-y,-z
x,-y,z
1/2+x,1/2+y,z
1/2-x,1/2+y,-z
1/2-x,1/2-y,-z
1/2+x,1/2-y,z
loop_
_atom_site_type_symbol
_atom_site_label
_atom_site_fract_x
_atom_site_fract_y
_atom_site_fract_z
Si Si1 0.804154 0.210304 0.148286
Si Si2 0.777158 0.266148 0.798261
Si Si3 0.574714 0.575738 0.915495
Si Si4 0.846912 0.573424 0.580456
Si Si5 0.867342 0.406975 0.892049
Si Si6 0.792767 0.870556 0.755399
Si Si7 0.399367 0.572951 0.229937
O O1 0.674898 0.236167 0.045495
O O2 0.038712 0.225191 0.474836
O O3 0.801790 0.133390 0.140563
O O4 0.750000 0.250000 0.000000
O O5 0.867629 0.330691 0.889316
O O6 0.820939 0.203519 0.809814
O O7 0.573350 0.500000 0.917629
O O8 0.351579 0.597238 0.640803
O O9 0.614790 0.590734 0.880424
O O10 0.730421 0.600578 0.190389
O O11 0.813713 0.500000 0.512772
O O12 0.863572 0.612815 0.523230
O O13 0.026084 0.574784 0.884054
O O14 0.636004 0.427641 0.572211
O O15 0.000000 0.430934 0.000000
O O16 0.000000 0.897640 0.000000
O O17 0.323424 0.500000 0.139187
#
# Coordination Sequence:
#
# PCOD9192421 Si02
#       7
#     8   8   8   8   8   8   8
#     4  10  22  41  62  80 112 158 203 253 297 346
#     4  10  23  39  57  83 112 154 204 240 300 348
#     4   9  17  32  55  85 119 156 191 231 292 356
#     4  10  20  33  55  87 123 160 188 229 294 359
#     4  11  21  36  57  91 126 156 190 237 300 365
#     4  10  20  36  56  88 120 154 193 244 291 360
#     4  10  20  36  62  90 118 157 201 247 300 357
#
# _framework density 23.081534000000001
#
# number of rings (size 3 to 8) (size 9 to 14) (size 15 to 20)
#    0.000    2.000    1.429    2.143    2.000    2.286 
#    0.000    8.571    0.000    0.000    0.000    5.000 
#    0.000    0.000    0.000    0.000    0.000    0.000 
#
# Total GULP energy -156416.163446 kJ/mol
# GULP energy per Si atom -5586.291552 kJ/mol
# Density = 2.302900 g / cm^3
# Si number density = 23.081534 Si / 1000 Ang^3
#
#
#
# Elastic Constant Matrix: (Units=GPa)
#
#
# Indices 1 2 3 4 5 6 
#
# 1 95.0757 41.7094 42.9251 0.0002 -26.7335 -0.0007
# 2 41.7094 77.6907 11.8976 -0.0003 -23.3266 0.0006
# 3 42.9251 11.8976 76.2476 0.0003 -27.4737 -0.0004
# 4 0.0002 -0.0003 0.0003 3.3308 0.0003 5.5203
# 5 -26.7335 -23.3266 -27.4737 0.0003 38.5375 -0.0007
# 6 -0.0007 0.0006 -0.0004 5.5203 -0.0007 -17.3330
#
#
#
# Elastic Compliance Matrix: (Units=1/GPa)
#
#
# Indices 1 2 3 4 5 6 
#
# 1 0.018352 -0.007995 -0.008398 0.000000 0.001905 -0.000001
# 2 -0.007995 0.019311 0.004980 0.000000 0.009694 0.000001
# 3 -0.008398 0.004980 0.021602 -0.000001 0.012589 -0.000001
# 4 0.000000 0.000000 -0.000001 0.196505 -0.000001 0.062584
# 5 0.001905 0.009694 0.012589 -0.000001 0.042113 -0.000002
# 6 -0.000001 0.000001 -0.000001 0.062584 -0.000002 -0.037762
#
#
# Mechanical properties :
#
#
# Convention : Reuss Voigt Hill
#
# Bulk Modulus (GPa) = 27.44154 49.11980 38.28067
# Shear Modulus (GPa) = 16.94375 15.07253 16.00814
#
# Velocity S-wave (km/s) = 2.71234 2.55818 2.63639
# Velocity P-wave (km/s) = 4.66088 5.48206 5.08806
#
# Compressibility (1/GPa) = 0.03644110
#
# Stress axis : x y z
#
# Youngs Moduli (GPa) = 54.48895 51.78266 46.29197
#
# Poissons Ratio (x) = 0.41399 0.38876
# Poissons Ratio (y) = 0.43562 -0.23055
# Poissons Ratio (z) = 0.45760 -0.25789
#
# Static dielectric constant tensor:
#      x y z
#    x 3.727780 0.000000 -0.487960 
#    y 0.000000 1.843870 0.000000 
#    z -0.487960 0.000000 2.026760 
# 
# From -- ./inp_files/293913.got.cif
#   From: 2010.05.17/outbox.cif.g08.bks.cpg/sg12_147_cif.got.tgz:293913.got - 2010.06.03 13:09:07.
