data_PCOD9192130
_publ_section_title
;
Structure prediction by ZEFSAII (Michael W. Deem and Ramdas Pophale) SiO2 
 PCOD9192130
Probable space group: C 2/M
;
_chemical_formula_sum "Si O2"
_cell_formula_units_Z 64
_cell_length_a 16.683684
_cell_length_b 7.776170
_cell_length_c 29.366052
_cell_angle_alpha 90.000000
_cell_angle_beta 138.058149
_cell_angle_gamma 90.000000
_cell_volume 2546.385456
_symmetry_space_group_name_H-M "C 2/M"
_symmetry_group_IT_number 12
_symmetry_cell_setting 'monoclinic'
loop_
_space_group_symop_operation_xyz
x,y,z
-x,y,-z
-x,-y,-z
x,-y,z
1/2+x,1/2+y,z
1/2-x,1/2+y,-z
1/2-x,1/2-y,-z
1/2+x,1/2-y,z
loop_
_atom_site_type_symbol
_atom_site_label
_atom_site_fract_x
_atom_site_fract_y
_atom_site_fract_z
Si Si1 0.955640 0.800287 0.413794
Si Si2 0.122751 0.700942 0.966420
Si Si3 0.373361 0.304129 0.834504
Si Si4 0.616044 0.207351 0.709996
Si Si5 0.178552 0.300220 0.085762
Si Si6 0.195471 0.710570 0.331545
Si Si7 0.786061 0.793191 0.464169
Si Si8 0.439249 0.793850 0.207436
O O1 0.965428 0.786633 0.363359
O O2 0.824453 0.726037 0.368663
O O3 0.077765 0.727243 0.486124
O O4 0.949417 0.000000 0.425039
O O5 0.126763 0.500000 0.975851
O O6 0.007131 0.734218 0.886644
O O7 0.250000 0.750000 0.000000
O O8 0.113835 0.774871 0.013911
O O9 0.375929 0.500000 0.821131
O O10 0.253024 0.222893 0.762741
O O11 0.346035 0.294531 0.877388
O O12 0.576360 0.238036 0.744850
O O13 0.615112 0.000000 0.703908
O O14 0.145449 0.500000 0.080030
O O15 0.321497 0.289600 0.136129
O O16 0.191972 0.500000 0.327542
O O17 0.199208 0.760299 0.386569
O O18 0.074591 0.767517 0.254955
O O19 0.750000 0.750000 0.500000
O O20 0.791108 0.000000 0.463784
O O21 0.430988 0.000000 0.195978
#
# Coordination Sequence:
#
# PCOD9192130 Si02
#       8
#     8   8   8   8   8   8   8   8
#     4  10  20  33  53  80 105 136 178 218 261 316
#     4  11  24  39  56  81 113 147 182 224 275 326
#     4  10  21  38  60  83 108 143 185 224 269 326
#     4   9  19  35  54  78 108 139 171 213 265 315
#     4  10  21  37  57  82 111 141 178 226 274 318
#     4   9  18  34  54  76 105 139 175 217 264 314
#     4  10  20  35  55  77 104 137 175 220 265 311
#     4   9  18  34  56  78 101 138 183 218 259 319
#
# _framework density 25.133666000000002
#
# number of rings (size 3 to 8) (size 9 to 14) (size 15 to 20)
#    0.000    2.250    0.000    3.375    0.000   10.000 
#    0.000    4.375    0.000    1.500    0.000    0.000 
#    0.000    0.000    0.000    0.000    0.000    0.000 
#
# Total GULP energy -178869.980787 kJ/mol
# GULP energy per Si atom -5589.686900 kJ/mol
# Density = 2.507646 g / cm^3
# Si number density = 25.133666 Si / 1000 Ang^3
#
#
#
# Elastic Constant Matrix: (Units=GPa)
#
#
# Indices 1 2 3 4 5 6 
#
# 1 73.7598 1.2463 10.9980 0.0000 22.5659 0.0000
# 2 1.2463 34.4615 0.1171 -0.0001 1.2763 0.0001
# 3 10.9980 0.1171 133.8647 0.0000 23.3824 0.0000
# 4 0.0000 -0.0001 0.0000 12.7092 0.0000 -4.8025
# 5 22.5659 1.2763 23.3824 0.0000 51.9861 0.0000
# 6 0.0000 0.0001 0.0000 -4.8025 0.0000 12.5815
#
#
#
# Elastic Compliance Matrix: (Units=1/GPa)
#
#
# Indices 1 2 3 4 5 6 
#
# 1 0.015639 -0.000316 -0.000109 0.000000 -0.006732 0.000000
# 2 -0.000316 0.029052 0.000110 0.000000 -0.000626 0.000000
# 3 -0.000109 0.000110 0.008108 0.000000 -0.003602 0.000000
# 4 0.000000 0.000000 0.000000 0.091945 0.000000 0.035096
# 5 -0.006732 -0.000626 -0.003602 0.000000 0.023794 0.000000
# 6 0.000000 0.000000 0.000000 0.035096 0.000000 0.092878
#
#
# Mechanical properties :
#
#
# Convention : Reuss Voigt Hill
#
# Bulk Modulus (GPa) = 19.16834 29.64541 24.40687
# Shear Modulus (GPa) = 17.89320 30.77033 24.33177
#
# Velocity S-wave (km/s) = 2.67108 3.50275 3.11480
# Velocity P-wave (km/s) = 4.14198 5.30846 4.76108
#
# Compressibility (1/GPa) = 0.05216937
#
# Stress axis : x y z
#
# Youngs Moduli (GPa) = 63.94466 34.42089 123.33016
#
# Poissons Ratio (x) = 0.01087 0.01341
# Poissons Ratio (y) = 0.02020 -0.01354
# Poissons Ratio (z) = 0.00695 -0.00378
#
# Static dielectric constant tensor:
#      x y z
#    x 2.064780 0.000000 0.015010 
#    y 0.000000 1.907830 0.000000 
#    z 0.015010 0.000000 2.001870 
# 
# From -- ./inp_files/378443.got.cif
#   From: 2010.05.17/outbox.cif.g08.bks.cpg/sg12_190_cif.got.tgz:378443.got - 2010.06.03 13:09:07.
