data_PCOD9192355
_publ_section_title
;
Structure prediction by ZEFSAII (Michael W. Deem and Ramdas Pophale) SiO2 
 PCOD9192355
Probable space group: C 2/M
;
_chemical_formula_sum "Si O2"
_cell_formula_units_Z 32
_cell_length_a 23.378841
_cell_length_b 10.742834
_cell_length_c 14.529491
_cell_angle_alpha 90.000000
_cell_angle_beta 152.037529
_cell_angle_gamma 90.000000
_cell_volume 1711.063432
_symmetry_space_group_name_H-M "C 2/M"
_symmetry_group_IT_number 12
_symmetry_cell_setting 'monoclinic'
loop_
_space_group_symop_operation_xyz
x,y,z
-x,y,-z
-x,-y,-z
x,-y,z
1/2+x,1/2+y,z
1/2-x,1/2+y,-z
1/2-x,1/2-y,-z
1/2+x,1/2-y,z
loop_
_atom_site_type_symbol
_atom_site_label
_atom_site_fract_x
_atom_site_fract_y
_atom_site_fract_z
Si Si1 0.151645 0.639883 0.129323
Si Si2 0.559603 0.227633 0.299650
Si Si3 0.936351 0.854517 0.503397
Si Si4 0.171633 0.135627 0.298238
O O1 0.139722 0.500000 0.151760
O O2 0.289370 0.651835 0.287313
O O3 0.138577 0.748111 0.186370
O O4 0.051603 0.660781 0.908694
O O5 0.528858 0.275608 0.357467
O O6 0.683056 0.146359 0.479077
O O7 0.602118 0.342562 0.295304
O O8 0.000000 0.811975 0.500000
O O9 0.968722 0.000000 0.563593
O O10 0.143643 0.000000 0.219051
#
# Coordination Sequence:
#
# PCOD9192355 Si02
#       4
#     8   8   8   8
#     4  10  21  36  56  81 108 141 178 216 265 321
#     4  10  20  33  55  79 108 142 177 216 265 315
#     4   9  19  36  55  77 107 141 179 222 265 312
#     4  10  21  35  53  81 113 141 174 217 263 316
#
# _framework density 18.701820000000001
#
# number of rings (size 3 to 8) (size 9 to 14) (size 15 to 20)
#    0.000    2.250    0.000    2.250    0.000   12.000 
#    0.000    0.000    0.000   18.750    0.000    0.000 
#    0.000    0.000    0.000    0.000    0.000    0.000 
#
# Total GULP energy -89313.277110 kJ/mol
# GULP energy per Si atom -5582.079819 kJ/mol
# Density = 1.865925 g / cm^3
# Si number density = 18.701820 Si / 1000 Ang^3
#
#
#
# Elastic Constant Matrix: (Units=GPa)
#
#
# Indices 1 2 3 4 5 6 
#
# 1 128.1601 49.8096 16.1413 0.0000 -11.9935 0.0000
# 2 49.8096 132.9114 41.3342 0.0000 -10.4992 0.0000
# 3 16.1413 41.3342 104.2036 0.0000 -12.0970 0.0000
# 4 0.0000 0.0000 0.0000 11.6960 0.0000 -9.8670
# 5 -11.9935 -10.4992 -12.0970 0.0000 19.3197 0.0000
# 6 0.0000 0.0000 0.0000 -9.8670 0.0000 14.7342
#
#
#
# Elastic Compliance Matrix: (Units=1/GPa)
#
#
# Indices 1 2 3 4 5 6 
#
# 1 0.009446 -0.003310 0.000347 0.000000 0.004283 0.000000
# 2 -0.003310 0.009878 -0.003258 0.000000 0.001274 0.000000
# 3 0.000347 -0.003258 0.011490 0.000000 0.005639 0.000000
# 4 0.000000 0.000000 0.000000 0.196524 0.000000 0.131605
# 5 0.004283 0.001274 0.005639 0.000000 0.058642 0.000000
# 6 0.000000 0.000000 0.000000 0.131605 0.000000 0.156000
#
#
# Mechanical properties :
#
#
# Convention : Reuss Voigt Hill
#
# Bulk Modulus (GPa) = 54.42858 64.42725 59.42792
# Shear Modulus (GPa) = 10.85669 26.34931 18.60300
#
# Velocity S-wave (km/s) = 2.41200 3.75763 3.15733
# Velocity P-wave (km/s) = 6.07647 7.30417 6.71842
#
# Compressibility (1/GPa) = 0.01837270
#
# Stress axis : x y z
#
# Youngs Moduli (GPa) = 105.86375 101.23706 87.03405
#
# Poissons Ratio (x) = 0.33505 -0.03018
# Poissons Ratio (y) = 0.35036 0.28353
# Poissons Ratio (z) = -0.03671 0.32980
#
# Static dielectric constant tensor:
#      x y z
#    x 1.626410 0.000000 0.002470 
#    y 0.000000 1.664730 0.000000 
#    z 0.002470 0.000000 1.669490 
# 
# From -- ./inp_files/127504.got.cif
#   From: 2010.05.17/outbox.cif.g08.bks.cpg/sg12_64_cif.got.tgz:127504.got - 2010.06.03 13:09:07.
