data_PCOD9192946
_publ_section_title
;
Structure prediction by ZEFSAII (Michael W. Deem and Ramdas Pophale) SiO2 
 PCOD9192946
Probable space group: C 2/M
;
_chemical_formula_sum "Si O2"
_cell_formula_units_Z 56
_cell_length_a 19.262141
_cell_length_b 7.773617
_cell_length_c 30.145682
_cell_angle_alpha 90.000000
_cell_angle_beta 142.336751
_cell_angle_gamma 90.000000
_cell_volume 2758.086054
_symmetry_space_group_name_H-M "C 2/M"
_symmetry_group_IT_number 12
_symmetry_cell_setting 'monoclinic'
loop_
_space_group_symop_operation_xyz
x,y,z
-x,y,-z
-x,-y,-z
x,-y,z
1/2+x,1/2+y,z
1/2-x,1/2+y,-z
1/2-x,1/2-y,-z
1/2+x,1/2-y,z
loop_
_atom_site_type_symbol
_atom_site_label
_atom_site_fract_x
_atom_site_fract_y
_atom_site_fract_z
Si Si1 0.760699 0.796959 0.865937
Si Si2 0.047696 0.705652 0.703353
Si Si3 0.368951 0.710608 0.431401
Si Si4 0.293680 0.291804 0.296582
Si Si5 0.083218 0.298392 0.133212
Si Si6 0.328763 0.794508 0.998453
Si Si7 0.791790 0.707458 0.570327
O O1 0.640704 0.729525 0.785937
O O2 0.861188 0.716657 0.887350
O O3 0.764981 0.000000 0.858876
O O4 0.777697 0.769256 0.926302
O O5 0.040660 0.500000 0.705492
O O6 0.102764 0.741659 0.683260
O O7 0.920113 0.773918 0.642415
O O8 0.500000 0.765343 0.500000
O O9 0.368993 0.500000 0.431741
O O10 0.314437 0.765675 0.357152
O O11 0.295299 0.769298 0.436102
O O12 0.289456 0.500000 0.294510
O O13 0.177713 0.226226 0.214909
O O14 0.072658 0.500000 0.138890
O O15 0.956824 0.224302 0.069889
O O16 0.336110 0.000000 0.998472
O O17 0.250000 0.750000 0.000000
O O18 0.795007 0.500000 0.575392
O O19 0.750000 0.750000 0.500000
#
# Coordination Sequence:
#
# PCOD9192946 Si02
#       7
#     8   8   8   8   8   8   8
#     4  10  20  35  56  79 104 137 175 214 262 320
#     4   9  19  34  52  76 105 134 164 206 259 310
#     4   9  17  29  48  74  99 126 164 207 246 290
#     4   9  17  32  55  77  98 130 170 209 251 303
#     4   9  19  35  55  78 103 134 173 216 260 311
#     4  11  23  37  53  76 107 140 177 221 266 311
#     4  10  20  34  52  74 102 135 171 211 256 304
#
# _framework density 20.303936
#
# number of rings (size 3 to 8) (size 9 to 14) (size 15 to 20)
#    0.000    2.429    0.000    2.143    0.000    6.286 
#    0.000    5.000    0.000    2.571    0.000    0.000 
#    0.000    0.000    0.000    0.000    0.000    0.000 
#
# Total GULP energy -156314.501692 kJ/mol
# GULP energy per Si atom -5582.660775 kJ/mol
# Density = 2.025772 g / cm^3
# Si number density = 20.303936 Si / 1000 Ang^3
#
#
#
# Elastic Constant Matrix: (Units=GPa)
#
#
# Indices 1 2 3 4 5 6 
#
# 1 178.8246 -11.0711 130.1126 0.0000 10.8908 0.0000
# 2 -11.0711 25.9618 -2.2269 0.0000 8.4724 -0.0001
# 3 130.1126 -2.2269 148.3397 0.0000 5.0626 0.0001
# 4 0.0000 0.0000 0.0000 16.1119 0.0000 -4.2502
# 5 10.8908 8.4724 5.0626 0.0000 38.8055 0.0000
# 6 0.0000 -0.0001 0.0001 -4.2502 0.0000 22.9794
#
#
#
# Elastic Compliance Matrix: (Units=1/GPa)
#
#
# Indices 1 2 3 4 5 6 
#
# 1 0.016950 0.007436 -0.014603 0.000000 -0.004476 0.000000
# 2 0.007436 0.044865 -0.005468 0.000000 -0.011169 0.000000
# 3 -0.014603 -0.005468 0.019374 0.000000 0.002765 0.000000
# 4 0.000000 0.000000 0.000000 0.065249 0.000000 0.012068
# 5 -0.004476 -0.011169 0.002765 0.000000 0.029103 0.000000
# 6 0.000000 0.000000 0.000000 0.012068 0.000000 0.045749
#
#
# Mechanical properties :
#
#
# Convention : Reuss Voigt Hill
#
# Bulk Modulus (GPa) = 17.88282 65.19504 41.53893
# Shear Modulus (GPa) = 18.85365 31.33344 25.09354
#
# Velocity S-wave (km/s) = 3.05055 3.93265 3.51934
# Velocity P-wave (km/s) = 4.60809 7.26637 6.08419
#
# Compressibility (1/GPa) = 0.05591959
#
# Stress axis : x y z
#
# Youngs Moduli (GPa) = 58.99617 22.28902 51.61650
#
# Poissons Ratio (x) = -0.16575 0.75376
# Poissons Ratio (y) = -0.43871 0.28223
# Poissons Ratio (z) = 0.86153 0.12187
#
# Static dielectric constant tensor:
#      x y z
#    x 1.642960 0.000000 0.043530 
#    y 0.000000 1.753610 0.000000 
#    z 0.043530 0.000000 1.719520 
# 
# From -- ./inp_files/342239.got.cif
#   From: 2010.05.17/outbox.cif.g08.bks.cpg/sg12_172_cif.got.tgz:342239.got - 2010.06.03 13:09:07.
