data_PCOD9192579
_publ_section_title
;
Structure prediction by ZEFSAII (Michael W. Deem and Ramdas Pophale) SiO2 
 PCOD9192579
Probable space group: C 2/M
;
_chemical_formula_sum "Si O2"
_cell_formula_units_Z 44
_cell_length_a 25.605091
_cell_length_b 11.022859
_cell_length_c 11.217369
_cell_angle_alpha 90.000000
_cell_angle_beta 136.946775
_cell_angle_gamma 90.000000
_cell_volume 2161.360174
_symmetry_space_group_name_H-M "C 2/M"
_symmetry_group_IT_number 12
_symmetry_cell_setting 'monoclinic'
loop_
_space_group_symop_operation_xyz
x,y,z
-x,y,-z
-x,-y,-z
x,-y,z
1/2+x,1/2+y,z
1/2-x,1/2+y,-z
1/2-x,1/2-y,-z
1/2+x,1/2-y,z
loop_
_atom_site_type_symbol
_atom_site_label
_atom_site_fract_x
_atom_site_fract_y
_atom_site_fract_z
Si Si1 0.465019 0.000000 0.603231
Si Si2 0.648726 0.269391 0.442519
Si Si3 0.750371 0.000000 0.340550
Si Si4 0.831515 0.500000 0.540749
Si Si5 0.481002 0.642148 0.249233
Si Si6 0.419074 0.739970 0.922059
Si Si7 0.402440 0.000000 0.009621
Si Si8 0.500000 0.792236 0.500000
O O1 0.421867 0.000000 0.657939
O O2 0.449602 0.115471 0.494876
O O3 0.552947 0.000000 0.791524
O O4 0.698981 0.379804 0.572842
O O5 0.684428 0.137127 0.532925
O O6 0.561560 0.295075 0.342183
O O7 0.641416 0.275063 0.285143
O O8 0.688932 0.000000 0.132874
O O9 0.700730 0.000000 0.380202
O O10 0.494525 0.500000 0.286559
O O11 0.458975 0.706932 0.335698
O O12 0.417430 0.664671 0.041357
O O13 0.422987 0.878974 0.971022
O O14 0.500000 0.703803 0.000000
#
# Coordination Sequence:
#
# PCOD9192579 Si02
#       8
#     4   8   4   4   8   8   4   4
#     4  11  22  37  64  94 111 150 205 273 301 341
#     4  11  22  40  56  94 129 163 199 237 300 374
#     4  12  26  35  63  89 128 175 195 237 298 376
#     4  12  21  39  61  87 126 158 199 251 302 358
#     4  11  22  37  61  91 125 158 193 258 312 358
#     4  10  20  33  59  87 123 153 194 247 308 359
#     4  12  20  36  57  87 124 152 201 250 299 357
#     4  11  21  38  62  94 115 147 206 258 320 348
#
# _framework density 20.35755
#
# number of rings (size 3 to 8) (size 9 to 14) (size 15 to 20)
#    0.000    0.909    6.364    2.182    1.273    1.091 
#    0.000    0.000    0.000    1.091    9.455    0.000 
#    0.000    0.000    0.000    0.000    0.000    0.000 
#
# Total GULP energy -122544.668038 kJ/mol
# GULP energy per Si atom -5570.212184 kJ/mol
# Density = 2.031122 g / cm^3
# Si number density = 20.357550 Si / 1000 Ang^3
#
#
#
# Elastic Constant Matrix: (Units=GPa)
#
#
# Indices 1 2 3 4 5 6 
#
# 1 33.0855 10.1189 24.0689 0.0000 -2.7704 0.0000
# 2 10.1189 139.9875 24.4807 0.0000 -11.1563 0.0000
# 3 24.0689 24.4807 77.6690 0.0000 -15.8675 0.0000
# 4 0.0000 0.0000 0.0000 9.0350 0.0000 3.9343
# 5 -2.7704 -11.1563 -15.8675 0.0000 22.5812 0.0000
# 6 0.0000 0.0000 0.0000 3.9343 0.0000 11.4263
#
#
#
# Elastic Compliance Matrix: (Units=1/GPa)
#
#
# Indices 1 2 3 4 5 6 
#
# 1 0.039511 -0.000975 -0.012896 0.000000 -0.004696 0.000000
# 2 -0.000975 0.007698 -0.001602 0.000000 0.002558 0.000000
# 3 -0.012896 -0.001602 0.019723 0.000000 0.011486 0.000000
# 4 0.000000 0.000000 0.000000 0.130203 0.000000 -0.044831
# 5 -0.004696 0.002558 0.011486 0.000000 0.053043 0.000000
# 6 0.000000 0.000000 0.000000 -0.044831 0.000000 0.102953
#
#
# Mechanical properties :
#
#
# Convention : Reuss Voigt Hill
#
# Bulk Modulus (GPa) = 27.78830 40.89765 34.34298
# Shear Modulus (GPa) = 12.62394 21.41340 17.01867
#
# Velocity S-wave (km/s) = 2.49290 3.24677 2.89448
# Velocity P-wave (km/s) = 4.68677 5.84710 5.29879
#
# Compressibility (1/GPa) = 0.03598636
#
# Stress axis : x y z
#
# Youngs Moduli (GPa) = 25.30918 129.90517 50.70260
#
# Poissons Ratio (x) = 0.12666 0.65388
# Poissons Ratio (y) = 0.02468 0.08120
# Poissons Ratio (z) = 0.32639 0.20805
#
# Static dielectric constant tensor:
#      x y z
#    x 1.756620 0.000000 -0.003420 
#    y 0.000000 1.760520 0.000000 
#    z -0.003420 0.000000 1.750050 
# 
# From -- ./inp_files/188503.got.cif
#   From: 2010.05.17/outbox.cif.g08.bks.cpg/sg12_95_cif.got.tgz:188503.got - 2010.06.03 13:09:07.
