data_PCOD9192715
_publ_section_title
;
Structure prediction by ZEFSAII (Michael W. Deem and Ramdas Pophale) SiO2 
 PCOD9192715
Probable space group: C 2/M
;
_chemical_formula_sum "Si O2"
_cell_formula_units_Z 44
_cell_length_a 13.462951
_cell_length_b 7.250594
_cell_length_c 15.750393
_cell_angle_alpha 90.000000
_cell_angle_beta 95.101601
_cell_angle_gamma 90.000000
_cell_volume 1531.374489
_symmetry_space_group_name_H-M "C 2/M"
_symmetry_group_IT_number 12
_symmetry_cell_setting 'monoclinic'
loop_
_space_group_symop_operation_xyz
x,y,z
-x,y,-z
-x,-y,-z
x,-y,z
1/2+x,1/2+y,z
1/2-x,1/2+y,-z
1/2-x,1/2-y,-z
1/2+x,1/2-y,z
loop_
_atom_site_type_symbol
_atom_site_label
_atom_site_fract_x
_atom_site_fract_y
_atom_site_fract_z
Si Si1 0.131291 0.718641 0.978959
Si Si2 0.880350 0.000000 0.700767
Si Si3 0.675065 0.774268 0.800020
Si Si4 0.406692 0.208455 0.840132
Si Si5 0.864008 0.279668 0.568704
Si Si6 0.097442 0.722247 0.612340
O O1 0.114968 0.500000 0.980229
O O2 0.113187 0.776583 0.880132
O O3 0.250000 0.750000 0.000000
O O4 0.080333 0.782804 0.062550
O O5 0.930321 0.159397 0.765024
O O6 0.819880 0.159078 0.640172
O O7 0.785796 0.701004 0.823014
O O8 0.633841 0.713735 0.706393
O O9 0.685684 0.000000 0.798651
O O10 0.445654 0.000000 0.832245
O O11 0.855735 0.500000 0.577579
O O12 0.845292 0.221238 0.469610
O O13 0.981639 0.222697 0.591090
O O14 0.095079 0.500000 0.611182
#
# Coordination Sequence:
#
# PCOD9192715 Si02
#       6
#     8   4   8   8   8   8
#     4   8  15  26  48  76 102 132 170 212 259 309
#     4  12  22  35  56  73 110 147 184 205 248 333
#     4   9  15  31  57  82 106 132 168 222 273 307
#     4  10  20  34  50  77 109 143 174 207 260 317
#     4   9  19  37  57  80 101 138 179 220 264 303
#     4   8  16  33  60  82 104 128 176 232 265 302
#
# _framework density 28.732357
#
# number of rings (size 3 to 8) (size 9 to 14) (size 15 to 20)
#    0.000    2.909    0.909    1.636    1.273    1.455 
#    3.273    0.909    0.000    2.182    0.000    6.364 
#    0.000    0.000    0.000    0.000    0.000    0.000 
#
# Total GULP energy -122794.823714 kJ/mol
# GULP energy per Si atom -5581.582896 kJ/mol
# Density = 2.866696 g / cm^3
# Si number density = 28.732357 Si / 1000 Ang^3
#
#
#
# Elastic Constant Matrix: (Units=GPa)
#
#
# Indices 1 2 3 4 5 6 
#
# 1 88.5362 10.3228 41.9515 0.0000 -6.1689 0.0000
# 2 10.3228 178.3520 67.6811 0.0000 1.1959 0.0000
# 3 41.9515 67.6811 313.9177 0.0000 31.7156 0.0000
# 4 0.0000 0.0000 0.0000 25.7537 0.0000 -53.8724
# 5 -6.1689 1.1959 31.7156 0.0000 64.3758 0.0000
# 6 0.0000 0.0000 0.0000 -53.8724 0.0000 175.2531
#
#
#
# Elastic Compliance Matrix: (Units=1/GPa)
#
#
# Indices 1 2 3 4 5 6 
#
# 1 0.012322 -0.000024 -0.001853 0.000000 0.002094 0.000000
# 2 -0.000024 0.006126 -0.001374 0.000000 0.000561 0.000000
# 3 -0.001853 -0.001374 0.003941 0.000000 -0.002094 0.000000
# 4 0.000000 0.000000 0.000000 0.108773 0.000000 0.033437
# 5 0.002094 0.000561 -0.002094 0.000000 0.016755 0.000000
# 6 0.000000 0.000000 0.000000 0.033437 0.000000 0.015984
#
#
# Mechanical properties :
#
#
# Convention : Reuss Voigt Hill
#
# Bulk Modulus (GPa) = 62.94847 91.19075 77.06961
# Shear Modulus (GPa) = 28.45762 83.79987 56.12875
#
# Velocity S-wave (km/s) = 3.15054 5.40638 4.42464
# Velocity P-wave (km/s) = 5.93217 8.41302 7.27906
#
# Compressibility (1/GPa) = 0.01588601
#
# Stress axis : x y z
#
# Youngs Moduli (GPa) = 81.15857 163.23825 253.74296
#
# Poissons Ratio (x) = 0.00392 0.47019
# Poissons Ratio (y) = 0.00195 0.34870
# Poissons Ratio (z) = 0.15039 0.22433
#
# Static dielectric constant tensor:
#      x y z
#    x 2.515500 0.000000 -0.091000 
#    y 0.000000 2.005530 0.000000 
#    z -0.091000 0.000000 2.283300 
# 
# From -- ./inp_files/229395.got.cif
#   From: 2010.05.17/outbox.cif.g08.bks.cpg/sg12_115_cif.got.tgz:229395.got - 2010.06.03 13:09:07.
