data_PCOD9192672
_publ_section_title
;
Structure prediction by ZEFSAII (Michael W. Deem and Ramdas Pophale) SiO2 
 PCOD9192672
Probable space group: C 2/M
;
_chemical_formula_sum "Si O2"
_cell_formula_units_Z 56
_cell_length_a 19.068173
_cell_length_b 15.074409
_cell_length_c 9.783681
_cell_angle_alpha 90.000000
_cell_angle_beta 76.911536
_cell_angle_gamma 90.000000
_cell_volume 2739.177916
_symmetry_space_group_name_H-M "C 2/M"
_symmetry_group_IT_number 12
_symmetry_cell_setting 'monoclinic'
loop_
_space_group_symop_operation_xyz
x,y,z
-x,y,-z
-x,-y,-z
x,-y,z
1/2+x,1/2+y,z
1/2-x,1/2+y,-z
1/2-x,1/2-y,-z
1/2+x,1/2-y,z
loop_
_atom_site_type_symbol
_atom_site_label
_atom_site_fract_x
_atom_site_fract_y
_atom_site_fract_z
Si Si1 0.706918 0.392267 0.328730
Si Si2 0.952873 0.139170 0.638465
Si Si3 0.227275 0.108618 0.006340
Si Si4 0.006798 0.336265 0.652652
Si Si5 0.644456 0.894028 0.239905
Si Si6 0.569316 0.399107 0.040303
Si Si7 0.840174 0.607455 0.452551
O O1 0.697803 0.500000 0.340120
O O2 0.628136 0.350910 0.381758
O O3 0.732655 0.370368 0.164017
O O4 0.766967 0.365267 0.410572
O O5 0.992219 0.232131 0.649283
O O6 0.944256 0.096483 0.791032
O O7 0.000000 0.094562 0.500000
O O8 0.149004 0.140651 0.988112
O O9 0.225473 0.000000 0.999826
O O10 0.294421 0.141245 0.888353
O O11 0.937774 0.372518 0.763495
O O12 0.911973 0.358692 0.344298
O O13 0.000000 0.374242 0.500000
O O14 0.657533 0.862927 0.390066
O O15 0.651304 0.000000 0.238720
O O16 0.573563 0.500000 0.983316
O O17 0.500000 0.355463 0.000000
O O18 0.842938 0.500000 0.449515
#
# Coordination Sequence:
#
# PCOD9192672 Si02
#       7
#     8   8   8   8   8   8   8
#     4   9  18  33  51  72  99 127 159 204 253 295
#     4  10  20  34  50  71 101 135 166 199 246 302
#     4   8  15  29  47  68  95 123 153 196 250 297
#     4   9  18  33  49  71 102 132 163 202 250 294
#     4   9  16  29  51  73  93 125 168 206 242 293
#     4   9  18  33  51  70  96 129 164 206 250 290
#     4   9  17  31  53  77  98 125 166 212 250 288
#
# _framework density 20.444091
#
# number of rings (size 3 to 8) (size 9 to 14) (size 15 to 20)
#    0.000    3.000    0.000    1.714    0.000    4.000 
#    0.000   15.714    0.000    3.429    0.000    0.000 
#    0.000    0.000    0.000    0.000    0.000    0.000 
#
# Total GULP energy -156048.182300 kJ/mol
# GULP energy per Si atom -5573.149368 kJ/mol
# Density = 2.039756 g / cm^3
# Si number density = 20.444091 Si / 1000 Ang^3
#
#
#
# Elastic Constant Matrix: (Units=GPa)
#
#
# Indices 1 2 3 4 5 6 
#
# 1 132.0322 13.6727 59.1357 0.0000 -18.5620 0.0000
# 2 13.6727 36.9365 5.8827 0.0000 -2.2809 0.0000
# 3 59.1357 5.8827 63.3158 0.0000 -31.3918 0.0000
# 4 0.0000 0.0000 0.0000 21.8537 0.0000 -25.5600
# 5 -18.5620 -2.2809 -31.3918 0.0000 39.2424 0.0000
# 6 0.0000 0.0000 0.0000 -25.5600 0.0000 51.3341
#
#
#
# Elastic Compliance Matrix: (Units=1/GPa)
#
#
# Indices 1 2 3 4 5 6 
#
# 1 0.014245 -0.003090 -0.016185 0.000000 -0.006389 0.000000
# 2 -0.003090 0.028163 0.000590 0.000000 0.000648 0.000000
# 3 -0.016185 0.000590 0.044874 0.000000 0.028276 0.000000
# 4 0.000000 0.000000 0.000000 0.109565 0.000000 0.054554
# 5 -0.006389 0.000648 0.028276 0.000000 0.045118 0.000000
# 6 0.000000 0.000000 0.000000 0.054554 0.000000 0.046644
#
#
# Mechanical properties :
#
#
# Convention : Reuss Voigt Hill
#
# Bulk Modulus (GPa) = 20.03458 43.29630 31.66544
# Shear Modulus (GPa) = 14.59367 32.72561 23.65964
#
# Velocity S-wave (km/s) = 2.67466 4.00526 3.40558
# Velocity P-wave (km/s) = 4.39993 6.52789 5.56654
#
# Compressibility (1/GPa) = 0.04991369
#
# Stress axis : x y z
#
# Youngs Moduli (GPa) = 70.20208 35.50728 22.28456
#
# Poissons Ratio (x) = 0.10971 0.36066
# Poissons Ratio (y) = 0.21691 -0.01315
# Poissons Ratio (z) = 1.13619 -0.02095
#
# Static dielectric constant tensor:
#      x y z
#    x 1.745960 0.000000 -0.011340 
#    y 0.000000 1.777090 0.000000 
#    z -0.011340 0.000000 1.727810 
# 
# From -- ./inp_files/88758.got.cif
#   From: 2010.05.17/outbox.cif.g08.bks.cpg/sg12_45_cif.got.tgz:88758.got - 2010.06.03 13:09:07.
