data_PCOD9192831
_publ_section_title
;
Structure prediction by ZEFSAII (Michael W. Deem and Ramdas Pophale) SiO2 
 PCOD9192831
Probable space group: C 2/M
;
_chemical_formula_sum "Si O2"
_cell_formula_units_Z 64
_cell_length_a 20.675024
_cell_length_b 8.641995
_cell_length_c 22.386881
_cell_angle_alpha 90.000000
_cell_angle_beta 111.475338
_cell_angle_gamma 90.000000
_cell_volume 3722.246369
_symmetry_space_group_name_H-M "C 2/M"
_symmetry_group_IT_number 12
_symmetry_cell_setting 'monoclinic'
loop_
_space_group_symop_operation_xyz
x,y,z
-x,y,-z
-x,-y,-z
x,-y,z
1/2+x,1/2+y,z
1/2-x,1/2+y,-z
1/2-x,1/2-y,-z
1/2+x,1/2-y,z
loop_
_atom_site_type_symbol
_atom_site_label
_atom_site_fract_x
_atom_site_fract_y
_atom_site_fract_z
Si Si1 0.531956 0.311797 0.447009
Si Si2 0.077707 0.313531 0.043720
Si Si3 0.527878 0.322250 0.693435
Si Si4 0.673547 0.185513 0.965133
Si Si5 0.178208 0.683028 0.450667
Si Si6 0.425920 0.687885 0.167299
Si Si7 0.078891 0.186761 0.173295
Si Si8 0.868055 0.821867 0.685648
O O1 0.500000 0.268323 0.500000
O O2 0.534200 0.500000 0.444378
O O3 0.482493 0.253833 0.375893
O O4 0.609924 0.253161 0.460302
O O5 0.077394 0.500000 0.047317
O O6 0.097956 0.247995 0.114917
O O7 0.128072 0.266507 0.007236
O O8 0.000000 0.261809 0.000000
O O9 0.551235 0.500000 0.693370
O O10 0.572267 0.255221 0.763186
O O11 0.449083 0.326001 0.692650
O O12 0.636251 0.250047 0.893552
O O13 0.674277 0.000000 0.962693
O O14 0.750000 0.250000 0.000000
O O15 0.177126 0.500000 0.457698
O O16 0.250000 0.750000 0.500000
O O17 0.170930 0.726357 0.378094
O O18 0.424817 0.500000 0.168035
O O19 0.499371 0.734896 0.161607
O O20 0.127963 0.237257 0.245020
O O21 0.079925 0.000000 0.174127
O O22 0.843228 0.000000 0.676206
#
# Coordination Sequence:
#
# PCOD9192831 Si02
#       8
#     8   8   8   8   8   8   8   8
#     4   9  17  32  55  80 107 138 172 212 259 308
#     4  10  20  34  51  75 105 132 163 210 259 298
#     4   7  12  25  47  74 101 128 162 203 246 298
#     4  11  23  37  52  71  99 134 170 209 253 303
#     4  11  21  33  52  77 106 141 179 216 256 306
#     4   9  16  29  50  75 101 130 165 204 250 301
#     4   9  17  29  52  81 105 130 164 210 256 302
#     4   8  15  30  49  74 105 133 166 209 257 303
#
# _framework density 17.193918
#
# number of rings (size 3 to 8) (size 9 to 14) (size 15 to 20)
#    0.000    2.750    1.250    3.750    0.000    2.000 
#    0.000    5.000    2.750    0.000    0.000    0.000 
#    0.000    0.000    0.000    0.000    0.000    0.000 
#
# Total GULP energy -178235.783622 kJ/mol
# GULP energy per Si atom -5569.868238 kJ/mol
# Density = 1.715478 g / cm^3
# Si number density = 17.193918 Si / 1000 Ang^3
#
#
#
# Elastic Constant Matrix: (Units=GPa)
#
#
# Indices 1 2 3 4 5 6 
#
# 1 78.6334 22.8651 75.5323 0.0000 -1.7036 0.0000
# 2 22.8651 28.6128 36.5608 0.0000 1.1059 0.0000
# 3 75.5323 36.5608 195.6548 0.0000 -9.5527 0.0000
# 4 0.0000 0.0000 0.0000 26.2610 0.0000 0.9879
# 5 -1.7036 1.1059 -9.5527 0.0000 27.6933 0.0000
# 6 0.0000 0.0000 0.0000 0.9879 0.0000 19.1027
#
#
#
# Elastic Compliance Matrix: (Units=1/GPa)
#
#
# Indices 1 2 3 4 5 6 
#
# 1 0.021771 -0.008658 -0.006819 0.000000 -0.000667 0.000000
# 2 -0.008658 0.050011 -0.006231 0.000000 -0.004679 0.000000
# 3 -0.006819 -0.006231 0.009052 0.000000 0.002952 0.000000
# 4 0.000000 0.000000 0.000000 0.038153 0.000000 -0.001973
# 5 -0.000667 -0.004679 0.002952 0.000000 0.037274 0.000000
# 6 0.000000 0.000000 0.000000 -0.001973 0.000000 0.052451
#
#
# Mechanical properties :
#
#
# Convention : Reuss Voigt Hill
#
# Bulk Modulus (GPa) = 26.72595 63.64637 45.18616
# Shear Modulus (GPa) = 18.89631 25.80760 22.35195
#
# Velocity S-wave (km/s) = 3.31873 3.87844 3.60945
# Velocity P-wave (km/s) = 5.50117 7.56000 6.61122
#
# Compressibility (1/GPa) = 0.03741681
#
# Stress axis : x y z
#
# Youngs Moduli (GPa) = 45.93327 19.99543 110.47128
#
# Poissons Ratio (x) = 0.17312 0.75333
# Poissons Ratio (y) = 0.39770 0.68838
# Poissons Ratio (z) = 0.31323 0.12460
#
# Static dielectric constant tensor:
#      x y z
#    x 1.556370 0.000000 -0.017550 
#    y 0.000000 1.587390 0.000000 
#    z -0.017550 0.000000 1.616840 
# 
# From -- ./inp_files/345592.got.cif
#   From: 2010.05.17/outbox.cif.g08.bks.cpg/sg12_173_cif.got.tgz:345592.got - 2010.06.03 13:09:07.
