data_PCOD9192727
_publ_section_title
;
Structure prediction by ZEFSAII (Michael W. Deem and Ramdas Pophale) SiO2 
 PCOD9192727
Probable space group: C 2/M
;
_chemical_formula_sum "Si O2"
_cell_formula_units_Z 48
_cell_length_a 28.977603
_cell_length_b 13.189908
_cell_length_c 13.347105
_cell_angle_alpha 90.000000
_cell_angle_beta 150.161686
_cell_angle_gamma 90.000000
_cell_volume 2538.233879
_symmetry_space_group_name_H-M "C 2/M"
_symmetry_group_IT_number 12
_symmetry_cell_setting 'monoclinic'
loop_
_space_group_symop_operation_xyz
x,y,z
-x,y,-z
-x,-y,-z
x,-y,z
1/2+x,1/2+y,z
1/2-x,1/2+y,-z
1/2-x,1/2-y,-z
1/2+x,1/2-y,z
loop_
_atom_site_type_symbol
_atom_site_label
_atom_site_fract_x
_atom_site_fract_y
_atom_site_fract_z
Si Si1 0.809899 0.621225 0.399443
Si Si2 0.588114 0.382435 0.737696
Si Si3 0.742222 0.886070 0.068826
Si Si4 0.989059 0.381789 0.860417
Si Si5 0.635227 0.255019 0.016782
Si Si6 0.087264 0.384984 0.607352
O O1 0.794471 0.500000 0.360403
O O2 0.710518 0.675839 0.216804
O O3 0.866247 0.656532 0.405638
O O4 0.883183 0.638810 0.626477
O O5 0.500000 0.384853 0.500000
O O6 0.612507 0.500000 0.808373
O O7 0.669937 0.338989 0.821993
O O8 0.585463 0.321268 0.836030
O O9 0.698917 0.825178 0.077576
O O10 0.768063 0.000000 0.150163
O O11 0.665411 0.893534 0.837998
O O12 0.008659 0.500000 0.868594
O O13 0.059875 0.305732 0.939209
O O14 0.000000 0.373162 0.000000
O O15 0.055587 0.500000 0.518615
O O16 0.000000 0.335732 0.500000
#
# Coordination Sequence:
#
# PCOD9192727 Si02
#       6
#     8   8   8   8   8   8
#     4  10  21  38  60  85 115 154 195 243 298 351
#     4  10  22  37  53  80 126 168 190 222 279 344
#     4  10  20  34  50  82 123 154 188 229 276 339
#     4  10  24  45  64  85 115 149 192 254 318 360
#     4  12  22  34  63  89 113 151 206 242 286 348
#     4   9  16  28  48  76 112 150 187 225 270 330
#
# _framework density 18.910786999999999
#
# number of rings (size 3 to 8) (size 9 to 14) (size 15 to 20)
#    0.000    1.833    1.667    2.500    2.333    4.000 
#    0.000    0.000    0.000    2.500    0.000    0.000 
#    0.000    0.000    0.000    0.000    0.000    0.000 
#
# Total GULP energy -134003.460153 kJ/mol
# GULP energy per Si atom -5583.477506 kJ/mol
# Density = 1.886774 g / cm^3
# Si number density = 18.910787 Si / 1000 Ang^3
#
#
#
# Elastic Constant Matrix: (Units=GPa)
#
#
# Indices 1 2 3 4 5 6 
#
# 1 60.3749 41.2297 43.3237 0.0000 1.6304 0.0000
# 2 41.2297 99.6528 34.6000 0.0000 -6.4005 0.0000
# 3 43.3237 34.6000 132.2024 0.0000 3.2798 0.0000
# 4 0.0000 0.0000 0.0000 30.2197 0.0000 5.3255
# 5 1.6304 -6.4005 3.2798 0.0000 26.0588 0.0000
# 6 0.0000 0.0000 0.0000 5.3255 0.0000 31.9809
#
#
#
# Elastic Compliance Matrix: (Units=1/GPa)
#
#
# Indices 1 2 3 4 5 6 
#
# 1 0.027799 -0.009431 -0.006562 0.000000 -0.003230 0.000000
# 2 -0.009431 0.014490 -0.000807 0.000000 0.004251 0.000000
# 3 -0.006562 -0.000807 0.009952 0.000000 -0.001040 0.000000
# 4 0.000000 0.000000 0.000000 0.034091 0.000000 -0.005677
# 5 -0.003230 0.004251 -0.001040 0.000000 0.039752 0.000000
# 6 0.000000 0.000000 0.000000 -0.005677 0.000000 0.032214
#
#
# Mechanical properties :
#
#
# Convention : Reuss Voigt Hill
#
# Bulk Modulus (GPa) = 53.64397 58.94855 56.29626
# Shear Modulus (GPa) = 25.23849 29.19035 27.21442
#
# Velocity S-wave (km/s) = 3.65719 3.93311 3.79766
# Velocity P-wave (km/s) = 6.80161 7.20176 7.00454
#
# Compressibility (1/GPa) = 0.01864143
#
# Stress axis : x y z
#
# Youngs Moduli (GPa) = 35.97262 69.01376 100.48695
#
# Poissons Ratio (x) = 0.65084 0.65936
# Poissons Ratio (y) = 0.33924 0.08112
# Poissons Ratio (z) = 0.23604 0.05571
#
# Static dielectric constant tensor:
#      x y z
#    x 1.627880 0.000000 0.028600 
#    y 0.000000 1.749190 0.000000 
#    z 0.028600 0.000000 1.711790 
# 
# From -- ./inp_files/142874.got.cif
#   From: 2010.05.17/outbox.cif.g08.bks.cpg/sg12_72_cif.got.tgz:142874.got - 2010.06.03 13:09:07.
