data_PCOD9192820
_publ_section_title
;
Structure prediction by ZEFSAII (Michael W. Deem and Ramdas Pophale) SiO2 
 PCOD9192820
Probable space group: C 2/M
;
_chemical_formula_sum "Si O2"
_cell_formula_units_Z 64
_cell_length_a 14.980516
_cell_length_b 8.638543
_cell_length_c 27.154686
_cell_angle_alpha 90.000000
_cell_angle_beta 90.177649
_cell_angle_gamma 90.000000
_cell_volume 3514.066452
_symmetry_space_group_name_H-M "C 2/M"
_symmetry_group_IT_number 12
_symmetry_cell_setting 'monoclinic'
loop_
_space_group_symop_operation_xyz
x,y,z
-x,y,-z
-x,-y,-z
x,-y,z
1/2+x,1/2+y,z
1/2-x,1/2+y,-z
1/2-x,1/2-y,-z
1/2+x,1/2-y,z
loop_
_atom_site_type_symbol
_atom_site_label
_atom_site_fract_x
_atom_site_fract_y
_atom_site_fract_z
Si Si1 0.604429 0.185613 0.264748
Si Si2 0.103757 0.186142 0.631133
Si Si3 0.247054 0.685633 0.445091
Si Si4 0.603378 0.313005 0.997460
Si Si5 0.245966 0.187317 0.189303
Si Si6 0.396837 0.314361 0.628945
Si Si7 0.752687 0.687015 0.076115
Si Si8 0.898186 0.313949 0.263522
O O1 0.664358 0.247896 0.220799
O O2 0.633576 0.253217 0.317650
O O3 0.501124 0.233664 0.257260
O O4 0.609095 0.000000 0.266885
O O5 0.167282 0.236922 0.587008
O O6 0.133875 0.250243 0.684002
O O7 0.000695 0.232365 0.623556
O O8 0.106563 0.000000 0.633556
O O9 0.246491 0.500000 0.446787
O O10 0.250000 0.750000 0.500000
O O11 0.162091 0.744796 0.414502
O O12 0.602518 0.500000 0.995433
O O13 0.659609 0.251166 0.951087
O O14 0.500000 0.260924 0.000000
O O15 0.664803 0.266951 0.044494
O O16 0.246451 0.238003 0.132643
O O17 0.335016 0.235725 0.218883
O O18 0.241755 0.000000 0.189779
O O19 0.391103 0.500000 0.628257
O O20 0.757298 0.500000 0.075095
O O21 0.896155 0.500000 0.265878
#
# Coordination Sequence:
#
# PCOD9192820 Si02
#       8
#     8   8   8   8   8   8   8   8
#     4  10  20  34  52  77 105 134 169 208 250 301
#     4   9  20  37  56  76 102 135 171 209 252 304
#     4  11  23  38  55  79 107 136 172 215 261 310
#     4   9  18  34  54  74  99 133 173 217 263 309
#     4  10  20  34  51  74 106 140 170 208 257 306
#     4  10  20  37  58  78 102 136 173 211 255 304
#     4   9  19  34  51  74 103 134 172 214 257 308
#     4   9  19  34  52  74 102 134 168 205 249 302
#
# _framework density 18.212519
#
# number of rings (size 3 to 8) (size 9 to 14) (size 15 to 20)
#    0.000    2.375    0.000    1.875    0.000    6.750 
#    0.000    2.500    0.000    0.000    0.000    0.000 
#    0.000    0.000    0.000    0.000    0.000    0.000 
#
# Total GULP energy -178600.851024 kJ/mol
# GULP energy per Si atom -5581.276594 kJ/mol
# Density = 1.817107 g / cm^3
# Si number density = 18.212519 Si / 1000 Ang^3
#
#
#
# Elastic Constant Matrix: (Units=GPa)
#
#
# Indices 1 2 3 4 5 6 
#
# 1 88.4482 15.5159 47.7945 0.0000 69.7754 0.0000
# 2 15.5159 14.6614 21.0476 0.0000 20.3784 0.0000
# 3 47.7945 21.0476 138.9589 0.0000 84.5449 0.0000
# 4 0.0000 0.0000 0.0000 29.0304 0.0000 -6.0689
# 5 69.7754 20.3784 84.5449 0.0000 -106.8417 0.0000
# 6 0.0000 0.0000 0.0000 -6.0689 0.0000 21.9281
#
#
#
# Elastic Compliance Matrix: (Units=1/GPa)
#
#
# Indices 1 2 3 4 5 6 
#
# 1 0.013579 -0.011730 -0.004677 0.000000 0.002930 0.000000
# 2 -0.011730 0.094622 -0.011217 0.000000 0.001511 0.000000
# 3 -0.004677 -0.011217 0.009223 0.000000 0.002105 0.000000
# 4 0.000000 0.000000 0.000000 0.036562 0.000000 0.010119
# 5 0.002930 0.001511 0.002105 0.000000 -0.005492 0.000000
# 6 0.000000 0.000000 0.000000 0.010119 0.000000 0.048404
#
#
# Mechanical properties :
#
#
# Convention : Reuss Voigt Hill
#
# Bulk Modulus (GPa) = 16.08291 45.64273 30.86282
# Shear Modulus (GPa) = 18.32361 -0.66261 8.83050
#
# Velocity S-wave (km/s) = 3.17535 -0.60383 2.20434
# Velocity P-wave (km/s) = 4.72161 4.96281 4.84371
#
# Compressibility (1/GPa) = 0.06217782
#
# Stress axis : x y z
#
# Youngs Moduli (GPa) = 73.64189 10.56832 108.42085
#
# Poissons Ratio (x) = 0.12396 0.50705
# Poissons Ratio (y) = 0.86380 1.21617
# Poissons Ratio (z) = 0.34440 0.11855
#
# Static dielectric constant tensor:
#      x y z
#    x 1.634020 0.000000 0.007160 
#    y 0.000000 1.616390 0.000000 
#    z 0.007160 0.000000 1.594620 
# 
# From -- ./inp_files/338937.got.cif
#   From: 2010.05.17/outbox.cif.g08.bks.cpg/sg12_170_cif.got.tgz:338937.got - 2010.06.03 13:09:07.
