data_PCOD9192346
_publ_section_title
;
Structure prediction by ZEFSAII (Michael W. Deem and Ramdas Pophale) SiO2 
 PCOD9192346
Probable space group: C 2/M
;
_chemical_formula_sum "Si O2"
_cell_formula_units_Z 64
_cell_length_a 14.124513
_cell_length_b 29.327180
_cell_length_c 9.023240
_cell_angle_alpha 90.000000
_cell_angle_beta 129.341155
_cell_angle_gamma 90.000000
_cell_volume 2890.693686
_symmetry_space_group_name_H-M "C 2/M"
_symmetry_group_IT_number 12
_symmetry_cell_setting 'monoclinic'
loop_
_space_group_symop_operation_xyz
x,y,z
-x,y,-z
-x,-y,-z
x,-y,z
1/2+x,1/2+y,z
1/2-x,1/2+y,-z
1/2-x,1/2-y,-z
1/2+x,1/2-y,z
loop_
_atom_site_type_symbol
_atom_site_label
_atom_site_fract_x
_atom_site_fract_y
_atom_site_fract_z
Si Si1 0.703612 0.553037 0.413172
Si Si2 0.363930 0.775131 0.036981
Si Si3 0.495931 0.145806 0.319091
Si Si4 0.028793 0.448231 0.201583
Si Si5 0.709052 0.203770 0.372916
Si Si6 0.476257 0.607072 0.307263
Si Si7 0.019164 0.206193 0.357162
Si Si8 0.631019 0.447961 0.040494
O O1 0.657793 0.500000 0.374543
O O2 0.602062 0.588794 0.360223
O O3 0.729330 0.562864 0.265056
O O4 0.825213 0.554792 0.628905
O O5 0.390763 0.822106 0.147101
O O6 0.479112 0.741781 0.192047
O O7 0.250000 0.750000 0.000000
O O8 0.340390 0.784625 0.840590
O O9 0.500000 0.148265 0.500000
O O10 0.479417 0.094343 0.245754
O O11 0.618660 0.169822 0.370171
O O12 0.990630 0.500000 0.207845
O O13 0.000000 0.442240 0.000000
O O14 0.750000 0.250000 0.500000
O O15 0.846024 0.184390 0.499086
O O16 0.500000 0.594770 0.500000
O O17 0.442537 0.660233 0.264110
O O18 0.373692 0.581566 0.110417
O O19 0.000000 0.228735 0.500000
O O20 0.644718 0.500000 0.009733
O O21 0.500000 0.443710 0.000000
#
# Coordination Sequence:
#
# PCOD9192346 Si02
#       8
#     8   8   8   8   8   8   8   8
#     4   9  18  37  61  86 123 167 212 268 331 398
#     4  12  24  45  71  97 136 181 224 289 349 413
#     4  12  26  46  68 103 140 184 236 288 349 419
#     4  10  22  44  72  99 129 173 232 292 348 410
#     4  12  24  43  71  97 134 179 231 282 347 418
#     4  10  20  33  54  89 127 165 205 262 325 400
#     4  11  23  43  63  95 136 171 216 277 342 411
#     4   8  15  31  51  76 114 158 203 252 311 380
#
# _framework density 22.140014000000001
#
# number of rings (size 3 to 8) (size 9 to 14) (size 15 to 20)
#    0.000    1.500    2.500    4.125    0.000    1.250 
#   11.250    0.000    0.000    4.500    0.000    0.000 
#    0.000    0.000    0.000    0.000    0.000    0.000 
#
# Total GULP energy -178558.768392 kJ/mol
# GULP energy per Si atom -5579.961512 kJ/mol
# Density = 2.208962 g / cm^3
# Si number density = 22.140014 Si / 1000 Ang^3
#
#
#
# Elastic Constant Matrix: (Units=GPa)
#
#
# Indices 1 2 3 4 5 6 
#
# 1 62.8613 45.4265 36.4895 0.0000 -13.3891 0.0000
# 2 45.4265 138.0578 81.0411 0.0000 -30.6462 0.0000
# 3 36.4895 81.0411 194.6278 0.0000 -31.3081 0.0000
# 4 0.0000 0.0000 0.0000 -9.7852 0.0000 -29.3752
# 5 -13.3891 -30.6462 -31.3081 0.0000 41.2524 0.0000
# 6 0.0000 0.0000 0.0000 -29.3752 0.0000 10.7977
#
#
#
# Elastic Compliance Matrix: (Units=1/GPa)
#
#
# Indices 1 2 3 4 5 6 
#
# 1 0.021239 -0.005895 -0.001279 0.000000 0.001543 0.000000
# 2 -0.005895 0.012080 -0.003177 0.000000 0.004650 0.000000
# 3 -0.001279 -0.003177 0.007124 0.000000 0.002631 0.000000
# 4 0.000000 0.000000 0.000000 -0.011148 0.000000 -0.030329
# 5 0.001543 0.004650 0.002631 0.000000 0.030193 0.000000
# 6 0.000000 0.000000 0.000000 -0.030329 0.000000 0.010103
#
#
# Mechanical properties :
#
#
# Convention : Reuss Voigt Hill
#
# Bulk Modulus (GPa) = 50.65534 80.16236 65.40885
# Shear Modulus (GPa) = 51.61344 23.95895 37.78620
#
# Velocity S-wave (km/s) = 4.83352 3.29318 4.13570
# Velocity P-wave (km/s) = 7.35389 7.12360 7.23966
#
# Compressibility (1/GPa) = 0.01974126
#
# Stress axis : x y z
#
# Youngs Moduli (GPa) = 47.08234 82.78088 140.37258
#
# Poissons Ratio (x) = 0.48801 0.17955
# Poissons Ratio (y) = 0.27756 0.44593
# Poissons Ratio (z) = 0.06022 0.26298
#
# Static dielectric constant tensor:
#      x y z
#    x 2.077530 0.000000 0.079320 
#    y 0.000000 1.854910 0.000000 
#    z 0.079320 0.000000 1.886920 
# 
# From -- ./inp_files/68620.got.cif
#   From: 2010.05.17/outbox.cif.g08.bks.cpg/sg12_35_cif.got.tgz:68620.got - 2010.06.03 13:09:07.
