data_PCOD9192538
_publ_section_title
;
Structure prediction by ZEFSAII (Michael W. Deem and Ramdas Pophale) SiO2 
 PCOD9192538
Probable space group: C 2/M
;
_chemical_formula_sum "Si O2"
_cell_formula_units_Z 64
_cell_length_a 25.664191
_cell_length_b 11.407996
_cell_length_c 20.825543
_cell_angle_alpha 90.000000
_cell_angle_beta 31.054791
_cell_angle_gamma 90.000000
_cell_volume 3145.307067
_symmetry_space_group_name_H-M "C 2/M"
_symmetry_group_IT_number 12
_symmetry_cell_setting 'monoclinic'
loop_
_space_group_symop_operation_xyz
x,y,z
-x,y,-z
-x,-y,-z
x,-y,z
1/2+x,1/2+y,z
1/2-x,1/2+y,-z
1/2-x,1/2-y,-z
1/2+x,1/2-y,z
loop_
_atom_site_type_symbol
_atom_site_label
_atom_site_fract_x
_atom_site_fract_y
_atom_site_fract_z
Si Si1 0.736182 0.859628 0.201298
Si Si2 0.148833 0.281822 0.028346
Si Si3 0.664606 0.634428 0.659747
Si Si4 0.532422 0.711265 0.397821
Si Si5 0.396065 0.363419 0.132243
Si Si6 0.559133 0.867644 0.724070
Si Si7 0.607237 0.129339 0.532323
Si Si8 0.858986 0.876099 0.839710
O O1 0.627024 0.799449 0.309813
O O2 0.793962 0.821385 0.205668
O O3 0.724480 0.000000 0.209633
O O4 0.811007 0.811717 0.066215
O O5 0.130746 0.219023 0.115767
O O6 0.043354 0.346429 0.127732
O O7 0.243821 0.366912 0.937187
O O8 0.652142 0.500000 0.645691
O O9 0.607271 0.637768 0.788092
O O10 0.627034 0.750845 0.663011
O O11 0.781227 0.647661 0.557189
O O12 0.500000 0.656138 0.500000
O O13 0.436143 0.780589 0.472119
O O14 0.571378 0.636862 0.296258
O O15 0.398827 0.500000 0.108620
O O16 0.500000 0.305528 0.000000
O O17 0.539157 0.870912 0.668496
O O18 0.600562 0.000000 0.695109
O O19 0.606555 0.000000 0.503114
O O20 0.879774 0.000000 0.849428
#
# Coordination Sequence:
#
# PCOD9192538 Si02
#       8
#     8   8   8   8   8   8   8   8
#     4  10  20  33  57  91 120 153 199 251 301 351
#     4  10  20  36  58  85 114 152 193 246 301 358
#     4  10  21  37  59  83 114 154 199 248 300 358
#     4  11  22  37  57  84 120 159 200 242 297 364
#     4   9  17  31  52  82 116 146 184 242 303 347
#     4  11  22  38  60  86 119 155 195 247 307 362
#     4  10  21  38  57  82 116 152 194 248 305 353
#     4  10  21  37  56  82 116 155 199 245 295 357
#
# _framework density 20.347774999999999
#
# number of rings (size 3 to 8) (size 9 to 14) (size 15 to 20)
#    0.000    1.875    1.250    3.000    0.000    4.250 
#    0.000    0.625    0.000    9.375    0.000    0.000 
#    0.000    0.000    0.000    0.000    0.000    0.000 
#
# Total GULP energy -178282.200891 kJ/mol
# GULP energy per Si atom -5571.318778 kJ/mol
# Density = 2.030146 g / cm^3
# Si number density = 20.347775 Si / 1000 Ang^3
#
#
#
# Elastic Constant Matrix: (Units=GPa)
#
#
# Indices 1 2 3 4 5 6 
#
# 1 40.0920 28.2498 -6.6349 0.0000 4.2467 0.0000
# 2 28.2498 98.8600 17.6662 0.0000 -4.5664 -0.0002
# 3 -6.6349 17.6662 81.7775 0.0000 10.8965 0.0000
# 4 0.0000 0.0000 0.0000 3.7078 0.0000 -0.9472
# 5 4.2467 -4.5664 10.8965 0.0000 28.7292 0.0000
# 6 0.0000 -0.0002 0.0000 -0.9472 0.0000 -30.8038
#
#
#
# Elastic Compliance Matrix: (Units=1/GPa)
#
#
# Indices 1 2 3 4 5 6 
#
# 1 0.035339 -0.011738 0.006685 0.000000 -0.009625 0.000000
# 2 -0.011738 0.014618 -0.004899 0.000000 0.005916 0.000000
# 3 0.006685 -0.004899 0.014813 0.000000 -0.007385 0.000000
# 4 0.000000 0.000000 0.000000 0.267602 0.000000 -0.008229
# 5 -0.009625 0.005916 -0.007385 0.000000 0.039972 0.000000
# 6 0.000000 0.000000 0.000000 -0.008229 0.000000 -0.032211
#
#
# Mechanical properties :
#
#
# Convention : Reuss Voigt Hill
#
# Bulk Modulus (GPa) = 22.28734 33.25461 27.77097
# Shear Modulus (GPa) = 13.33362 12.42319 12.87841
#
# Velocity S-wave (km/s) = 2.56263 2.47360 2.51851
# Velocity P-wave (km/s) = 4.44220 4.95347 4.70478
#
# Compressibility (1/GPa) = 0.04486853
#
# Stress axis : x y z
#
# Youngs Moduli (GPa) = 28.29724 68.40858 67.50838
#
# Poissons Ratio (x) = 0.80295 -0.45132
# Poissons Ratio (y) = 0.33214 0.33069
# Poissons Ratio (z) = -0.18918 0.33510
#
# Static dielectric constant tensor:
#      x y z
#    x 1.728370 0.000000 -0.013740 
#    y 0.000000 1.739800 0.000000 
#    z -0.013740 0.000000 1.783180 
# 
# From -- ./inp_files/327801.got.cif
#   From: 2010.05.17/outbox.cif.g08.bks.cpg/sg12_164_cif.got.tgz:327801.got - 2010.06.03 13:09:07.
