data_PCOD9192992
_publ_section_title
;
Structure prediction by ZEFSAII (Michael W. Deem and Ramdas Pophale) SiO2 
 PCOD9192992
Probable space group: C 2/M
;
_chemical_formula_sum "Si O2"
_cell_formula_units_Z 40
_cell_length_a 8.730253
_cell_length_b 11.195731
_cell_length_c 23.155426
_cell_angle_alpha 90.000000
_cell_angle_beta 119.845740
_cell_angle_gamma 90.000000
_cell_volume 1963.069492
_symmetry_space_group_name_H-M "C 2/M"
_symmetry_group_IT_number 12
_symmetry_cell_setting 'monoclinic'
loop_
_space_group_symop_operation_xyz
x,y,z
-x,y,-z
-x,-y,-z
x,-y,z
1/2+x,1/2+y,z
1/2-x,1/2+y,-z
1/2-x,1/2-y,-z
1/2+x,1/2-y,z
loop_
_atom_site_type_symbol
_atom_site_label
_atom_site_fract_x
_atom_site_fract_y
_atom_site_fract_z
Si Si1 0.681265 0.365530 0.569581
Si Si2 0.965291 0.758284 0.843777
Si Si3 0.400411 0.866682 0.239154
Si Si4 0.569662 0.862681 0.618010
Si Si5 0.844416 0.361925 0.930775
O O1 0.500000 0.365693 0.500000
O O2 0.693472 0.500000 0.599792
O O3 0.669197 0.247499 0.607012
O O4 0.859670 0.356129 0.565180
O O5 0.992976 0.719587 0.782938
O O6 0.154247 0.802277 0.901379
O O7 0.806060 0.852121 0.815290
O O8 0.903126 0.654647 0.875381
O O9 0.420833 0.846296 0.310985
O O10 0.460040 0.000000 0.237620
O O11 0.629330 0.000000 0.615733
O O12 0.824891 0.500000 0.941927
O O13 0.000000 0.309918 0.000000
#
# Coordination Sequence:
#
# PCOD9192992 Si02
#       5
#     8   8   8   8   8
#     4  10  21  37  56  80 110 142 178 220 265 315
#     4  10  20  34  53  75 101 135 170 208 258 308
#     4  10  20  35  53  75 104 135 171 214 258 308
#     4  10  21  36  55  80 108 140 179 221 265 315
#     4  10  20  34  52  75 102 132 169 211 254 304
#
# _framework density 20.376252999999998
#
# number of rings (size 3 to 8) (size 9 to 14) (size 15 to 20)
#    0.000    2.000    0.000    3.600    0.000    1.200 
#    0.000    5.000    0.000    9.600    0.000    0.000 
#    0.000    0.000    0.000    0.000    0.000    0.000 
#
# Total GULP energy -111506.814870 kJ/mol
# GULP energy per Si atom -5575.340743 kJ/mol
# Density = 2.032988 g / cm^3
# Si number density = 20.376253 Si / 1000 Ang^3
#
#
#
# Elastic Constant Matrix: (Units=GPa)
#
#
# Indices 1 2 3 4 5 6 
#
# 1 59.8743 22.9615 -11.1176 0.0000 9.5531 0.0000
# 2 22.9615 103.5065 3.7950 0.0000 -18.0445 0.0000
# 3 -11.1176 3.7950 35.3091 0.0000 13.7480 0.0000
# 4 0.0000 0.0000 0.0000 23.9564 0.0000 -4.9549
# 5 9.5531 -18.0445 13.7480 0.0000 32.9404 0.0000
# 6 0.0000 0.0000 0.0000 -4.9549 0.0000 18.9667
#
#
#
# Elastic Compliance Matrix: (Units=1/GPa)
#
#
# Indices 1 2 3 4 5 6 
#
# 1 0.027430 -0.010439 0.018009 0.000000 -0.021190 0.000000
# 2 -0.010439 0.015173 -0.011144 0.000000 0.015990 0.000000
# 3 0.018009 -0.011144 0.047284 0.000000 -0.031062 0.000000
# 4 0.000000 0.000000 0.000000 0.044127 0.000000 0.011528
# 5 -0.021190 0.015990 -0.031062 0.000000 0.058227 0.000000
# 6 0.000000 0.000000 0.000000 0.011528 0.000000 0.055735
#
#
# Mechanical properties :
#
#
# Convention : Reuss Voigt Hill
#
# Bulk Modulus (GPa) = 12.08614 25.55198 18.81906
# Shear Modulus (GPa) = 17.68638 27.37611 22.53125
#
# Velocity S-wave (km/s) = 2.94936 3.66940 3.32890
# Velocity P-wave (km/s) = 4.18840 5.52448 4.90217
#
# Compressibility (1/GPa) = 0.08273943
#
# Stress axis : x y z
#
# Youngs Moduli (GPa) = 36.45632 65.90532 21.14890
#
# Poissons Ratio (x) = 0.68801 -0.38088
# Poissons Ratio (y) = 0.38058 0.23568
# Poissons Ratio (z) = -0.65656 0.73444
#
# Static dielectric constant tensor:
#      x y z
#    x 1.693810 0.000000 0.019890 
#    y 0.000000 1.728510 0.000000 
#    z 0.019890 0.000000 1.761450 
# 
# From -- ./inp_files/254608.got.cif
#   From: 2010.05.17/outbox.cif.g08.bks.cpg/sg12_128_cif.got.tgz:254608.got - 2010.06.03 13:09:07.
