data_PCOD9192569
_publ_section_title
;
Structure prediction by ZEFSAII (Michael W. Deem and Ramdas Pophale) SiO2 
 PCOD9192569
Probable space group: C 2/M
;
_chemical_formula_sum "Si O2"
_cell_formula_units_Z 42
_cell_length_a 23.422847
_cell_length_b 16.147938
_cell_length_c 9.137700
_cell_angle_alpha 90.000000
_cell_angle_beta 149.733080
_cell_angle_gamma 90.000000
_cell_volume 1742.004297
_symmetry_space_group_name_H-M "C 2/M"
_symmetry_group_IT_number 12
_symmetry_cell_setting 'monoclinic'
loop_
_space_group_symop_operation_xyz
x,y,z
-x,y,-z
-x,-y,-z
x,-y,z
1/2+x,1/2+y,z
1/2-x,1/2+y,-z
1/2-x,1/2-y,-z
1/2+x,1/2-y,z
loop_
_atom_site_type_symbol
_atom_site_label
_atom_site_fract_x
_atom_site_fract_y
_atom_site_fract_z
Si Si1 0.956058 0.879024 0.059017
Si Si2 0.442723 0.214586 0.616686
Si Si3 0.354621 0.625314 0.301258
Si Si4 0.000000 0.000000 0.500000
Si Si5 0.191610 0.405178 0.460757
Si Si6 0.130313 0.594659 0.982933
O O1 0.825739 0.900192 0.783209
O O2 0.976636 0.780469 0.121402
O O3 0.000000 0.905377 0.000000
O O4 0.050729 0.913098 0.378676
O O5 0.374242 0.276111 0.356883
O O6 0.368766 0.161692 0.567760
O O7 0.525204 0.152582 0.719223
O O8 0.397930 0.574080 0.259713
O O9 0.232822 0.607223 0.097227
O O10 0.152080 0.500000 0.402408
O O11 0.169985 0.388515 0.239577
O O12 0.094772 0.500000 0.898861
#
# Coordination Sequence:
#
# PCOD9192569 Si02
#       6
#     8   8   8   2   8   8
#     4  10  20  33  58  89 125 156 205 243 303 362
#     4  10  22  35  57  93 125 168 193 233 300 375
#     4  10  24  38  67  84 116 164 207 262 305 348
#     4  12  24  52  62  88 110 156 222 282 298 344
#     4  11  21  32  56  94 142 164 185 233 298 381
#     4  11  20  35  58  93 130 170 197 232 298 367
#
# _framework density 24.110157000000001
#
# number of rings (size 3 to 8) (size 9 to 14) (size 15 to 20)
#    1.143    0.381    2.857    3.429    1.333    4.190 
#    0.000    0.952    0.000    0.000    0.000    2.667 
#    0.000    0.000    0.000    0.000    0.000    0.000 
#
# Total GULP energy -117080.171147 kJ/mol
# GULP energy per Si atom -5575.246245 kJ/mol
# Density = 2.405528 g / cm^3
# Si number density = 24.110157 Si / 1000 Ang^3
#
#
#
# Elastic Constant Matrix: (Units=GPa)
#
#
# Indices 1 2 3 4 5 6 
#
# 1 92.5782 40.2752 32.3261 0.0000 32.8682 0.0000
# 2 40.2752 171.8637 51.8519 0.0000 35.6522 0.0000
# 3 32.3261 51.8519 50.0020 0.0000 17.4564 0.0000
# 4 0.0000 0.0000 0.0000 52.4700 0.0000 40.6412
# 5 32.8682 35.6522 17.4564 0.0000 51.1832 0.0000
# 6 0.0000 0.0000 0.0000 40.6412 0.0000 14.0224
#
#
#
# Elastic Compliance Matrix: (Units=1/GPa)
#
#
# Indices 1 2 3 4 5 6 
#
# 1 0.016307 0.000241 -0.008035 0.000000 -0.007900 0.000000
# 2 0.000241 0.008991 -0.008218 0.000000 -0.003615 0.000000
# 3 -0.008035 -0.008218 0.033959 0.000000 -0.000698 0.000000
# 4 0.000000 0.000000 0.000000 -0.015309 0.000000 0.044370
# 5 -0.007900 -0.003615 -0.000698 0.000000 0.027367 0.000000
# 6 0.000000 0.000000 0.000000 0.044370 0.000000 -0.057285
#
#
# Mechanical properties :
#
#
# Convention : Reuss Voigt Hill
#
# Bulk Modulus (GPa) = 36.71765 62.59448 49.65606
# Shear Modulus (GPa) = 90.69193 36.20115 63.44654
#
# Velocity S-wave (km/s) = 6.13981 3.87911 5.13541
# Velocity P-wave (km/s) = 8.09477 6.78834 7.47017
#
# Compressibility (1/GPa) = 0.02723486
#
# Stress axis : x y z
#
# Youngs Moduli (GPa) = 61.32403 111.21832 29.44694
#
# Poissons Ratio (x) = -0.02686 0.23660
# Poissons Ratio (y) = -0.01481 0.24199
# Poissons Ratio (z) = 0.49273 0.91398
#
# Static dielectric constant tensor:
#      x y z
#    x 2.686110 0.000000 -0.115530 
#    y 0.000000 2.369470 0.000000 
#    z -0.115530 0.000000 1.902900 
# 
# From -- ./inp_files/177237.got.cif
#   From: 2010.05.17/outbox.cif.g08.bks.cpg/sg12_89_cif.got.tgz:177237.got - 2010.06.03 13:09:07.
