data_PCOD9192003
_publ_section_title
;
Structure prediction by ZEFSAII (Michael W. Deem and Ramdas Pophale) SiO2 
 PCOD9192003
Probable space group: C 2/M
;
_chemical_formula_sum "Si O2"
_cell_formula_units_Z 56
_cell_length_a 33.573249
_cell_length_b 9.025104
_cell_length_c 12.326103
_cell_angle_alpha 90.000000
_cell_angle_beta 56.334840
_cell_angle_gamma 90.000000
_cell_volume 3108.470586
_symmetry_space_group_name_H-M "C 2/M"
_symmetry_group_IT_number 12
_symmetry_cell_setting 'monoclinic'
loop_
_space_group_symop_operation_xyz
x,y,z
-x,y,-z
-x,-y,-z
x,-y,z
1/2+x,1/2+y,z
1/2-x,1/2+y,-z
1/2-x,1/2-y,-z
1/2+x,1/2-y,z
loop_
_atom_site_type_symbol
_atom_site_label
_atom_site_fract_x
_atom_site_fract_y
_atom_site_fract_z
Si Si1 0.394324 0.324105 0.518554
Si Si2 0.537937 0.827768 0.032073
Si Si3 0.687753 0.176651 0.496516
Si Si4 0.004194 0.671117 0.661990
Si Si5 0.867897 0.176634 0.032635
Si Si6 0.712359 0.823326 0.706941
Si Si7 0.408947 0.323477 0.736603
O O1 0.391803 0.500000 0.504388
O O2 0.358545 0.241720 0.492172
O O3 0.448231 0.266672 0.421716
O O4 0.382755 0.293684 0.662813
O O5 0.512501 0.824068 0.187374
O O6 0.550397 0.000000 0.988887
O O7 0.500000 0.776030 0.000000
O O8 0.585994 0.733251 0.969726
O O9 0.689195 0.208391 0.623378
O O10 0.735282 0.250836 0.375141
O O11 0.689757 0.000000 0.480046
O O12 0.013100 0.500000 0.619100
O O13 0.959196 0.737178 0.664890
O O14 0.821401 0.255340 0.150429
O O15 0.863390 0.000000 0.048278
O O16 0.879324 0.214679 0.889605
O O17 0.716281 0.000000 0.712694
O O18 0.419214 0.500000 0.725743
#
# Coordination Sequence:
#
# PCOD9192003 Si02
#       7
#     8   8   8   8   8   8   8
#     4  11  22  36  56  80 111 147 185 226 274 323
#     4   9  19  34  50  73 109 147 182 222 268 319
#     4  10  22  39  59  84 111 139 178 226 271 322
#     4  10  20  33  52  79 110 147 188 227 270 319
#     4  10  20  35  57  81 107 142 184 223 268 322
#     4  10  21  39  61  83 111 142 175 219 277 332
#     4   9  20  38  55  77 111 150 186 225 269 320
#
# _framework density 18.015288999999999
#
# number of rings (size 3 to 8) (size 9 to 14) (size 15 to 20)
#    0.000    2.143    0.000    2.571    2.000    6.000 
#    0.000    0.714    0.000    0.000    0.000    0.000 
#    0.000    0.000    0.000    0.000    0.000    0.000 
#
# Total GULP energy -156355.453266 kJ/mol
# GULP energy per Si atom -5584.123331 kJ/mol
# Density = 1.797428 g / cm^3
# Si number density = 18.015289 Si / 1000 Ang^3
#
#
#
# Elastic Constant Matrix: (Units=GPa)
#
#
# Indices 1 2 3 4 5 6 
#
# 1 59.5380 27.3317 20.3997 0.0000 -0.1549 0.0000
# 2 27.3317 57.9566 34.7619 0.0000 -6.2208 0.0000
# 3 20.3997 34.7619 62.7791 0.0000 -20.1397 0.0000
# 4 0.0000 0.0000 0.0000 29.7533 0.0000 -5.1865
# 5 -0.1549 -6.2208 -20.1397 0.0000 17.8699 0.0000
# 6 0.0000 0.0000 0.0000 -5.1865 0.0000 33.7837
#
#
#
# Elastic Compliance Matrix: (Units=1/GPa)
#
#
# Indices 1 2 3 4 5 6 
#
# 1 0.022465 -0.008153 -0.005691 0.000000 -0.009057 0.000000
# 2 -0.008153 0.030298 -0.016863 0.000000 -0.008529 0.000000
# 3 -0.005691 -0.016863 0.039497 0.000000 0.038594 0.000000
# 4 0.000000 0.000000 0.000000 0.034534 0.000000 0.005302
# 5 -0.009057 -0.008529 0.038594 0.000000 0.096408 0.000000
# 6 0.000000 0.000000 0.000000 0.005302 0.000000 0.030414
#
#
# Mechanical properties :
#
#
# Convention : Reuss Voigt Hill
#
# Bulk Modulus (GPa) = 32.42020 38.36224 35.39122
# Shear Modulus (GPa) = 15.36981 22.80008 19.08495
#
# Velocity S-wave (km/s) = 2.92405 3.56138 3.25834
# Velocity P-wave (km/s) = 5.42541 6.18480 5.81751
#
# Compressibility (1/GPa) = 0.03084497
#
# Stress axis : x y z
#
# Youngs Moduli (GPa) = 44.51335 33.00513 25.31855
#
# Poissons Ratio (x) = 0.26909 0.14409
# Poissons Ratio (y) = 0.36292 0.42696
# Poissons Ratio (z) = 0.25333 0.55658
#
# Static dielectric constant tensor:
#      x y z
#    x 1.582720 0.000000 0.023890 
#    y 0.000000 1.602630 0.000000 
#    z 0.023890 0.000000 1.623470 
# 
# From -- ./inp_files/187249.got.cif
#   From: 2010.05.17/outbox.cif.g08.bks.cpg/sg12_94_cif.got.tgz:187249.got - 2010.06.03 13:09:07.
