data_PCOD9192901
_publ_section_title
;
Structure prediction by ZEFSAII (Michael W. Deem and Ramdas Pophale) SiO2 
 PCOD9192901
Probable space group: C 2/M
;
_chemical_formula_sum "Si O2"
_cell_formula_units_Z 56
_cell_length_a 16.690545
_cell_length_b 7.374260
_cell_length_c 20.089007
_cell_angle_alpha 90.000000
_cell_angle_beta 122.088236
_cell_angle_gamma 90.000000
_cell_volume 2094.832376
_symmetry_space_group_name_H-M "C 2/M"
_symmetry_group_IT_number 12
_symmetry_cell_setting 'monoclinic'
loop_
_space_group_symop_operation_xyz
x,y,z
-x,y,-z
-x,-y,-z
x,-y,z
1/2+x,1/2+y,z
1/2-x,1/2+y,-z
1/2-x,1/2-y,-z
1/2+x,1/2-y,z
loop_
_atom_site_type_symbol
_atom_site_label
_atom_site_fract_x
_atom_site_fract_y
_atom_site_fract_z
Si Si1 0.943778 0.280265 0.688182
Si Si2 0.890935 0.779349 0.029035
Si Si3 0.128818 0.209822 0.837690
Si Si4 0.610718 0.718568 0.118689
Si Si5 0.272923 0.280364 0.398955
Si Si6 0.205085 0.792287 0.735040
Si Si7 0.543090 0.210086 0.451843
O O1 0.944551 0.500000 0.689777
O O2 0.835363 0.220417 0.645202
O O3 0.980183 0.217274 0.631354
O O4 0.015436 0.214841 0.776162
O O5 0.847727 0.711870 0.079414
O O6 0.001972 0.727468 0.078269
O O7 0.887841 0.000000 0.029034
O O8 0.855017 0.723758 0.940422
O O9 0.167681 0.295388 0.786652
O O10 0.158384 0.000000 0.851587
O O11 0.613258 0.500000 0.122235
O O12 0.681624 0.791593 0.204779
O O13 0.272923 0.500000 0.398831
O O14 0.314381 0.214818 0.346081
O O15 0.343673 0.218728 0.487494
O O16 0.172878 0.000000 0.719722
O O17 0.500000 0.294684 0.500000
O O18 0.515292 0.000000 0.438333
#
# Coordination Sequence:
#
# PCOD9192901 Si02
#       7
#     8   8   8   8   8   8   8
#     4  10  21  36  53  75 102 129 163 208 248 286
#     4   8  16  32  52  74  98 126 167 211 243 283
#     4  10  20  34  52  73 100 134 167 201 245 295
#     4   9  17  32  54  74  95 129 169 206 245 290
#     4  10  21  36  53  74 102 134 165 200 245 295
#     4  10  21  34  48  73 106 132 160 203 249 293
#     4  10  21  36  54  77 103 129 162 206 248 287
#
# _framework density 26.732448000000002
#
# number of rings (size 3 to 8) (size 9 to 14) (size 15 to 20)
#    0.000    2.429    0.000    3.000    0.000    3.143 
#    0.000    2.143    0.000    0.000    0.000    0.000 
#    0.000    0.000    0.000    0.000    0.000    0.000 
#
# Total GULP energy -156720.790839 kJ/mol
# GULP energy per Si atom -5597.171101 kJ/mol
# Density = 2.667160 g / cm^3
# Si number density = 26.732448 Si / 1000 Ang^3
#
#
#
# Elastic Constant Matrix: (Units=GPa)
#
#
# Indices 1 2 3 4 5 6 
#
# 1 74.9303 12.3994 9.5325 0.0000 -10.1943 0.0000
# 2 12.3994 116.2608 1.1984 0.0000 -2.0295 0.0000
# 3 9.5325 1.1984 147.8489 0.0000 -12.5522 0.0000
# 4 0.0000 0.0000 0.0000 9.7504 0.0000 15.3029
# 5 -10.1943 -2.0295 -12.5522 0.0000 61.7021 0.0000
# 6 0.0000 0.0000 0.0000 15.3029 0.0000 12.0385
#
#
#
# Elastic Compliance Matrix: (Units=1/GPa)
#
#
# Indices 1 2 3 4 5 6 
#
# 1 0.013963 -0.001445 -0.000709 0.000000 0.002115 0.000000
# 2 -0.001445 0.008756 0.000027 0.000000 0.000055 0.000000
# 3 -0.000709 0.000027 0.006919 0.000000 0.001291 0.000000
# 4 0.000000 0.000000 0.000000 -0.103071 0.000000 0.131020
# 5 0.002115 0.000055 0.001291 0.000000 0.016821 0.000000
# 6 0.000000 0.000000 0.000000 0.131020 0.000000 -0.083480
#
#
# Mechanical properties :
#
#
# Convention : Reuss Voigt Hill
#
# Bulk Modulus (GPa) = 39.39552 42.81120 41.10336
# Shear Modulus (GPa) = -39.25347 37.75885 -0.74731
#
# Velocity S-wave (km/s) = -3.83611 3.76236 -0.52930
# Velocity P-wave (km/s) = 2.20272 5.90959 3.87758
#
# Compressibility (1/GPa) = 0.02538360
#
# Stress axis : x y z
#
# Youngs Moduli (GPa) = 71.61888 114.20567 144.53414
#
# Poissons Ratio (x) = 0.16502 0.10247
# Poissons Ratio (y) = 0.10348 -0.00388
# Poissons Ratio (z) = 0.05078 -0.00306
#
# Static dielectric constant tensor:
#      x y z
#    x 2.186140 0.000000 -0.024430 
#    y 0.000000 1.969450 0.000000 
#    z -0.024430 0.000000 2.004250 
# 
# From -- ./inp_files/275329.got.cif
#   From: 2010.05.17/outbox.cif.g08.bks.cpg/sg12_138_cif.got.tgz:275329.got - 2010.06.03 13:09:07.
