data_PCOD9192038
_publ_section_title
;
Structure prediction by ZEFSAII (Michael W. Deem and Ramdas Pophale) SiO2 
 PCOD9192038
Probable space group: C 2/M
;
_chemical_formula_sum "Si O2"
_cell_formula_units_Z 56
_cell_length_a 22.845456
_cell_length_b 9.692373
_cell_length_c 12.061764
_cell_angle_alpha 90.000000
_cell_angle_beta 72.791616
_cell_angle_gamma 90.000000
_cell_volume 2551.238386
_symmetry_space_group_name_H-M "C 2/M"
_symmetry_group_IT_number 12
_symmetry_cell_setting 'monoclinic'
loop_
_space_group_symop_operation_xyz
x,y,z
-x,y,-z
-x,-y,-z
x,-y,z
1/2+x,1/2+y,z
1/2-x,1/2+y,-z
1/2-x,1/2-y,-z
1/2+x,1/2-y,z
loop_
_atom_site_type_symbol
_atom_site_label
_atom_site_fract_x
_atom_site_fract_y
_atom_site_fract_z
Si Si1 0.091121 0.152830 0.155975
Si Si2 0.996234 0.656453 0.683519
Si Si3 0.776172 0.834404 0.590209
Si Si4 0.659859 0.151173 0.804639
Si Si5 0.895799 0.342996 0.542163
Si Si6 0.191521 0.345549 0.045384
Si Si7 0.561900 0.654389 0.921340
O O1 0.026757 0.222699 0.223687
O O2 0.143408 0.265511 0.149752
O O3 0.099063 0.000000 0.201247
O O4 0.095466 0.136498 0.021111
O O5 0.993012 0.500000 0.732416
O O6 0.945427 0.662749 0.613391
O O7 0.062185 0.677307 0.590704
O O8 0.750000 0.750000 0.500000
O O9 0.725158 0.813488 0.714727
O O10 0.841780 0.767198 0.581001
O O11 0.780977 0.000000 0.568487
O O12 0.606067 0.260644 0.817739
O O13 0.642088 0.000000 0.770931
O O14 0.667061 0.140062 0.933284
O O15 0.870736 0.500000 0.553051
O O16 0.204672 0.500000 0.079463
O O17 0.250000 0.250000 0.000000
O O18 0.547257 0.500000 0.887391
O O19 0.500000 0.725980 0.000000
#
# Coordination Sequence:
#
# PCOD9192038 Si02
#       7
#     8   8   8   8   8   8   8
#     4  10  20  33  52  81 113 144 184 228 276 338
#     4   9  19  37  59  84 115 150 190 238 293 352
#     4  11  24  41  60  85 116 153 198 245 291 345
#     4   9  21  39  56  79 112 145 184 231 277 330
#     4   9  20  39  60  83 113 150 193 241 294 349
#     4  10  20  35  54  80 112 145 181 224 279 338
#     4   9  19  36  56  80 111 146 185 230 278 331
#
# _framework density 21.950123999999999
#
# number of rings (size 3 to 8) (size 9 to 14) (size 15 to 20)
#    0.000    2.429    0.000    2.143    2.000    4.857 
#    0.000    4.286    0.000    0.000    0.000    0.000 
#    0.000    0.000    0.000    0.000    0.000    0.000 
#
# Total GULP energy -156199.703218 kJ/mol
# GULP energy per Si atom -5578.560829 kJ/mol
# Density = 2.190016 g / cm^3
# Si number density = 21.950124 Si / 1000 Ang^3
#
#
#
# Elastic Constant Matrix: (Units=GPa)
#
#
# Indices 1 2 3 4 5 6 
#
# 1 70.1232 53.4666 17.1936 0.0000 -29.5790 0.0000
# 2 53.4666 169.5230 64.8655 0.0000 -43.2881 0.0000
# 3 17.1936 64.8655 84.3036 0.0000 -26.8547 0.0000
# 4 0.0000 0.0000 0.0000 16.2089 0.0000 -18.6970
# 5 -29.5790 -43.2881 -26.8547 0.0000 45.6398 0.0000
# 6 0.0000 0.0000 0.0000 -18.6970 0.0000 24.8520
#
#
#
# Elastic Compliance Matrix: (Units=1/GPa)
#
#
# Indices 1 2 3 4 5 6 
#
# 1 0.022326 -0.005387 0.003167 0.000000 0.011223 0.000000
# 2 -0.005387 0.010751 -0.006199 0.000000 0.003058 0.000000
# 3 0.003167 -0.006199 0.018173 0.000000 0.006866 0.000000
# 4 0.000000 0.000000 0.000000 0.466762 0.000000 0.351162
# 5 0.011223 0.003058 0.006866 0.000000 0.036124 0.000000
# 6 0.000000 0.000000 0.000000 0.351162 0.000000 0.304430
#
#
# Mechanical properties :
#
#
# Convention : Reuss Voigt Hill
#
# Bulk Modulus (GPa) = 29.06115 66.11125 47.58620
# Shear Modulus (GPa) = 5.63777 29.90173 17.76975
#
# Velocity S-wave (km/s) = 1.60438 3.69488 2.84835
# Velocity P-wave (km/s) = 4.08661 6.95608 5.70471
#
# Compressibility (1/GPa) = 0.03441019
#
# Stress axis : x y z
#
# Youngs Moduli (GPa) = 44.79118 93.01534 55.02688
#
# Poissons Ratio (x) = 0.50111 -0.17427
# Poissons Ratio (y) = 0.24131 0.34113
# Poissons Ratio (z) = -0.14185 0.57663
#
# Static dielectric constant tensor:
#      x y z
#    x 1.873100 0.000000 0.049890 
#    y 0.000000 1.835390 0.000000 
#    z 0.049890 0.000000 1.827160 
# 
# From -- ./inp_files/243687.got.cif
#   From: 2010.05.17/outbox.cif.g08.bks.cpg/sg12_122_cif.got.tgz:243687.got - 2010.06.03 13:09:07.
