data_PCOD9192953
_publ_section_title
;
Structure prediction by ZEFSAII (Michael W. Deem and Ramdas Pophale) SiO2 
 PCOD9192953
Probable space group: C 2/M
;
_chemical_formula_sum "Si O2"
_cell_formula_units_Z 56
_cell_length_a 20.038849
_cell_length_b 8.480444
_cell_length_c 23.976777
_cell_angle_alpha 90.000000
_cell_angle_beta 51.247990
_cell_angle_gamma 90.000000
_cell_volume 3177.607258
_symmetry_space_group_name_H-M "C 2/M"
_symmetry_group_IT_number 12
_symmetry_cell_setting 'monoclinic'
loop_
_space_group_symop_operation_xyz
x,y,z
-x,y,-z
-x,-y,-z
x,-y,z
1/2+x,1/2+y,z
1/2-x,1/2+y,-z
1/2-x,1/2-y,-z
1/2+x,1/2-y,z
loop_
_atom_site_type_symbol
_atom_site_label
_atom_site_fract_x
_atom_site_fract_y
_atom_site_fract_z
Si Si1 0.615431 0.689133 0.276895
Si Si2 0.997060 0.808040 0.438214
Si Si3 0.037188 0.687661 0.719652
Si Si4 0.804651 0.191048 0.154720
Si Si5 0.957109 0.808462 0.157827
Si Si6 0.919967 0.817704 0.998589
Si Si7 0.343925 0.310876 0.437426
O O1 0.616688 0.500000 0.275389
O O2 0.575807 0.740568 0.357359
O O3 0.547888 0.746567 0.265935
O O4 0.709809 0.752438 0.216772
O O5 0.910794 0.761626 0.450850
O O6 0.000000 0.750382 0.500000
O O7 0.998056 0.000000 0.439316
O O8 0.034731 0.500000 0.720024
O O9 0.043498 0.747860 0.779333
O O10 0.116703 0.746476 0.640649
O O11 0.872167 0.238165 0.167586
O O12 0.805993 0.000000 0.151937
O O13 0.842509 0.251059 0.075491
O O14 0.039586 0.749789 0.079022
O O15 0.959709 0.000000 0.156455
O O16 0.897647 0.000000 0.998139
O O17 0.000000 0.820306 0.000000
O O18 0.343930 0.500000 0.434956
O O19 0.250000 0.250000 0.500000
#
# Coordination Sequence:
#
# PCOD9192953 Si02
#       7
#     8   8   8   8   8   8   8
#     4  10  20  34  52  74 103 137 170 208 258 310
#     4   8  16  32  52  72  95 126 163 202 245 294
#     4  11  22  36  53  73 102 139 177 215 256 301
#     4   9  17  31  53  79 104 132 168 209 256 312
#     4   9  17  32  54  78 104 133 169 213 258 306
#     4   7  12  26  49  74 100 132 166 203 253 309
#     4  10  20  35  55  78 104 134 167 206 255 307
#
# _framework density 17.623322000000002
#
# number of rings (size 3 to 8) (size 9 to 14) (size 15 to 20)
#    0.000    2.857    0.000    4.714    0.000    1.714 
#    0.000    2.857    0.000   17.143    0.000    0.000 
#    0.000    0.000    0.000    0.000    0.000    0.000 
#
# Total GULP energy -156016.984852 kJ/mol
# GULP energy per Si atom -5572.035173 kJ/mol
# Density = 1.758321 g / cm^3
# Si number density = 17.623322 Si / 1000 Ang^3
#
#
#
# Elastic Constant Matrix: (Units=GPa)
#
#
# Indices 1 2 3 4 5 6 
#
# 1 82.3545 22.6767 113.7450 0.0001 -8.7973 0.0005
# 2 22.6767 33.9564 35.6575 0.0002 -1.3241 0.0010
# 3 113.7450 35.6575 214.9264 0.0000 -4.1044 0.0000
# 4 0.0001 0.0002 0.0000 19.7346 0.0000 -6.0988
# 5 -8.7973 -1.3241 -4.1044 0.0000 36.1251 0.0001
# 6 0.0005 0.0010 0.0000 -6.0988 0.0001 19.6338
#
#
#
# Elastic Compliance Matrix: (Units=1/GPa)
#
#
# Indices 1 2 3 4 5 6 
#
# 1 0.048889 -0.006432 -0.024637 -0.000001 0.008871 -0.000001
# 2 -0.006432 0.036523 -0.002666 -0.000001 -0.000530 -0.000002
# 3 -0.024637 -0.002666 0.018056 0.000000 -0.004046 0.000001
# 4 -0.000001 -0.000001 0.000000 0.056053 0.000000 0.017412
# 5 0.008871 -0.000530 -0.004046 0.000000 0.029363 0.000000
# 6 -0.000001 -0.000002 0.000001 0.017412 0.000000 0.056341
#
#
# Mechanical properties :
#
#
# Convention : Reuss Voigt Hill
#
# Bulk Modulus (GPa) = 27.77805 75.04398 51.41101
# Shear Modulus (GPa) = 15.39912 25.70923 20.55418
#
# Velocity S-wave (km/s) = 2.95920 3.82359 3.41883
# Velocity P-wave (km/s) = 5.24139 7.88465 6.69477
#
# Compressibility (1/GPa) = 0.03599964
#
# Stress axis : x y z
#
# Youngs Moduli (GPa) = 20.45464 27.37973 55.38271
#
# Poissons Ratio (x) = 0.17610 1.36445
# Poissons Ratio (y) = 0.13156 0.14763
# Poissons Ratio (z) = 0.50394 0.07298
#
# Static dielectric constant tensor:
#      x y z
#    x 1.576190 0.000000 -0.001880 
#    y 0.000000 1.601760 0.000000 
#    z -0.001880 0.000000 1.621510 
# 
# From -- ./inp_files/319679.got.cif
#   From: 2010.05.17/outbox.cif.g08.bks.cpg/sg12_160_cif.got.tgz:319679.got - 2010.06.03 13:09:07.
