data_PCOD9192841
_publ_section_title
;
Structure prediction by ZEFSAII (Michael W. Deem and Ramdas Pophale) SiO2 
 PCOD9192841
Probable space group: C 2/M
;
_chemical_formula_sum "Si O2"
_cell_formula_units_Z 56
_cell_length_a 11.744845
_cell_length_b 28.552023
_cell_length_c 9.039031
_cell_angle_alpha 90.000000
_cell_angle_beta 112.045256
_cell_angle_gamma 90.000000
_cell_volume 2809.526664
_symmetry_space_group_name_H-M "C 2/M"
_symmetry_group_IT_number 12
_symmetry_cell_setting 'monoclinic'
loop_
_space_group_symop_operation_xyz
x,y,z
-x,y,-z
-x,-y,-z
x,-y,z
1/2+x,1/2+y,z
1/2-x,1/2+y,-z
1/2-x,1/2-y,-z
1/2+x,1/2-y,z
loop_
_atom_site_type_symbol
_atom_site_label
_atom_site_fract_x
_atom_site_fract_y
_atom_site_fract_z
Si Si1 0.371135 0.782449 0.427086
Si Si2 0.262546 0.864477 0.264120
Si Si3 0.739869 0.356739 0.899875
Si Si4 0.515860 0.686229 0.179665
Si Si5 0.128373 0.555555 0.150376
Si Si6 0.152683 0.720864 0.244911
Si Si7 0.136806 0.552836 0.503049
O O1 0.500000 0.756386 0.500000
O O2 0.380848 0.832090 0.353187
O O3 0.272727 0.753665 0.285434
O O4 0.333544 0.793782 0.577202
O O5 0.143858 0.839243 0.281451
O O6 0.283507 0.912955 0.356569
O O7 0.250536 0.862376 0.081932
O O8 0.604847 0.334673 0.802042
O O9 0.768820 0.408444 0.855102
O O10 0.835886 0.320689 0.867411
O O11 0.539358 0.742430 0.190475
O O12 0.500000 0.674401 0.000000
O O13 0.154411 0.500000 0.140928
O O14 0.121668 0.564762 0.322690
O O15 0.000000 0.565105 0.000000
O O16 0.186408 0.500000 0.535853
O O17 0.000000 0.553108 0.500000
#
# Coordination Sequence:
#
# PCOD9192841 Si02
#       7
#     8   8   8   8   8   8   8
#     4  10  20  34  51  75 111 147 189 241 291 343
#     4  10  21  36  55  82 114 152 195 240 291 353
#     4  11  22  38  61  84 115 158 198 245 296 340
#     4   9  21  38  55  80 115 153 199 242 285 344
#     4  10  22  40  63  93 121 147 189 240 290 348
#     4  10  21  35  55  81 109 150 199 242 288 342
#     4  10  20  37  61  87 118 151 185 237 300 357
#
# _framework density 19.932182999999998
#
# number of rings (size 3 to 8) (size 9 to 14) (size 15 to 20)
#    0.000    2.000    0.000    3.000    0.000    9.714 
#    0.000    5.714    0.000    4.286    0.000    0.000 
#    0.000    0.000    0.000    0.000    0.000    0.000 
#
# Total GULP energy -155977.081084 kJ/mol
# GULP energy per Si atom -5570.610039 kJ/mol
# Density = 1.988682 g / cm^3
# Si number density = 19.932183 Si / 1000 Ang^3
#
#
#
# Elastic Constant Matrix: (Units=GPa)
#
#
# Indices 1 2 3 4 5 6 
#
# 1 64.7780 37.8856 22.6555 0.0000 -3.3906 0.0000
# 2 37.8856 94.9604 56.3503 0.0000 -6.2250 0.0000
# 3 22.6555 56.3503 94.9825 0.0000 -7.9032 0.0000
# 4 0.0000 0.0000 0.0000 33.8879 0.0000 -0.1734
# 5 -3.3906 -6.2250 -7.9032 0.0000 29.4057 0.0000
# 6 0.0000 0.0000 0.0000 -0.1734 0.0000 23.5579
#
#
#
# Elastic Compliance Matrix: (Units=1/GPa)
#
#
# Indices 1 2 3 4 5 6 
#
# 1 0.020147 -0.007988 -0.000014 0.000000 0.000628 0.000000
# 2 -0.007988 0.019442 -0.009577 0.000000 0.000621 0.000000
# 3 -0.000014 -0.009577 0.016412 0.000000 0.002382 0.000000
# 4 0.000000 0.000000 0.000000 0.029510 0.000000 0.000217
# 5 0.000628 0.000621 0.002382 0.000000 0.034851 0.000000
# 6 0.000000 0.000000 0.000000 0.000217 0.000000 0.042450
#
#
# Mechanical properties :
#
#
# Convention : Reuss Voigt Hill
#
# Bulk Modulus (GPa) = 47.98160 54.27818 51.12989
# Shear Modulus (GPa) = 24.40003 26.55893 25.47948
#
# Velocity S-wave (km/s) = 3.50258 3.65425 3.57922
# Velocity P-wave (km/s) = 6.36256 6.71530 6.54131
#
# Compressibility (1/GPa) = 0.02084132
#
# Stress axis : x y z
#
# Youngs Moduli (GPa) = 49.63473 51.43616 60.93274
#
# Poissons Ratio (x) = 0.41090 0.00085
# Poissons Ratio (y) = 0.39651 0.58355
# Poissons Ratio (z) = 0.00069 0.49261
#
# Static dielectric constant tensor:
#      x y z
#    x 1.802690 0.000000 0.005660 
#    y 0.000000 1.730400 0.000000 
#    z 0.005660 0.000000 1.714780 
# 
# From -- ./inp_files/53281.got.cif
#   From: 2010.05.17/outbox.cif.g08.bks.cpg/sg12_27_cif.got.tgz:53281.got - 2010.06.03 13:09:07.
