data_PCOD9192143
_publ_section_title
;
Structure prediction by ZEFSAII (Michael W. Deem and Ramdas Pophale) SiO2 
 PCOD9192143
Probable space group: C 2/M
;
_chemical_formula_sum "Si O2"
_cell_formula_units_Z 56
_cell_length_a 18.608548
_cell_length_b 11.043445
_cell_length_c 15.872933
_cell_angle_alpha 90.000000
_cell_angle_beta 128.171582
_cell_angle_gamma 90.000000
_cell_volume 2564.408041
_symmetry_space_group_name_H-M "C 2/M"
_symmetry_group_IT_number 12
_symmetry_cell_setting 'monoclinic'
loop_
_space_group_symop_operation_xyz
x,y,z
-x,y,-z
-x,-y,-z
x,-y,z
1/2+x,1/2+y,z
1/2-x,1/2+y,-z
1/2-x,1/2-y,-z
1/2+x,1/2-y,z
loop_
_atom_site_type_symbol
_atom_site_label
_atom_site_fract_x
_atom_site_fract_y
_atom_site_fract_z
Si Si1 0.211758 0.868339 0.662555
Si Si2 0.561010 0.640900 0.170329
Si Si3 0.980287 0.143342 0.279434
Si Si4 0.269087 0.361371 0.123483
Si Si5 0.857226 0.142695 0.944718
Si Si6 0.696689 0.870573 0.435320
Si Si7 0.563043 0.196987 0.475619
O O1 0.231351 0.865509 0.774952
O O2 0.299505 0.866862 0.663693
O O3 0.145917 0.761897 0.584528
O O4 0.166050 0.000000 0.613970
O O5 0.584240 0.500000 0.198868
O O6 0.548169 0.690918 0.255228
O O7 0.627913 0.678476 0.143305
O O8 0.458444 0.646584 0.057771
O O9 0.874842 0.161775 0.177133
O O10 0.001635 0.203503 0.383565
O O11 0.992197 0.000000 0.295238
O O12 0.244004 0.500000 0.076324
O O13 0.206403 0.244506 0.059071
O O14 0.827233 0.000000 0.928308
O O15 0.750000 0.750000 0.500000
O O16 0.607313 0.871879 0.428769
O O17 0.744646 0.000000 0.491093
O O18 0.500000 0.135277 0.500000
#
# Coordination Sequence:
#
# PCOD9192143 Si02
#       7
#     8   8   8   8   8   8   8
#     4   9  18  34  52  74 108 144 181 221 266 313
#     4   8  17  35  57  81 105 137 181 225 268 322
#     4  10  20  33  53  80 110 145 187 222 262 322
#     4  10  20  33  53  81 111 142 178 222 267 318
#     4   9  18  36  60  80 106 140 175 223 277 324
#     4   9  20  37  55  75 103 142 184 226 271 315
#     4  11  20  32  53  78 109 145 184 224 269 315
#
# _framework density 21.837396999999999
#
# number of rings (size 3 to 8) (size 9 to 14) (size 15 to 20)
#    0.000    2.571    1.429    1.286    2.000    2.000 
#    0.000    5.000    0.000    1.714    0.000    0.000 
#    0.000    0.000    0.000    0.000    0.000    0.000 
#
# Total GULP energy -155890.106550 kJ/mol
# GULP energy per Si atom -5567.503805 kJ/mol
# Density = 2.178769 g / cm^3
# Si number density = 21.837397 Si / 1000 Ang^3
#
#
#
# Elastic Constant Matrix: (Units=GPa)
#
#
# Indices 1 2 3 4 5 6 
#
# 1 143.7046 37.2367 11.0528 0.0000 -24.2129 0.0000
# 2 37.2367 106.4726 12.4528 0.0000 16.3520 0.0000
# 3 11.0528 12.4528 32.3598 0.0000 -15.5725 0.0000
# 4 0.0000 0.0000 0.0000 1.1793 0.0000 7.8769
# 5 -24.2129 16.3520 -15.5725 0.0000 38.7836 0.0000
# 6 0.0000 0.0000 0.0000 7.8769 0.0000 19.6566
#
#
#
# Elastic Compliance Matrix: (Units=1/GPa)
#
#
# Indices 1 2 3 4 5 6 
#
# 1 0.009678 -0.005247 0.003329 0.000000 0.009591 0.000000
# 2 -0.005247 0.014510 -0.010303 0.000000 -0.013531 0.000000
# 3 0.003329 -0.010303 0.045639 0.000000 0.024748 0.000000
# 4 0.000000 0.000000 0.000000 -0.505776 0.000000 0.202678
# 5 0.009591 -0.013531 0.024748 0.000000 0.047414 0.000000
# 6 0.000000 0.000000 0.000000 0.202678 0.000000 -0.030345
#
#
# Mechanical properties :
#
#
# Convention : Reuss Voigt Hill
#
# Bulk Modulus (GPa) = 22.03320 44.89127 33.46223
# Shear Modulus (GPa) = -13.18187 26.71022 6.76417
#
# Velocity S-wave (km/s) = -2.45957 3.50114 1.76189
# Velocity P-wave (km/s) = 1.43024 6.07829 4.41538
#
# Compressibility (1/GPa) = 0.04538606
#
# Stress axis : x y z
#
# Youngs Moduli (GPa) = 103.32297 68.91689 21.91088
#
# Poissons Ratio (x) = 0.36162 -0.07294
# Poissons Ratio (y) = 0.54216 0.22575
# Poissons Ratio (z) = -0.34398 0.71004
#
# Static dielectric constant tensor:
#      x y z
#    x 1.867090 0.000000 -0.032960 
#    y 0.000000 1.821790 0.000000 
#    z -0.032960 0.000000 1.793830 
# 
# From -- ./inp_files/276655.got.cif
#   From: 2010.05.17/outbox.cif.g08.bks.cpg/sg12_139_cif.got.tgz:276655.got - 2010.06.03 13:09:07.
