data_PCOD9192079
_publ_section_title
;
Structure prediction by ZEFSAII (Michael W. Deem and Ramdas Pophale) SiO2 
 PCOD9192079
Probable space group: C 2/M
;
_chemical_formula_sum "Si O2"
_cell_formula_units_Z 56
_cell_length_a 26.654942
_cell_length_b 20.355452
_cell_length_c 8.575989
_cell_angle_alpha 90.000000
_cell_angle_beta 130.832581
_cell_angle_gamma 90.000000
_cell_volume 3520.646803
_symmetry_space_group_name_H-M "C 2/M"
_symmetry_group_IT_number 12
_symmetry_cell_setting 'monoclinic'
loop_
_space_group_symop_operation_xyz
x,y,z
-x,y,-z
-x,-y,-z
x,-y,z
1/2+x,1/2+y,z
1/2-x,1/2+y,-z
1/2-x,1/2-y,-z
1/2+x,1/2-y,z
loop_
_atom_site_type_symbol
_atom_site_label
_atom_site_fract_x
_atom_site_fract_y
_atom_site_fract_z
Si Si1 0.568025 0.751686 0.203277
Si Si2 0.661744 0.423509 0.695584
Si Si3 0.106112 0.147874 0.015171
Si Si4 0.291802 0.574132 0.566789
Si Si5 0.779663 0.186588 0.970673
Si Si6 0.471173 0.656234 0.599978
Si Si7 0.790753 0.310187 0.500185
O O1 0.587916 0.696999 0.116873
O O2 0.555115 0.712420 0.337289
O O3 0.631589 0.797325 0.341585
O O4 0.500000 0.782280 0.000000
O O5 0.665541 0.500000 0.752821
O O6 0.678145 0.420275 0.545097
O O7 0.710270 0.375210 0.892071
O O8 0.587659 0.394062 0.557587
O O9 0.154350 0.094818 0.192541
O O10 0.147821 0.187353 0.967821
O O11 0.035731 0.122629 0.809763
O O12 0.270584 0.500000 0.550281
O O13 0.232288 0.625240 0.457353
O O14 0.750000 0.250000 0.000000
O O15 0.732389 0.180041 0.724838
O O16 0.500000 0.686029 0.500000
O O17 0.750000 0.250000 0.500000
#
# Coordination Sequence:
#
# PCOD9192079 Si02
#       7
#     8   8   8   8   8   8   8
#     4  10  20  35  56  81 109 137 184 227 275 321
#     4  11  23  37  51  77 114 150 184 225 270 327
#     4  10  20  33  53  77 104 147 180 229 259 327
#     4  10  21  36  55  77 106 142 187 230 270 325
#     4  11  21  32  53  79 105 141 184 229 274 314
#     4  11  20  34  51  75 112 150 180 220 269 322
#     4  11  19  35  59  79 105 140 183 231 277 323
#
# _framework density 15.906167999999999
#
# number of rings (size 3 to 8) (size 9 to 14) (size 15 to 20)
#    0.000    1.429    5.714    1.714    0.000    3.143 
#    0.000    1.429    0.000    0.429    0.000    0.000 
#    0.000    2.857    0.000    0.000    0.000    0.000 
#
# Total GULP energy -155952.108833 kJ/mol
# GULP energy per Si atom -5569.718173 kJ/mol
# Density = 1.586996 g / cm^3
# Si number density = 15.906168 Si / 1000 Ang^3
#
#
#
# Elastic Constant Matrix: (Units=GPa)
#
#
# Indices 1 2 3 4 5 6 
#
# 1 100.1299 57.8266 33.5713 0.0000 1.5787 0.0000
# 2 57.8266 99.8591 55.5799 0.0000 13.5912 0.0000
# 3 33.5713 55.5799 89.2257 0.0000 15.3857 0.0000
# 4 0.0000 0.0000 0.0000 22.1333 0.0000 -0.3747
# 5 1.5787 13.5912 15.3857 0.0000 34.1688 0.0000
# 6 0.0000 0.0000 0.0000 -0.3747 0.0000 20.2078
#
#
#
# Elastic Compliance Matrix: (Units=1/GPa)
#
#
# Indices 1 2 3 4 5 6 
#
# 1 0.015321 -0.008864 -0.000790 0.000000 0.003174 0.000000
# 2 -0.008864 0.020578 -0.008828 0.000000 -0.003801 0.000000
# 3 -0.000790 -0.008828 0.017772 0.000000 -0.004455 0.000000
# 4 0.000000 0.000000 0.000000 0.045195 0.000000 0.000838
# 5 0.003174 -0.003801 -0.004455 0.000000 0.032637 0.000000
# 6 0.000000 0.000000 0.000000 0.000838 0.000000 0.049501
#
#
# Mechanical properties :
#
#
# Convention : Reuss Voigt Hill
#
# Bulk Modulus (GPa) = 59.85687 64.79670 62.32679
# Shear Modulus (GPa) = 22.36753 24.78442 23.57598
#
# Velocity S-wave (km/s) = 3.75402 3.95164 3.85410
# Velocity P-wave (km/s) = 7.51686 7.85149 7.68600
#
# Compressibility (1/GPa) = 0.01670652
#
# Stress axis : x y z
#
# Youngs Moduli (GPa) = 65.26864 48.59563 56.26895
#
# Poissons Ratio (x) = 0.43078 0.04446
# Poissons Ratio (y) = 0.57857 0.49672
# Poissons Ratio (z) = 0.05157 0.42898
#
# Static dielectric constant tensor:
#      x y z
#    x 1.555050 0.000000 -0.008700 
#    y 0.000000 1.510880 0.000000 
#    z -0.008700 0.000000 1.580100 
# 
# From -- ./inp_files/87287.got.cif
#   From: 2010.05.17/outbox.cif.g08.bks.cpg/sg12_44_cif.got.tgz:87287.got - 2010.06.03 13:09:07.
