data_PCOD9192774
_publ_section_title
;
Structure prediction by ZEFSAII (Michael W. Deem and Ramdas Pophale) SiO2 
 PCOD9192774
Probable space group: C 2/M
;
_chemical_formula_sum "Si O2"
_cell_formula_units_Z 48
_cell_length_a 20.299849
_cell_length_b 7.531915
_cell_length_c 24.269312
_cell_angle_alpha 90.000000
_cell_angle_beta 40.658723
_cell_angle_gamma 90.000000
_cell_volume 2417.713328
_symmetry_space_group_name_H-M "C 2/M"
_symmetry_group_IT_number 12
_symmetry_cell_setting 'monoclinic'
loop_
_space_group_symop_operation_xyz
x,y,z
-x,y,-z
-x,-y,-z
x,-y,z
1/2+x,1/2+y,z
1/2-x,1/2+y,-z
1/2-x,1/2-y,-z
1/2+x,1/2-y,z
loop_
_atom_site_type_symbol
_atom_site_label
_atom_site_fract_x
_atom_site_fract_y
_atom_site_fract_z
Si Si1 0.238239 0.797910 0.414014
Si Si2 0.499142 0.203688 0.940079
Si Si3 0.432795 0.212978 0.777227
Si Si4 0.222853 0.788314 0.954040
Si Si5 0.603905 0.288604 0.591423
Si Si6 0.407530 0.781213 0.230451
O O1 0.324040 0.797094 0.407798
O O2 0.141528 0.721891 0.507877
O O3 0.300146 0.719733 0.323491
O O4 0.212773 0.000000 0.414953
O O5 0.564926 0.279970 0.848180
O O6 0.534851 0.000000 0.923929
O O7 0.500000 0.288018 0.000000
O O8 0.383659 0.204078 0.993213
O O9 0.318584 0.276154 0.857549
O O10 0.490737 0.258852 0.684226
O O11 0.504062 0.274818 0.782861
O O12 0.429867 0.000000 0.783157
O O13 0.211992 0.000000 0.953830
O O14 0.250000 0.750000 0.000000
O O15 0.623209 0.500000 0.580615
O O16 0.407589 0.000000 0.231004
#
# Coordination Sequence:
#
# PCOD9192774 Si02
#       6
#     8   8   8   8   8   8
#     4   8  14  24  37  55  87 123 150 182 231 284
#     4  10  20  34  51  72  99 130 165 202 239 286
#     4   9  17  29  44  62  90 125 152 186 239 289
#     4  11  21  34  52  72  97 128 164 202 245 292
#     4   9  15  22  36  61  88 115 149 191 230 273
#     4   8  13  26  44  62  88 123 156 185 230 284
#
# _framework density 19.853470999999999
#
# number of rings (size 3 to 8) (size 9 to 14) (size 15 to 20)
#    0.000    2.833    1.667    2.000    0.000    2.333 
#    0.000    0.000    0.000    0.000    0.000    1.167 
#    0.000    9.333    0.000    0.000    0.000    0.000 
#
# Total GULP energy -133663.798380 kJ/mol
# GULP energy per Si atom -5569.324932 kJ/mol
# Density = 1.980828 g / cm^3
# Si number density = 19.853471 Si / 1000 Ang^3
#
#
#
# Elastic Constant Matrix: (Units=GPa)
#
#
# Indices 1 2 3 4 5 6 
#
# 1 39.2316 -7.5647 34.9481 0.0001 17.8661 0.0002
# 2 -7.5647 58.7226 -3.5866 0.0004 2.9988 -0.0009
# 3 34.9481 -3.5866 233.1733 0.0001 25.3287 0.0002
# 4 0.0001 0.0004 0.0001 17.5753 0.0000 -4.0491
# 5 17.8661 2.9988 25.3287 0.0000 21.4746 -0.0001
# 6 0.0002 -0.0009 0.0002 -4.0491 -0.0001 5.7759
#
#
#
# Elastic Compliance Matrix: (Units=1/GPa)
#
#
# Indices 1 2 3 4 5 6 
#
# 1 0.045784 0.007550 -0.002860 -0.000001 -0.035771 -0.000001
# 2 0.007550 0.018470 0.000132 0.000000 -0.009016 0.000003
# 3 -0.002860 0.000132 0.005119 0.000000 -0.003676 0.000000
# 4 -0.000001 0.000000 0.000000 0.067858 0.000000 0.047570
# 5 -0.035771 -0.009016 -0.003676 0.000000 0.081921 0.000001
# 6 -0.000001 0.000003 0.000000 0.047570 0.000001 0.206481
#
#
# Mechanical properties :
#
#
# Convention : Reuss Voigt Hill
#
# Bulk Modulus (GPa) = 12.65573 42.08012 27.36793
# Shear Modulus (GPa) = 11.30383 29.45387 20.37885
#
# Velocity S-wave (km/s) = 2.38872 3.85588 3.20732
# Velocity P-wave (km/s) = 3.74117 6.40821 5.24698
#
# Compressibility (1/GPa) = 0.07901559
#
# Stress axis : x y z
#
# Youngs Moduli (GPa) = 21.84191 54.14100 195.36173
#
# Poissons Ratio (x) = -0.40876 0.55879
# Poissons Ratio (y) = -0.16490 -0.02577
# Poissons Ratio (z) = 0.06247 -0.00714
#
# Static dielectric constant tensor:
#      x y z
#    x 1.642870 0.000000 0.012180 
#    y 0.000000 1.803190 0.000000 
#    z 0.012180 0.000000 1.799690 
# 
# From -- ./inp_files/229303.got.cif
#   From: 2010.05.17/outbox.cif.g08.bks.cpg/sg12_115_cif.got.tgz:229303.got - 2010.06.03 13:09:07.
