data_PCOD9192958
_publ_section_title
;
Structure prediction by ZEFSAII (Michael W. Deem and Ramdas Pophale) SiO2 
 PCOD9192958
Probable space group: C 2/M
;
_chemical_formula_sum "Si O2"
_cell_formula_units_Z 56
_cell_length_a 15.933599
_cell_length_b 13.776628
_cell_length_c 17.274340
_cell_angle_alpha 90.000000
_cell_angle_beta 132.792596
_cell_angle_gamma 90.000000
_cell_volume 2782.572165
_symmetry_space_group_name_H-M "C 2/M"
_symmetry_group_IT_number 12
_symmetry_cell_setting 'monoclinic'
loop_
_space_group_symop_operation_xyz
x,y,z
-x,y,-z
-x,-y,-z
x,-y,z
1/2+x,1/2+y,z
1/2-x,1/2+y,-z
1/2-x,1/2-y,-z
1/2+x,1/2-y,z
loop_
_atom_site_type_symbol
_atom_site_label
_atom_site_fract_x
_atom_site_fract_y
_atom_site_fract_z
Si Si1 0.067345 0.258796 0.467293
Si Si2 0.368744 0.884789 0.265093
Si Si3 0.956915 0.114777 0.678020
Si Si4 0.081376 0.612234 0.127489
Si Si5 0.777705 0.881611 0.146539
Si Si6 0.261873 0.385916 0.667473
Si Si7 0.874773 0.618745 0.093398
O O1 0.098002 0.175850 0.425717
O O2 0.174429 0.319178 0.565331
O O3 0.000000 0.218060 0.500000
O O4 0.978101 0.331025 0.369371
O O5 0.263741 0.869770 0.258261
O O6 0.346506 0.853998 0.163144
O O7 0.392603 0.000000 0.278942
O O8 0.888021 0.132012 0.713989
O O9 0.089812 0.142766 0.765975
O O10 0.951070 0.000000 0.657983
O O11 0.103733 0.500000 0.163058
O O12 0.201141 0.653420 0.171421
O O13 0.000585 0.653703 0.144110
O O14 0.000000 0.611418 0.000000
O O15 0.770914 0.000000 0.143589
O O16 0.717014 0.851074 0.028733
O O17 0.235493 0.500000 0.636075
O O18 0.877685 0.500000 0.092228
#
# Coordination Sequence:
#
# PCOD9192958 Si02
#       7
#     8   8   8   8   8   8   8
#     4  10  20  35  54  74  97 128 167 218 265 298
#     4   9  17  31  53  79 101 125 166 215 257 295
#     4  10  20  34  52  74 103 140 172 199 247 313
#     4   7  10  19  38  64  95 131 165 196 235 282
#     4   8  14  26  44  68 102 139 169 199 242 299
#     4   9  18  34  55  76 100 132 170 211 255 303
#     4   8  13  24  45  73 102 131 167 210 247 284
#
# _framework density 20.125264999999999
#
# number of rings (size 3 to 8) (size 9 to 14) (size 15 to 20)
#    0.000    3.286    0.000    2.571    0.000    2.000 
#    0.000    5.714    0.000    7.714    0.000    0.000 
#    0.000    0.000    0.000    0.000    0.000    7.429 
#
# Total GULP energy -156118.109423 kJ/mol
# GULP energy per Si atom -5575.646765 kJ/mol
# Density = 2.007946 g / cm^3
# Si number density = 20.125265 Si / 1000 Ang^3
#
#
#
# Elastic Constant Matrix: (Units=GPa)
#
#
# Indices 1 2 3 4 5 6 
#
# 1 176.4266 31.5082 62.9854 0.0000 -5.8845 0.0000
# 2 31.5082 72.7221 17.5180 0.0000 -6.3953 0.0000
# 3 62.9854 17.5180 54.9713 0.0000 -10.6485 0.0000
# 4 0.0000 0.0000 0.0000 23.0661 0.0000 -4.4471
# 5 -5.8845 -6.3953 -10.6485 0.0000 31.5877 0.0000
# 6 0.0000 0.0000 0.0000 -4.4471 0.0000 6.1620
#
#
#
# Elastic Compliance Matrix: (Units=1/GPa)
#
#
# Indices 1 2 3 4 5 6 
#
# 1 0.009928 -0.001794 -0.011250 0.000000 -0.002306 0.000000
# 2 -0.001794 0.015287 -0.002440 0.000000 0.001938 0.000000
# 3 -0.011250 -0.002440 0.033549 0.000000 0.008720 0.000000
# 4 0.000000 0.000000 0.000000 0.050361 0.000000 0.036346
# 5 -0.002306 0.001938 0.008720 0.000000 0.034560 0.000000
# 6 0.000000 0.000000 0.000000 0.036346 0.000000 0.188515
#
#
# Mechanical properties :
#
#
# Convention : Reuss Voigt Hill
#
# Bulk Modulus (GPa) = 35.97965 58.68257 47.33111
# Shear Modulus (GPa) = 13.42520 24.97039 19.19780
#
# Velocity S-wave (km/s) = 2.58560 3.52625 3.09190
# Velocity P-wave (km/s) = 5.17981 6.76766 6.02626
#
# Compressibility (1/GPa) = 0.02779349
#
# Stress axis : x y z
#
# Youngs Moduli (GPa) = 100.72461 65.41668 29.80751
#
# Poissons Ratio (x) = 0.11737 0.33535
# Poissons Ratio (y) = 0.18072 0.07274
# Poissons Ratio (z) = 1.13319 0.15963
#
# Static dielectric constant tensor:
#      x y z
#    x 1.748070 0.000000 -0.001560 
#    y 0.000000 1.721620 0.000000 
#    z -0.001560 0.000000 1.671990 
# 
# From -- ./inp_files/270379.got.cif
#   From: 2010.05.17/outbox.cif.g08.bks.cpg/sg12_136_cif.got.tgz:270379.got - 2010.06.03 13:09:07.
