data_PCOD9192329
_publ_section_title
;
Structure prediction by ZEFSAII (Michael W. Deem and Ramdas Pophale) SiO2 
 PCOD9192329
Probable space group: C 2/M
;
_chemical_formula_sum "Si O2"
_cell_formula_units_Z 56
_cell_length_a 12.634960
_cell_length_b 21.180966
_cell_length_c 10.536818
_cell_angle_alpha 90.000000
_cell_angle_beta 97.181053
_cell_angle_gamma 90.000000
_cell_volume 2797.751369
_symmetry_space_group_name_H-M "C 2/M"
_symmetry_group_IT_number 12
_symmetry_cell_setting 'monoclinic'
loop_
_space_group_symop_operation_xyz
x,y,z
-x,y,-z
-x,-y,-z
x,-y,z
1/2+x,1/2+y,z
1/2-x,1/2+y,-z
1/2-x,1/2-y,-z
1/2+x,1/2-y,z
loop_
_atom_site_type_symbol
_atom_site_label
_atom_site_fract_x
_atom_site_fract_y
_atom_site_fract_z
Si Si1 0.580071 0.153139 0.757116
Si Si2 0.703783 0.332848 0.742465
Si Si3 0.835221 0.570744 0.452080
Si Si4 0.114737 0.572334 0.239573
Si Si5 0.985863 0.205951 0.775132
Si Si6 0.218947 0.786158 0.122204
Si Si7 0.889408 0.876367 0.535738
O O1 0.609525 0.124396 0.624158
O O2 0.496299 0.105827 0.808021
O O3 0.523212 0.222082 0.750804
O O4 0.693650 0.159999 0.844008
O O5 0.786637 0.386245 0.794485
O O6 0.596661 0.331029 0.809000
O O7 0.759515 0.265345 0.763642
O O8 0.663932 0.342768 0.593503
O O9 0.863331 0.500000 0.410264
O O10 0.871198 0.574910 0.604175
O O11 0.706690 0.580103 0.428655
O O12 0.119232 0.500000 0.200996
O O13 0.904564 0.199840 0.878964
O O14 0.925915 0.173618 0.647027
O O15 0.250000 0.750000 0.000000
O O16 0.000000 0.906984 0.500000
#
# Coordination Sequence:
#
# PCOD9192329 Si02
#       7
#     8   8   8   8   8   8   8
#     4  11  21  34  57  82 115 148 191 235 291 339
#     4   9  20  35  55  84 113 153 186 228 291 342
#     4  10  20  33  54  85 122 159 187 225 281 348
#     4  10  20  36  57  86 124 157 192 226 279 355
#     4  10  20  37  56  86 114 147 188 241 295 351
#     4  11  23  39  59  82 111 149 195 246 297 341
#     4   9  18  34  54  83 120 148 186 228 290 350
#
# _framework density 20.016074
#
# number of rings (size 3 to 8) (size 9 to 14) (size 15 to 20)
#    0.000    2.000    2.857    0.857    0.000   10.000 
#    0.000    2.143    0.000    2.571    0.000    1.000 
#    0.000    0.000    0.000    0.000    0.000    0.000 
#
# Total GULP energy -156187.749392 kJ/mol
# GULP energy per Si atom -5578.133907 kJ/mol
# Density = 1.997052 g / cm^3
# Si number density = 20.016074 Si / 1000 Ang^3
#
#
#
# Elastic Constant Matrix: (Units=GPa)
#
#
# Indices 1 2 3 4 5 6 
#
# 1 170.4248 62.0029 23.1250 0.0000 -22.1020 0.0000
# 2 62.0029 73.3448 8.5081 0.0000 -6.1106 0.0000
# 3 23.1250 8.5081 27.7630 0.0000 -13.0908 0.0000
# 4 0.0000 0.0000 0.0000 2.5045 0.0000 4.3948
# 5 -22.1020 -6.1106 -13.0908 0.0000 24.9431 0.0000
# 6 0.0000 0.0000 0.0000 4.3948 0.0000 20.1351
#
#
#
# Elastic Compliance Matrix: (Units=1/GPa)
#
#
# Indices 1 2 3 4 5 6 
#
# 1 0.009649 -0.007345 -0.003459 0.000000 0.004935 0.000000
# 2 -0.007345 0.019774 -0.000966 0.000000 -0.002171 0.000000
# 3 -0.003459 -0.000966 0.050017 0.000000 0.022948 0.000000
# 4 0.000000 0.000000 0.000000 0.647139 0.000000 -0.141249
# 5 0.004935 -0.002171 0.022948 0.000000 0.055976 0.000000
# 6 0.000000 0.000000 0.000000 -0.141249 0.000000 0.080495
#
#
# Mechanical properties :
#
#
# Convention : Reuss Voigt Hill
#
# Bulk Modulus (GPa) = 17.88870 50.97830 34.43350
# Shear Modulus (GPa) = 5.52349 21.37630 13.44990
#
# Velocity S-wave (km/s) = 1.66298 3.27151 2.59502
# Velocity P-wave (km/s) = 3.55583 6.30827 5.12046
#
# Compressibility (1/GPa) = 0.05590120
#
# Stress axis : x y z
#
# Youngs Moduli (GPa) = 103.63532 50.57069 19.99311
#
# Poissons Ratio (x) = 0.37142 0.06916
# Poissons Ratio (y) = 0.76116 0.01931
# Poissons Ratio (z) = 0.35852 0.04884
#
# Static dielectric constant tensor:
#      x y z
#    x 1.773510 0.000000 -0.018520 
#    y 0.000000 1.687140 0.000000 
#    z -0.018520 0.000000 1.734140 
# 
# From -- ./inp_files/133232.got.cif
#   From: 2010.05.17/outbox.cif.g08.bks.cpg/sg12_67_cif.got.tgz:133232.got - 2010.06.03 13:09:07.
