data_PCOD9192150
_publ_section_title
;
Structure prediction by ZEFSAII (Michael W. Deem and Ramdas Pophale) SiO2 
 PCOD9192150
Probable space group: C 2/M
;
_chemical_formula_sum "Si O2"
_cell_formula_units_Z 64
_cell_length_a 30.881368
_cell_length_b 7.514903
_cell_length_c 14.738380
_cell_angle_alpha 90.000000
_cell_angle_beta 57.457915
_cell_angle_gamma 90.000000
_cell_volume 2883.337379
_symmetry_space_group_name_H-M "C 2/M"
_symmetry_group_IT_number 12
_symmetry_cell_setting 'monoclinic'
loop_
_space_group_symop_operation_xyz
x,y,z
-x,y,-z
-x,-y,-z
x,-y,z
1/2+x,1/2+y,z
1/2-x,1/2+y,-z
1/2-x,1/2-y,-z
1/2+x,1/2-y,z
loop_
_atom_site_type_symbol
_atom_site_label
_atom_site_fract_x
_atom_site_fract_y
_atom_site_fract_z
Si Si1 0.917165 0.793809 0.936173
Si Si2 0.354441 0.783133 0.527500
Si Si3 0.278613 0.217490 0.774036
Si Si4 0.630988 0.786484 0.689835
Si Si5 0.134731 0.714794 0.192392
Si Si6 0.021702 0.294234 0.881000
Si Si7 0.441912 0.783349 0.560902
Si Si8 0.169026 0.212797 0.838434
O O1 0.882465 0.778671 0.886093
O O2 0.973436 0.710048 0.867142
O O3 0.927194 0.000000 0.942622
O O4 0.882877 0.716418 0.056661
O O5 0.310890 0.727770 0.648300
O O6 0.350540 0.719937 0.428827
O O7 0.409102 0.730893 0.509820
O O8 0.352689 0.000000 0.529570
O O9 0.310936 0.273589 0.826043
O O10 0.220432 0.279821 0.828939
O O11 0.278232 0.000000 0.775227
O O12 0.574162 0.716936 0.781506
O O13 0.667722 0.747364 0.733023
O O14 0.627355 0.000000 0.685011
O O15 0.135324 0.500000 0.188704
O O16 0.091492 0.769272 0.314161
O O17 0.033737 0.500000 0.887172
O O18 0.000000 0.215643 0.000000
O O19 0.500000 0.719060 0.500000
O O20 0.443195 0.000000 0.559489
O O21 0.168065 0.000000 0.852512
#
# Coordination Sequence:
#
# PCOD9192150 Si02
#       8
#     8   8   8   8   8   8   8   8
#     4  11  23  35  50  75 106 140 175 209 254 309
#     4   8  15  28  48  76 105 129 160 210 258 301
#     4   8  16  34  55  76 102 134 171 212 257 303
#     4  10  20  33  53  81 106 129 168 215 258 302
#     4   9  18  33  55  78 101 132 172 216 256 297
#     4  10  20  35  54  75 103 136 170 215 259 298
#     4   8  14  25  46  76 102 125 161 207 253 298
#     4  10  21  36  53  72 102 141 176 209 252 308
#
# _framework density 22.196501000000001
#
# number of rings (size 3 to 8) (size 9 to 14) (size 15 to 20)
#    0.000    2.750    1.250    1.875    1.750    2.250 
#    0.000    0.625    0.000    3.375    0.000    0.000 
#    0.000    0.000    0.000    0.000    0.000    0.000 
#
# Total GULP energy -178622.407536 kJ/mol
# GULP energy per Si atom -5581.950236 kJ/mol
# Density = 2.214598 g / cm^3
# Si number density = 22.196501 Si / 1000 Ang^3
#
#
#
# Elastic Constant Matrix: (Units=GPa)
#
#
# Indices 1 2 3 4 5 6 
#
# 1 108.3312 -0.6169 9.0728 0.0000 3.2294 0.0000
# 2 -0.6169 59.8979 1.4563 0.0000 -3.5961 0.0000
# 3 9.0728 1.4563 17.2225 0.0000 19.0522 0.0000
# 4 0.0000 0.0000 0.0000 -15.6304 0.0000 -6.0832
# 5 3.2294 -3.5961 19.0522 0.0000 39.1879 0.0000
# 6 0.0000 0.0000 0.0000 -6.0832 0.0000 0.6445
#
#
#
# Elastic Compliance Matrix: (Units=1/GPa)
#
#
# Indices 1 2 3 4 5 6 
#
# 1 0.009920 0.000569 -0.009580 0.000000 0.003892 0.000000
# 2 0.000569 0.017192 -0.007458 0.000000 0.005156 0.000000
# 3 -0.009580 -0.007458 0.137665 0.000000 -0.066824 0.000000
# 4 0.000000 0.000000 0.000000 -0.013689 0.000000 -0.129213
# 5 0.003892 0.005156 -0.066824 0.000000 0.058159 0.000000
# 6 0.000000 0.000000 0.000000 -0.129213 0.000000 0.332007
#
#
# Mechanical properties :
#
#
# Convention : Reuss Voigt Hill
#
# Bulk Modulus (GPa) = 7.58497 22.80842 15.19669
# Shear Modulus (GPa) = 8.08881 16.54303 12.31592
#
# Velocity S-wave (km/s) = 1.91105 2.73298 2.35810
# Velocity P-wave (km/s) = 2.87994 4.50076 3.77829
#
# Compressibility (1/GPa) = 0.13183976
#
# Stress axis : x y z
#
# Youngs Moduli (GPa) = 100.80162 58.16715 7.26402
#
# Poissons Ratio (x) = -0.03308 0.06959
# Poissons Ratio (y) = -0.05733 0.05417
# Poissons Ratio (z) = 0.96566 0.43379
#
# Static dielectric constant tensor:
#      x y z
#    x 1.813790 0.000000 0.000450 
#    y 0.000000 1.837600 0.000000 
#    z 0.000450 0.000000 1.813130 
# 
# From -- ./inp_files/248970.got.cif
#   From: 2010.05.17/outbox.cif.g08.bks.cpg/sg12_125_cif.got.tgz:248970.got - 2010.06.03 13:09:07.
