data_PCOD9192483
_publ_section_title
;
Structure prediction by ZEFSAII (Michael W. Deem and Ramdas Pophale) SiO2 
 PCOD9192483
Probable space group: C 2/M
;
_chemical_formula_sum "Si O2"
_cell_formula_units_Z 58
_cell_length_a 17.994732
_cell_length_b 9.764801
_cell_length_c 19.890924
_cell_angle_alpha 90.000000
_cell_angle_beta 126.700887
_cell_angle_gamma 90.000000
_cell_volume 2802.280379
_symmetry_space_group_name_H-M "C 2/M"
_symmetry_group_IT_number 12
_symmetry_cell_setting 'monoclinic'
loop_
_space_group_symop_operation_xyz
x,y,z
-x,y,-z
-x,-y,-z
x,-y,z
1/2+x,1/2+y,z
1/2-x,1/2+y,-z
1/2-x,1/2-y,-z
1/2+x,1/2-y,z
loop_
_atom_site_type_symbol
_atom_site_label
_atom_site_fract_x
_atom_site_fract_y
_atom_site_fract_z
Si Si1 0.372643 0.656935 0.565660
Si Si2 0.667752 0.160926 0.812293
Si Si3 0.168213 0.282675 0.588605
Si Si4 0.976042 0.342879 0.139720
Si Si5 0.625883 0.657080 0.280576
Si Si6 0.798999 0.334604 0.965905
Si Si7 0.500000 0.000000 0.500000
Si Si8 0.412766 0.645960 0.340107
O O1 0.337068 0.500000 0.550504
O O2 0.317814 0.745929 0.481978
O O3 0.385420 0.708940 0.648581
O O4 0.477124 0.653058 0.593213
O O5 0.591784 0.171310 0.831592
O O6 0.754863 0.257591 0.878470
O O7 0.621191 0.225786 0.721671
O O8 0.691305 0.000000 0.818383
O O9 0.264256 0.336341 0.671130
O O10 0.137786 0.153504 0.616158
O O11 0.082142 0.383756 0.546964
O O12 0.007285 0.500000 0.154126
O O13 0.062639 0.244799 0.197133
O O14 0.908256 0.317354 0.039771
O O15 0.594071 0.500000 0.261823
O O16 0.780123 0.500000 0.958067
O O17 0.750000 0.250000 0.000000
O O18 0.391837 0.500000 0.294213
#
# Coordination Sequence:
#
# PCOD9192483 Si02
#       8
#     8   8   8   8   8   8   2   8
#     4  10  21  39  59  83 111 147 194 249 296 346
#     4  10  20  33  56  88 120 155 197 243 295 352
#     4  12  24  41  59  82 115 158 200 245 298 355
#     4   9  19  35  54  84 121 156 189 239 295 350
#     4  11  23  38  59  87 116 151 198 246 300 351
#     4   9  17  31  53  83 120 157 197 239 293 350
#     4  12  24  40  58  80 116 154 200 244 296 358
#     4  11  22  37  61  84 115 156 199 245 295 350
#
# _framework density 20.697430000000001
#
# number of rings (size 3 to 8) (size 9 to 14) (size 15 to 20)
#    0.000    1.655    3.448    2.483    0.966    4.966 
#    1.241    0.000    0.000    0.828    0.000    4.828 
#    0.000    0.000    0.000    0.000    0.000    0.000 
#
# Total GULP energy -161501.355479 kJ/mol
# GULP energy per Si atom -5569.012258 kJ/mol
# Density = 2.065032 g / cm^3
# Si number density = 20.697430 Si / 1000 Ang^3
#
#
#
# Elastic Constant Matrix: (Units=GPa)
#
#
# Indices 1 2 3 4 5 6 
#
# 1 31.5584 7.4915 4.7724 0.0000 16.5153 0.0000
# 2 7.4915 124.5874 67.6183 0.0000 22.3524 0.0000
# 3 4.7724 67.6183 107.4402 0.0000 32.8328 0.0000
# 4 0.0000 0.0000 0.0000 -17.8962 0.0000 36.3309
# 5 16.5153 22.3524 32.8328 0.0000 24.6914 0.0000
# 6 0.0000 0.0000 0.0000 36.3309 0.0000 -13.4038
#
#
#
# Elastic Compliance Matrix: (Units=1/GPa)
#
#
# Indices 1 2 3 4 5 6 
#
# 1 0.063343 -0.002131 0.018336 0.000000 -0.064821 0.000000
# 2 -0.002131 0.012291 -0.007877 0.000000 0.000773 0.000000
# 3 0.018336 -0.007877 0.025300 0.000000 -0.038776 0.000000
# 4 0.000000 0.000000 0.000000 0.012410 0.000000 0.033638
# 5 -0.064821 0.000773 -0.038776 0.000000 0.134718 0.000000
# 6 0.000000 0.000000 0.000000 0.033638 0.000000 0.016570
#
#
# Mechanical properties :
#
#
# Convention : Reuss Voigt Hill
#
# Bulk Modulus (GPa) = 8.50412 47.03895 27.77154
# Shear Modulus (GPa) = 17.41117 10.92521 14.16819
#
# Velocity S-wave (km/s) = 2.90353 2.30000 2.61921
# Velocity P-wave (km/s) = 3.91898 5.46165 4.75331
#
# Compressibility (1/GPa) = 0.11759003
#
# Stress axis : x y z
#
# Youngs Moduli (GPa) = 15.78718 81.35935 39.52570
#
# Poissons Ratio (x) = 0.17337 -0.72475
# Poissons Ratio (y) = 0.03364 0.31134
# Poissons Ratio (z) = -0.28948 0.64087
#
# Static dielectric constant tensor:
#      x y z
#    x 1.770040 0.000000 -0.015060 
#    y 0.000000 1.724040 0.000000 
#    z -0.015060 0.000000 1.754550 
# 
# From -- ./inp_files/346511.got.cif
#   From: 2010.05.17/outbox.cif.g08.bks.cpg/sg12_174_cif.got.tgz:346511.got - 2010.06.03 13:09:07.
