data_PCOD9192400
_publ_section_title
;
Structure prediction by ZEFSAII (Michael W. Deem and Ramdas Pophale) SiO2 
 PCOD9192400
Probable space group: C 2/M
;
_chemical_formula_sum "Si O2"
_cell_formula_units_Z 64
_cell_length_a 25.546747
_cell_length_b 19.814467
_cell_length_c 18.854126
_cell_angle_alpha 90.000000
_cell_angle_beta 18.129166
_cell_angle_gamma 90.000000
_cell_volume 2969.672162
_symmetry_space_group_name_H-M "C 2/M"
_symmetry_group_IT_number 12
_symmetry_cell_setting 'monoclinic'
loop_
_space_group_symop_operation_xyz
x,y,z
-x,y,-z
-x,-y,-z
x,-y,z
1/2+x,1/2+y,z
1/2-x,1/2+y,-z
1/2-x,1/2-y,-z
1/2+x,1/2-y,z
loop_
_atom_site_type_symbol
_atom_site_label
_atom_site_fract_x
_atom_site_fract_y
_atom_site_fract_z
Si Si1 0.739242 0.212355 0.131014
Si Si2 0.647973 0.201983 0.752151
Si Si3 0.920250 0.578075 0.415119
Si Si4 0.795646 0.073969 0.988649
Si Si5 0.644980 0.798491 0.414317
Si Si6 0.840270 0.072963 0.531536
Si Si7 0.475793 0.175178 0.833881
Si Si8 0.692356 0.577294 0.261541
O O1 0.551512 0.220077 0.341528
O O2 0.724552 0.218126 0.235342
O O3 0.797125 0.136931 0.038703
O O4 0.867326 0.267112 0.934573
O O5 0.765420 0.256643 0.639067
O O6 0.754199 0.134332 0.604252
O O7 0.570748 0.214447 0.774562
O O8 0.500000 0.189941 0.000000
O O9 0.863883 0.500000 0.481365
O O10 0.906411 0.627003 0.364860
O O11 0.845783 0.622282 0.576036
O O12 0.121302 0.576339 0.170782
O O13 0.958227 0.079149 0.729484
O O14 0.803062 0.000000 0.014380
O O15 0.780718 0.074683 0.689011
O O16 0.795983 0.000000 0.557237
O O17 0.332627 0.125521 0.049548
O O18 0.500000 0.601786 0.500000
O O19 0.701966 0.500000 0.221152
#
# Coordination Sequence:
#
# PCOD9192400 Si02
#       8
#     8   8   8   8   8   8   8   8
#     4  10  22  39  67  97 119 162 213 257 316 370
#     4  12  24  41  59  87 128 168 207 257 308 368
#     4  10  23  42  66  95 126 164 209 263 316 369
#     4   9  20  40  64  95 128 157 203 262 315 369
#     4  10  23  42  65  92 126 163 211 262 310 375
#     4  10  21  36  57  84 120 163 201 246 305 371
#     4  12  24  37  61  90 126 164 204 258 306 375
#     4  10  20  33  55  85 118 159 203 247 301 367
#
# _framework density 21.551200000000001
#
# number of rings (size 3 to 8) (size 9 to 14) (size 15 to 20)
#    0.000    1.625    2.500    1.125    7.000    5.250 
#    0.000    2.500    0.000    0.375    0.000    0.000 
#    0.000    0.000    0.000    0.000    0.000    0.000 
#
# Total GULP energy -178754.688718 kJ/mol
# GULP energy per Si atom -5586.084022 kJ/mol
# Density = 2.150215 g / cm^3
# Si number density = 21.551200 Si / 1000 Ang^3
#
#
#
# Elastic Constant Matrix: (Units=GPa)
#
#
# Indices 1 2 3 4 5 6 
#
# 1 66.5365 35.1727 10.5428 0.0096 -2.5257 -0.0074
# 2 35.1727 119.7753 33.6330 -0.0050 -8.7938 -0.0100
# 3 10.5428 33.6330 40.3862 0.0014 0.7466 -0.0171
# 4 0.0096 -0.0050 0.0014 7.3491 -0.0072 16.0195
# 5 -2.5257 -8.7938 0.7466 -0.0072 19.0664 0.0085
# 6 -0.0074 -0.0100 -0.0171 16.0195 0.0085 14.1629
#
#
#
# Elastic Compliance Matrix: (Units=1/GPa)
#
#
# Indices 1 2 3 4 5 6 
#
# 1 0.017796 -0.005117 -0.000384 0.000026 0.000012 -0.000024
# 2 -0.005117 0.012951 -0.009554 -0.000028 0.005669 0.000023
# 3 -0.000384 -0.009554 0.032924 0.000066 -0.005747 -0.000038
# 4 0.000026 -0.000028 0.000066 -0.092848 -0.000094 0.105019
# 5 0.000012 0.005669 -0.005747 -0.000094 0.055290 0.000070
# 6 -0.000024 0.000023 -0.000038 0.105019 0.000070 -0.048178
#
#
# Mechanical properties :
#
#
# Convention : Reuss Voigt Hill
#
# Bulk Modulus (GPa) = 29.79800 42.82167 36.30984
# Shear Modulus (GPa) = 259.99194 17.93897 138.96546
#
# Velocity S-wave (km/s) = 10.99550 2.88824 8.03875
# Velocity P-wave (km/s) = 13.23095 5.57095 10.15120
#
# Compressibility (1/GPa) = 0.03355930
#
# Stress axis : x y z
#
# Youngs Moduli (GPa) = 56.19348 77.21630 30.37292
#
# Poissons Ratio (x) = 0.39511 0.01168
# Poissons Ratio (y) = 0.28754 0.29019
# Poissons Ratio (z) = 0.02160 0.73773
#
# Static dielectric constant tensor:
#      x y z
#    x 1.810100 0.000000 0.008920 
#    y 0.000000 1.805390 0.000000 
#    z 0.008920 0.000000 1.780310 
# 
# From -- ./inp_files/290923.got.cif
#   From: 2010.05.17/outbox.cif.g08.bks.cpg/sg12_146_cif.got.tgz:290923.got - 2010.06.03 13:09:07.
