data_PCOD9192505
_publ_section_title
;
Structure prediction by ZEFSAII (Michael W. Deem and Ramdas Pophale) SiO2 
 PCOD9192505
Probable space group: C 2/M
;
_chemical_formula_sum "Si O2"
_cell_formula_units_Z 48
_cell_length_a 12.766764
_cell_length_b 13.317506
_cell_length_c 14.542936
_cell_angle_alpha 90.000000
_cell_angle_beta 74.667292
_cell_angle_gamma 90.000000
_cell_volume 2384.602582
_symmetry_space_group_name_H-M "C 2/M"
_symmetry_group_IT_number 12
_symmetry_cell_setting 'monoclinic'
loop_
_space_group_symop_operation_xyz
x,y,z
-x,y,-z
-x,-y,-z
x,-y,z
1/2+x,1/2+y,z
1/2-x,1/2+y,-z
1/2-x,1/2-y,-z
1/2+x,1/2-y,z
loop_
_atom_site_type_symbol
_atom_site_label
_atom_site_fract_x
_atom_site_fract_y
_atom_site_fract_z
Si Si1 0.695878 0.883934 0.237059
Si Si2 0.156996 0.883700 0.540927
Si Si3 0.586723 0.323347 0.050014
Si Si4 0.171147 0.389620 0.026467
Si Si5 0.936988 0.879647 0.240660
Si Si6 0.884668 0.306387 0.564508
O O1 0.663524 0.882100 0.138901
O O2 0.822068 0.854197 0.218533
O O3 0.626054 0.819938 0.324167
O O4 0.689116 0.000000 0.270351
O O5 0.083117 0.857561 0.647251
O O6 0.130333 0.807894 0.465583
O O7 0.281368 0.864557 0.544520
O O8 0.141623 0.000000 0.521580
O O9 0.613329 0.211356 0.006760
O O10 0.531335 0.325585 0.162750
O O11 0.500000 0.370733 0.000000
O O12 0.701429 0.379204 0.026278
O O13 0.132175 0.500000 0.005907
O O14 0.953405 0.000000 0.228731
O O15 0.000000 0.343168 0.500000
#
# Coordination Sequence:
#
# PCOD9192505 Si02
#       6
#     8   8   8   8   8   8
#     4   9  18  34  55  80 108 137 179 226 262 306
#     4   9  20  37  53  79 112 141 176 225 269 311
#     4  11  21  34  59  83 105 141 180 218 263 322
#     4  10  22  37  54  82 113 139 174 221 266 317
#     4   9  17  32  57  80 105 139 179 222 263 308
#     4  10  20  33  57  79 103 144 180 223 259 320
#
# _framework density 20.129141000000001
#
# number of rings (size 3 to 8) (size 9 to 14) (size 15 to 20)
#    0.000    2.333    1.667    2.000    2.333    2.667 
#    0.000    0.000    0.000    1.000    0.000    0.000 
#    0.000    0.000    0.000    0.000    0.000    0.000 
#
# Total GULP energy -133964.346968 kJ/mol
# GULP energy per Si atom -5581.847790 kJ/mol
# Density = 2.008333 g / cm^3
# Si number density = 20.129141 Si / 1000 Ang^3
#
#
#
# Elastic Constant Matrix: (Units=GPa)
#
#
# Indices 1 2 3 4 5 6 
#
# 1 64.9422 8.5803 32.2537 0.0000 -25.3407 0.0000
# 2 8.5803 77.0548 23.8629 0.0000 -14.1149 0.0000
# 3 32.2537 23.8629 94.5722 0.0000 -32.6282 0.0000
# 4 0.0000 0.0000 0.0000 32.1802 0.0000 0.9794
# 5 -25.3407 -14.1149 -32.6282 0.0000 32.4249 0.0000
# 6 0.0000 0.0000 0.0000 0.9794 0.0000 5.7984
#
#
#
# Elastic Compliance Matrix: (Units=1/GPa)
#
#
# Indices 1 2 3 4 5 6 
#
# 1 0.022613 0.001143 -0.002653 0.000000 0.015501 0.000000
# 2 0.001143 0.014467 -0.002388 0.000000 0.004787 0.000000
# 3 -0.002653 -0.002388 0.016861 0.000000 0.013854 0.000000
# 4 0.000000 0.000000 0.000000 0.031236 0.000000 -0.005276
# 5 0.015501 0.004787 0.013854 0.000000 0.058980 0.000000
# 6 0.000000 0.000000 0.000000 -0.005276 0.000000 0.173352
#
#
# Mechanical properties :
#
#
# Convention : Reuss Voigt Hill
#
# Bulk Modulus (GPa) = 21.67084 40.66258 31.16671
# Shear Modulus (GPa) = 14.67625 25.53885 20.10755
#
# Velocity S-wave (km/s) = 2.70312 3.56582 3.16401
# Velocity P-wave (km/s) = 4.53120 6.09902 5.37261
#
# Compressibility (1/GPa) = 0.04614495
#
# Stress axis : x y z
#
# Youngs Moduli (GPa) = 44.22176 69.12208 59.30849
#
# Poissons Ratio (x) = -0.07900 0.15732
# Poissons Ratio (y) = -0.05054 0.14166
# Poissons Ratio (z) = 0.11730 0.16510
#
# Static dielectric constant tensor:
#      x y z
#    x 1.724900 0.000000 0.009420 
#    y 0.000000 1.725990 0.000000 
#    z 0.009420 0.000000 1.704620 
# 
# From -- ./inp_files/204265.got.cif
#   From: 2010.05.17/outbox.cif.g08.bks.cpg/sg12_103_cif.got.tgz:204265.got - 2010.06.03 13:09:07.
