data_PCOD9192718
_publ_section_title
;
Structure prediction by ZEFSAII (Michael W. Deem and Ramdas Pophale) SiO2 
 PCOD9192718
Probable space group: C 2/M
;
_chemical_formula_sum "Si O2"
_cell_formula_units_Z 58
_cell_length_a 14.885429
_cell_length_b 7.352961
_cell_length_c 20.964780
_cell_angle_alpha 90.000000
_cell_angle_beta 69.904241
_cell_angle_gamma 90.000000
_cell_volume 2154.938460
_symmetry_space_group_name_H-M "C 2/M"
_symmetry_group_IT_number 12
_symmetry_cell_setting 'monoclinic'
loop_
_space_group_symop_operation_xyz
x,y,z
-x,y,-z
-x,-y,-z
x,-y,z
1/2+x,1/2+y,z
1/2-x,1/2+y,-z
1/2-x,1/2-y,-z
1/2+x,1/2-y,z
loop_
_atom_site_type_symbol
_atom_site_label
_atom_site_fract_x
_atom_site_fract_y
_atom_site_fract_z
Si Si1 0.500000 0.500000 0.500000
Si Si2 0.364306 0.278892 0.911590
Si Si3 0.167375 0.220128 0.805479
Si Si4 0.232872 0.777598 0.409459
Si Si5 0.859678 0.208599 0.051164
Si Si6 0.002750 0.221211 0.761147
Si Si7 0.140201 0.212025 0.302648
Si Si8 0.410304 0.795455 0.440233
O O1 0.487849 0.657366 0.447460
O O2 0.360833 0.500000 0.914155
O O3 0.256243 0.212197 0.927053
O O4 0.433432 0.228007 0.837118
O O5 0.395820 0.216539 0.974853
O O6 0.123815 0.287557 0.882763
O O7 0.276479 0.275341 0.770622
O O8 0.106316 0.283064 0.759512
O O9 0.164351 0.000000 0.807556
O O10 0.188923 0.710472 0.354129
O O11 0.342931 0.732156 0.398102
O O12 0.166869 0.706910 0.482596
O O13 0.225213 0.000000 0.414819
O O14 0.892395 0.000000 0.046306
O O15 0.955169 0.286860 0.707133
O O16 0.003567 0.000000 0.757718
O O17 0.125762 0.000000 0.318216
O O18 0.444404 0.000000 0.424320
#
# Coordination Sequence:
#
# PCOD9192718 Si02
#       8
#     2   8   8   8   8   8   8   8
#     4  12  22  40  64 106 136 162 198 264 306 338
#     4   9  16  29  50  71  95 136 183 226 284 352
#     4  10  20  34  50  78 111 141 185 238 289 345
#     4   9  19  39  62  87 117 164 209 248 298 368
#     4   9  17  28  47  73 102 133 176 235 288 340
#     4   9  18  33  53  77 105 143 189 232 286 353
#     4  10  20  38  60  80 111 154 192 234 288 346
#     4  10  21  39  65  94 131 166 206 249 305 361
#
# _framework density 26.914919999999999
#
# number of rings (size 3 to 8) (size 9 to 14) (size 15 to 20)
#    0.000    2.483    2.069    0.207    0.966    1.103 
#    2.483    4.138    0.000    0.000    0.000    4.828 
#    0.000    0.000    0.000    0.000    0.000    0.000 
#
# Total GULP energy -162100.764926 kJ/mol
# GULP energy per Si atom -5589.681549 kJ/mol
# Density = 2.685366 g / cm^3
# Si number density = 26.914920 Si / 1000 Ang^3
#
#
#
# Elastic Constant Matrix: (Units=GPa)
#
#
# Indices 1 2 3 4 5 6 
#
# 1 138.5981 24.2260 52.2596 0.0000 29.5488 0.0000
# 2 24.2260 134.0207 14.6909 0.0001 7.7929 0.0001
# 3 52.2596 14.6909 126.3910 0.0000 41.0490 0.0000
# 4 0.0000 0.0001 0.0000 9.3052 0.0000 -5.1765
# 5 29.5488 7.7929 41.0490 0.0000 64.7780 0.0000
# 6 0.0000 0.0001 0.0000 -5.1765 0.0000 11.9381
#
#
#
# Elastic Compliance Matrix: (Units=1/GPa)
#
#
# Indices 1 2 3 4 5 6 
#
# 1 0.008959 -0.001181 -0.002878 0.000000 -0.002121 0.000000
# 2 -0.001181 0.007724 -0.000356 0.000000 -0.000165 0.000000
# 3 -0.002878 -0.000356 0.010958 0.000000 -0.005588 0.000000
# 4 0.000000 0.000000 0.000000 0.141630 0.000000 0.061412
# 5 -0.002121 -0.000165 -0.005588 0.000000 0.019966 0.000000
# 6 0.000000 0.000000 0.000000 0.061412 0.000000 0.110394
#
#
# Mechanical properties :
#
#
# Convention : Reuss Voigt Hill
#
# Bulk Modulus (GPa) = 53.16016 64.59586 58.87801
# Shear Modulus (GPa) = 15.88657 37.72649 26.80653
#
# Velocity S-wave (km/s) = 2.43214 3.74798 3.15933
# Velocity P-wave (km/s) = 5.26129 6.54079 5.93562
#
# Compressibility (1/GPa) = 0.01881108
#
# Stress axis : x y z
#
# Youngs Moduli (GPa) = 111.62106 129.47389 91.25380
#
# Poissons Ratio (x) = 0.15286 0.26266
# Poissons Ratio (y) = 0.13178 0.03248
# Poissons Ratio (z) = 0.32128 0.04609
#
# Static dielectric constant tensor:
#      x y z
#    x 2.121130 0.000000 0.005610 
#    y 0.000000 2.040170 0.000000 
#    z 0.005610 0.000000 2.132840 
# 
# From -- ./inp_files/337952.got.cif
#   From: 2010.05.17/outbox.cif.g08.bks.cpg/sg12_169_cif.got.tgz:337952.got - 2010.06.03 13:09:07.
