data_PCOD9192000
_publ_section_title
;
Structure prediction by ZEFSAII (Michael W. Deem and Ramdas Pophale) SiO2 
 PCOD9192000
Probable space group: C 2/M
;
_chemical_formula_sum "Si O2"
_cell_formula_units_Z 40
_cell_length_a 26.179028
_cell_length_b 10.135430
_cell_length_c 8.689755
_cell_angle_alpha 90.000000
_cell_angle_beta 67.038830
_cell_angle_gamma 90.000000
_cell_volume 2123.020205
_symmetry_space_group_name_H-M "C 2/M"
_symmetry_group_IT_number 12
_symmetry_cell_setting 'monoclinic'
loop_
_space_group_symop_operation_xyz
x,y,z
-x,y,-z
-x,-y,-z
x,-y,z
1/2+x,1/2+y,z
1/2-x,1/2+y,-z
1/2-x,1/2-y,-z
1/2+x,1/2-y,z
loop_
_atom_site_type_symbol
_atom_site_label
_atom_site_fract_x
_atom_site_fract_y
_atom_site_fract_z
Si Si1 0.203071 0.655284 0.984676
Si Si2 0.859695 0.151303 0.157662
Si Si3 0.418748 0.353048 0.404194
Si Si4 0.527236 0.255384 0.121595
Si Si5 0.907702 0.357108 0.683510
O O1 0.218292 0.500000 0.938697
O O2 0.152189 0.652616 0.165423
O O3 0.250000 0.750000 0.000000
O O4 0.179594 0.734831 0.863949
O O5 0.874911 0.172435 0.318578
O O6 0.839302 0.000000 0.160711
O O7 0.918443 0.165571 0.998317
O O8 0.409966 0.500000 0.473582
O O9 0.478968 0.342230 0.253664
O O10 0.415169 0.252802 0.547322
O O11 0.548673 0.159471 0.229067
O O12 0.500000 0.193306 0.000000
O O13 0.914134 0.500000 0.602658
#
# Coordination Sequence:
#
# PCOD9192000 Si02
#       5
#     8   8   8   8   8
#     4  10  21  38  59  80 101 131 173 219 267 316
#     4   9  18  34  55  79 107 139 177 218 257 301
#     4  10  20  33  52  79 110 144 178 211 252 305
#     4   9  18  32  52  78 108 143 181 217 252 297
#     4  10  22  36  51  77 109 138 172 216 264 313
#
# _framework density 18.841083999999999
#
# number of rings (size 3 to 8) (size 9 to 14) (size 15 to 20)
#    0.000    2.400    0.000    1.800    0.000   10.800 
#    0.000    5.000    0.000    0.000    0.000    0.000 
#    0.000    0.000    0.000    0.000    0.000    0.000 
#
# Total GULP energy -111487.782096 kJ/mol
# GULP energy per Si atom -5574.389105 kJ/mol
# Density = 1.879820 g / cm^3
# Si number density = 18.841084 Si / 1000 Ang^3
#
#
#
# Elastic Constant Matrix: (Units=GPa)
#
#
# Indices 1 2 3 4 5 6 
#
# 1 94.0870 73.6097 19.0972 0.0000 22.4363 0.0000
# 2 73.6097 170.8311 68.5932 0.0000 35.3286 0.0000
# 3 19.0972 68.5932 72.6850 0.0000 27.7403 0.0000
# 4 0.0000 0.0000 0.0000 19.0553 0.0000 7.3649
# 5 22.4363 35.3286 27.7403 0.0000 15.1489 0.0000
# 6 0.0000 0.0000 0.0000 7.3649 0.0000 10.7027
#
#
#
# Elastic Compliance Matrix: (Units=1/GPa)
#
#
# Indices 1 2 3 4 5 6 
#
# 1 0.031716 -0.009110 0.033484 0.000000 -0.087041 0.000000
# 2 -0.009110 0.014013 -0.011649 0.000000 0.002143 0.000000
# 3 0.033484 -0.011649 0.081400 0.000000 -0.171482 0.000000
# 4 0.000000 0.000000 0.000000 0.071493 0.000000 -0.049197
# 5 -0.087041 0.002143 -0.171482 0.000000 0.503938 0.000000
# 6 0.000000 0.000000 0.000000 -0.049197 0.000000 0.127289
#
#
# Mechanical properties :
#
#
# Convention : Reuss Voigt Hill
#
# Bulk Modulus (GPa) = 6.55402 73.35592 39.95497
# Shear Modulus (GPa) = 5.84619 20.73492 13.29055
#
# Velocity S-wave (km/s) = 1.76341 3.32100 2.65882
# Velocity P-wave (km/s) = 2.76266 7.32966 5.53878
#
# Compressibility (1/GPa) = 0.15257814
#
# Stress axis : x y z
#
# Youngs Moduli (GPa) = 31.53031 71.36108 12.28503
#
# Poissons Ratio (x) = 0.65010 -0.41135
# Poissons Ratio (y) = 0.28724 0.14311
# Poissons Ratio (z) = -1.05575 0.83127
#
# Static dielectric constant tensor:
#      x y z
#    x 1.674930 0.000000 0.004600 
#    y 0.000000 1.650480 0.000000 
#    z 0.004600 0.000000 1.632430 
# 
# From -- ./inp_files/92805.got.cif
#   From: 2010.05.17/outbox.cif.g08.bks.cpg/sg12_47_cif.got.tgz:92805.got - 2010.06.03 13:09:07.
