data_PCOD9192728
_publ_section_title
;
Structure prediction by ZEFSAII (Michael W. Deem and Ramdas Pophale) SiO2 
 PCOD9192728
Probable space group: C 2/M
;
_chemical_formula_sum "Si O2"
_cell_formula_units_Z 48
_cell_length_a 24.785657
_cell_length_b 7.524954
_cell_length_c 14.233000
_cell_angle_alpha 90.000000
_cell_angle_beta 71.551342
_cell_angle_gamma 90.000000
_cell_volume 2518.183286
_symmetry_space_group_name_H-M "C 2/M"
_symmetry_group_IT_number 12
_symmetry_cell_setting 'monoclinic'
loop_
_space_group_symop_operation_xyz
x,y,z
-x,y,-z
-x,-y,-z
x,-y,z
1/2+x,1/2+y,z
1/2-x,1/2+y,-z
1/2-x,1/2-y,-z
1/2+x,1/2-y,z
loop_
_atom_site_type_symbol
_atom_site_label
_atom_site_fract_x
_atom_site_fract_y
_atom_site_fract_z
Si Si1 0.268818 0.209968 0.884492
Si Si2 0.496696 0.282842 0.391764
Si Si3 0.621589 0.717981 0.634478
Si Si4 0.880740 0.210466 0.718878
Si Si5 0.196042 0.204122 0.752960
Si Si6 0.807064 0.784026 0.582776
O O1 0.333552 0.262494 0.824862
O O2 0.225097 0.286354 0.829988
O O3 0.267568 0.000000 0.871684
O O4 0.250000 0.250000 0.000000
O O5 0.500000 0.230749 0.500000
O O6 0.494124 0.500000 0.393365
O O7 0.439832 0.224309 0.369624
O O8 0.555008 0.222416 0.309514
O O9 0.621592 0.500000 0.636303
O O10 0.642613 0.780562 0.725186
O O11 0.667758 0.771232 0.530449
O O12 0.851656 0.274179 0.638549
O O13 0.886505 0.000000 0.704493
O O14 0.247190 0.207896 0.648762
O O15 0.181379 0.000000 0.783852
O O16 0.802881 0.000000 0.586893
#
# Coordination Sequence:
#
# PCOD9192728 Si02
#       6
#     8   8   8   8   8   8
#     4  10  20  34  51  68  87 113 149 195 242 279
#     4   9  14  23  42  69  98 127 157 182 205 248
#     4   9  15  24  40  64  95 126 151 178 213 255
#     4   9  16  27  46  72  96 119 152 187 218 259
#     4   9  18  29  42  64  92 117 145 186 232 269
#     4   9  15  24  41  64  92 124 153 178 208 258
#
# _framework density 19.061360000000001
#
# number of rings (size 3 to 8) (size 9 to 14) (size 15 to 20)
#    0.000    2.833    1.667    1.000    0.000    0.667 
#    0.000    0.000    0.000    3.500    0.000    7.000 
#    0.000    0.000    0.000    0.000    0.000    0.000 
#
# Total GULP energy -133738.392602 kJ/mol
# GULP energy per Si atom -5572.433025 kJ/mol
# Density = 1.901798 g / cm^3
# Si number density = 19.061360 Si / 1000 Ang^3
#
#
#
# Elastic Constant Matrix: (Units=GPa)
#
#
# Indices 1 2 3 4 5 6 
#
# 1 148.3139 -3.1802 71.0766 0.0000 20.7711 0.0000
# 2 -3.1802 42.9413 -11.8865 0.0000 2.6715 0.0000
# 3 71.0766 -11.8865 105.1478 0.0000 5.3929 0.0000
# 4 0.0000 0.0000 0.0000 -1.0848 0.0000 -9.7799
# 5 20.7711 2.6715 5.3929 0.0000 11.5302 0.0000
# 6 0.0000 0.0000 0.0000 -9.7799 0.0000 6.4246
#
#
#
# Elastic Compliance Matrix: (Units=1/GPa)
#
#
# Indices 1 2 3 4 5 6 
#
# 1 0.013476 0.000046 -0.008052 0.000000 -0.020521 0.000000
# 2 0.000046 0.024606 0.003122 0.000000 -0.007244 0.000000
# 3 -0.008052 0.003122 0.014958 0.000000 0.006785 0.000000
# 4 0.000000 0.000000 0.000000 -0.062608 0.000000 -0.095305
# 5 -0.020521 -0.007244 0.006785 0.000000 0.122201 0.000000
# 6 0.000000 0.000000 0.000000 -0.095305 0.000000 0.010572
#
#
# Mechanical properties :
#
#
# Convention : Reuss Voigt Hill
#
# Bulk Modulus (GPa) = 23.10925 45.38028 34.24477
# Shear Modulus (GPa) = 33.92205 19.40020 26.66113
#
# Velocity S-wave (km/s) = 4.22314 3.19372 3.74398
# Velocity P-wave (km/s) = 5.99414 6.12037 6.05759
#
# Compressibility (1/GPa) = 0.04327271
#
# Stress axis : x y z
#
# Youngs Moduli (GPa) = 74.20625 40.64060 66.85379
#
# Poissons Ratio (x) = -0.00187 0.53828
# Poissons Ratio (y) = -0.00341 -0.20872
# Poissons Ratio (z) = 0.59748 -0.12688
#
# Static dielectric constant tensor:
#      x y z
#    x 1.715500 0.000000 0.018190 
#    y 0.000000 1.733710 0.000000 
#    z 0.018190 0.000000 1.599090 
# 
# From -- ./inp_files/236582.got.cif
#   From: 2010.05.17/outbox.cif.g08.bks.cpg/sg12_119_cif.got.tgz:236582.got - 2010.06.03 13:09:07.
