data_PCOD9192692
_publ_section_title
;
Structure prediction by ZEFSAII (Michael W. Deem and Ramdas Pophale) SiO2 
 PCOD9192692
Probable space group: C 2/M
;
_chemical_formula_sum "Si O2"
_cell_formula_units_Z 64
_cell_length_a 21.767963
_cell_length_b 9.428795
_cell_length_c 16.493626
_cell_angle_alpha 90.000000
_cell_angle_beta 88.517594
_cell_angle_gamma 90.000000
_cell_volume 3384.112179
_symmetry_space_group_name_H-M "C 2/M"
_symmetry_group_IT_number 12
_symmetry_cell_setting 'monoclinic'
loop_
_space_group_symop_operation_xyz
x,y,z
-x,y,-z
-x,-y,-z
x,-y,z
1/2+x,1/2+y,z
1/2-x,1/2+y,-z
1/2-x,1/2-y,-z
1/2+x,1/2-y,z
loop_
_atom_site_type_symbol
_atom_site_label
_atom_site_fract_x
_atom_site_fract_y
_atom_site_fract_z
Si Si1 0.648135 0.752563 0.030094
Si Si2 0.734473 0.846013 0.882699
Si Si3 0.547951 0.841238 0.152348
Si Si4 0.835841 0.836877 0.236362
Si Si5 0.057626 0.153870 0.901794
Si Si6 0.529963 0.330499 0.310854
Si Si7 0.904175 0.670089 0.366358
Si Si8 0.426311 0.660920 0.519182
O O1 0.698652 0.670186 0.080618
O O2 0.607218 0.840804 0.093384
O O3 0.687057 0.833361 0.959701
O O4 0.599619 0.662433 0.979741
O O5 0.717713 0.725356 0.818743
O O6 0.726580 0.000000 0.844533
O O7 0.490525 0.779985 0.103549
O O8 0.555143 0.733437 0.226879
O O9 0.534728 0.000000 0.182025
O O10 0.895909 0.835369 0.175706
O O11 0.851684 0.736192 0.310967
O O12 0.825124 0.000000 0.260424
O O13 0.026346 0.000000 0.899326
O O14 0.516927 0.500000 0.306302
O O15 0.467553 0.243834 0.332839
O O16 0.576217 0.309727 0.384930
O O17 0.907368 0.500000 0.361845
O O18 0.897568 0.726929 0.458655
O O19 0.500000 0.660980 0.500000
O O20 0.404793 0.500000 0.502648
#
# Coordination Sequence:
#
# PCOD9192692 Si02
#       8
#     8   8   8   8   8   8   8   8
#     4  10  23  38  56  78 105 137 175 225 277 321
#     4  10  21  39  60  78 100 133 181 231 270 315
#     4  12  24  35  52  78 109 143 178 221 269 317
#     4  10  20  34  53  77 108 143 176 218 269 315
#     4  10  21  36  54  75 104 142 181 216 261 322
#     4  10  20  34  50  72 106 145 179 214 258 315
#     4  11  19  29  50  78 108 140 177 217 259 309
#     4   8  16  30  48  70 102 142 177 210 255 309
#
# _framework density 18.911902999999999
#
# number of rings (size 3 to 8) (size 9 to 14) (size 15 to 20)
#    0.000    1.875    1.250    4.125    0.000   11.750 
#    0.000    0.000    0.000    0.000    0.000    0.875 
#    0.000    0.000    0.000    0.000    0.000    0.000 
#
# Total GULP energy -178518.272435 kJ/mol
# GULP energy per Si atom -5578.696014 kJ/mol
# Density = 1.886886 g / cm^3
# Si number density = 18.911903 Si / 1000 Ang^3
#
#
#
# Elastic Constant Matrix: (Units=GPa)
#
#
# Indices 1 2 3 4 5 6 
#
# 1 40.6137 29.3221 33.3628 0.0000 10.5566 0.0000
# 2 29.3221 154.8624 60.2046 0.0000 20.4235 0.0000
# 3 33.3628 60.2046 107.6566 0.0000 29.6984 0.0000
# 4 0.0000 0.0000 0.0000 16.6848 0.0000 7.1060
# 5 10.5566 20.4235 29.6984 0.0000 18.2257 0.0000
# 6 0.0000 0.0000 0.0000 7.1060 0.0000 6.5783
#
#
#
# Elastic Compliance Matrix: (Units=1/GPa)
#
#
# Indices 1 2 3 4 5 6 
#
# 1 0.034209 -0.002900 -0.008011 0.000000 -0.003511 0.000000
# 2 -0.002900 0.008597 -0.003115 0.000000 -0.002878 0.000000
# 3 -0.008011 -0.003115 0.020474 0.000000 -0.025230 0.000000
# 4 0.000000 0.000000 0.000000 0.111004 0.000000 -0.119910
# 5 -0.003511 -0.002878 -0.025230 0.000000 0.101238 0.000000
# 6 0.000000 0.000000 0.000000 -0.119910 0.000000 0.281546
#
#
# Mechanical properties :
#
#
# Convention : Reuss Voigt Hill
#
# Bulk Modulus (GPa) = 28.38687 60.99020 44.68854
# Shear Modulus (GPa) = 8.37713 20.31396 14.34554
#
# Velocity S-wave (km/s) = 2.10693 3.28096 2.75716
# Velocity P-wave (km/s) = 4.57838 6.83173 5.81524
#
# Compressibility (1/GPa) = 0.03522755
#
# Stress axis : x y z
#
# Youngs Moduli (GPa) = 29.23169 116.31980 48.84330
#
# Poissons Ratio (x) = 0.33730 0.39130
# Poissons Ratio (y) = 0.08477 0.15215
# Poissons Ratio (z) = 0.23419 0.36234
#
# Static dielectric constant tensor:
#      x y z
#    x 1.642360 0.000000 0.004910 
#    y 0.000000 1.663960 0.000000 
#    z 0.004910 0.000000 1.692080 
# 
# From -- ./inp_files/281409.got.cif
#   From: 2010.05.17/outbox.cif.g08.bks.cpg/sg12_141_cif.got.tgz:281409.got - 2010.06.03 13:09:07.
