data_PCOD9192592
_publ_section_title
;
Structure prediction by ZEFSAII (Michael W. Deem and Ramdas Pophale) SiO2 
 PCOD9192592
Probable space group: C 2/M
;
_chemical_formula_sum "Si O2"
_cell_formula_units_Z 48
_cell_length_a 19.587929
_cell_length_b 14.857664
_cell_length_c 9.975815
_cell_angle_alpha 90.000000
_cell_angle_beta 134.620828
_cell_angle_gamma 90.000000
_cell_volume 2066.462745
_symmetry_space_group_name_H-M "C 2/M"
_symmetry_group_IT_number 12
_symmetry_cell_setting 'monoclinic'
loop_
_space_group_symop_operation_xyz
x,y,z
-x,y,-z
-x,-y,-z
x,-y,z
1/2+x,1/2+y,z
1/2-x,1/2+y,-z
1/2-x,1/2-y,-z
1/2+x,1/2-y,z
loop_
_atom_site_type_symbol
_atom_site_label
_atom_site_fract_x
_atom_site_fract_y
_atom_site_fract_z
Si Si1 0.193910 0.677961 0.334570
Si Si2 0.034290 0.000000 0.391663
Si Si3 0.866771 0.178419 0.411167
Si Si4 0.231711 0.500000 0.550840
Si Si5 0.656031 0.500000 0.042633
Si Si6 0.476050 0.000000 0.623617
Si Si7 0.162200 0.189046 0.927338
Si Si8 0.512192 0.193084 0.240246
O O1 0.250000 0.750000 0.500000
O O2 0.251866 0.682892 0.276135
O O3 0.218161 0.584566 0.438029
O O4 0.081659 0.692133 0.206329
O O5 0.095495 0.090432 0.460539
O O6 0.000000 0.000000 0.500000
O O7 0.950398 0.000000 0.166428
O O8 0.887655 0.166269 0.283919
O O9 0.920173 0.264080 0.548636
O O10 0.325212 0.500000 0.772937
O O11 0.139444 0.500000 0.521791
O O12 0.695399 0.596141 0.042304
O O13 0.500000 0.000000 0.500000
O O14 0.511827 0.091110 0.747213
O O15 0.080865 0.243665 0.895946
O O16 0.250000 0.250000 0.000000
#
# Coordination Sequence:
#
# PCOD9192592 Si02
#       8
#     8   4   8   4   4   4   8   8
#     4   9  21  39  67  88 130 175 218 270 326 414
#     4  12  19  39  66  94 128 177 221 274 334 412
#     4  11  20  40  66  91 126 174 230 262 327 410
#     4  10  23  41  61 100 132 163 217 283 341 384
#     4  12  26  41  62 101 141 164 217 293 350 386
#     4  10  20  33  62  87 120 162 213 279 318 388
#     4  12  26  39  66  99 135 175 220 283 337 396
#     4  10  21  39  60  94 123 170 225 269 330 399
#
# _framework density 23.228099
#
# number of rings (size 3 to 8) (size 9 to 14) (size 15 to 20)
#    0.000    1.333    3.333    2.000    9.333    0.000 
#    0.000    2.500    0.000    0.000    0.000    5.833 
#    0.000    0.000    0.000    0.000    0.000    0.000 
#
# Total GULP energy -134112.084262 kJ/mol
# GULP energy per Si atom -5588.003511 kJ/mol
# Density = 2.317523 g / cm^3
# Si number density = 23.228099 Si / 1000 Ang^3
#
#
#
# Elastic Constant Matrix: (Units=GPa)
#
#
# Indices 1 2 3 4 5 6 
#
# 1 147.1863 33.4164 15.6742 0.0000 23.5586 0.0000
# 2 33.4164 177.8616 20.1908 0.0000 16.7182 0.0000
# 3 15.6742 20.1908 87.3373 0.0000 9.5092 0.0000
# 4 0.0000 0.0000 0.0000 11.9583 0.0000 18.3399
# 5 23.5586 16.7182 9.5092 0.0000 30.5120 0.0000
# 6 0.0000 0.0000 0.0000 18.3399 0.0000 20.3077
#
#
#
# Elastic Compliance Matrix: (Units=1/GPa)
#
#
# Indices 1 2 3 4 5 6 
#
# 1 0.007937 -0.000910 -0.000622 0.000000 -0.005436 0.000000
# 2 -0.000910 0.006127 -0.000998 0.000000 -0.002344 0.000000
# 3 -0.000622 -0.000998 0.012091 0.000000 -0.002741 0.000000
# 4 0.000000 0.000000 0.000000 -0.217178 0.000000 0.196134
# 5 -0.005436 -0.002344 -0.002741 0.000000 0.039109 0.000000
# 6 0.000000 0.000000 0.000000 0.196134 0.000000 -0.127887
#
#
# Mechanical properties :
#
#
# Convention : Reuss Voigt Hill
#
# Bulk Modulus (GPa) = 47.40529 61.21646 54.31087
# Shear Modulus (GPa) = -18.67694 35.42919 8.37612
#
# Velocity S-wave (km/s) = -2.83868 3.90971 1.90102
# Velocity P-wave (km/s) = 3.11588 6.84053 5.31515
#
# Compressibility (1/GPa) = 0.02109469
#
# Stress axis : x y z
#
# Youngs Moduli (GPa) = 125.99291 163.21655 82.70832
#
# Poissons Ratio (x) = 0.14846 0.05147
# Poissons Ratio (y) = 0.11460 0.08254
# Poissons Ratio (z) = 0.07841 0.16289
#
# Static dielectric constant tensor:
#      x y z
#    x 1.950360 0.000000 0.216460 
#    y 0.000000 1.866460 0.000000 
#    z 0.216460 0.000000 2.429780 
# 
# From -- ./inp_files/167694.got.cif
#   From: 2010.05.17/outbox.cif.g08.bks.cpg/sg12_84_cif.got.tgz:167694.got - 2010.06.03 13:09:07.
