data_PCOD9192516
_publ_section_title
;
Structure prediction by ZEFSAII (Michael W. Deem and Ramdas Pophale) SiO2 
 PCOD9192516
Probable space group: C 2/M
;
_chemical_formula_sum "Si O2"
_cell_formula_units_Z 50
_cell_length_a 17.734634
_cell_length_b 7.602790
_cell_length_c 14.973192
_cell_angle_alpha 90.000000
_cell_angle_beta 82.510865
_cell_angle_gamma 90.000000
_cell_volume 2001.654047
_symmetry_space_group_name_H-M "C 2/M"
_symmetry_group_IT_number 12
_symmetry_cell_setting 'monoclinic'
loop_
_space_group_symop_operation_xyz
x,y,z
-x,y,-z
-x,-y,-z
x,-y,z
1/2+x,1/2+y,z
1/2-x,1/2+y,-z
1/2-x,1/2-y,-z
1/2+x,1/2-y,z
loop_
_atom_site_type_symbol
_atom_site_label
_atom_site_fract_x
_atom_site_fract_y
_atom_site_fract_z
Si Si1 0.022992 0.203998 0.275728
Si Si2 0.419260 0.791775 0.551044
Si Si3 0.140126 0.699573 0.120865
Si Si4 0.640657 0.288468 0.622451
Si Si5 0.000000 0.000000 0.000000
Si Si6 0.899500 0.291125 0.069846
Si Si7 0.768185 0.788074 0.229292
O O1 0.082232 0.216745 0.349833
O O2 0.062126 0.302163 0.188086
O O3 0.940907 0.273048 0.322970
O O4 0.014343 0.000000 0.254968
O O5 0.500000 0.723261 0.500000
O O6 0.359121 0.758582 0.482033
O O7 0.424472 0.000000 0.561985
O O8 0.165966 0.500000 0.100966
O O9 0.199532 0.785256 0.180078
O O10 0.133507 0.773628 0.022119
O O11 0.639030 0.500000 0.627142
O O12 0.709290 0.225442 0.675000
O O13 0.032562 0.843919 0.929475
O O14 0.917374 0.500000 0.062050
O O15 0.840645 0.254691 0.156988
O O16 0.756709 0.000000 0.238801
#
# Coordination Sequence:
#
# PCOD9192516 Si02
#       7
#     8   8   8   8   2   8   8
#     4  10  20  33  57  86 116 153 199 250 306 367
#     4   9  17  32  53  80 115 151 188 245 310 364
#     4  10  23  40  60  88 122 163 208 249 304 372
#     4   9  19  34  58  85 114 152 198 247 308 368
#     4  12  26  44  68  94 132 154 212 260 312 354
#     4  11  25  42  66  95 127 166 206 253 309 369
#     4  10  21  41  63  87 124 167 202 251 311 369
#
# _framework density 24.979339
#
# number of rings (size 3 to 8) (size 9 to 14) (size 15 to 20)
#    0.000    2.080    0.800    1.680    3.360    3.840 
#    0.000    0.800    0.000    0.000    0.000    0.000 
#    0.000    0.000    0.000    0.000    0.000    0.000 
#
# Total GULP energy -139424.768630 kJ/mol
# GULP energy per Si atom -5576.990745 kJ/mol
# Density = 2.492248 g / cm^3
# Si number density = 24.979339 Si / 1000 Ang^3
#
#
#
# Elastic Constant Matrix: (Units=GPa)
#
#
# Indices 1 2 3 4 5 6 
#
# 1 53.5555 6.5156 32.2623 0.0000 40.0546 0.0000
# 2 6.5156 69.1061 -7.7245 0.0000 15.4765 0.0000
# 3 32.2623 -7.7245 131.7002 0.0000 56.2275 0.0000
# 4 0.0000 0.0000 0.0000 16.3870 0.0000 -16.1578
# 5 40.0546 15.4765 56.2275 0.0000 55.2552 0.0000
# 6 0.0000 0.0000 0.0000 -16.1578 0.0000 7.2806
#
#
#
# Elastic Compliance Matrix: (Units=1/GPa)
#
#
# Indices 1 2 3 4 5 6 
#
# 1 0.044246 0.005692 0.006842 0.000000 -0.040630 0.000000
# 2 0.005692 0.018162 0.006373 0.000000 -0.015699 0.000000
# 3 0.006842 0.006373 0.016215 0.000000 -0.023245 0.000000
# 4 0.000000 0.000000 0.000000 -0.051357 0.000000 -0.113975
# 5 -0.040630 -0.015699 -0.023245 0.000000 0.075601 0.000000
# 6 0.000000 0.000000 0.000000 -0.113975 0.000000 -0.115592
#
#
# Mechanical properties :
#
#
# Convention : Reuss Voigt Hill
#
# Bulk Modulus (GPa) = 8.58836 35.16316 21.87576
# Shear Modulus (GPa) = -426.40490 30.67179 -197.86656
#
# Velocity S-wave (km/s) = -13.07951 3.50792 -8.90977
# Velocity P-wave (km/s) = 14.98841 5.52402 9.85235
#
# Compressibility (1/GPa) = 0.11643663
#
# Stress axis : x y z
#
# Youngs Moduli (GPa) = 22.60090 55.06022 61.67207
#
# Poissons Ratio (x) = -0.31342 -0.42193
# Poissons Ratio (y) = -0.12865 -0.39304
# Poissons Ratio (z) = -0.15462 -0.35090
#
# Static dielectric constant tensor:
#      x y z
#    x 2.086410 0.000000 0.070920 
#    y 0.000000 1.945260 0.000000 
#    z 0.070920 0.000000 2.011380 
# 
# From -- ./inp_files/230038.got.cif
#   From: 2010.05.17/outbox.cif.g08.bks.cpg/sg12_116_cif.got.tgz:230038.got - 2010.06.03 13:09:07.
