data_PCOD9192748
_publ_section_title
;
Structure prediction by ZEFSAII (Michael W. Deem and Ramdas Pophale) SiO2 
 PCOD9192748
Probable space group: C 2/M
;
_chemical_formula_sum "Si O2"
_cell_formula_units_Z 40
_cell_length_a 15.198358
_cell_length_b 7.599226
_cell_length_c 20.333150
_cell_angle_alpha 90.000000
_cell_angle_beta 57.502047
_cell_angle_gamma 90.000000
_cell_volume 1980.659273
_symmetry_space_group_name_H-M "C 2/M"
_symmetry_group_IT_number 12
_symmetry_cell_setting 'monoclinic'
loop_
_space_group_symop_operation_xyz
x,y,z
-x,y,-z
-x,-y,-z
x,-y,z
1/2+x,1/2+y,z
1/2-x,1/2+y,-z
1/2-x,1/2-y,-z
1/2+x,1/2-y,z
loop_
_atom_site_type_symbol
_atom_site_label
_atom_site_fract_x
_atom_site_fract_y
_atom_site_fract_z
Si Si1 0.019539 0.792059 0.796090
Si Si2 0.604017 0.210223 0.495547
Si Si3 0.910134 0.713006 0.086789
Si Si4 0.711769 0.711590 0.089031
Si Si5 0.161460 0.212753 0.620610
O O1 0.069131 0.771348 0.847843
O O2 0.092497 0.720446 0.709006
O O3 0.902716 0.717410 0.849015
O O4 0.009075 0.000000 0.786747
O O5 0.500000 0.278203 0.500000
O O6 0.718171 0.277599 0.426164
O O7 0.607854 0.242237 0.572452
O O8 0.604574 0.000000 0.484933
O O9 0.911627 0.500000 0.085595
O O10 0.799854 0.775409 0.103426
O O11 0.000000 0.772223 0.000000
O O12 0.707560 0.500000 0.095712
O O13 0.750000 0.750000 0.000000
O O14 0.166799 0.000000 0.621585
#
# Coordination Sequence:
#
# PCOD9192748 Si02
#       5
#     8   8   8   8   8
#     4  10  21  35  52  75 104 135 169 212 255 299
#     4   9  18  34  56  78 103 135 168 203 248 304
#     4  10  20  34  51  72  99 132 171 214 255 297
#     4  10  20  34  51  71  97 131 170 209 253 298
#     4   9  19  35  52  76 107 134 166 208 252 299
#
# _framework density 20.195295000000002
#
# number of rings (size 3 to 8) (size 9 to 14) (size 15 to 20)
#    0.000    2.400    2.000    0.000    0.000    4.000 
#    0.000    0.000    0.000    0.000    0.000    0.000 
#    0.000    0.000    0.000    0.000    0.000    0.000 
#
# Total GULP energy -111604.638985 kJ/mol
# GULP energy per Si atom -5580.231949 kJ/mol
# Density = 2.014933 g / cm^3
# Si number density = 20.195295 Si / 1000 Ang^3
#
#
#
# Elastic Constant Matrix: (Units=GPa)
#
#
# Indices 1 2 3 4 5 6 
#
# 1 208.8068 1.3885 120.7101 0.0000 -20.8029 0.0001
# 2 1.3885 42.3295 -0.0952 0.0000 -7.2511 0.0002
# 3 120.7101 -0.0952 209.7106 0.0000 -8.6991 0.0000
# 4 0.0000 0.0000 0.0000 14.4981 0.0000 10.6993
# 5 -20.8029 -7.2511 -8.6991 0.0000 18.1423 0.0000
# 6 0.0001 0.0002 0.0000 10.6993 0.0000 17.1041
#
#
#
# Elastic Compliance Matrix: (Units=1/GPa)
#
#
# Indices 1 2 3 4 5 6 
#
# 1 0.008022 0.001019 -0.004304 0.000000 0.007542 0.000000
# 2 0.001019 0.025530 -0.000105 0.000000 0.011322 -0.000001
# 3 -0.004304 -0.000105 0.007182 0.000000 -0.001534 0.000000
# 4 0.000000 0.000000 0.000000 0.128118 0.000000 -0.080143
# 5 0.007542 0.011322 -0.001534 0.000000 0.067557 0.000000
# 6 0.000000 -0.000001 0.000000 -0.080143 0.000000 0.108597
#
#
# Mechanical properties :
#
#
# Convention : Reuss Voigt Hill
#
# Bulk Modulus (GPa) = 29.45210 78.31708 53.88459
# Shear Modulus (GPa) = 13.77010 32.53848 23.15429
#
# Velocity S-wave (km/s) = 2.61405 4.01832 3.38970
# Velocity P-wave (km/s) = 4.87097 7.77131 6.48535
#
# Compressibility (1/GPa) = 0.03395344
#
# Stress axis : x y z
#
# Youngs Moduli (GPa) = 124.65865 39.16959 139.23152
#
# Poissons Ratio (x) = -0.03992 0.59927
# Poissons Ratio (y) = -0.12704 0.01467
# Poissons Ratio (z) = 0.53655 0.00413
#
# Static dielectric constant tensor:
#      x y z
#    x 1.699070 0.000000 -0.041840 
#    y 0.000000 1.800880 0.000000 
#    z -0.041840 0.000000 1.699380 
# 
# From -- ./inp_files/211171.got.cif
#   From: 2010.05.17/outbox.cif.g08.bks.cpg/sg12_106_cif.got.tgz:211171.got - 2010.06.03 13:09:07.
