data_PCOD9192506
_publ_section_title
;
Structure prediction by ZEFSAII (Michael W. Deem and Ramdas Pophale) SiO2 
 PCOD9192506
Probable space group: C 2/M
;
_chemical_formula_sum "Si O2"
_cell_formula_units_Z 50
_cell_length_a 13.767600
_cell_length_b 14.653295
_cell_length_c 12.610945
_cell_angle_alpha 90.000000
_cell_angle_beta 102.025795
_cell_angle_gamma 90.000000
_cell_volume 2488.306950
_symmetry_space_group_name_H-M "C 2/M"
_symmetry_group_IT_number 12
_symmetry_cell_setting 'monoclinic'
loop_
_space_group_symop_operation_xyz
x,y,z
-x,y,-z
-x,-y,-z
x,-y,z
1/2+x,1/2+y,z
1/2-x,1/2+y,-z
1/2-x,1/2-y,-z
1/2+x,1/2-y,z
loop_
_atom_site_type_symbol
_atom_site_label
_atom_site_fract_x
_atom_site_fract_y
_atom_site_fract_z
Si Si1 0.112559 0.104129 0.395070
Si Si2 0.704887 0.244706 0.281708
Si Si3 0.616487 0.604878 0.651856
Si Si4 0.000000 0.000000 0.000000
Si Si5 0.554140 0.900357 0.188728
Si Si6 0.129341 0.645788 0.971537
Si Si7 0.341914 0.341854 0.948788
O O1 0.188448 0.178812 0.367418
O O2 0.114605 0.104554 0.523205
O O3 0.997057 0.123339 0.336694
O O4 0.135071 0.000000 0.365320
O O5 0.802724 0.181266 0.300258
O O6 0.610997 0.176113 0.266750
O O7 0.694022 0.298037 0.169134
O O8 0.641627 0.500000 0.692059
O O9 0.080078 0.920158 0.049267
O O10 0.437557 0.887386 0.140888
O O11 0.575303 0.000000 0.237288
O O12 0.594947 0.892489 0.077085
O O13 0.243852 0.622986 0.984501
O O14 0.117150 0.755423 0.975746
#
# Coordination Sequence:
#
# PCOD9192506 Si02
#       7
#     8   8   8   2   8   8   8
#     4   9  20  38  60  85 117 151 186 234 287 352
#     4  11  21  35  57  89 114 145 189 241 285 336
#     4   9  19  39  62  85 113 150 191 231 291 348
#     4  12  24  40  52  82 118 160 188 232 288 330
#     4  10  20  33  57  80 105 142 194 236 276 332
#     4   9  19  40  54  73 109 151 185 231 288 331
#     4  10  23  36  54  78 112 148 190 232 281 341
#
# _framework density 20.093983999999999
#
# number of rings (size 3 to 8) (size 9 to 14) (size 15 to 20)
#    0.000    2.240    0.000    4.800    5.600    0.000 
#    2.880    0.000    0.000    0.000    0.000    5.600 
#    0.000    0.000    0.000    0.000    0.000    0.000 
#
# Total GULP energy -139256.020018 kJ/mol
# GULP energy per Si atom -5570.240801 kJ/mol
# Density = 2.004825 g / cm^3
# Si number density = 20.093984 Si / 1000 Ang^3
#
#
#
# Elastic Constant Matrix: (Units=GPa)
#
#
# Indices 1 2 3 4 5 6 
#
# 1 54.0007 44.0293 11.2478 0.0000 17.3825 0.0000
# 2 44.0293 123.5263 28.2291 0.0000 19.9630 0.0000
# 3 11.2478 28.2291 18.9329 0.0000 11.1534 0.0000
# 4 0.0000 0.0000 0.0000 28.3184 0.0000 7.0083
# 5 17.3825 19.9630 11.1534 0.0000 22.3111 0.0000
# 6 0.0000 0.0000 0.0000 7.0083 0.0000 53.5941
#
#
#
# Elastic Compliance Matrix: (Units=1/GPa)
#
#
# Indices 1 2 3 4 5 6 
#
# 1 0.031019 -0.009598 0.007173 0.000000 -0.019164 0.000000
# 2 -0.009598 0.015357 -0.019143 0.000000 0.003307 0.000000
# 3 0.007173 -0.019143 0.099646 0.000000 -0.038273 0.000000
# 4 0.000000 0.000000 0.000000 0.036494 0.000000 -0.004772
# 5 -0.019164 0.003307 -0.038273 0.000000 0.075925 0.000000
# 6 0.000000 0.000000 0.000000 -0.004772 0.000000 0.019283
#
#
# Mechanical properties :
#
#
# Convention : Reuss Voigt Hill
#
# Bulk Modulus (GPa) = 9.71962 40.38580 25.05271
# Shear Modulus (GPa) = 14.07830 28.37497 21.22663
#
# Velocity S-wave (km/s) = 2.64980 3.76189 3.25371
# Velocity P-wave (km/s) = 3.76955 6.24589 5.15852
#
# Compressibility (1/GPa) = 0.10288473
#
# Stress axis : x y z
#
# Youngs Moduli (GPa) = 32.23815 65.11710 10.03550
#
# Poissons Ratio (x) = 0.62502 -0.07198
# Poissons Ratio (y) = 0.30943 0.19211
# Poissons Ratio (z) = -0.23124 1.24655
#
# Static dielectric constant tensor:
#      x y z
#    x 1.758330 0.000000 -0.014490 
#    y 0.000000 1.730760 0.000000 
#    z -0.014490 0.000000 1.731860 
# 
# From -- ./inp_files/214392.got.cif
#   From: 2010.05.17/outbox.cif.g08.bks.cpg/sg12_108_cif.got.tgz:214392.got - 2010.06.03 13:09:07.
