data_PCOD9192525
_publ_section_title
;
Structure prediction by ZEFSAII (Michael W. Deem and Ramdas Pophale) SiO2 
 PCOD9192525
Probable space group: C 2/M
;
_chemical_formula_sum "Si O2"
_cell_formula_units_Z 64
_cell_length_a 9.387602
_cell_length_b 22.027331
_cell_length_c 15.533373
_cell_angle_alpha 90.000000
_cell_angle_beta 90.473769
_cell_angle_gamma 90.000000
_cell_volume 3211.940344
_symmetry_space_group_name_H-M "C 2/M"
_symmetry_group_IT_number 12
_symmetry_cell_setting 'monoclinic'
loop_
_space_group_symop_operation_xyz
x,y,z
-x,y,-z
-x,-y,-z
x,-y,z
1/2+x,1/2+y,z
1/2-x,1/2+y,-z
1/2-x,1/2-y,-z
1/2+x,1/2-y,z
loop_
_atom_site_type_symbol
_atom_site_label
_atom_site_fract_x
_atom_site_fract_y
_atom_site_fract_z
Si Si1 0.854316 0.070716 0.942665
Si Si2 0.834465 0.427717 0.906569
Si Si3 0.846006 0.341487 0.528043
Si Si4 0.039863 0.928617 0.799592
Si Si5 0.858862 0.848653 0.336209
Si Si6 0.003276 0.689336 0.897118
Si Si7 0.259013 0.744218 0.788995
Si Si8 0.368548 0.706097 0.606676
O O1 0.911664 0.099674 0.855492
O O2 0.817016 0.000000 0.928870
O O3 0.727156 0.094428 0.000715
O O4 0.000000 0.070568 0.000000
O O5 0.870809 0.500000 0.909450
O O6 0.695176 0.421033 0.845226
O O7 0.957483 0.381167 0.882304
O O8 0.770202 0.374045 0.607865
O O9 0.740716 0.335310 0.446641
O O10 0.861215 0.273694 0.567965
O O11 0.000000 0.363720 0.500000
O O12 0.051861 0.901326 0.706728
O O13 0.014985 0.000000 0.798407
O O14 0.813515 0.802110 0.260418
O O15 0.967543 0.813227 0.398027
O O16 0.880895 0.729610 0.851152
O O17 0.146065 0.708107 0.846932
O O18 0.000000 0.701491 0.000000
O O19 0.323612 0.708788 0.706993
#
# Coordination Sequence:
#
# PCOD9192525 Si02
#       8
#     8   8   8   8   8   8   8   8
#     4   7  12  26  49  78 105 136 194 252 286 320
#     4   9  18  35  58  83 110 153 211 263 300 337
#     4  10  20  33  57  88 113 145 181 240 293 358
#     4   9  17  31  55  85 114 150 198 250 299 348
#     4  11  20  34  58  86 119 146 188 238 300 360
#     4  12  25  41  56  81 123 166 204 246 298 360
#     4  11  23  40  56  84 117 162 200 239 296 362
#     4  10  20  35  58  83 115 144 188 242 292 351
#
# _framework density 19.925650000000001
#
# number of rings (size 3 to 8) (size 9 to 14) (size 15 to 20)
#    0.000    2.125    2.500    4.500    1.750    1.250 
#    2.250    0.000    0.000    2.625    0.000    0.000 
#    0.000    0.500    0.000    0.000    0.000    0.000 
#
# Total GULP energy -178461.963941 kJ/mol
# GULP energy per Si atom -5576.936373 kJ/mol
# Density = 1.988030 g / cm^3
# Si number density = 19.925650 Si / 1000 Ang^3
#
#
#
# Elastic Constant Matrix: (Units=GPa)
#
#
# Indices 1 2 3 4 5 6 
#
# 1 83.7603 31.2391 28.6017 0.0000 -17.0874 0.0000
# 2 31.2391 37.2405 30.7420 0.0000 -11.6314 0.0000
# 3 28.6017 30.7420 100.5851 0.0000 -15.4992 0.0000
# 4 0.0000 0.0000 0.0000 5.2691 0.0000 -2.2669
# 5 -17.0874 -11.6314 -15.4992 0.0000 38.5533 0.0000
# 6 0.0000 0.0000 0.0000 -2.2669 0.0000 20.4688
#
#
#
# Elastic Compliance Matrix: (Units=1/GPa)
#
#
# Indices 1 2 3 4 5 6 
#
# 1 0.017863 -0.013520 -0.000379 0.000000 0.003686 0.000000
# 2 -0.013520 0.047925 -0.010126 0.000000 0.004396 0.000000
# 3 -0.000379 -0.010126 0.013483 0.000000 0.002197 0.000000
# 4 0.000000 0.000000 0.000000 0.199279 0.000000 0.022070
# 5 0.003686 0.004396 0.002197 0.000000 0.029781 0.000000
# 6 0.000000 0.000000 0.000000 0.022070 0.000000 0.051299
#
#
# Mechanical properties :
#
#
# Convention : Reuss Voigt Hill
#
# Bulk Modulus (GPa) = 32.02935 44.75018 38.38976
# Shear Modulus (GPa) = 11.95923 21.59177 16.77550
#
# Velocity S-wave (km/s) = 2.45254 3.29540 2.90471
# Velocity P-wave (km/s) = 4.91216 6.08169 5.52794
#
# Compressibility (1/GPa) = 0.03122136
#
# Stress axis : x y z
#
# Youngs Moduli (GPa) = 55.98315 20.86581 74.16719
#
# Poissons Ratio (x) = 0.28210 0.02813
# Poissons Ratio (y) = 0.75687 0.75100
# Poissons Ratio (z) = 0.02123 0.21128
#
# Static dielectric constant tensor:
#      x y z
#    x 1.723300 0.000000 -0.015630 
#    y 0.000000 1.709340 0.000000 
#    z -0.015630 0.000000 1.757190 
# 
# From -- ./inp_files/198864.got.cif
#   From: 2010.05.17/outbox.cif.g08.bks.cpg/sg12_100_cif.got.tgz:198864.got - 2010.06.03 13:09:07.
