data_PCOD9192588
_publ_section_title
;
Structure prediction by ZEFSAII (Michael W. Deem and Ramdas Pophale) SiO2 
 PCOD9192588
Probable space group: C 2/M
;
_chemical_formula_sum "Si O2"
_cell_formula_units_Z 56
_cell_length_a 14.008019
_cell_length_b 29.319146
_cell_length_c 7.322464
_cell_angle_alpha 90.000000
_cell_angle_beta 130.823058
_cell_angle_gamma 90.000000
_cell_volume 2275.764937
_symmetry_space_group_name_H-M "C 2/M"
_symmetry_group_IT_number 12
_symmetry_cell_setting 'monoclinic'
loop_
_space_group_symop_operation_xyz
x,y,z
-x,y,-z
-x,-y,-z
x,-y,z
1/2+x,1/2+y,z
1/2-x,1/2+y,-z
1/2-x,1/2-y,-z
1/2+x,1/2-y,z
loop_
_atom_site_type_symbol
_atom_site_label
_atom_site_fract_x
_atom_site_fract_y
_atom_site_fract_z
Si Si1 0.208159 0.182931 0.526419
Si Si2 0.201138 0.698381 0.953602
Si Si3 0.258898 0.080776 0.488616
Si Si4 0.497263 0.549790 0.774609
Si Si5 0.531573 0.053216 0.758233
Si Si6 0.729211 0.397606 0.041567
Si Si7 0.948530 0.264971 0.728241
O O1 0.259218 0.183414 0.794912
O O2 0.210230 0.131652 0.465495
O O3 0.080488 0.212691 0.360723
O O4 0.315067 0.209809 0.545421
O O5 0.250000 0.750000 0.000000
O O6 0.254195 0.656416 0.904295
O O7 0.052124 0.705951 0.751938
O O8 0.151356 0.051813 0.453715
O O9 0.405897 0.070605 0.705801
O O10 0.247096 0.075766 0.254710
O O11 0.548492 0.500000 0.789882
O O12 0.500000 0.554411 0.000000
O O13 0.588950 0.588110 0.806644
O O14 0.500000 0.056052 0.500000
O O15 0.655602 0.084458 0.939156
O O16 0.554313 0.000000 0.828867
O O17 0.000000 0.264105 0.000000
#
# Coordination Sequence:
#
# PCOD9192588 Si02
#       7
#     8   8   8   8   8   8   8
#     4  10  22  40  60  82 112 162 191 249 296 352
#     4  11  25  40  56  85 119 158 201 247 295 354
#     4  10  20  33  60  87 115 151 198 243 294 353
#     4   9  18  34  57  86 117 151 191 239 294 352
#     4   9  17  33  58  90 120 149 193 249 300 347
#     4  10  21  35  57  87 118 152 196 249 294 347
#     4   9  21  39  60  80 110 153 202 243 288 348
#
# _framework density 24.607111
#
# number of rings (size 3 to 8) (size 9 to 14) (size 15 to 20)
#    0.000    2.286    0.000    1.714    8.000    4.571 
#    0.000    0.000    0.000    5.143    0.000    0.000 
#    0.000    0.000    0.000    0.000    0.000    0.000 
#
# Total GULP energy -156398.979607 kJ/mol
# GULP energy per Si atom -5585.677843 kJ/mol
# Density = 2.455110 g / cm^3
# Si number density = 24.607111 Si / 1000 Ang^3
#
#
#
# Elastic Constant Matrix: (Units=GPa)
#
#
# Indices 1 2 3 4 5 6 
#
# 1 94.7929 48.2330 40.5560 0.0000 31.4977 0.0000
# 2 48.2330 136.1927 13.1535 0.0000 31.9087 0.0000
# 3 40.5560 13.1535 60.8742 0.0000 13.7660 0.0000
# 4 0.0000 0.0000 0.0000 13.9269 0.0000 13.6639
# 5 31.4977 31.9087 13.7660 0.0000 39.9694 0.0000
# 6 0.0000 0.0000 0.0000 13.6639 0.0000 36.9357
#
#
#
# Elastic Compliance Matrix: (Units=1/GPa)
#
#
# Indices 1 2 3 4 5 6 
#
# 1 0.020041 -0.003975 -0.010453 0.000000 -0.009020 0.000000
# 2 -0.003975 0.009827 0.001725 0.000000 -0.005307 0.000000
# 3 -0.010453 0.001725 0.023281 0.000000 -0.001157 0.000000
# 4 0.000000 0.000000 0.000000 0.112713 0.000000 -0.041697
# 5 -0.009020 -0.005307 -0.001157 0.000000 0.036763 0.000000
# 6 0.000000 0.000000 0.000000 -0.041697 0.000000 0.042499
#
#
# Mechanical properties :
#
#
# Convention : Reuss Voigt Hill
#
# Bulk Modulus (GPa) = 36.04615 55.08276 45.56445
# Shear Modulus (GPa) = 17.87132 30.82755 24.34944
#
# Velocity S-wave (km/s) = 2.69786 3.54332 3.14909
# Velocity P-wave (km/s) = 4.93812 6.25888 5.63732
#
# Compressibility (1/GPa) = 0.02774221
#
# Stress axis : x y z
#
# Youngs Moduli (GPa) = 49.89689 101.76051 42.95407
#
# Poissons Ratio (x) = 0.40448 0.44902
# Poissons Ratio (y) = 0.19833 -0.07409
# Poissons Ratio (z) = 0.52159 -0.17552
#
# Static dielectric constant tensor:
#      x y z
#    x 2.060820 0.000000 0.018840 
#    y 0.000000 1.984240 0.000000 
#    z 0.018840 0.000000 2.005640 
# 
# From -- ./inp_files/68310.got.cif
#   From: 2010.05.17/outbox.cif.g08.bks.cpg/sg12_35_cif.got.tgz:68310.got - 2010.06.03 13:09:07.
