data_PCOD9192666
_publ_section_title
;
Structure prediction by ZEFSAII (Michael W. Deem and Ramdas Pophale) SiO2 
 PCOD9192666
Probable space group: C 2/M
;
_chemical_formula_sum "Si O2"
_cell_formula_units_Z 60
_cell_length_a 9.089324
_cell_length_b 22.285116
_cell_length_c 16.747959
_cell_angle_alpha 90.000000
_cell_angle_beta 105.744737
_cell_angle_gamma 90.000000
_cell_volume 3265.127626
_symmetry_space_group_name_H-M "C 2/M"
_symmetry_group_IT_number 12
_symmetry_cell_setting 'monoclinic'
loop_
_space_group_symop_operation_xyz
x,y,z
-x,y,-z
-x,-y,-z
x,-y,z
1/2+x,1/2+y,z
1/2-x,1/2+y,-z
1/2-x,1/2-y,-z
1/2+x,1/2-y,z
loop_
_atom_site_type_symbol
_atom_site_label
_atom_site_fract_x
_atom_site_fract_y
_atom_site_fract_z
Si Si1 0.851706 0.867934 0.696593
Si Si2 0.848162 0.070156 0.196323
Si Si3 0.950372 0.205309 0.400748
Si Si4 0.953269 0.428563 0.406542
Si Si5 0.304160 0.309376 0.108320
Si Si6 0.122857 0.712716 0.745714
Si Si7 0.155113 0.367935 0.303408
Si Si8 0.500000 0.249999 0.000000
O O1 0.925810 0.828930 0.636246
O O2 0.712778 0.905653 0.641550
O O3 0.776575 0.825823 0.754453
O O4 0.982515 0.911267 0.749408
O O5 0.812068 0.119843 0.124134
O O6 0.733107 0.088734 0.250592
O O7 0.837505 0.000000 0.175009
O O8 0.925535 0.267792 0.351075
O O9 0.000000 0.209191 0.500000
O O10 0.789562 0.171069 0.363756
O O11 0.954221 0.500000 0.408453
O O12 0.000000 0.405025 0.500000
O O13 0.071224 0.405655 0.358449
O O14 0.347382 0.270864 0.194764
O O15 0.135773 0.289322 0.057247
O O16 0.421470 0.289321 0.057245
O O17 0.977878 0.674178 0.754452
#
# Coordination Sequence:
#
# PCOD9192666 Si02
#       8
#     8   8   8   8   8   8   8   4
#     4  10  21  35  54  81 113 158 200 249 288 344
#     4  11  22  38  62  86 118 156 196 237 286 354
#     4  11  22  33  51  86 122 157 194 243 304 349
#     4  10  20  34  50  70 107 158 211 257 290 331
#     4  11  21  41  62  95 117 149 189 232 299 351
#     4  11  21  36  62  84 118 157 193 247 293 356
#     4  10  21  35  54  81 113 158 200 249 288 344
#     4  10  24  38  70  94 122 142 184 244 292 362
#
# _framework density 18.376004999999999
#
# number of rings (size 3 to 8) (size 9 to 14) (size 15 to 20)
#    0.000    1.467    2.667    4.000    0.000    4.267 
#    0.000    0.667    0.000    6.400    0.000    0.000 
#    0.000    0.000    0.000    0.000    0.000    0.000 
#
# Total GULP energy -167565.971477 kJ/mol
# GULP energy per Si atom -5585.532383 kJ/mol
# Density = 1.833418 g / cm^3
# Si number density = 18.376005 Si / 1000 Ang^3
#
#
#
# Elastic Constant Matrix: (Units=GPa)
#
#
# Indices 1 2 3 4 5 6 
#
# 1 143.5560 54.7834 42.8632 0.0000 1.5623 0.0000
# 2 54.7834 130.3792 47.6725 0.0000 0.1513 0.0000
# 3 42.8632 47.6725 88.0569 0.0000 -0.3934 0.0000
# 4 0.0000 0.0000 0.0000 25.1061 0.0000 -0.4415
# 5 1.5623 0.1513 -0.3934 0.0000 13.2204 0.0000
# 6 0.0000 0.0000 0.0000 -0.4415 0.0000 4.0525
#
#
#
# Elastic Compliance Matrix: (Units=1/GPa)
#
#
# Indices 1 2 3 4 5 6 
#
# 1 0.008853 -0.002670 -0.002869 0.000000 -0.001101 0.000000
# 2 -0.002670 0.010369 -0.004314 0.000000 0.000068 0.000000
# 3 -0.002869 -0.004314 0.015092 0.000000 0.000837 0.000000
# 4 0.000000 0.000000 0.000000 0.039907 0.000000 0.004348
# 5 -0.001101 0.000068 0.000837 0.000000 0.075795 0.000000
# 6 0.000000 0.000000 0.000000 0.004348 0.000000 0.247233
#
#
# Mechanical properties :
#
#
# Convention : Reuss Voigt Hill
#
# Bulk Modulus (GPa) = 68.45000 72.51448 70.48224
# Shear Modulus (GPa) = 11.85327 22.92068 17.38697
#
# Velocity S-wave (km/s) = 2.54252 3.53557 3.07934
# Velocity P-wave (km/s) = 6.77862 7.49761 7.14716
#
# Compressibility (1/GPa) = 0.01460920
#
# Stress axis : x y z
#
# Youngs Moduli (GPa) = 112.95136 96.44204 66.26028
#
# Poissons Ratio (x) = 0.25747 0.19011
# Poissons Ratio (y) = 0.30155 0.28583
# Poissons Ratio (z) = 0.32407 0.41603
#
# Static dielectric constant tensor:
#      x y z
#    x 1.648340 0.000000 0.000350 
#    y 0.000000 1.632590 0.000000 
#    z 0.000350 0.000000 1.631880 
# 
# From -- ./inp_files/198938.got.cif
#   From: 2010.05.17/outbox.cif.g08.bks.cpg/sg12_100_cif.got.tgz:198938.got - 2010.06.03 13:09:07.
