data_PCOD9192628
_publ_section_title
;
Structure prediction by ZEFSAII (Michael W. Deem and Ramdas Pophale) SiO2 
 PCOD9192628
Probable space group: C 2/M
;
_chemical_formula_sum "Si O2"
_cell_formula_units_Z 64
_cell_length_a 30.590475
_cell_length_b 7.268085
_cell_length_c 13.354941
_cell_angle_alpha 90.000000
_cell_angle_beta 70.658618
_cell_angle_gamma 90.000000
_cell_volume 2801.680646
_symmetry_space_group_name_H-M "C 2/M"
_symmetry_group_IT_number 12
_symmetry_cell_setting 'monoclinic'
loop_
_space_group_symop_operation_xyz
x,y,z
-x,y,-z
-x,-y,-z
x,-y,z
1/2+x,1/2+y,z
1/2-x,1/2+y,-z
1/2-x,1/2-y,-z
1/2+x,1/2-y,z
loop_
_atom_site_type_symbol
_atom_site_label
_atom_site_fract_x
_atom_site_fract_y
_atom_site_fract_z
Si Si1 0.696409 0.219425 0.007833
Si Si2 0.047895 0.275725 0.407552
Si Si3 0.568982 0.222299 0.770828
Si Si4 0.699559 0.782055 0.578221
Si Si5 0.157766 0.275419 0.820966
Si Si6 0.114793 0.276928 0.528982
Si Si7 0.974592 0.277565 0.919288
Si Si8 0.101445 0.275676 0.166868
O O1 0.655241 0.282400 0.115210
O O2 0.692190 0.000000 0.007275
O O3 0.750000 0.250000 0.000000
O O4 0.681105 0.285392 0.907594
O O5 0.044333 0.500000 0.404509
O O6 0.088628 0.216326 0.451423
O O7 0.068120 0.217913 0.283931
O O8 0.000000 0.218472 0.500000
O O9 0.604700 0.280225 0.831673
O O10 0.588550 0.277470 0.649686
O O11 0.515444 0.271715 0.812128
O O12 0.569687 0.000000 0.775766
O O13 0.750000 0.750000 0.500000
O O14 0.686680 0.716294 0.699744
O O15 0.666014 0.713660 0.515592
O O16 0.691245 0.000000 0.591856
O O17 0.157190 0.500000 0.825652
O O18 0.113847 0.500000 0.523829
O O19 0.970690 0.500000 0.932268
O O20 0.925595 0.218583 0.913846
O O21 0.000000 0.212203 0.000000
O O22 0.101793 0.500000 0.170915
#
# Coordination Sequence:
#
# PCOD9192628 Si02
#       8
#     8   8   8   8   8   8   8   8
#     4  10  20  34  49  65  90 124 162 200 236 272
#     4   9  15  23  36  57  90 124 145 171 225 289
#     4   8  12  20  35  54  77 106 137 165 204 264
#     4   9  17  29  45  65  88 114 148 188 230 273
#     4   8  15  28  44  61  86 120 150 182 228 277
#     4   8  14  23  35  52  76 108 140 168 204 259
#     4   9  14  19  31  52  77 103 131 167 212 259
#     4   9  17  26  37  58  87 117 149 187 229 272
#
# _framework density 22.843433000000001
#
# number of rings (size 3 to 8) (size 9 to 14) (size 15 to 20)
#    0.000    3.250    0.000    3.000    0.000    7.000 
#    0.000    1.875    0.000    0.000    0.000    0.000 
#    0.000   14.500    0.000    0.000    0.000    0.125 
#
# Total GULP energy -178221.153674 kJ/mol
# GULP energy per Si atom -5569.411052 kJ/mol
# Density = 2.279144 g / cm^3
# Si number density = 22.843433 Si / 1000 Ang^3
#
#
#
# Elastic Constant Matrix: (Units=GPa)
#
#
# Indices 1 2 3 4 5 6 
#
# 1 172.1834 -0.8161 84.3862 0.0000 -4.8017 0.0000
# 2 -0.8161 95.8687 0.8619 0.0000 1.6424 0.0000
# 3 84.3862 0.8619 120.7622 0.0000 7.4767 0.0000
# 4 0.0000 0.0000 0.0000 -26.6766 0.0000 -5.6480
# 5 -4.8017 1.6424 7.4767 0.0000 39.2711 0.0000
# 6 0.0000 0.0000 0.0000 -5.6480 0.0000 3.7263
#
#
#
# Elastic Compliance Matrix: (Units=1/GPa)
#
#
# Indices 1 2 3 4 5 6 
#
# 1 0.009040 0.000095 -0.006462 0.000000 0.002332 0.000000
# 2 0.000095 0.010440 -0.000116 0.000000 -0.000403 0.000000
# 3 -0.006462 -0.000116 0.012999 0.000000 -0.003260 0.000000
# 4 0.000000 0.000000 0.000000 -0.028379 0.000000 -0.043014
# 5 0.002332 -0.000403 -0.003260 0.000000 0.026387 0.000000
# 6 0.000000 0.000000 0.000000 -0.043014 0.000000 0.203165
#
#
# Mechanical properties :
#
#
# Convention : Reuss Voigt Hill
#
# Bulk Modulus (GPa) = 51.24843 61.96427 56.60635
# Shear Modulus (GPa) = 19.75328 23.55632 21.65480
#
# Velocity S-wave (km/s) = 2.94381 3.21473 3.08225
# Velocity P-wave (km/s) = 5.83421 6.40030 6.12380
#
# Compressibility (1/GPa) = 0.01951279
#
# Stress axis : x y z
#
# Youngs Moduli (GPa) = 110.61506 95.78833 76.92835
#
# Poissons Ratio (x) = -0.00911 0.49713
# Poissons Ratio (y) = -0.01052 0.00893
# Poissons Ratio (z) = 0.71482 0.01111
#
# Static dielectric constant tensor:
#      x y z
#    x 1.888150 0.000000 -0.073860 
#    y 0.000000 1.931160 0.000000 
#    z -0.073860 0.000000 1.971790 
# 
# From -- ./inp_files/188333.got.cif
#   From: 2010.05.17/outbox.cif.g08.bks.cpg/sg12_95_cif.got.tgz:188333.got - 2010.06.03 13:09:07.
