data_PCOD9192466
_publ_section_title
;
Structure prediction by ZEFSAII (Michael W. Deem and Ramdas Pophale) SiO2 
 PCOD9192466
Probable space group: C 2/M
;
_chemical_formula_sum "Si O2"
_cell_formula_units_Z 48
_cell_length_a 20.720934
_cell_length_b 15.768618
_cell_length_c 18.199217
_cell_angle_alpha 90.000000
_cell_angle_beta 159.301159
_cell_angle_gamma 90.000000
_cell_volume 2101.797759
_symmetry_space_group_name_H-M "C 2/M"
_symmetry_group_IT_number 12
_symmetry_cell_setting 'monoclinic'
loop_
_space_group_symop_operation_xyz
x,y,z
-x,y,-z
-x,-y,-z
x,-y,z
1/2+x,1/2+y,z
1/2-x,1/2+y,-z
1/2-x,1/2-y,-z
1/2+x,1/2-y,z
loop_
_atom_site_type_symbol
_atom_site_label
_atom_site_fract_x
_atom_site_fract_y
_atom_site_fract_z
Si Si1 0.300372 0.090758 0.820187
Si Si2 0.572055 0.094019 0.438767
Si Si3 0.828283 0.138271 0.013532
Si Si4 0.770490 0.316429 0.928539
Si Si5 0.848281 0.779625 0.451220
Si Si6 0.779978 0.093431 0.509401
O O1 0.321791 0.109500 0.928769
O O2 0.208416 0.168957 0.681000
O O3 0.208062 0.000000 0.709183
O O4 0.500000 0.086944 0.000000
O O5 0.351224 0.099095 0.216405
O O6 0.671719 0.178139 0.576034
O O7 0.630643 0.099315 0.414740
O O8 0.632379 0.000000 0.528103
O O9 0.879155 0.229361 0.032993
O O10 0.738447 0.157581 0.997067
O O11 0.020905 0.095444 0.238063
O O12 0.563260 0.292001 0.689955
O O13 0.768912 0.830534 0.438162
O O14 0.763981 0.000000 0.456053
#
# Coordination Sequence:
#
# PCOD9192466 Si02
#       6
#     8   8   8   8   8   8
#     4  11  25  38  56  88 121 157 194 234 290 355
#     4  10  21  35  58  87 115 151 197 246 294 345
#     4   9  19  36  59  85 117 150 191 243 292 336
#     4   9  20  37  57  83 111 155 196 228 289 348
#     4  10  21  38  57  79 117 157 194 240 291 345
#     4  10  20  33  56  86 116 155 195 239 295 349
#
# _framework density 22.837591
#
# number of rings (size 3 to 8) (size 9 to 14) (size 15 to 20)
#    0.000    2.167    0.000    3.000    4.667    4.667 
#    0.000    0.000    0.000    9.500    0.000    0.000 
#    0.000    0.000    0.000    0.000    0.000    0.000 
#
# Total GULP energy -133853.416302 kJ/mol
# GULP energy per Si atom -5577.225679 kJ/mol
# Density = 2.278561 g / cm^3
# Si number density = 22.837591 Si / 1000 Ang^3
#
#
#
# Elastic Constant Matrix: (Units=GPa)
#
#
# Indices 1 2 3 4 5 6 
#
# 1 25.2246 24.6991 0.3906 0.0059 3.0100 0.0017
# 2 24.6991 176.9037 43.7441 0.0127 -7.4435 -0.0023
# 3 0.3906 43.7441 63.7383 0.0056 11.8151 -0.0027
# 4 0.0059 0.0127 0.0056 11.5117 0.0044 -2.6894
# 5 3.0100 -7.4435 11.8151 0.0044 29.9830 -0.0001
# 6 0.0017 -0.0023 -0.0027 -2.6894 -0.0001 70.1687
#
#
#
# Elastic Compliance Matrix: (Units=1/GPa)
#
#
# Indices 1 2 3 4 5 6 
#
# 1 0.050022 -0.009439 0.008131 -0.000016 -0.010569 -0.000002
# 2 -0.009439 0.009018 -0.007252 -0.000004 0.006044 0.000000
# 3 0.008131 -0.007252 0.022764 -0.000003 -0.011587 0.000000
# 4 -0.000016 -0.000004 -0.000003 0.087653 -0.000011 0.003360
# 5 -0.010569 0.006044 -0.011587 -0.000011 0.040480 0.000000
# 6 -0.000002 0.000000 0.000000 0.003360 0.000000 0.014380
#
#
# Mechanical properties :
#
#
# Convention : Reuss Voigt Hill
#
# Bulk Modulus (GPa) = 15.45980 44.83712 30.14846
# Shear Modulus (GPa) = 19.01150 35.46821 27.23985
#
# Velocity S-wave (km/s) = 2.88838 3.94517 3.45739
# Velocity P-wave (km/s) = 4.23176 6.35831 5.40074
#
# Compressibility (1/GPa) = 0.06468390
#
# Stress axis : x y z
#
# Youngs Moduli (GPa) = 19.99127 110.88662 43.92863
#
# Poissons Ratio (x) = 1.04669 -0.35718
# Poissons Ratio (y) = 0.18870 0.31856
# Poissons Ratio (z) = -0.16255 0.80413
#
# Static dielectric constant tensor:
#      x y z
#    x 1.874930 0.000000 -0.053310 
#    y 0.000000 1.966410 0.000000 
#    z -0.053310 0.000000 1.961690 
# 
# From -- ./inp_files/325724.got.cif
#   From: 2010.05.17/outbox.cif.g08.bks.cpg/sg12_163_cif.got.tgz:325724.got - 2010.06.03 13:09:07.
