data_PCOD9192258
_publ_section_title
;
Structure prediction by ZEFSAII (Michael W. Deem and Ramdas Pophale) SiO2 
 PCOD9192258
Probable space group: C 2/M
;
_chemical_formula_sum "Si O2"
_cell_formula_units_Z 48
_cell_length_a 17.488234
_cell_length_b 14.295978
_cell_length_c 9.231637
_cell_angle_alpha 90.000000
_cell_angle_beta 86.997574
_cell_angle_gamma 90.000000
_cell_volume 2304.846399
_symmetry_space_group_name_H-M "C 2/M"
_symmetry_group_IT_number 12
_symmetry_cell_setting 'monoclinic'
loop_
_space_group_symop_operation_xyz
x,y,z
-x,y,-z
-x,-y,-z
x,-y,z
1/2+x,1/2+y,z
1/2-x,1/2+y,-z
1/2-x,1/2-y,-z
1/2+x,1/2-y,z
loop_
_atom_site_type_symbol
_atom_site_label
_atom_site_fract_x
_atom_site_fract_y
_atom_site_fract_z
Si Si1 0.564437 0.609128 0.705847
Si Si2 0.085976 0.788082 0.294969
Si Si3 0.798414 0.108774 0.540317
Si Si4 0.349908 0.892614 0.631636
Si Si5 0.786204 0.606995 0.969133
Si Si6 0.628995 0.717912 0.966514
O O1 0.559414 0.500000 0.748534
O O2 0.482617 0.643567 0.655793
O O3 0.635201 0.617809 0.588138
O O4 0.583612 0.675509 0.838356
O O5 0.168632 0.829999 0.332813
O O6 0.085148 0.686378 0.369617
O O7 0.084715 0.780378 0.122228
O O8 0.717109 0.132718 0.476101
O O9 0.794947 0.000000 0.583514
O O10 0.313454 0.890084 0.797726
O O11 0.373814 0.000000 0.602673
O O12 0.788332 0.500000 0.017284
O O13 0.701886 0.649984 0.979377
O O14 0.839103 0.677070 0.055736
#
# Coordination Sequence:
#
# PCOD9192258 Si02
#       6
#     8   8   8   8   8   8
#     4  11  22  37  55  77 111 146 171 208 272 330
#     4  11  22  33  53  85 110 133 174 227 264 304
#     4  10  20  36  57  78 104 141 179 213 262 320
#     4   9  18  36  58  77 102 143 183 214 257 314
#     4   9  17  33  55  78 105 140 178 216 260 314
#     4  10  20  33  54  80 107 138 176 218 265 309
#
# _framework density 20.825682
#
# number of rings (size 3 to 8) (size 9 to 14) (size 15 to 20)
#    0.000    2.000    1.667    2.500    0.000    4.667 
#    0.000    0.833    0.000    6.000    0.000    0.000 
#    0.000    0.000    0.000    0.000    0.000    0.000 
#
# Total GULP energy -134030.873502 kJ/mol
# GULP energy per Si atom -5584.619729 kJ/mol
# Density = 2.077828 g / cm^3
# Si number density = 20.825682 Si / 1000 Ang^3
#
#
#
# Elastic Constant Matrix: (Units=GPa)
#
#
# Indices 1 2 3 4 5 6 
#
# 1 36.0264 27.8888 2.7400 0.0000 8.5255 0.0000
# 2 27.8888 120.1084 19.1220 0.0000 13.2880 0.0000
# 3 2.7400 19.1220 38.0718 0.0000 20.9530 0.0000
# 4 0.0000 0.0000 0.0000 11.8233 0.0000 17.7474
# 5 8.5255 13.2880 20.9530 0.0000 22.3581 0.0000
# 6 0.0000 0.0000 0.0000 17.7474 0.0000 22.4251
#
#
#
# Elastic Compliance Matrix: (Units=1/GPa)
#
#
# Indices 1 2 3 4 5 6 
#
# 1 0.038888 -0.008756 0.014241 0.000000 -0.022971 0.000000
# 2 -0.008756 0.011079 -0.006501 0.000000 0.002847 0.000000
# 3 0.014241 -0.006501 0.060650 0.000000 -0.058405 0.000000
# 4 0.000000 0.000000 0.000000 -0.450006 0.000000 0.356138
# 5 -0.022971 0.002847 -0.058405 0.000000 0.106529 0.000000
# 6 0.000000 0.000000 0.000000 0.356138 0.000000 -0.237258
#
#
# Mechanical properties :
#
#
# Convention : Reuss Voigt Hill
#
# Bulk Modulus (GPa) = 9.20926 32.63425 20.92175
# Shear Modulus (GPa) = -11.57698 20.95170 4.68736
#
# Velocity S-wave (km/s) = -2.36031 3.17527 1.50188
# Velocity P-wave (km/s) = 1.73101 5.39883 3.61600
#
# Compressibility (1/GPa) = 0.10858637
#
# Stress axis : x y z
#
# Youngs Moduli (GPa) = 25.71470 90.26153 16.48802
#
# Poissons Ratio (x) = 0.79030 -0.23481
# Poissons Ratio (y) = 0.22515 0.10719
# Poissons Ratio (z) = -0.36621 0.58680
#
# Static dielectric constant tensor:
#      x y z
#    x 1.740050 0.000000 -0.002070 
#    y 0.000000 1.755250 0.000000 
#    z -0.002070 0.000000 1.753460 
# 
# From -- ./inp_files/73591.got.cif
#   From: 2010.05.17/outbox.cif.g08.bks.cpg/sg12_37_cif.got.tgz:73591.got - 2010.06.03 13:09:07.
