data_PCOD9192915
_publ_section_title
;
Structure prediction by ZEFSAII (Michael W. Deem and Ramdas Pophale) SiO2 
 PCOD9192915
Probable space group: C 2/M
;
_chemical_formula_sum "Si O2"
_cell_formula_units_Z 48
_cell_length_a 20.592669
_cell_length_b 7.911846
_cell_length_c 16.482463
_cell_angle_alpha 90.000000
_cell_angle_beta 108.478293
_cell_angle_gamma 90.000000
_cell_volume 2546.972031
_symmetry_space_group_name_H-M "C 2/M"
_symmetry_group_IT_number 12
_symmetry_cell_setting 'monoclinic'
loop_
_space_group_symop_operation_xyz
x,y,z
-x,y,-z
-x,-y,-z
x,-y,z
1/2+x,1/2+y,z
1/2-x,1/2+y,-z
1/2-x,1/2-y,-z
1/2+x,1/2-y,z
loop_
_atom_site_type_symbol
_atom_site_label
_atom_site_fract_x
_atom_site_fract_y
_atom_site_fract_z
Si Si1 0.014119 0.704532 0.761898
Si Si2 0.151552 0.703627 0.902801
Si Si3 0.965458 0.796616 0.568634
Si Si4 0.867267 0.702362 0.765001
Si Si5 0.680906 0.701547 0.427078
Si Si6 0.298948 0.795837 0.902791
O O1 0.013878 0.500000 0.765267
O O2 0.082207 0.766372 0.833700
O O3 0.009133 0.754548 0.665882
O O4 0.943949 0.766421 0.776439
O O5 0.147362 0.500000 0.904654
O O6 0.219399 0.748933 0.879435
O O7 0.164275 0.765004 0.999966
O O8 0.888190 0.733128 0.555733
O O9 0.000000 0.731420 0.500000
O O10 0.961558 0.000000 0.560525
O O11 0.872389 0.500000 0.775349
O O12 0.822859 0.737783 0.667278
O O13 0.833876 0.768390 0.834441
O O14 0.676433 0.500000 0.423759
O O15 0.750000 0.750000 0.500000
O O16 0.302922 0.000000 0.904198
#
# Coordination Sequence:
#
# PCOD9192915 Si02
#       6
#     8   8   8   8   8   8
#     4   9  18  32  50  72  97 124 157 199 241 281
#     4   9  18  32  49  72 100 127 159 199 241 283
#     4   9  19  35  52  70  94 125 160 196 235 283
#     4   9  18  33  51  71  96 127 163 199 237 283
#     4  10  20  34  52  73  98 127 159 198 241 285
#     4   9  18  32  50  71  97 130 163 196 236 284
#
# _framework density 18.845908000000001
#
# number of rings (size 3 to 8) (size 9 to 14) (size 15 to 20)
#    0.000    2.833    0.000    0.500    0.000    4.333 
#    0.000    8.333    0.000    0.000    0.000    9.333 
#    0.000    0.000    0.000    0.000    0.000    0.000 
#
# Total GULP energy -133833.890630 kJ/mol
# GULP energy per Si atom -5576.412110 kJ/mol
# Density = 1.880301 g / cm^3
# Si number density = 18.845908 Si / 1000 Ang^3
#
#
#
# Elastic Constant Matrix: (Units=GPa)
#
#
# Indices 1 2 3 4 5 6 
#
# 1 136.7109 3.1925 139.5786 0.0000 -3.7027 0.0000
# 2 3.1925 13.5365 0.4570 0.0000 -4.5033 0.0000
# 3 139.5786 0.4570 168.7189 0.0000 -5.2211 0.0000
# 4 0.0000 0.0000 0.0000 21.0419 0.0000 0.1963
# 5 -3.7027 -4.5033 -5.2211 0.0000 45.4207 0.0000
# 6 0.0000 0.0000 0.0000 0.1963 0.0000 20.0419
#
#
#
# Elastic Compliance Matrix: (Units=1/GPa)
#
#
# Indices 1 2 3 4 5 6 
#
# 1 0.048545 -0.010664 -0.040185 0.000000 -0.001719 0.000000
# 2 -0.010664 0.078737 0.008855 0.000000 0.007955 0.000000
# 3 -0.040185 0.008855 0.039213 0.000000 0.002110 0.000000
# 4 0.000000 0.000000 0.000000 0.047529 0.000000 -0.000466
# 5 -0.001719 0.007955 0.002110 0.000000 0.022907 0.000000
# 6 0.000000 0.000000 0.000000 -0.000466 0.000000 0.049900
#
#
# Mechanical properties :
#
#
# Convention : Reuss Voigt Hill
#
# Bulk Modulus (GPa) = 12.12016 67.26917 39.69466
# Shear Modulus (GPa) = 12.55269 29.01676 20.78472
#
# Velocity S-wave (km/s) = 2.58363 3.92814 3.32456
# Velocity P-wave (km/s) = 3.91732 7.50636 5.98711
#
# Compressibility (1/GPa) = 0.08250719
#
# Stress axis : x y z
#
# Youngs Moduli (GPa) = 20.59947 12.70046 25.50201
#
# Poissons Ratio (x) = 0.13544 1.02479
# Poissons Ratio (y) = 0.21968 -0.22583
# Poissons Ratio (z) = 0.82779 -0.11247
#
# Static dielectric constant tensor:
#      x y z
#    x 1.634760 0.000000 -0.028300 
#    y 0.000000 1.686780 0.000000 
#    z -0.028300 0.000000 1.607950 
# 
# From -- ./inp_files/229875.got.cif
#   From: 2010.05.17/outbox.cif.g08.bks.cpg/sg12_115_cif.got.tgz:229875.got - 2010.06.03 13:09:07.
