data_PCOD9192043
_publ_section_title
;
Structure prediction by ZEFSAII (Michael W. Deem and Ramdas Pophale) SiO2 
 PCOD9192043
Probable space group: C 2/M
;
_chemical_formula_sum "Si O2"
_cell_formula_units_Z 56
_cell_length_a 21.027267
_cell_length_b 15.069693
_cell_length_c 8.014776
_cell_angle_alpha 90.000000
_cell_angle_beta 92.667428
_cell_angle_gamma 90.000000
_cell_volume 2536.926045
_symmetry_space_group_name_H-M "C 2/M"
_symmetry_group_IT_number 12
_symmetry_cell_setting 'monoclinic'
loop_
_space_group_symop_operation_xyz
x,y,z
-x,y,-z
-x,-y,-z
x,-y,z
1/2+x,1/2+y,z
1/2-x,1/2+y,-z
1/2-x,1/2-y,-z
1/2+x,1/2-y,z
loop_
_atom_site_type_symbol
_atom_site_label
_atom_site_fract_x
_atom_site_fract_y
_atom_site_fract_z
Si Si1 0.113153 0.401714 0.788350
Si Si2 0.750395 0.101998 0.667895
Si Si3 0.329368 0.096913 0.830861
Si Si4 0.082413 0.212072 0.831947
Si Si5 0.806434 0.101086 0.306086
Si Si6 0.360552 0.285808 0.790143
Si Si7 0.470141 0.601490 0.680321
O O1 0.085367 0.500000 0.753071
O O2 0.175148 0.387975 0.680801
O O3 0.070249 0.314076 0.777359
O O4 0.141854 0.403230 0.980113
O O5 0.773473 0.114419 0.481217
O O6 0.790452 0.171904 0.779475
O O7 0.765677 0.000000 0.719091
O O8 0.252997 0.106638 0.827907
O O9 0.356711 0.182689 0.742203
O O10 0.342070 0.000000 0.754743
O O11 0.138910 0.169840 0.729012
O O12 0.020499 0.152722 0.800738
O O13 0.108423 0.209182 0.023279
O O14 0.832541 0.000000 0.304146
O O15 0.404337 0.345516 0.677588
O O16 0.500000 0.601532 0.500000
O O17 0.460078 0.500000 0.732240
#
# Coordination Sequence:
#
# PCOD9192043 Si02
#       7
#     8   8   8   8   8   8   8
#     4   9  19  36  56  80 111 144 179 220 265 316
#     4  10  20  33  52  81 115 148 180 218 268 321
#     4   9  19  36  56  80 111 144 179 220 265 316
#     4  11  22  36  57  82 107 141 183 224 268 316
#     4  10  20  33  52  81 115 148 180 218 268 321
#     4  11  22  36  57  82 107 141 183 224 268 316
#     4  11  25  43  60  79 106 140 177 219 268 321
#
# _framework density 22.073957
#
# number of rings (size 3 to 8) (size 9 to 14) (size 15 to 20)
#    0.000    1.857    0.000    3.857    0.000   12.000 
#    0.000    0.714    0.000    4.286    0.000    0.000 
#    0.000    0.000    0.000    0.000    0.000    0.000 
#
# Total GULP energy -156556.104042 kJ/mol
# GULP energy per Si atom -5591.289430 kJ/mol
# Density = 2.202372 g / cm^3
# Si number density = 22.073957 Si / 1000 Ang^3
#
#
#
# Elastic Constant Matrix: (Units=GPa)
#
#
# Indices 1 2 3 4 5 6 
#
# 1 22.6626 40.0473 2.6483 0.0000 -2.1630 0.0000
# 2 40.0473 163.3738 37.5071 0.0000 -12.1072 0.0000
# 3 2.6483 37.5071 32.7448 0.0000 -1.7063 0.0000
# 4 0.0000 0.0000 0.0000 13.9259 0.0000 -6.9309
# 5 -2.1630 -12.1072 -1.7063 0.0000 25.7124 0.0000
# 6 0.0000 0.0000 0.0000 -6.9309 0.0000 13.2364
#
#
#
# Elastic Compliance Matrix: (Units=1/GPa)
#
#
# Indices 1 2 3 4 5 6 
#
# 1 0.090727 -0.028227 0.024786 0.000000 -0.004014 0.000000
# 2 -0.028227 0.017374 -0.017376 0.000000 0.004653 0.000000
# 3 0.024786 -0.017376 0.048286 0.000000 -0.002892 0.000000
# 4 0.000000 0.000000 0.000000 0.097118 0.000000 0.050853
# 5 -0.004014 0.004653 -0.002892 0.000000 0.040553 0.000000
# 6 0.000000 0.000000 0.000000 0.050853 0.000000 0.102177
#
#
# Mechanical properties :
#
#
# Convention : Reuss Voigt Hill
#
# Bulk Modulus (GPa) = 8.71436 42.13185 25.42310
# Shear Modulus (GPa) = 10.50154 19.81350 15.15752
#
# Velocity S-wave (km/s) = 2.18352 2.99924 2.62328
# Velocity P-wave (km/s) = 3.21145 5.57871 4.55167
#
# Compressibility (1/GPa) = 0.11475313
#
# Stress axis : x y z
#
# Youngs Moduli (GPa) = 11.02211 57.55697 20.70976
#
# Poissons Ratio (x) = 1.62468 -0.51331
# Poissons Ratio (y) = 0.31112 0.35984
# Poissons Ratio (z) = -0.27319 1.00008
#
# Static dielectric constant tensor:
#      x y z
#    x 1.778690 0.000000 0.008290 
#    y 0.000000 1.835430 0.000000 
#    z 0.008290 0.000000 1.834830 
# 
# From -- ./inp_files/86324.got.cif
#   From: 2010.05.17/outbox.cif.g08.bks.cpg/sg12_44_cif.got.tgz:86324.got - 2010.06.03 13:09:07.
