data_PCOD9192597
_publ_section_title
;
Structure prediction by ZEFSAII (Michael W. Deem and Ramdas Pophale) SiO2 
 PCOD9192597
Probable space group: C 2/M
;
_chemical_formula_sum "Si O2"
_cell_formula_units_Z 48
_cell_length_a 11.401002
_cell_length_b 27.916303
_cell_length_c 10.548432
_cell_angle_alpha 90.000000
_cell_angle_beta 46.493327
_cell_angle_gamma 90.000000
_cell_volume 2435.022818
_symmetry_space_group_name_H-M "C 2/M"
_symmetry_group_IT_number 12
_symmetry_cell_setting 'monoclinic'
loop_
_space_group_symop_operation_xyz
x,y,z
-x,y,-z
-x,-y,-z
x,-y,z
1/2+x,1/2+y,z
1/2-x,1/2+y,-z
1/2-x,1/2-y,-z
1/2+x,1/2-y,z
loop_
_atom_site_type_symbol
_atom_site_label
_atom_site_fract_x
_atom_site_fract_y
_atom_site_fract_z
Si Si1 0.008389 0.000000 0.142899
Si Si2 0.500000 0.670105 0.000000
Si Si3 0.311139 0.343779 0.685192
Si Si4 0.431138 0.600823 0.820510
Si Si5 0.194546 0.605869 0.534096
Si Si6 0.632315 0.000000 0.514035
Si Si7 0.279894 0.759671 0.825985
Si Si8 0.000000 0.676252 0.500000
O O1 0.102115 0.953037 0.116238
O O2 0.820342 0.000000 0.327399
O O3 0.000000 0.000000 0.000000
O O4 0.438912 0.636466 0.932993
O O5 0.644860 0.706108 0.865617
O O6 0.500000 0.341882 0.500000
O O7 0.313040 0.379238 0.802897
O O8 0.193826 0.364328 0.664958
O O9 0.271444 0.291252 0.764125
O O10 0.614545 0.599551 0.632684
O O11 0.117870 0.552305 0.592900
O O12 0.124310 0.639231 0.474584
O O13 0.500000 0.000000 0.500000
O O14 0.438407 0.788666 0.659583
O O15 0.250000 0.750000 0.000000
#
# Coordination Sequence:
#
# PCOD9192597 Si02
#       8
#     4   4   8   8   8   4   8   4
#     4  10  20  33  63  91 115 157 202 256 312 359
#     4  12  22  37  60  88 126 157 214 254 302 370
#     4  10  22  40  60  87 126 163 204 253 312 368
#     4  10  20  38  58  92 122 157 204 258 307 367
#     4  10  22  38  64  90 121 165 203 259 313 375
#     4  10  20  39  61  91 123 151 206 254 311 380
#     4  12  26  40  62  93 125 170 209 261 311 367
#     4  12  24  41  64  94 124 165 216 250 316 376
#
# _framework density 19.712340999999999
#
# number of rings (size 3 to 8) (size 9 to 14) (size 15 to 20)
#    0.000    1.333    5.833    0.000    2.333    1.333 
#    0.000    3.333    0.000    0.000    0.000    2.333 
#    0.000    0.000    0.000    0.000    0.000    0.000 
#
# Total GULP energy -133738.463656 kJ/mol
# GULP energy per Si atom -5572.435986 kJ/mol
# Density = 1.966747 g / cm^3
# Si number density = 19.712341 Si / 1000 Ang^3
#
#
#
# Elastic Constant Matrix: (Units=GPa)
#
#
# Indices 1 2 3 4 5 6 
#
# 1 89.8157 60.9642 7.7629 0.0000 28.6333 0.0000
# 2 60.9642 207.2082 35.6186 0.0000 25.5307 0.0000
# 3 7.7629 35.6186 36.9601 0.0000 19.8628 0.0000
# 4 0.0000 0.0000 0.0000 135.6293 0.0000 -24.8151
# 5 28.6333 25.5307 19.8628 0.0000 28.2270 0.0000
# 6 0.0000 0.0000 0.0000 -24.8151 0.0000 43.6896
#
#
#
# Elastic Compliance Matrix: (Units=1/GPa)
#
#
# Indices 1 2 3 4 5 6 
#
# 1 0.023561 -0.006158 0.017427 0.000000 -0.030593 0.000000
# 2 -0.006158 0.007473 -0.009058 0.000000 0.005862 0.000000
# 3 0.017427 -0.009058 0.059860 0.000000 -0.051607 0.000000
# 4 0.000000 0.000000 0.000000 0.008228 0.000000 0.004673
# 5 -0.030593 0.005862 -0.051607 0.000000 0.097473 0.000000
# 6 0.000000 0.000000 0.000000 0.004673 0.000000 0.025543
#
#
# Mechanical properties :
#
#
# Convention : Reuss Voigt Hill
#
# Bulk Modulus (GPa) = 10.49161 60.29729 35.39445
# Shear Modulus (GPa) = 20.04101 56.81840 38.42970
#
# Velocity S-wave (km/s) = 3.19199 5.37460 4.42013
# Velocity P-wave (km/s) = 4.34960 8.31686 6.63661
#
# Compressibility (1/GPa) = 0.09531429
#
# Stress axis : x y z
#
# Youngs Moduli (GPa) = 42.44337 133.81963 16.70573
#
# Poissons Ratio (x) = 0.82409 -0.29113
# Poissons Ratio (y) = 0.26138 0.15133
# Poissons Ratio (z) = -0.73967 1.21220
#
# Static dielectric constant tensor:
#      x y z
#    x 1.656790 0.000000 -0.008920 
#    y 0.000000 1.671250 0.000000 
#    z -0.008920 0.000000 1.769980 
# 
# From -- ./inp_files/135253.got.cif
#   From: 2010.05.17/outbox.cif.g08.bks.cpg/sg12_68_cif.got.tgz:135253.got - 2010.06.03 13:09:07.
