data_PCOD9192550
_publ_section_title
;
Structure prediction by ZEFSAII (Michael W. Deem and Ramdas Pophale) SiO2 
 PCOD9192550
Probable space group: C 2/M
;
_chemical_formula_sum "Si O2"
_cell_formula_units_Z 52
_cell_length_a 18.998840
_cell_length_b 19.091479
_cell_length_c 14.168268
_cell_angle_alpha 90.000000
_cell_angle_beta 29.846476
_cell_angle_gamma 90.000000
_cell_volume 2557.593963
_symmetry_space_group_name_H-M "C 2/M"
_symmetry_group_IT_number 12
_symmetry_cell_setting 'monoclinic'
loop_
_space_group_symop_operation_xyz
x,y,z
-x,y,-z
-x,-y,-z
x,-y,z
1/2+x,1/2+y,z
1/2-x,1/2+y,-z
1/2-x,1/2-y,-z
1/2+x,1/2-y,z
loop_
_atom_site_type_symbol
_atom_site_label
_atom_site_fract_x
_atom_site_fract_y
_atom_site_fract_z
Si Si1 0.264538 0.710512 0.353941
Si Si2 0.274614 0.000000 0.014183
Si Si3 0.338772 0.000000 0.715441
Si Si4 0.204050 0.141178 0.869995
Si Si5 0.249322 0.366644 0.564589
Si Si6 0.049405 0.736918 0.341292
Si Si7 0.046123 0.500000 0.835751
Si Si8 0.433475 0.376428 0.778079
O O1 0.334279 0.687871 0.174695
O O2 0.286167 0.657349 0.414811
O O3 0.301203 0.791405 0.334437
O O4 0.094100 0.708250 0.537148
O O5 0.172057 0.067010 0.142889
O O6 0.325027 0.000000 0.845686
O O7 0.406502 0.000000 0.931648
O O8 0.500000 0.000000 0.500000
O O9 0.263466 0.931692 0.763442
O O10 0.334565 0.178772 0.772100
O O11 0.090490 0.124504 0.081532
O O12 0.139524 0.430142 0.704278
O O13 0.400402 0.387385 0.434964
O O14 0.105853 0.799816 0.213495
O O15 0.000000 0.766510 0.500000
O O16 0.000000 0.500000 0.000000
#
# Coordination Sequence:
#
# PCOD9192550 Si02
#       8
#     8   4   4   8   8   8   4   8
#     4   9  20  39  62  94 129 180 210 269 331 388
#     4  10  25  41  65  95 125 164 216 271 315 380
#     4  10  20  33  57  94 125 158 201 262 320 385
#     4  10  20  33  59  97 130 158 223 261 318 393
#     4  10  23  44  64  89 136 172 221 265 333 389
#     4   9  18  34  58  89 125 169 219 266 315 379
#     4  12  29  48  67  96 127 180 224 273 328 389
#     4  10  21  40  62  94 126 170 214 267 326 385
#
# _framework density 20.331609
#
# number of rings (size 3 to 8) (size 9 to 14) (size 15 to 20)
#    0.000    2.154    0.000    2.308    6.462    4.308 
#   11.077    1.154    0.000    3.692    0.000    0.000 
#    0.000    0.000    0.000    0.000    0.000    0.000 
#
# Total GULP energy -145095.807334 kJ/mol
# GULP energy per Si atom -5580.607974 kJ/mol
# Density = 2.028533 g / cm^3
# Si number density = 20.331609 Si / 1000 Ang^3
#
#
#
# Elastic Constant Matrix: (Units=GPa)
#
#
# Indices 1 2 3 4 5 6 
#
# 1 83.5844 47.6061 17.2270 -0.0001 -24.9857 0.0005
# 2 47.6061 122.7492 54.0239 0.0003 -22.6529 0.0001
# 3 17.2270 54.0239 57.1184 0.0002 -18.4698 0.0002
# 4 -0.0001 0.0003 0.0002 11.1688 -0.0002 -1.3256
# 5 -24.9857 -22.6529 -18.4698 -0.0002 23.1437 -0.0001
# 6 0.0005 0.0001 0.0002 -1.3256 -0.0001 0.8151
#
#
#
# Elastic Compliance Matrix: (Units=1/GPa)
#
#
# Indices 1 2 3 4 5 6 
#
# 1 0.021189 -0.007695 0.007883 -0.000001 0.021635 -0.000011
# 2 -0.007695 0.017062 -0.014965 0.000000 -0.003549 0.000006
# 3 0.007883 -0.014965 0.036795 -0.000001 0.023227 -0.000008
# 4 -0.000001 0.000000 -0.000001 0.110949 0.000001 0.180428
# 5 0.021635 -0.003549 0.023227 0.000001 0.081628 -0.000003
# 6 -0.000011 0.000006 -0.000008 0.180428 -0.000003 1.520225
#
#
# Mechanical properties :
#
#
# Convention : Reuss Voigt Hill
#
# Bulk Modulus (GPa) = 21.98135 55.68509 38.83322
# Shear Modulus (GPa) = 2.72842 16.66520 9.69681
#
# Velocity S-wave (km/s) = 1.15969 2.86609 2.18625
# Velocity P-wave (km/s) = 3.55360 6.19682 5.05117
#
# Compressibility (1/GPa) = 0.04549312
#
# Stress axis : x y z
#
# Youngs Moduli (GPa) = 47.19417 58.60949 27.17794
#
# Poissons Ratio (x) = 0.45097 -0.21424
# Poissons Ratio (y) = 0.36314 0.40671
# Poissons Ratio (z) = -0.37203 0.87707
#
# Static dielectric constant tensor:
#      x y z
#    x 1.756710 0.000000 -0.009700 
#    y 0.000000 1.709960 0.000000 
#    z -0.009700 0.000000 1.731330 
# 
# From -- ./inp_files/234452.got.cif
#   From: 2010.05.17/outbox.cif.g08.bks.cpg/sg12_118_cif.got.tgz:234452.got - 2010.06.03 13:09:07.
