data_PCOD9192670
_publ_section_title
;
Structure prediction by ZEFSAII (Michael W. Deem and Ramdas Pophale) SiO2 
 PCOD9192670
Probable space group: C 2/M
;
_chemical_formula_sum "Si O2"
_cell_formula_units_Z 56
_cell_length_a 14.374561
_cell_length_b 7.514659
_cell_length_c 31.017983
_cell_angle_alpha 90.000000
_cell_angle_beta 131.979005
_cell_angle_gamma 90.000000
_cell_volume 2490.772814
_symmetry_space_group_name_H-M "C 2/M"
_symmetry_group_IT_number 12
_symmetry_cell_setting 'monoclinic'
loop_
_space_group_symop_operation_xyz
x,y,z
-x,y,-z
-x,-y,-z
x,-y,z
1/2+x,1/2+y,z
1/2-x,1/2+y,-z
1/2-x,1/2-y,-z
1/2+x,1/2-y,z
loop_
_atom_site_type_symbol
_atom_site_label
_atom_site_fract_x
_atom_site_fract_y
_atom_site_fract_z
Si Si1 0.939533 0.205343 0.775663
Si Si2 0.040870 0.296098 0.452171
Si Si3 0.838223 0.280907 0.327084
Si Si4 0.382456 0.710387 0.095531
Si Si5 0.399348 0.784677 0.003405
Si Si6 0.725075 0.712411 0.430747
Si Si7 0.515531 0.788807 0.303316
O O1 0.802431 0.283007 0.723674
O O2 0.007596 0.210462 0.750712
O O3 0.024445 0.285525 0.839608
O O4 0.916000 0.000000 0.780693
O O5 0.011291 0.500000 0.454458
O O6 0.132754 0.222181 0.517711
O O7 0.135327 0.294636 0.439815
O O8 0.914851 0.216849 0.392912
O O9 0.838565 0.500000 0.329742
O O10 0.919460 0.229065 0.310411
O O11 0.370764 0.500000 0.100989
O O12 0.431533 0.732689 0.062208
O O13 0.240539 0.782027 0.050810
O O14 0.396605 0.000000 0.001568
O O15 0.500000 0.722768 0.000000
O O16 0.727352 0.500000 0.438531
O O17 0.654100 0.744254 0.364150
O O18 0.505326 0.000000 0.296777
#
# Coordination Sequence:
#
# PCOD9192670 Si02
#       7
#     8   8   8   8   8   8   8
#     4  10  20  35  53  73 100 132 167 206 244 286
#     4   8  14  26  45  68  93 123 161 204 252 304
#     4   8  16  32  51  69  94 129 164 201 249 302
#     4   9  19  34  52  77 105 132 166 205 240 281
#     4   9  18  34  55  78 106 137 164 195 240 289
#     4   9  15  25  45  70  93 122 162 207 253 298
#     4  10  20  34  50  70  98 131 167 205 249 302
#
# _framework density 22.482982
#
# number of rings (size 3 to 8) (size 9 to 14) (size 15 to 20)
#    0.000    3.000    0.000    1.714    0.000    2.571 
#    0.000    4.286    0.000    4.286    0.000    0.000 
#    0.000    0.000    0.000    0.000    0.000    0.000 
#
# Total GULP energy -156270.609622 kJ/mol
# GULP energy per Si atom -5581.093201 kJ/mol
# Density = 2.243181 g / cm^3
# Si number density = 22.482982 Si / 1000 Ang^3
#
#
#
# Elastic Constant Matrix: (Units=GPa)
#
#
# Indices 1 2 3 4 5 6 
#
# 1 82.7294 -5.3466 56.6063 0.0000 -8.8341 0.0000
# 2 -5.3466 62.7260 5.1309 0.0000 8.2164 0.0000
# 3 56.6063 5.1309 202.8547 0.0000 -14.1815 0.0000
# 4 0.0000 0.0000 0.0000 13.8244 0.0000 -7.8977
# 5 -8.8341 8.2164 -14.1815 0.0000 15.4701 0.0000
# 6 0.0000 0.0000 0.0000 -7.8977 0.0000 4.7839
#
#
#
# Elastic Compliance Matrix: (Units=1/GPa)
#
#
# Indices 1 2 3 4 5 6 
#
# 1 0.015378 0.001040 -0.003998 0.000000 0.004564 0.000000
# 2 0.001040 0.017456 -0.001430 0.000000 -0.009988 0.000000
# 3 -0.003998 -0.001430 0.006384 0.000000 0.004329 0.000000
# 4 0.000000 0.000000 0.000000 1.272184 0.000000 2.100252
# 5 0.004564 -0.009988 0.004329 0.000000 0.076520 0.000000
# 6 0.000000 0.000000 0.000000 2.100252 0.000000 3.676345
#
#
# Mechanical properties :
#
#
# Convention : Reuss Voigt Hill
#
# Bulk Modulus (GPa) = 32.84971 51.23236 42.04104
# Shear Modulus (GPa) = 0.98363 26.27697 13.63030
#
# Velocity S-wave (km/s) = 0.66216 3.42241 2.46489
# Velocity P-wave (km/s) = 3.90221 6.20111 5.18078
#
# Compressibility (1/GPa) = 0.03044167
#
# Stress axis : x y z
#
# Youngs Moduli (GPa) = 65.02774 57.28574 156.63697
#
# Poissons Ratio (x) = -0.05958 0.62631
# Poissons Ratio (y) = -0.06763 0.22400
# Poissons Ratio (z) = 0.26001 0.08192
#
# Static dielectric constant tensor:
#      x y z
#    x 1.842640 0.000000 0.020050 
#    y 0.000000 1.903390 0.000000 
#    z 0.020050 0.000000 1.842120 
# 
# From -- ./inp_files/337860.got.cif
#   From: 2010.05.17/outbox.cif.g08.bks.cpg/sg12_169_cif.got.tgz:337860.got - 2010.06.03 13:09:07.
