data_PCOD9192057
_publ_section_title
;
Structure prediction by ZEFSAII (Michael W. Deem and Ramdas Pophale) SiO2 
 PCOD9192057
Probable space group: C 2/M
;
_chemical_formula_sum "Si O2"
_cell_formula_units_Z 64
_cell_length_a 30.865814
_cell_length_b 9.518761
_cell_length_c 14.205304
_cell_angle_alpha 90.000000
_cell_angle_beta 47.223992
_cell_angle_gamma 90.000000
_cell_volume 3063.467066
_symmetry_space_group_name_H-M "C 2/M"
_symmetry_group_IT_number 12
_symmetry_cell_setting 'monoclinic'
loop_
_space_group_symop_operation_xyz
x,y,z
-x,y,-z
-x,-y,-z
x,-y,z
1/2+x,1/2+y,z
1/2-x,1/2+y,-z
1/2-x,1/2-y,-z
1/2+x,1/2-y,z
loop_
_atom_site_type_symbol
_atom_site_label
_atom_site_fract_x
_atom_site_fract_y
_atom_site_fract_z
Si Si1 0.940768 0.837076 0.951475
Si Si2 0.584732 0.835003 0.201411
Si Si3 0.726741 0.665820 0.312301
Si Si4 0.050316 0.663155 0.550615
Si Si5 0.933447 0.849521 0.297359
Si Si6 0.683235 0.763481 0.563081
Si Si7 0.135654 0.833382 0.288207
Si Si8 0.641550 0.151865 0.817376
O O1 0.923362 0.746989 0.884650
O O2 0.011842 0.831120 0.853348
O O3 0.924638 0.000000 0.963400
O O4 0.905790 0.768315 0.088122
O O5 0.520785 0.828018 0.348330
O O6 0.630776 0.753206 0.199182
O O7 0.598522 0.000000 0.168125
O O8 0.715908 0.500000 0.355501
O O9 0.694919 0.770052 0.433640
O O10 0.696842 0.684231 0.255341
O O11 0.796748 0.684933 0.220212
O O12 0.067074 0.500000 0.511653
O O13 0.064550 0.719379 0.634287
O O14 0.085659 0.765823 0.429672
O O15 0.867496 0.853833 0.356246
O O16 0.945118 0.000000 0.330018
O O17 0.750000 0.750000 0.500000
O O18 0.656261 0.859105 0.685037
O O19 0.125647 0.000000 0.288905
O O20 0.619928 0.000000 0.882536
#
# Coordination Sequence:
#
# PCOD9192057 Si02
#       8
#     8   8   8   8   8   8   8   8
#     4  10  22  40  62  88 115 153 203 249 291 345
#     4  10  21  37  56  82 119 159 195 240 293 348
#     4   9  19  37  60  87 119 154 194 241 294 348
#     4  10  20  33  52  82 121 158 193 235 291 351
#     4  10  20  37  61  86 118 156 196 243 294 343
#     4  10  20  36  60  90 119 150 189 236 293 353
#     4  11  20  33  57  87 118 154 197 243 290 350
#     4  10  22  41  62  85 115 156 198 243 298 351
#
# _framework density 20.891362000000001
#
# number of rings (size 3 to 8) (size 9 to 14) (size 15 to 20)
#    0.000    2.000    1.250    2.250    0.000    6.000 
#    0.000    5.625    0.000    0.000    0.000    0.000 
#    0.000    0.000    0.000    0.000    0.000    0.000 
#
# Total GULP energy -178173.497079 kJ/mol
# GULP energy per Si atom -5567.921784 kJ/mol
# Density = 2.084381 g / cm^3
# Si number density = 20.891362 Si / 1000 Ang^3
#
#
#
# Elastic Constant Matrix: (Units=GPa)
#
#
# Indices 1 2 3 4 5 6 
#
# 1 97.8688 49.7809 16.9797 0.0000 -3.1985 0.0000
# 2 49.7809 128.1720 35.1312 0.0000 -3.8642 0.0001
# 3 16.9797 35.1312 59.5864 0.0000 -2.7742 0.0000
# 4 0.0000 0.0000 0.0000 19.7476 0.0000 0.4071
# 5 -3.1985 -3.8642 -2.7742 0.0000 18.4963 0.0000
# 6 0.0000 0.0001 0.0000 0.4071 0.0000 10.9149
#
#
#
# Elastic Compliance Matrix: (Units=1/GPa)
#
#
# Indices 1 2 3 4 5 6 
#
# 1 0.012792 -0.004711 -0.000816 0.000000 0.001105 0.000000
# 2 -0.004711 0.011064 -0.005147 0.000000 0.000725 0.000000
# 3 -0.000816 -0.005147 0.020134 0.000000 0.001803 0.000000
# 4 0.000000 0.000000 0.000000 0.050678 0.000000 -0.001890
# 5 0.001105 0.000725 0.001803 0.000000 0.054678 0.000000
# 6 0.000000 0.000000 0.000000 -0.001890 0.000000 0.091689
#
#
# Mechanical properties :
#
#
# Convention : Reuss Voigt Hill
#
# Bulk Modulus (GPa) = 44.16771 54.37898 49.27335
# Shear Modulus (GPa) = 18.52331 22.08079 20.30205
#
# Velocity S-wave (km/s) = 2.98090 3.25458 3.12074
# Velocity P-wave (km/s) = 5.74762 6.34105 6.05162
#
# Compressibility (1/GPa) = 0.02264097
#
# Stress axis : x y z
#
# Youngs Moduli (GPa) = 78.17492 90.37925 49.66832
#
# Poissons Ratio (x) = 0.42580 0.04053
# Poissons Ratio (y) = 0.36830 0.25565
# Poissons Ratio (z) = 0.06379 0.46520
#
# Static dielectric constant tensor:
#      x y z
#    x 1.797850 0.000000 0.021200 
#    y 0.000000 1.736390 0.000000 
#    z 0.021200 0.000000 1.756830 
# 
# From -- ./inp_files/249851.got.cif
#   From: 2010.05.17/outbox.cif.g08.bks.cpg/sg12_125_cif.got.tgz:249851.got - 2010.06.03 13:09:07.
