data_PCOD9192964
_publ_section_title
;
Structure prediction by ZEFSAII (Michael W. Deem and Ramdas Pophale) SiO2 
 PCOD9192964
Probable space group: C 2/M
;
_chemical_formula_sum "Si O2"
_cell_formula_units_Z 48
_cell_length_a 13.333443
_cell_length_b 17.822985
_cell_length_c 10.707112
_cell_angle_alpha 90.000000
_cell_angle_beta 79.437937
_cell_angle_gamma 90.000000
_cell_volume 2501.345978
_symmetry_space_group_name_H-M "C 2/M"
_symmetry_group_IT_number 12
_symmetry_cell_setting 'monoclinic'
loop_
_space_group_symop_operation_xyz
x,y,z
-x,y,-z
-x,-y,-z
x,-y,z
1/2+x,1/2+y,z
1/2-x,1/2+y,-z
1/2-x,1/2-y,-z
1/2+x,1/2-y,z
loop_
_atom_site_type_symbol
_atom_site_label
_atom_site_fract_x
_atom_site_fract_y
_atom_site_fract_z
Si Si1 0.405248 0.305462 0.097291
Si Si2 0.330594 0.587324 0.575041
Si Si3 0.031790 0.086790 0.696511
Si Si4 0.249134 0.588604 0.999737
Si Si5 0.830837 0.658980 0.233274
Si Si6 0.968132 0.414091 0.860780
O O1 0.451281 0.357204 0.194922
O O2 0.335465 0.241713 0.174647
O O3 0.500000 0.269902 0.000000
O O4 0.340545 0.358714 0.021227
O O5 0.296971 0.500000 0.591614
O O6 0.424088 0.597251 0.651049
O O7 0.380617 0.598044 0.427929
O O8 0.240115 0.642878 0.632686
O O9 0.036387 0.000000 0.737484
O O10 0.271247 0.500000 0.006435
O O11 0.215409 0.606275 0.865960
O O12 0.150563 0.607203 0.108914
O O13 0.948503 0.635609 0.227720
O O14 0.976618 0.500000 0.815388
O O15 0.000000 0.413541 0.000000
#
# Coordination Sequence:
#
# PCOD9192964 Si02
#       6
#     8   8   8   8   8   8
#     4  12  24  34  50  79 115 145 169 211 272 326
#     4   9  18  36  62  82 100 135 182 226 260 303
#     4   9  20  38  57  80 106 136 180 224 262 309
#     4  10  20  34  52  74 104 143 182 220 260 307
#     4  11  20  32  53  79 107 136 175 218 265 316
#     4   8  15  29  48  70  96 129 172 216 252 295
#
# _framework density 19.189668000000001
#
# number of rings (size 3 to 8) (size 9 to 14) (size 15 to 20)
#    0.000    2.167    0.000    7.000    0.000    4.667 
#    0.000    0.000    0.000    1.000    0.000    4.667 
#    0.000    0.000    0.000    0.000    0.000    0.000 
#
# Total GULP energy -133969.018970 kJ/mol
# GULP energy per Si atom -5582.042457 kJ/mol
# Density = 1.914599 g / cm^3
# Si number density = 19.189668 Si / 1000 Ang^3
#
#
#
# Elastic Constant Matrix: (Units=GPa)
#
#
# Indices 1 2 3 4 5 6 
#
# 1 40.8644 21.2314 12.3881 0.0000 -17.3623 0.0000
# 2 21.2314 55.1459 19.3010 0.0000 -18.4851 0.0000
# 3 12.3881 19.3010 46.7355 0.0000 -19.3776 0.0000
# 4 0.0000 0.0000 0.0000 33.9193 0.0000 -4.5423
# 5 -17.3623 -18.4851 -19.3776 0.0000 27.5536 0.0000
# 6 0.0000 0.0000 0.0000 -4.5423 0.0000 20.7679
#
#
#
# Elastic Compliance Matrix: (Units=1/GPa)
#
#
# Indices 1 2 3 4 5 6 
#
# 1 0.036065 -0.008290 0.001384 0.000000 0.018137 0.000000
# 2 -0.008290 0.025976 -0.004899 0.000000 0.008757 0.000000
# 3 0.001384 -0.004899 0.031129 0.000000 0.019478 0.000000
# 4 0.000000 0.000000 0.000000 0.030371 0.000000 0.006643
# 5 0.018137 0.008757 0.019478 0.000000 0.067295 0.000000
# 6 0.000000 0.000000 0.000000 0.006643 0.000000 0.049604
#
#
# Mechanical properties :
#
#
# Convention : Reuss Voigt Hill
#
# Bulk Modulus (GPa) = 14.37605 27.62075 20.99840
# Shear Modulus (GPa) = 17.40726 22.43651 19.92189
#
# Velocity S-wave (km/s) = 3.01510 3.42306 3.22554
# Velocity P-wave (km/s) = 4.43046 5.48160 4.98382
#
# Compressibility (1/GPa) = 0.06956014
#
# Stress axis : x y z
#
# Youngs Moduli (GPa) = 27.72791 38.49774 32.12402
#
# Poissons Ratio (x) = 0.31914 -0.04446
# Poissons Ratio (y) = 0.22986 0.15738
# Poissons Ratio (z) = -0.03838 0.18860
#
# Static dielectric constant tensor:
#      x y z
#    x 1.683110 0.000000 -0.042440 
#    y 0.000000 1.661310 0.000000 
#    z -0.042440 0.000000 1.671060 
# 
# From -- ./inp_files/131217.got.cif
#   From: 2010.05.17/outbox.cif.g08.bks.cpg/sg12_66_cif.got.tgz:131217.got - 2010.06.03 13:09:07.
