data_PCOD9192713
_publ_section_title
;
Structure prediction by ZEFSAII (Michael W. Deem and Ramdas Pophale) SiO2 
 PCOD9192713
Probable space group: C 2/M
;
_chemical_formula_sum "Si O2"
_cell_formula_units_Z 56
_cell_length_a 24.463252
_cell_length_b 16.351139
_cell_length_c 23.657452
_cell_angle_alpha 90.000000
_cell_angle_beta 161.222914
_cell_angle_gamma 90.000000
_cell_volume 3046.026755
_symmetry_space_group_name_H-M "C 2/M"
_symmetry_group_IT_number 12
_symmetry_cell_setting 'monoclinic'
loop_
_space_group_symop_operation_xyz
x,y,z
-x,y,-z
-x,-y,-z
x,-y,z
1/2+x,1/2+y,z
1/2-x,1/2+y,-z
1/2-x,1/2-y,-z
1/2+x,1/2-y,z
loop_
_atom_site_type_symbol
_atom_site_label
_atom_site_fract_x
_atom_site_fract_y
_atom_site_fract_z
Si Si1 0.486254 0.258035 0.338838
Si Si2 0.104828 0.591228 0.433693
Si Si3 0.566424 0.340029 0.296672
Si Si4 0.464704 0.091355 0.899266
Si Si5 0.104446 0.280162 0.949310
Si Si6 0.059483 0.092281 0.493539
Si Si7 0.203218 0.412145 0.954071
O O1 0.582506 0.173893 0.448717
O O2 0.555353 0.289958 0.345081
O O3 0.501643 0.334586 0.396322
O O4 0.285391 0.238664 0.138470
O O5 0.131084 0.500000 0.484450
O O6 0.260612 0.610831 0.543559
O O7 0.929303 0.588092 0.226867
O O8 0.536101 0.279857 0.213789
O O9 0.399340 0.396847 0.131708
O O10 0.546050 0.164162 0.943641
O O11 0.263274 0.092485 0.692236
O O12 0.527758 0.000000 0.945174
O O13 0.500000 0.101716 0.000000
O O14 0.147215 0.340744 0.940075
O O15 0.000000 0.104614 0.500000
O O16 0.001930 0.000000 0.419956
O O17 0.187664 0.500000 0.967624
#
# Coordination Sequence:
#
# PCOD9192713 Si02
#       7
#     8   8   8   8   8   8   8
#     4  11  21  37  57  80 116 149 189 242 287 342
#     4  11  22  35  54  79 111 150 191 236 285 337
#     4  11  21  36  52  81 113 150 191 238 287 347
#     4  10  21  36  54  79 112 150 191 232 280 342
#     4  11  20  35  54  78 110 150 188 237 289 341
#     4  10  22  38  58  86 116 149 191 236 282 340
#     4  10  20  34  50  76 111 146 188 231 280 342
#
# _framework density 18.384604
#
# number of rings (size 3 to 8) (size 9 to 14) (size 15 to 20)
#    0.000    1.429    2.857    3.857    2.000    4.571 
#    0.000    0.000    0.000    0.429    0.000    0.000 
#    0.000    5.714    0.000    0.000    0.000    0.000 
#
# Total GULP energy -156183.107757 kJ/mol
# GULP energy per Si atom -5577.968134 kJ/mol
# Density = 1.834276 g / cm^3
# Si number density = 18.384604 Si / 1000 Ang^3
#
#
#
# Elastic Constant Matrix: (Units=GPa)
#
#
# Indices 1 2 3 4 5 6 
#
# 1 59.4353 45.5838 8.5516 -0.0006 0.0047 0.0000
# 2 45.5838 127.5336 36.1649 -0.0009 2.2420 -0.0003
# 3 8.5516 36.1649 58.9388 -0.0012 4.3779 0.0010
# 4 -0.0006 -0.0009 -0.0012 33.2225 0.0003 6.4794
# 5 0.0047 2.2420 4.3779 0.0003 21.8301 0.0000
# 6 0.0000 -0.0003 0.0010 6.4794 0.0000 32.4832
#
#
#
# Elastic Compliance Matrix: (Units=1/GPa)
#
#
# Indices 1 2 3 4 5 6 
#
# 1 0.023398 -0.008957 0.002064 0.000000 0.000501 0.000000
# 2 -0.008957 0.012923 -0.006630 0.000000 0.000004 0.000000
# 3 0.002064 -0.006630 0.020998 0.000001 -0.003530 -0.000001
# 4 0.000000 0.000000 0.000001 0.031318 -0.000001 -0.006247
# 5 0.000501 0.000004 -0.003530 -0.000001 0.046516 0.000000
# 6 0.000000 0.000000 -0.000001 -0.006247 0.000000 0.032031
#
#
# Mechanical properties :
#
#
# Convention : Reuss Voigt Hill
#
# Bulk Modulus (GPa) = 33.03408 47.38980 40.21194
# Shear Modulus (GPa) = 24.47144 27.88099 26.17621
#
# Velocity S-wave (km/s) = 3.65236 3.89850 3.77744
# Velocity P-wave (km/s) = 5.98278 6.78950 6.39886
#
# Compressibility (1/GPa) = 0.03027176
#
# Stress axis : x y z
#
# Youngs Moduli (GPa) = 42.73948 77.38423 47.62430
#
# Poissons Ratio (x) = 0.69313 -0.09829
# Poissons Ratio (y) = 0.38282 0.31575
# Poissons Ratio (z) = -0.08821 0.51306
#
# Static dielectric constant tensor:
#      x y z
#    x 1.605020 0.000000 0.007030 
#    y 0.000000 1.686440 0.000000 
#    z 0.007030 0.000000 1.675190 
# 
# From -- ./inp_files/349720.got.cif
#   From: 2010.05.17/outbox.cif.g08.bks.cpg/sg12_175_cif.got.tgz:349720.got - 2010.06.03 13:09:07.
