data_PCOD9192517
_publ_section_title
;
Structure prediction by ZEFSAII (Michael W. Deem and Ramdas Pophale) SiO2 
 PCOD9192517
Probable space group: C 2/M
;
_chemical_formula_sum "Si O2"
_cell_formula_units_Z 64
_cell_length_a 10.957227
_cell_length_b 15.133609
_cell_length_c 28.094759
_cell_angle_alpha 90.000000
_cell_angle_beta 41.489230
_cell_angle_gamma 90.000000
_cell_volume 3086.318639
_symmetry_space_group_name_H-M "C 2/M"
_symmetry_group_IT_number 12
_symmetry_cell_setting 'monoclinic'
loop_
_space_group_symop_operation_xyz
x,y,z
-x,y,-z
-x,-y,-z
x,-y,z
1/2+x,1/2+y,z
1/2-x,1/2+y,-z
1/2-x,1/2-y,-z
1/2+x,1/2-y,z
loop_
_atom_site_type_symbol
_atom_site_label
_atom_site_fract_x
_atom_site_fract_y
_atom_site_fract_z
Si Si1 0.782324 0.726055 0.760180
Si Si2 0.520019 0.286137 0.922869
Si Si3 0.781904 0.791168 0.571145
Si Si4 0.145221 0.602478 0.032590
Si Si5 0.296074 0.096274 0.582236
Si Si6 0.110609 0.685390 0.720123
Si Si7 0.667850 0.095226 0.134249
Si Si8 0.959632 0.600913 0.636867
O O1 0.604511 0.716192 0.844918
O O2 0.732628 0.782905 0.728647
O O3 0.951401 0.752217 0.745824
O O4 0.855674 0.636803 0.713708
O O5 0.472119 0.186009 0.952341
O O6 0.682348 0.327881 0.906551
O O7 0.349678 0.354392 0.972459
O O8 0.735764 0.828873 0.637371
O O9 0.647254 0.844006 0.575607
O O10 0.000000 0.796461 0.500000
O O11 0.718036 0.688737 0.587011
O O12 0.137956 0.500000 0.016272
O O13 0.086821 0.596284 0.105136
O O14 0.500000 0.091156 0.500000
O O15 0.330723 0.108563 0.628460
O O16 0.206486 0.000000 0.599677
O O17 0.984223 0.610067 0.780805
O O18 0.760049 0.000000 0.114397
O O19 0.010756 0.500000 0.627768
#
# Coordination Sequence:
#
# PCOD9192517 Si02
#       8
#     8   8   8   8   8   8   8   8
#     4  10  20  37  59  86 117 158 199 244 299 353
#     4  10  20  33  57  86 117 155 197 246 294 352
#     4  10  21  35  57  86 115 151 193 249 305 353
#     4  10  20  35  57  88 120 152 198 249 299 349
#     4   9  18  34  55  77 106 145 190 234 288 357
#     4  10  20  37  58  88 119 154 199 247 300 354
#     4  10  20  36  62  86 114 156 206 248 291 351
#     4  10  21  37  58  83 115 154 198 247 297 356
#
# _framework density 20.736678999999999
#
# number of rings (size 3 to 8) (size 9 to 14) (size 15 to 20)
#    0.000    2.125    2.500    0.750    0.000    8.250 
#    0.000    0.000    0.000   21.000    0.000    0.000 
#    0.000    0.000    0.000    0.000    0.000    0.000 
#
# Total GULP energy -178193.043474 kJ/mol
# GULP energy per Si atom -5568.532609 kJ/mol
# Density = 2.068948 g / cm^3
# Si number density = 20.736679 Si / 1000 Ang^3
#
#
#
# Elastic Constant Matrix: (Units=GPa)
#
#
# Indices 1 2 3 4 5 6 
#
# 1 49.8058 25.0879 5.5699 -0.0002 -1.2408 -0.0001
# 2 25.0879 165.2491 11.9403 -0.0002 -24.1199 0.0000
# 3 5.5699 11.9403 99.6885 0.0000 2.6873 0.0000
# 4 -0.0002 -0.0002 0.0000 28.7061 -0.0001 2.2040
# 5 -1.2408 -24.1199 2.6873 -0.0001 20.1228 0.0000
# 6 -0.0001 0.0000 0.0000 2.2040 0.0000 36.5055
#
#
#
# Elastic Compliance Matrix: (Units=1/GPa)
#
#
# Indices 1 2 3 4 5 6 
#
# 1 0.021956 -0.003723 -0.000700 0.000000 -0.003015 0.000000
# 2 -0.003723 0.008093 -0.001020 0.000000 0.009607 0.000000
# 3 -0.000700 -0.001020 0.010264 0.000000 -0.002637 0.000000
# 4 0.000000 0.000000 0.000000 0.034998 0.000000 -0.002113
# 5 -0.003015 0.009607 -0.002637 0.000000 0.061376 0.000000
# 6 0.000000 0.000000 0.000000 -0.002113 0.000000 0.027521
#
#
# Mechanical properties :
#
#
# Convention : Reuss Voigt Hill
#
# Bulk Modulus (GPa) = 33.98229 44.43776 39.21003
# Shear Modulus (GPa) = 27.04134 35.20989 31.12562
#
# Velocity S-wave (km/s) = 3.61506 4.12509 3.87847
# Velocity P-wave (km/s) = 5.81790 6.64564 6.24550
#
# Compressibility (1/GPa) = 0.02942709
#
# Stress axis : x y z
#
# Youngs Moduli (GPa) = 45.54480 123.56944 97.43161
#
# Poissons Ratio (x) = 0.46004 0.06816
# Poissons Ratio (y) = 0.16956 0.09941
# Poissons Ratio (z) = 0.03186 0.12607
#
# Static dielectric constant tensor:
#      x y z
#    x 1.780280 0.000000 0.017720 
#    y 0.000000 1.779160 0.000000 
#    z 0.017720 0.000000 1.765670 
# 
# From -- ./inp_files/374102.got.cif
#   From: 2010.05.17/outbox.cif.g08.bks.cpg/sg12_188_cif.got.tgz:374102.got - 2010.06.03 13:09:07.
