data_PCOD9192980
_publ_section_title
;
Structure prediction by ZEFSAII (Michael W. Deem and Ramdas Pophale) SiO2 
 PCOD9192980
Probable space group: C 2/M
;
_chemical_formula_sum "Si O2"
_cell_formula_units_Z 64
_cell_length_a 20.944477
_cell_length_b 7.736364
_cell_length_c 22.111724
_cell_angle_alpha 90.000000
_cell_angle_beta 121.401361
_cell_angle_gamma 90.000000
_cell_volume 3058.102906
_symmetry_space_group_name_H-M "C 2/M"
_symmetry_group_IT_number 12
_symmetry_cell_setting 'monoclinic'
loop_
_space_group_symop_operation_xyz
x,y,z
-x,y,-z
-x,-y,-z
x,-y,z
1/2+x,1/2+y,z
1/2-x,1/2+y,-z
1/2-x,1/2-y,-z
1/2+x,1/2-y,z
loop_
_atom_site_type_symbol
_atom_site_label
_atom_site_fract_x
_atom_site_fract_y
_atom_site_fract_z
Si Si1 0.428521 0.788202 0.610460
Si Si2 0.053277 0.292987 0.940870
Si Si3 0.728207 0.708570 0.810066
Si Si4 0.684902 0.704100 0.920681
Si Si5 0.587662 0.207653 0.660447
Si Si6 0.605904 0.788607 0.099916
Si Si7 0.122182 0.297997 0.547061
Si Si8 0.723291 0.206216 0.418574
O O1 0.514129 0.733219 0.660692
O O2 0.405916 0.728622 0.531308
O O3 0.362969 0.732786 0.624060
O O4 0.425229 0.000000 0.609593
O O5 0.050451 0.500000 0.943229
O O6 0.105448 0.250451 0.910440
O O7 0.967488 0.230801 0.899563
O O8 0.091885 0.235677 0.023022
O O9 0.732090 0.500000 0.814721
O O10 0.702641 0.777214 0.863247
O O11 0.665070 0.752293 0.730871
O O12 0.812615 0.770122 0.838805
O O13 0.686652 0.500000 0.915089
O O14 0.750000 0.750000 0.000000
O O15 0.588888 0.276301 0.592232
O O16 0.581817 0.000000 0.653555
O O17 0.606097 0.000000 0.100958
O O18 0.101978 0.500000 0.535602
O O19 0.212467 0.283079 0.591976
O O20 0.750000 0.250000 0.500000
O O21 0.725117 0.000000 0.411086
#
# Coordination Sequence:
#
# PCOD9192980 Si02
#       8
#     8   8   8   8   8   8   8   8
#     4   8  15  30  52  75  99 130 170 212 250 291
#     4   9  16  31  56  80  99 126 167 208 247 296
#     4  10  21  37  52  71 103 139 169 204 256 309
#     4  11  21  34  54  78 104 133 166 208 255 303
#     4  10  20  34  52  74  99 133 174 213 252 299
#     4   8  15  31  54  75  99 132 165 200 246 304
#     4   9  17  31  52  76 101 130 167 213 259 300
#     4   9  16  28  49  75 101 129 163 208 254 298
#
# _framework density 20.928008999999999
#
# number of rings (size 3 to 8) (size 9 to 14) (size 15 to 20)
#    0.000    2.750    1.250    2.625    0.000    3.000 
#    0.000    6.250    0.000   11.250    0.000    0.000 
#    0.000    0.000    0.000    0.000    0.000    0.000 
#
# Total GULP energy -178377.240844 kJ/mol
# GULP energy per Si atom -5574.288776 kJ/mol
# Density = 2.088038 g / cm^3
# Si number density = 20.928009 Si / 1000 Ang^3
#
#
#
# Elastic Constant Matrix: (Units=GPa)
#
#
# Indices 1 2 3 4 5 6 
#
# 1 130.2887 -0.4679 17.5481 0.0000 32.8934 0.0000
# 2 -0.4679 27.9167 -2.6000 0.0000 1.5037 0.0000
# 3 17.5481 -2.6000 35.1410 0.0000 21.7726 0.0000
# 4 0.0000 0.0000 0.0000 17.0780 0.0000 2.5766
# 5 32.8934 1.5037 21.7726 0.0000 32.7005 0.0000
# 6 0.0000 0.0000 0.0000 2.5766 0.0000 20.8117
#
#
#
# Elastic Compliance Matrix: (Units=1/GPa)
#
#
# Indices 1 2 3 4 5 6 
#
# 1 0.010416 0.001048 0.002379 0.000000 -0.012110 0.000000
# 2 0.001048 0.036844 0.006648 0.000000 -0.007175 0.000000
# 3 0.002379 0.006648 0.050101 0.000000 -0.036057 0.000000
# 4 0.000000 0.000000 0.000000 0.059669 0.000000 -0.007387
# 5 -0.012110 -0.007175 -0.036057 0.000000 0.067099 0.000000
# 6 0.000000 0.000000 0.000000 -0.007387 0.000000 0.048965
#
#
# Mechanical properties :
#
#
# Convention : Reuss Voigt Hill
#
# Bulk Modulus (GPa) = 8.50977 24.70075 16.60526
# Shear Modulus (GPa) = 17.11668 26.04245 21.57956
#
# Velocity S-wave (km/s) = 2.86297 3.53141 3.21461
# Velocity P-wave (km/s) = 3.87348 5.33443 4.66154
#
# Compressibility (1/GPa) = 0.11751194
#
# Stress axis : x y z
#
# Youngs Moduli (GPa) = 96.00771 27.14138 19.95979
#
# Poissons Ratio (x) = -0.02845 -0.04749
# Poissons Ratio (y) = -0.10065 -0.13270
# Poissons Ratio (z) = -0.22841 -0.18044
#
# Static dielectric constant tensor:
#      x y z
#    x 1.806750 0.000000 0.018200 
#    y 0.000000 1.791800 0.000000 
#    z 0.018200 0.000000 1.732390 
# 
# From -- ./inp_files/320116.got.cif
#   From: 2010.05.17/outbox.cif.g08.bks.cpg/sg12_161_cif.got.tgz:320116.got - 2010.06.03 13:09:07.
