data_PCOD9192908
_publ_section_title
;
Structure prediction by ZEFSAII (Michael W. Deem and Ramdas Pophale) SiO2 
 PCOD9192908
Probable space group: C 2/M
;
_chemical_formula_sum "Si O2"
_cell_formula_units_Z 56
_cell_length_a 8.561869
_cell_length_b 29.491028
_cell_length_c 15.793139
_cell_angle_alpha 90.000000
_cell_angle_beta 57.171968
_cell_angle_gamma 90.000000
_cell_volume 3350.904665
_symmetry_space_group_name_H-M "C 2/M"
_symmetry_group_IT_number 12
_symmetry_cell_setting 'monoclinic'
loop_
_space_group_symop_operation_xyz
x,y,z
-x,y,-z
-x,-y,-z
x,-y,z
1/2+x,1/2+y,z
1/2-x,1/2+y,-z
1/2-x,1/2-y,-z
1/2+x,1/2-y,z
loop_
_atom_site_type_symbol
_atom_site_label
_atom_site_fract_x
_atom_site_fract_y
_atom_site_fract_z
Si Si1 0.196360 0.447745 0.113418
Si Si2 0.687531 0.552976 0.499999
Si Si3 0.494946 0.107645 0.692657
Si Si4 0.576799 0.447745 0.113421
Si Si5 0.569007 0.701013 0.617913
Si Si6 0.195169 0.701013 0.617914
Si Si7 0.880252 0.892355 0.307345
O O1 0.130438 0.500000 0.132506
O O2 0.054623 0.415228 0.203091
O O3 0.386528 0.447239 0.113471
O O4 0.259507 0.435192 0.999998
O O5 0.500000 0.556024 0.500000
O O6 0.732927 0.500000 0.499999
O O7 0.652139 0.578189 0.598812
O O8 0.849761 0.578188 0.401184
O O9 0.567304 0.158791 0.678848
O O10 0.309609 0.107137 0.690394
O O11 0.604545 0.500000 0.132509
O O12 0.539187 0.415228 0.203095
O O13 0.377529 0.700775 0.622473
O O14 0.733382 0.694954 0.500000
O O15 0.599405 0.750000 0.650597
O O16 0.575007 0.658791 0.678846
#
# Coordination Sequence:
#
# PCOD9192908 Si02
#       7
#     8   8   8   8   8   8   8
#     4   8  15  29  49  74 103 134 170 211 251 292
#     4  11  23  35  46  67 104 143 171 203 251 301
#     4  11  20  31  52  78 103 132 169 210 253 304
#     4   8  15  29  49  74 103 134 170 211 251 292
#     4  10  20  34  52  73 102 135 168 207 253 302
#     4  10  20  34  52  73 102 135 168 207 253 302
#     4  11  20  31  52  78 103 132 169 210 253 304
#
# _framework density 16.711905000000002
#
# number of rings (size 3 to 8) (size 9 to 14) (size 15 to 20)
#    0.000    2.143    1.429    3.857    0.000    3.429 
#    0.000    0.000    0.000    4.286    0.000   10.000 
#    0.000    0.000    0.000    0.000    0.000    0.000 
#
# Total GULP energy -156257.031133 kJ/mol
# GULP energy per Si atom -5580.608255 kJ/mol
# Density = 1.667387 g / cm^3
# Si number density = 16.711905 Si / 1000 Ang^3
#
#
#
# Elastic Constant Matrix: (Units=GPa)
#
#
# Indices 1 2 3 4 5 6 
#
# 1 31.1500 37.0005 26.4874 0.0000 -0.0925 0.0000
# 2 37.0005 168.8907 106.5539 0.0000 -3.8871 0.0000
# 3 26.4874 106.5539 141.0729 0.0000 -6.0508 0.0000
# 4 0.0000 0.0000 0.0000 11.3189 0.0000 0.9951
# 5 -0.0925 -3.8871 -6.0508 0.0000 3.4819 0.0000
# 6 0.0000 0.0000 0.0000 0.9951 0.0000 29.1622
#
#
#
# Elastic Compliance Matrix: (Units=1/GPa)
#
#
# Indices 1 2 3 4 5 6 
#
# 1 0.044147 -0.008389 -0.002489 0.000000 -0.012518 0.000000
# 2 -0.008389 0.012924 -0.008187 0.000000 -0.000023 0.000000
# 3 -0.002489 -0.008187 0.014420 0.000000 0.015852 0.000000
# 4 0.000000 0.000000 0.000000 0.088613 0.000000 -0.003024
# 5 -0.012518 -0.000023 0.015852 0.000000 0.314390 0.000000
# 6 0.000000 0.000000 0.000000 -0.003024 0.000000 0.034394
#
#
# Mechanical properties :
#
#
# Convention : Reuss Voigt Hill
#
# Bulk Modulus (GPa) = 29.97696 75.68856 52.83276
# Shear Modulus (GPa) = 8.95832 20.19740 14.57786
#
# Velocity S-wave (km/s) = 2.31777 3.48021 2.95668
# Velocity P-wave (km/s) = 5.01390 7.84460 6.58319
#
# Compressibility (1/GPa) = 0.03335895
#
# Stress axis : x y z
#
# Youngs Moduli (GPa) = 22.65144 77.37654 69.34915
#
# Poissons Ratio (x) = 0.64914 0.17263
# Poissons Ratio (y) = 0.19003 0.56778
# Poissons Ratio (z) = 0.05639 0.63351
#
# Static dielectric constant tensor:
#      x y z
#    x 1.569020 0.000000 0.000830 
#    y 0.000000 1.548470 0.000000 
#    z 0.000830 0.000000 1.554130 
# 
# From -- ./inp_files/199678.got.cif
#   From: 2010.05.17/outbox.cif.g08.bks.cpg/sg12_100_cif.got.tgz:199678.got - 2010.06.03 13:09:07.
