data_PCOD9192571
_publ_section_title
;
Structure prediction by ZEFSAII (Michael W. Deem and Ramdas Pophale) SiO2 
 PCOD9192571
Probable space group: C 2/M
;
_chemical_formula_sum "Si O2"
_cell_formula_units_Z 42
_cell_length_a 9.047552
_cell_length_b 17.803927
_cell_length_c 17.783447
_cell_angle_alpha 90.000000
_cell_angle_beta 142.522258
_cell_angle_gamma 90.000000
_cell_volume 1742.970378
_symmetry_space_group_name_H-M "C 2/M"
_symmetry_group_IT_number 12
_symmetry_cell_setting 'monoclinic'
loop_
_space_group_symop_operation_xyz
x,y,z
-x,y,-z
-x,-y,-z
x,-y,z
1/2+x,1/2+y,z
1/2-x,1/2+y,-z
1/2-x,1/2-y,-z
1/2+x,1/2-y,z
loop_
_atom_site_type_symbol
_atom_site_label
_atom_site_fract_x
_atom_site_fract_y
_atom_site_fract_z
Si Si1 0.249068 0.584035 0.314057
Si Si2 0.718324 0.411553 0.029502
Si Si3 0.448651 0.723614 0.315236
Si Si4 0.931105 0.830319 0.801834
Si Si5 0.000000 0.500000 0.500000
Si Si6 0.570661 0.886514 0.404256
O O1 0.319329 0.500000 0.318613
O O2 0.419419 0.651028 0.355240
O O3 0.980412 0.600474 0.172075
O O4 0.209004 0.585797 0.386966
O O5 0.701017 0.500000 0.004595
O O6 0.500000 0.394200 0.000000
O O7 0.669961 0.362509 0.936121
O O8 0.548599 0.698955 0.275065
O O9 0.576724 0.796046 0.405101
O O10 0.181988 0.761205 0.197107
O O11 0.725229 0.896013 0.723457
O O12 0.872282 0.433988 0.500137
#
# Coordination Sequence:
#
# PCOD9192571 Si02
#       6
#     8   8   8   8   2   8
#     4  11  21  40  62  89 138 172 211 254 322 368
#     4  10  20  33  58  92 126 179 213 260 297 375
#     4  10  21  41  60  94 131 172 201 272 304 381
#     4  10  21  37  61  89 132 166 217 250 313 373
#     4  12  24  40  80  96 114 160 216 274 324 414
#     4  10  21  41  64  94 118 159 210 261 327 381
#
# _framework density 24.096796000000001
#
# number of rings (size 3 to 8) (size 9 to 14) (size 15 to 20)
#    1.143    0.571    4.762    0.000    1.333    2.286 
#    3.429    5.714    0.000    1.143    0.000    0.000 
#    0.000    0.000    0.000    0.000    0.000    0.000 
#
# Total GULP energy -117115.940509 kJ/mol
# GULP energy per Si atom -5576.949548 kJ/mol
# Density = 2.404195 g / cm^3
# Si number density = 24.096796 Si / 1000 Ang^3
#
#
#
# Elastic Constant Matrix: (Units=GPa)
#
#
# Indices 1 2 3 4 5 6 
#
# 1 101.1387 51.4151 36.2085 0.0001 -14.5927 -0.0005
# 2 51.4151 161.4657 49.3743 0.0000 0.2799 -0.0001
# 3 36.2085 49.3743 57.1605 0.0006 8.2613 0.0003
# 4 0.0001 0.0000 0.0006 32.3737 0.0003 -6.9695
# 5 -14.5927 0.2799 8.2613 0.0003 30.0422 -0.0001
# 6 -0.0005 -0.0001 0.0003 -6.9695 -0.0001 40.4704
#
#
#
# Elastic Compliance Matrix: (Units=1/GPa)
#
#
# Indices 1 2 3 4 5 6 
#
# 1 0.015988 -0.002105 -0.009825 0.000000 0.010488 0.000000
# 2 -0.002105 0.008810 -0.006371 0.000000 0.000647 0.000000
# 3 -0.009825 -0.006371 0.031140 0.000000 -0.013277 0.000000
# 4 0.000000 0.000000 0.000000 0.032079 0.000000 0.005524
# 5 0.010488 0.000647 -0.013277 0.000000 0.042026 0.000000
# 6 0.000000 0.000000 0.000000 0.005524 0.000000 0.025661
#
#
# Mechanical properties :
#
#
# Convention : Reuss Voigt Hill
#
# Bulk Modulus (GPa) = 51.71383 65.97341 58.84362
# Shear Modulus (GPa) = 25.15707 32.76172 28.95940
#
# Velocity S-wave (km/s) = 3.23461 3.69126 3.47045
# Velocity P-wave (km/s) = 5.95464 6.75316 6.36643
#
# Compressibility (1/GPa) = 0.01933719
#
# Stress axis : x y z
#
# Youngs Moduli (GPa) = 62.54615 113.50213 32.11276
#
# Poissons Ratio (x) = 0.23889 0.31552
# Poissons Ratio (y) = 0.13164 0.20458
# Poissons Ratio (z) = 0.61455 0.72308
#
# Static dielectric constant tensor:
#      x y z
#    x 1.960050 0.000000 0.093590 
#    y 0.000000 1.898990 0.000000 
#    z 0.093590 0.000000 1.980600 
# 
# From -- ./inp_files/195643.got.cif
#   From: 2010.05.17/outbox.cif.g08.bks.cpg/sg12_98_cif.got.tgz:195643.got - 2010.06.03 13:09:07.
