data_PCOD9192406
_publ_section_title
;
Structure prediction by ZEFSAII (Michael W. Deem and Ramdas Pophale) SiO2 
 PCOD9192406
Probable space group: C 2/M
;
_chemical_formula_sum "Si O2"
_cell_formula_units_Z 64
_cell_length_a 33.287278
_cell_length_b 17.555333
_cell_length_c 12.618295
_cell_angle_alpha 90.000000
_cell_angle_beta 152.008153
_cell_angle_gamma 90.000000
_cell_volume 3460.836448
_symmetry_space_group_name_H-M "C 2/M"
_symmetry_group_IT_number 12
_symmetry_cell_setting 'monoclinic'
loop_
_space_group_symop_operation_xyz
x,y,z
-x,y,-z
-x,-y,-z
x,-y,z
1/2+x,1/2+y,z
1/2-x,1/2+y,-z
1/2-x,1/2-y,-z
1/2+x,1/2-y,z
loop_
_atom_site_type_symbol
_atom_site_label
_atom_site_fract_x
_atom_site_fract_y
_atom_site_fract_z
Si Si1 0.729283 0.323412 0.709203
Si Si2 0.181875 0.089791 0.810784
Si Si3 0.991041 0.343031 0.851923
Si Si4 0.186291 0.160328 0.044920
Si Si5 0.681182 0.910851 0.502070
Si Si6 0.484313 0.411812 0.289362
Si Si7 0.970517 0.172114 0.811370
Si Si8 0.664597 0.089334 0.220526
O O1 0.722122 0.372446 0.800105
O O2 0.775515 0.243499 0.842288
O O3 0.631903 0.317527 0.438606
O O4 0.782678 0.365691 0.743362
O O5 0.078610 0.096843 0.559151
O O6 0.201765 0.000000 0.863195
O O7 0.209347 0.133085 0.980747
O O8 0.894003 0.368776 0.608241
O O9 0.006952 0.254946 0.863193
O O10 0.063693 0.394848 0.970574
O O11 0.000000 0.351104 0.000000
O O12 0.231161 0.105120 0.234689
O O13 0.085337 0.145885 0.825675
O O14 0.685275 0.884235 0.389250
O O15 0.659697 0.000000 0.448632
O O16 0.457654 0.500000 0.242603
O O17 0.497496 0.391021 0.196351
O O18 0.000000 0.156724 0.000000
O O19 0.683322 0.000000 0.257172
#
# Coordination Sequence:
#
# PCOD9192406 Si02
#       8
#     8   8   8   8   8   8   8   8
#     4  11  23  38  59  88 117 152 190 233 289 346
#     4  10  22  42  63  82 113 152 193 239 291 342
#     4   9  17  35  54  79 111 151 193 228 280 334
#     4  12  22  37  59  88 114 145 196 244 284 330
#     4  10  20  33  55  86 116 148 190 239 283 333
#     4  10  22  38  58  85 113 150 196 237 284 338
#     4  10  21  37  56  81 120 159 185 225 287 347
#     4  10  21  36  58  84 117 154 190 232 283 348
#
# _framework density 18.492639
#
# number of rings (size 3 to 8) (size 9 to 14) (size 15 to 20)
#    0.000    1.750    1.250    3.375    1.750    3.750 
#    0.000    0.000    0.000    0.000    0.000    2.625 
#    0.000    0.000    0.000    0.000    0.000    0.000 
#
# Total GULP energy -178595.516108 kJ/mol
# GULP energy per Si atom -5581.109878 kJ/mol
# Density = 1.845055 g / cm^3
# Si number density = 18.492639 Si / 1000 Ang^3
#
#
#
# Elastic Constant Matrix: (Units=GPa)
#
#
# Indices 1 2 3 4 5 6 
#
# 1 98.6216 36.1743 43.9359 0.0000 -14.2757 0.0000
# 2 36.1743 54.2050 30.0933 0.0000 -14.8504 0.0000
# 3 43.9359 30.0933 45.4104 0.0000 -9.6483 0.0000
# 4 0.0000 0.0000 0.0000 14.0026 0.0000 -4.7062
# 5 -14.2757 -14.8504 -9.6483 0.0000 21.3658 0.0000
# 6 0.0000 0.0000 0.0000 -4.7062 0.0000 28.2588
#
#
#
# Elastic Compliance Matrix: (Units=1/GPa)
#
#
# Indices 1 2 3 4 5 6 
#
# 1 0.018496 -0.002963 -0.015203 0.000000 0.003434 0.000000
# 2 -0.002963 0.033197 -0.016206 0.000000 0.013776 0.000000
# 3 -0.015203 -0.016206 0.047473 0.000000 0.000016 0.000000
# 4 0.000000 0.000000 0.000000 0.075650 0.000000 0.012599
# 5 0.003434 0.013776 0.000016 0.000000 0.058681 0.000000
# 6 0.000000 0.000000 0.000000 0.012599 0.000000 0.037485
#
#
# Mechanical properties :
#
#
# Convention : Reuss Voigt Hill
#
# Bulk Modulus (GPa) = 32.86883 46.51598 39.69241
# Shear Modulus (GPa) = 14.29115 18.59434 16.44274
#
# Velocity S-wave (km/s) = 2.78295 3.17440 2.98510
# Velocity P-wave (km/s) = 5.30462 6.21644 5.77854
#
# Compressibility (1/GPa) = 0.03042396
#
# Stress axis : x y z
#
# Youngs Moduli (GPa) = 54.06458 30.12311 21.06440
#
# Poissons Ratio (x) = 0.08925 0.32024
# Poissons Ratio (y) = 0.16018 0.34137
# Poissons Ratio (z) = 0.82193 0.48817
#
# Static dielectric constant tensor:
#      x y z
#    x 1.620580 0.000000 0.007650 
#    y 0.000000 1.628440 0.000000 
#    z 0.007650 0.000000 1.658210 
# 
# From -- ./inp_files/190109.got.cif
#   From: 2010.05.17/outbox.cif.g08.bks.cpg/sg12_96_cif.got.tgz:190109.got - 2010.06.03 13:09:07.
