data_PCOD9192171
_publ_section_title
;
Structure prediction by ZEFSAII (Michael W. Deem and Ramdas Pophale) SiO2 
 PCOD9192171
Probable space group: C 2/M
;
_chemical_formula_sum "Si O2"
_cell_formula_units_Z 32
_cell_length_a 16.178208
_cell_length_b 7.973295
_cell_length_c 16.471475
_cell_angle_alpha 90.000000
_cell_angle_beta 138.245410
_cell_angle_gamma 90.000000
_cell_volume 1414.935926
_symmetry_space_group_name_H-M "C 2/M"
_symmetry_group_IT_number 12
_symmetry_cell_setting 'monoclinic'
loop_
_space_group_symop_operation_xyz
x,y,z
-x,y,-z
-x,-y,-z
x,-y,z
1/2+x,1/2+y,z
1/2-x,1/2+y,-z
1/2-x,1/2-y,-z
1/2+x,1/2-y,z
loop_
_atom_site_type_symbol
_atom_site_label
_atom_site_fract_x
_atom_site_fract_y
_atom_site_fract_z
Si Si1 0.828835 0.808997 0.357032
Si Si2 0.827932 0.500000 0.957630
Si Si3 0.105466 0.500000 0.186211
Si Si4 0.887418 0.698493 0.574637
Si Si5 0.347940 0.193802 0.192125
O O1 0.683481 0.840458 0.274622
O O2 0.897815 0.750040 0.487672
O O3 0.832714 0.699558 0.279486
O O4 0.868787 0.000000 0.364749
O O5 0.866821 0.500000 0.890320
O O6 0.747449 0.332179 0.911385
O O7 0.961506 0.500000 0.098200
O O8 0.894280 0.500000 0.584727
O O9 0.750000 0.750000 0.500000
O O10 0.009437 0.756045 0.712981
O O11 0.327356 0.000000 0.151601
#
# Coordination Sequence:
#
# PCOD9192171 Si02
#       5
#     8   4   4   8   8
#     4   9  18  33  55  75 109 139 168 216 267 305
#     4   9  16  33  55  77 109 138 173 216 268 297
#     4   7  16  31  53  81 103 136 175 214 260 311
#     4  11  23  34  50  79 106 139 179 218 265 324
#     4  10  20  33  53  82 108 139 177 216 260 319
#
# _framework density 22.615866
#
# number of rings (size 3 to 8) (size 9 to 14) (size 15 to 20)
#    0.750    1.750    1.250    2.250    3.500    3.000 
#    0.000   11.250    0.000    1.500    0.000    0.000 
#    0.000    0.000    0.000    0.000    0.000    0.000 
#
# Total GULP energy -89254.665761 kJ/mol
# GULP energy per Si atom -5578.416610 kJ/mol
# Density = 2.256439 g / cm^3
# Si number density = 22.615866 Si / 1000 Ang^3
#
#
#
# Elastic Constant Matrix: (Units=GPa)
#
#
# Indices 1 2 3 4 5 6 
#
# 1 79.6379 19.9457 13.9860 0.0000 11.9084 0.0000
# 2 19.9457 99.2449 54.4563 0.0000 18.9909 0.0000
# 3 13.9860 54.4563 163.6196 0.0000 40.4524 0.0000
# 4 0.0000 0.0000 0.0000 31.1387 0.0000 0.9143
# 5 11.9084 18.9909 40.4524 0.0000 35.8494 0.0000
# 6 0.0000 0.0000 0.0000 0.9143 0.0000 26.3828
#
#
#
# Elastic Compliance Matrix: (Units=1/GPa)
#
#
# Indices 1 2 3 4 5 6 
#
# 1 0.013623 -0.002298 0.000580 0.000000 -0.003962 0.000000
# 2 -0.002298 0.012897 -0.003600 0.000000 -0.002007 0.000000
# 3 0.000580 -0.003600 0.009482 0.000000 -0.008985 0.000000
# 4 0.000000 0.000000 0.000000 0.032147 0.000000 -0.001114
# 5 -0.003962 -0.002007 -0.008985 0.000000 0.040412 0.000000
# 6 0.000000 0.000000 0.000000 -0.001114 0.000000 0.037942
#
#
# Mechanical properties :
#
#
# Convention : Reuss Voigt Hill
#
# Bulk Modulus (GPa) = 39.42268 57.69759 48.56014
# Shear Modulus (GPa) = 30.19432 35.61514 32.90473
#
# Velocity S-wave (km/s) = 3.65786 3.97266 3.81851
# Velocity P-wave (km/s) = 5.94215 6.82716 6.39997
#
# Compressibility (1/GPa) = 0.02536611
#
# Stress axis : x y z
#
# Youngs Moduli (GPa) = 73.40525 77.53617 105.46730
#
# Poissons Ratio (x) = 0.17817 -0.06117
# Poissons Ratio (y) = 0.16868 0.37967
# Poissons Ratio (z) = -0.04257 0.27912
#
# Static dielectric constant tensor:
#      x y z
#    x 2.059760 0.000000 0.310170 
#    y 0.000000 1.795510 0.000000 
#    z 0.310170 0.000000 2.369130 
# 
# From -- ./inp_files/342102.got.cif
#   From: 2010.05.17/outbox.cif.g08.bks.cpg/sg12_172_cif.got.tgz:342102.got - 2010.06.03 13:09:07.
