data_PCOD9192886
_publ_section_title
;
Structure prediction by ZEFSAII (Michael W. Deem and Ramdas Pophale) SiO2 
 PCOD9192886
Probable space group: C 2/M
;
_chemical_formula_sum "Si O2"
_cell_formula_units_Z 40
_cell_length_a 8.886068
_cell_length_b 19.448822
_cell_length_c 14.091914
_cell_angle_alpha 90.000000
_cell_angle_beta 108.378325
_cell_angle_gamma 90.000000
_cell_volume 2311.197208
_symmetry_space_group_name_H-M "C 2/M"
_symmetry_group_IT_number 12
_symmetry_cell_setting 'monoclinic'
loop_
_space_group_symop_operation_xyz
x,y,z
-x,y,-z
-x,-y,-z
x,-y,z
1/2+x,1/2+y,z
1/2-x,1/2+y,-z
1/2-x,1/2-y,-z
1/2+x,1/2-y,z
loop_
_atom_site_type_symbol
_atom_site_label
_atom_site_fract_x
_atom_site_fract_y
_atom_site_fract_z
Si Si1 0.577130 0.079709 0.792732
Si Si2 0.825604 0.916513 0.000000
Si Si3 0.515996 0.825783 0.394957
Si Si4 0.121039 0.174218 0.605043
Si Si5 0.284398 0.420291 0.207268
O O1 0.697168 0.106197 0.897029
O O2 0.571133 0.125294 0.697410
O O3 0.400708 0.080567 0.801416
O O4 0.616871 0.000000 0.778554
O O5 0.813478 0.000000 1.000000
O O6 0.800140 0.893803 0.102972
O O7 0.000000 0.897745 0.000000
O O8 0.500000 0.851206 0.500000
O O9 0.701210 0.821726 0.402421
O O10 0.439419 0.750000 0.378839
O O11 0.126276 0.125294 0.697409
O O12 0.000000 0.148795 0.500000
O O13 0.338317 0.500000 0.221447
#
# Coordination Sequence:
#
# PCOD9192886 Si02
#       5
#     8   8   8   8   8
#     4   9  18  33  52  73  98 129 163 198 239 288
#     4   9  17  29  48  75 102 127 157 197 244 287
#     4  10  20  34  52  72  97 130 164 199 242 289
#     4  10  20  34  52  72  97 130 164 199 242 289
#     4   9  18  33  52  73  98 129 163 198 239 288
#
# _framework density 17.307048000000002
#
# number of rings (size 3 to 8) (size 9 to 14) (size 15 to 20)
#    0.000    2.600    0.000    3.000    0.000    6.400 
#    0.000    1.000    0.000    0.000    0.000    0.000 
#    0.000    0.000    0.000    0.000    0.000    0.000 
#
# Total GULP energy -111510.639340 kJ/mol
# GULP energy per Si atom -5575.531967 kJ/mol
# Density = 1.726766 g / cm^3
# Si number density = 17.307048 Si / 1000 Ang^3
#
#
#
# Elastic Constant Matrix: (Units=GPa)
#
#
# Indices 1 2 3 4 5 6 
#
# 1 47.1958 29.7837 67.3170 0.0000 7.6700 0.0000
# 2 29.7837 46.9604 82.3724 0.0000 5.0558 0.0000
# 3 67.3170 82.3724 221.3322 0.0000 9.0711 0.0000
# 4 0.0000 0.0000 0.0000 -37.2943 0.0000 -5.3034
# 5 7.6700 5.0558 9.0711 0.0000 29.9644 0.0000
# 6 0.0000 0.0000 0.0000 -5.3034 0.0000 17.8662
#
#
#
# Elastic Compliance Matrix: (Units=1/GPa)
#
#
# Indices 1 2 3 4 5 6 
#
# 1 0.040512 -0.011127 -0.007931 0.000000 -0.006092 0.000000
# 2 -0.011127 0.064751 -0.020639 0.000000 -0.001829 0.000000
# 3 -0.007931 -0.020639 0.014566 0.000000 0.001103 0.000000
# 4 0.000000 0.000000 0.000000 -0.025728 0.000000 -0.007637
# 5 -0.006092 -0.001829 0.001103 0.000000 0.034907 0.000000
# 6 0.000000 0.000000 0.000000 -0.007637 0.000000 0.053705
#
#
# Mechanical properties :
#
#
# Convention : Reuss Voigt Hill
#
# Bulk Modulus (GPa) = 24.73058 74.93718 49.83388
# Shear Modulus (GPa) = 18.14328 11.17495 14.65911
#
# Velocity S-wave (km/s) = 3.24129 2.54380 2.91349
# Velocity P-wave (km/s) = 5.32243 7.21252 6.33833
#
# Compressibility (1/GPa) = 0.04043577
#
# Stress axis : x y z
#
# Youngs Moduli (GPa) = 24.68401 15.44389 68.65252
#
# Poissons Ratio (x) = 0.17184 0.54447
# Poissons Ratio (y) = 0.27465 1.41691
# Poissons Ratio (z) = 0.19577 0.31874
#
# Static dielectric constant tensor:
#      x y z
#    x 1.580390 0.000000 -0.000010 
#    y 0.000000 1.576740 0.000000 
#    z -0.000010 0.000000 1.580340 
# 
# From -- ./inp_files/120050.got.cif
#   From: 2010.05.17/outbox.cif.g08.bks.cpg/sg12_61_cif.got.tgz:120050.got - 2010.06.03 13:09:07.
