data_PCOD9192810
_publ_section_title
;
Structure prediction by ZEFSAII (Michael W. Deem and Ramdas Pophale) SiO2 
 PCOD9192810
Probable space group: C 2/M
;
_chemical_formula_sum "Si O2"
_cell_formula_units_Z 48
_cell_length_a 28.505797
_cell_length_b 8.594844
_cell_length_c 12.101748
_cell_angle_alpha 90.000000
_cell_angle_beta 70.688792
_cell_angle_gamma 90.000000
_cell_volume 2798.143238
_symmetry_space_group_name_H-M "C 2/M"
_symmetry_group_IT_number 12
_symmetry_cell_setting 'monoclinic'
loop_
_space_group_symop_operation_xyz
x,y,z
-x,y,-z
-x,-y,-z
x,-y,z
1/2+x,1/2+y,z
1/2-x,1/2+y,-z
1/2-x,1/2-y,-z
1/2+x,1/2-y,z
loop_
_atom_site_type_symbol
_atom_site_label
_atom_site_fract_x
_atom_site_fract_y
_atom_site_fract_z
Si Si1 0.444172 0.189015 0.025284
Si Si2 0.210994 0.182110 0.887052
Si Si3 0.315458 0.316038 0.743822
Si Si4 0.627811 0.815344 0.110171
Si Si5 0.198637 0.314892 0.488424
Si Si6 0.646447 0.185992 0.749768
O O1 0.406473 0.227865 0.154805
O O2 0.445818 0.000000 0.020091
O O3 0.500000 0.246393 0.000000
O O4 0.418185 0.239097 0.930679
O O5 0.267167 0.239063 0.838223
O O6 0.187476 0.218536 0.785625
O O7 0.208414 0.000000 0.915214
O O8 0.175804 0.276065 0.997453
O O9 0.309907 0.500000 0.752407
O O10 0.362621 0.264046 0.779818
O O11 0.314796 0.260638 0.617875
O O12 0.624181 0.000000 0.128149
O O13 0.204293 0.500000 0.468532
O O14 0.250000 0.250000 0.500000
O O15 0.155968 0.287427 0.613580
O O16 0.654470 0.000000 0.763820
#
# Coordination Sequence:
#
# PCOD9192810 Si02
#       6
#     8   8   8   8   8   8
#     4   8  15  31  57  83 102 124 159 211 267 310
#     4  11  20  31  49  72 102 137 172 208 252 305
#     4  12  23  34  48  69 102 140 177 212 251 300
#     4  10  20  34  51  74 103 132 168 211 258 309
#     4  11  21  33  50  73 104 142 179 211 247 296
#     4   9  18  32  51  76 105 134 170 212 251 299
#
# _framework density 17.154233999999999
#
# number of rings (size 3 to 8) (size 9 to 14) (size 15 to 20)
#    0.000    1.833    1.667    5.500    0.000    0.667 
#    0.000    0.000    0.000   13.500    0.000    7.000 
#    0.000    0.000    0.000    0.000    0.000    0.000 
#
# Total GULP energy -133919.186448 kJ/mol
# GULP energy per Si atom -5579.966102 kJ/mol
# Density = 1.711519 g / cm^3
# Si number density = 17.154234 Si / 1000 Ang^3
#
#
#
# Elastic Constant Matrix: (Units=GPa)
#
#
# Indices 1 2 3 4 5 6 
#
# 1 116.0355 9.1640 49.5398 0.0000 10.1063 0.0000
# 2 9.1640 20.5377 1.1602 0.0000 0.6195 0.0000
# 3 49.5398 1.1602 74.5327 0.0000 23.3978 0.0000
# 4 0.0000 0.0000 0.0000 24.9539 0.0000 6.3046
# 5 10.1063 0.6195 23.3978 0.0000 21.2945 0.0000
# 6 0.0000 0.0000 0.0000 6.3046 0.0000 16.0695
#
#
#
# Elastic Compliance Matrix: (Units=1/GPa)
#
#
# Indices 1 2 3 4 5 6 
#
# 1 0.012909 -0.005344 -0.010110 0.000000 0.005137 0.000000
# 2 -0.005344 0.050957 0.003706 0.000000 -0.003019 0.000000
# 3 -0.010110 0.003706 0.028404 0.000000 -0.026519 0.000000
# 4 0.000000 0.000000 0.000000 0.044483 0.000000 -0.017452
# 5 0.005137 -0.003019 -0.026519 0.000000 0.073749 0.000000
# 6 0.000000 0.000000 0.000000 -0.017452 0.000000 0.069077
#
#
# Mechanical properties :
#
#
# Convention : Reuss Voigt Hill
#
# Bulk Modulus (GPa) = 14.54006 36.75932 25.64969
# Shear Modulus (GPa) = 15.33751 22.54637 18.94194
#
# Velocity S-wave (km/s) = 2.99339 3.62931 3.32658
# Velocity P-wave (km/s) = 4.52124 6.24802 5.45341
#
# Compressibility (1/GPa) = 0.06877552
#
# Stress axis : x y z
#
# Youngs Moduli (GPa) = 77.46624 19.62437 35.20641
#
# Poissons Ratio (x) = 0.10487 0.35592
# Poissons Ratio (y) = 0.41397 -0.13049
# Poissons Ratio (z) = 0.78316 -0.07274
#
# Static dielectric constant tensor:
#      x y z
#    x 1.579910 0.000000 0.017750 
#    y 0.000000 1.577440 0.000000 
#    z 0.017750 0.000000 1.606530 
# 
# From -- ./inp_files/179210.got.cif
#   From: 2010.05.17/outbox.cif.g08.bks.cpg/sg12_90_cif.got.tgz:179210.got - 2010.06.03 13:09:07.
