data_PCOD9192722
_publ_section_title
;
Structure prediction by ZEFSAII (Michael W. Deem and Ramdas Pophale) SiO2 
 PCOD9192722
Probable space group: C 2/M
;
_chemical_formula_sum "Si O2"
_cell_formula_units_Z 56
_cell_length_a 9.868092
_cell_length_b 28.483437
_cell_length_c 13.891648
_cell_angle_alpha 90.000000
_cell_angle_beta 49.335451
_cell_angle_gamma 90.000000
_cell_volume 2961.805295
_symmetry_space_group_name_H-M "C 2/M"
_symmetry_group_IT_number 12
_symmetry_cell_setting 'monoclinic'
loop_
_space_group_symop_operation_xyz
x,y,z
-x,y,-z
-x,-y,-z
x,-y,z
1/2+x,1/2+y,z
1/2-x,1/2+y,-z
1/2-x,1/2-y,-z
1/2+x,1/2-y,z
loop_
_atom_site_type_symbol
_atom_site_label
_atom_site_fract_x
_atom_site_fract_y
_atom_site_fract_z
Si Si1 0.709756 0.762016 0.408034
Si Si2 0.165241 0.798534 0.999481
Si Si3 0.578111 0.624122 0.203497
Si Si4 0.802420 0.632182 0.634937
Si Si5 0.350034 0.053969 0.986585
Si Si6 0.191752 0.836860 0.355378
Si Si7 0.931704 0.627605 0.784467
O O1 0.500000 0.764528 0.500000
O O2 0.750000 0.750000 0.500000
O O3 0.760613 0.813636 0.352328
O O4 0.756676 0.717502 0.321386
O O5 0.329484 0.827081 0.875009
O O6 0.250000 0.750000 0.000000
O O7 0.098936 0.833534 0.115563
O O8 0.000000 0.791768 0.000000
O O9 0.375866 0.607664 0.319666
O O10 0.681890 0.580654 0.109531
O O11 0.665044 0.642249 0.262235
O O12 0.829593 0.619157 0.732830
O O13 0.000000 0.625981 0.500000
O O14 0.315468 0.000000 0.976788
O O15 0.500000 0.055204 0.000000
O O16 0.412506 0.084960 0.867270
O O17 0.358317 0.862066 0.329899
O O18 0.000000 0.838825 0.500000
#
# Coordination Sequence:
#
# PCOD9192722 Si02
#       7
#     8   8   8   8   8   8   8
#     4  10  20  34  50  79 120 175 215 232 270 337
#     4  11  26  40  56  84 123 168 210 258 301 350
#     4  11  23  39  63  91 120 160 207 253 317 368
#     4  11  22  38  59  87 132 172 201 249 299 364
#     4  10  22  45  71  93 116 152 209 270 320 383
#     4  11  22  36  59  91 128 164 213 251 291 369
#     4  11  23  39  63  91 122 162 208 254 321 368
#
# _framework density 18.907385999999999
#
# number of rings (size 3 to 8) (size 9 to 14) (size 15 to 20)
#    0.000    1.286    2.857    4.286    6.000    0.000 
#    0.000    1.429    0.000    5.143    0.000    0.000 
#    0.000    0.000    0.000    0.000    0.000    0.000 
#
# Total GULP energy -156115.725234 kJ/mol
# GULP energy per Si atom -5575.561615 kJ/mol
# Density = 1.886435 g / cm^3
# Si number density = 18.907386 Si / 1000 Ang^3
#
#
#
# Elastic Constant Matrix: (Units=GPa)
#
#
# Indices 1 2 3 4 5 6 
#
# 1 95.1298 19.5062 7.7654 0.0000 -7.7817 0.0000
# 2 19.5062 100.3217 33.4244 0.0000 -7.0532 0.0000
# 3 7.7654 33.4244 58.0328 0.0000 -21.4337 0.0000
# 4 0.0000 0.0000 0.0000 10.8331 0.0000 -1.3304
# 5 -7.7817 -7.0532 -21.4337 0.0000 40.7248 0.0000
# 6 0.0000 0.0000 0.0000 -1.3304 0.0000 11.2489
#
#
#
# Elastic Compliance Matrix: (Units=1/GPa)
#
#
# Indices 1 2 3 4 5 6 
#
# 1 0.011082 -0.002186 0.000520 0.000000 0.002012 0.000000
# 2 -0.002186 0.012898 -0.008025 0.000000 -0.002408 0.000000
# 3 0.000520 -0.008025 0.026449 0.000000 0.012630 0.000000
# 4 0.000000 0.000000 0.000000 0.093670 0.000000 0.011079
# 5 0.002012 -0.002408 0.012630 0.000000 0.031170 0.000000
# 6 0.000000 0.000000 0.000000 0.011079 0.000000 0.090208
#
#
# Mechanical properties :
#
#
# Convention : Reuss Voigt Hill
#
# Bulk Modulus (GPa) = 32.21141 41.65292 36.93217
# Shear Modulus (GPa) = 16.93717 25.41390 21.17553
#
# Velocity S-wave (km/s) = 2.99623 3.67021 3.35021
# Velocity P-wave (km/s) = 5.38918 6.32759 5.87714
#
# Compressibility (1/GPa) = 0.03104490
#
# Stress axis : x y z
#
# Youngs Moduli (GPa) = 90.23240 77.53417 37.80891
#
# Poissons Ratio (x) = 0.16953 -0.01965
# Poissons Ratio (y) = 0.19729 0.30342
# Poissons Ratio (z) = -0.04689 0.62222
#
# Static dielectric constant tensor:
#      x y z
#    x 1.650650 0.000000 -0.018160 
#    y 0.000000 1.678640 0.000000 
#    z -0.018160 0.000000 1.675280 
# 
# From -- ./inp_files/185211.got.cif
#   From: 2010.05.17/outbox.cif.g08.bks.cpg/sg12_93_cif.got.tgz:185211.got - 2010.06.03 13:09:07.
