data_PCOD9192705
_publ_section_title
;
Structure prediction by ZEFSAII (Michael W. Deem and Ramdas Pophale) SiO2 
 PCOD9192705
Probable space group: C 2/M
;
_chemical_formula_sum "Si O2"
_cell_formula_units_Z 56
_cell_length_a 25.731932
_cell_length_b 7.726126
_cell_length_c 13.641306
_cell_angle_alpha 90.000000
_cell_angle_beta 109.793370
_cell_angle_gamma 90.000000
_cell_volume 2551.777560
_symmetry_space_group_name_H-M "C 2/M"
_symmetry_group_IT_number 12
_symmetry_cell_setting 'monoclinic'
loop_
_space_group_symop_operation_xyz
x,y,z
-x,y,-z
-x,-y,-z
x,-y,z
1/2+x,1/2+y,z
1/2-x,1/2+y,-z
1/2-x,1/2-y,-z
1/2+x,1/2-y,z
loop_
_atom_site_type_symbol
_atom_site_label
_atom_site_fract_x
_atom_site_fract_y
_atom_site_fract_z
Si Si1 0.680091 0.797977 0.559671
Si Si2 0.415745 0.790500 0.806465
Si Si3 0.078289 0.804582 0.970769
Si Si4 0.813631 0.706251 0.059117
Si Si5 0.987018 0.695406 0.253318
Si Si6 0.801854 0.289620 0.649488
Si Si7 0.118118 0.712934 0.706310
O O1 0.742304 0.781062 0.640463
O O2 0.683981 0.727060 0.452018
O O3 0.638534 0.725393 0.613722
O O4 0.666104 0.000000 0.539312
O O5 0.434944 0.734787 0.925717
O O6 0.455243 0.724946 0.744309
O O7 0.352729 0.737809 0.749365
O O8 0.417859 0.000000 0.804612
O O9 0.143640 0.781686 0.992969
O O10 0.062214 0.000000 0.937066
O O11 0.047223 0.689291 0.870919
O O12 0.819034 0.500000 0.057770
O O13 0.750000 0.750000 0.000000
O O14 0.838256 0.763024 0.180597
O O15 0.998719 0.500000 0.295484
O O16 0.942786 0.773515 0.300088
O O17 0.797862 0.500000 0.645895
O O18 0.117149 0.500000 0.705440
#
# Coordination Sequence:
#
# PCOD9192705 Si02
#       7
#     8   8   8   8   8   8   8
#     4   9  17  33  54  74 101 132 164 206 256 307
#     4  10  20  34  52  74 102 136 172 213 260 309
#     4  11  22  34  50  74 103 137 175 213 256 303
#     4  10  20  34  50  74 107 138 172 211 252 305
#     4   9  18  35  54  72 100 137 172 209 259 313
#     4   9  19  33  50  76 103 129 166 210 254 307
#     4   8  16  31  52  73  96 131 168 202 249 304
#
# _framework density 21.945485000000001
#
# number of rings (size 3 to 8) (size 9 to 14) (size 15 to 20)
#    0.000    2.571    0.000    3.000    2.000    2.857 
#    0.000    3.571    0.000    4.286    0.000    0.000 
#    0.000   10.286    0.000    0.000    0.000    0.000 
#
# Total GULP energy -156243.702061 kJ/mol
# GULP energy per Si atom -5580.132216 kJ/mol
# Density = 2.189554 g / cm^3
# Si number density = 21.945485 Si / 1000 Ang^3
#
#
#
# Elastic Constant Matrix: (Units=GPa)
#
#
# Indices 1 2 3 4 5 6 
#
# 1 47.8039 -10.5850 -0.8477 0.0000 -26.8424 0.0000
# 2 -10.5850 49.1615 -3.9545 0.0000 -3.4102 0.0000
# 3 -0.8477 -3.9545 19.8261 0.0000 -18.5351 0.0000
# 4 0.0000 0.0000 0.0000 7.6860 0.0000 4.4349
# 5 -26.8424 -3.4102 -18.5351 0.0000 40.7176 0.0000
# 6 0.0000 0.0000 0.0000 4.4349 0.0000 11.7574
#
#
#
# Elastic Compliance Matrix: (Units=1/GPa)
#
#
# Indices 1 2 3 4 5 6 
#
# 1 0.139277 0.057719 0.187707 0.000000 0.182097 0.000000
# 2 0.057719 0.045558 0.088252 0.000000 0.082039 0.000000
# 3 0.187707 0.088252 0.345843 0.000000 0.288567 0.000000
# 4 0.000000 0.000000 0.000000 0.166302 0.000000 -0.062729
# 5 0.182097 0.082039 0.288567 0.000000 0.282834 0.000000
# 6 0.000000 0.000000 0.000000 -0.062729 0.000000 0.108714
#
#
# Mechanical properties :
#
#
# Convention : Reuss Voigt Hill
#
# Bulk Modulus (GPa) = 0.83470 9.55746 5.19608
# Shear Modulus (GPa) = 6.09371 20.84412 13.46892
#
# Velocity S-wave (km/s) = 1.66817 3.08525 2.48007
# Velocity P-wave (km/s) = 2.02276 4.12992 3.25175
#
# Compressibility (1/GPa) = 1.19803536
#
# Stress axis : x y z
#
# Youngs Moduli (GPa) = 7.17991 21.94987 2.89148
#
# Poissons Ratio (x) = -1.26692 -0.54275
# Poissons Ratio (y) = -0.41441 -0.25518
# Poissons Ratio (z) = -1.34772 -1.93712
#
# Static dielectric constant tensor:
#      x y z
#    x 1.835160 0.000000 -0.009760 
#    y 0.000000 1.839120 0.000000 
#    z -0.009760 0.000000 1.781550 
# 
# From -- ./inp_files/181021.got.cif
#   From: 2010.05.17/outbox.cif.g08.bks.cpg/sg12_91_cif.got.tgz:181021.got - 2010.06.03 13:09:07.
