data_PCOD9192545
_publ_section_title
;
Structure prediction by ZEFSAII (Michael W. Deem and Ramdas Pophale) SiO2 
 PCOD9192545
Probable space group: C 2/M
;
_chemical_formula_sum "Si O2"
_cell_formula_units_Z 48
_cell_length_a 17.420775
_cell_length_b 14.703512
_cell_length_c 18.348828
_cell_angle_alpha 90.000000
_cell_angle_beta 31.075428
_cell_angle_gamma 90.000000
_cell_volume 2425.975031
_symmetry_space_group_name_H-M "C 2/M"
_symmetry_group_IT_number 12
_symmetry_cell_setting 'monoclinic'
loop_
_space_group_symop_operation_xyz
x,y,z
-x,y,-z
-x,-y,-z
x,-y,z
1/2+x,1/2+y,z
1/2-x,1/2+y,-z
1/2-x,1/2-y,-z
1/2+x,1/2-y,z
loop_
_atom_site_type_symbol
_atom_site_label
_atom_site_fract_x
_atom_site_fract_y
_atom_site_fract_z
Si Si1 0.531805 0.102320 0.262653
Si Si2 0.318305 0.350604 0.945467
Si Si3 0.552430 0.781708 0.541169
Si Si4 0.909296 0.099827 0.710417
Si Si5 0.873042 0.599114 0.163882
Si Si6 0.392551 0.251388 0.268293
O O1 0.532487 0.141226 0.343896
O O2 0.439290 0.180299 0.294274
O O3 0.469794 0.000000 0.309165
O O4 0.697565 0.099577 0.093263
O O5 0.332391 0.388330 0.852033
O O6 0.485681 0.331441 0.835919
O O7 0.250000 0.250000 0.000000
O O8 0.500000 0.780820 0.500000
O O9 0.515182 0.683785 0.607479
O O10 0.728882 0.792462 0.406873
O O11 0.782608 0.103330 0.751774
O O12 0.981307 0.000000 0.649125
O O13 0.883007 0.500000 0.194088
O O14 0.893646 0.684786 0.198192
O O15 0.000000 0.600454 0.000000
#
# Coordination Sequence:
#
# PCOD9192545 Si02
#       6
#     8   8   8   8   8   8
#     4  11  24  43  67  92 123 164 213 262 305 362
#     4  10  20  39  65  89 120 161 208 258 308 356
#     4  12  25  43  62  91 131 172 206 249 309 374
#     4  11  22  38  61  92 130 163 199 254 315 376
#     4  10  20  33  57  93 126 161 203 250 313 376
#     4  11  22  38  64  92 128 162 205 253 312 369
#
# _framework density 19.785858000000001
#
# number of rings (size 3 to 8) (size 9 to 14) (size 15 to 20)
#    0.000    1.167    5.000    3.500    0.000    3.333 
#    0.000    0.833    0.000    1.000    0.000    0.000 
#    0.000    0.000    0.000    0.000    0.000    0.000 
#
# Total GULP energy -133953.345707 kJ/mol
# GULP energy per Si atom -5581.389404 kJ/mol
# Density = 1.974082 g / cm^3
# Si number density = 19.785858 Si / 1000 Ang^3
#
#
#
# Elastic Constant Matrix: (Units=GPa)
#
#
# Indices 1 2 3 4 5 6 
#
# 1 76.4789 27.9714 37.8962 0.0004 12.6122 0.0002
# 2 27.9714 57.3369 -2.9816 0.0014 13.2394 0.0010
# 3 37.8962 -2.9816 63.1579 0.0012 6.7215 0.0012
# 4 0.0004 0.0014 0.0012 75.7677 -0.0008 64.0213
# 5 12.6122 13.2394 6.7215 -0.0008 36.3574 -0.0004
# 6 0.0002 0.0010 0.0012 64.0213 -0.0004 76.0345
#
#
#
# Elastic Compliance Matrix: (Units=1/GPa)
#
#
# Indices 1 2 3 4 5 6 
#
# 1 0.026189 -0.013335 -0.016213 0.000000 -0.001232 0.000000
# 2 -0.013335 0.026006 0.009940 -0.000001 -0.006682 0.000000
# 3 -0.016213 0.009940 0.026335 0.000000 -0.002864 0.000000
# 4 0.000000 -0.000001 0.000000 0.045742 0.000001 -0.038515
# 5 -0.001232 -0.006682 -0.002864 0.000001 0.030895 0.000000
# 6 0.000000 0.000000 0.000000 -0.038515 0.000000 0.045582
#
#
# Mechanical properties :
#
#
# Convention : Reuss Voigt Hill
#
# Bulk Modulus (GPa) = 25.43521 35.86063 30.64792
# Shear Modulus (GPa) = 19.75741 46.57111 33.16426
#
# Velocity S-wave (km/s) = 3.16343 4.85682 4.09853
# Velocity P-wave (km/s) = 5.12115 7.04381 6.15798
#
# Compressibility (1/GPa) = 0.03931557
#
# Stress axis : x y z
#
# Youngs Moduli (GPa) = 38.18351 38.45292 37.97171
#
# Poissons Ratio (x) = 0.51277 0.61562
# Poissons Ratio (y) = 0.50917 -0.37744
# Poissons Ratio (z) = 0.61906 -0.38222
#
# Static dielectric constant tensor:
#      x y z
#    x 1.714240 0.000000 -0.001680 
#    y 0.000000 1.692830 0.000000 
#    z -0.001680 0.000000 1.723680 
# 
# From -- ./inp_files/105027.got.cif
#   From: 2010.05.17/outbox.cif.g08.bks.cpg/sg12_53_cif.got.tgz:105027.got - 2010.06.03 13:09:07.
