data_PCOD9192403
_publ_section_title
;
Structure prediction by ZEFSAII (Michael W. Deem and Ramdas Pophale) SiO2 
 PCOD9192403
Probable space group: C 2/M
;
_chemical_formula_sum "Si O2"
_cell_formula_units_Z 64
_cell_length_a 32.874971
_cell_length_b 7.507305
_cell_length_c 15.323585
_cell_angle_alpha 90.000000
_cell_angle_beta 132.702412
_cell_angle_gamma 90.000000
_cell_volume 2779.264124
_symmetry_space_group_name_H-M "C 2/M"
_symmetry_group_IT_number 12
_symmetry_cell_setting 'monoclinic'
loop_
_space_group_symop_operation_xyz
x,y,z
-x,y,-z
-x,-y,-z
x,-y,z
1/2+x,1/2+y,z
1/2-x,1/2+y,-z
1/2-x,1/2-y,-z
1/2+x,1/2-y,z
loop_
_atom_site_type_symbol
_atom_site_label
_atom_site_fract_x
_atom_site_fract_y
_atom_site_fract_z
Si Si1 0.012719 0.294193 0.798991
Si Si2 0.330308 0.716637 0.761724
Si Si3 0.185244 0.786722 0.895115
Si Si4 0.709552 0.206989 0.564296
Si Si5 0.847726 0.784061 0.344781
Si Si6 0.973695 0.784322 0.553431
Si Si7 0.635901 0.295626 0.001842
Si Si8 0.895603 0.709263 0.691637
O O1 0.017418 0.500000 0.832649
O O2 0.069666 0.205341 0.909530
O O3 0.005777 0.282927 0.684474
O O4 0.955644 0.216492 0.754717
O O5 0.329451 0.500000 0.761689
O O6 0.270865 0.781404 0.639388
O O7 0.378914 0.772684 0.767718
O O8 0.339825 0.782531 0.873886
O O9 0.164642 0.720469 0.771158
O O10 0.154748 0.715002 0.936990
O O11 0.175679 0.000000 0.878329
O O12 0.250000 0.750000 0.000000
O O13 0.695592 0.218285 0.646647
O O14 0.656650 0.287730 0.437739
O O15 0.712127 0.000000 0.542211
O O16 0.909501 0.729683 0.462961
O O17 0.845812 0.000000 0.342804
O O18 0.000000 0.727872 0.500000
O O19 0.975835 0.000000 0.559132
O O20 0.655804 0.500000 0.028979
O O21 0.898879 0.500000 0.672518
#
# Coordination Sequence:
#
# PCOD9192403 Si02
#       8
#     8   8   8   8   8   8   8   8
#     4  11  23  39  59  86 118 154 194 238 292 350
#     4  10  22  38  61  87 110 150 202 243 290 348
#     4  10  21  38  59  85 119 156 196 238 286 342
#     4  10  20  38  60  85 119 152 186 238 298 350
#     4  10  20  33  55  86 114 148 191 231 280 343
#     4  10  20  36  58  83 113 151 191 234 285 338
#     4  10  22  41  60  83 118 158 199 244 289 342
#     4  10  22  39  59  85 119 152 186 240 304 351
#
# _framework density 23.027677000000001
#
# number of rings (size 3 to 8) (size 9 to 14) (size 15 to 20)
#    0.000    1.875    1.250    2.250    0.000    7.250 
#    0.000    3.750    0.000    0.000    0.000    0.000 
#    0.000    0.000    0.000    0.000    0.000    0.000 
#
# Total GULP energy -178920.104628 kJ/mol
# GULP energy per Si atom -5591.253270 kJ/mol
# Density = 2.297526 g / cm^3
# Si number density = 23.027677 Si / 1000 Ang^3
#
#
#
# Elastic Constant Matrix: (Units=GPa)
#
#
# Indices 1 2 3 4 5 6 
#
# 1 111.5717 -7.7334 6.6716 0.0000 2.2998 0.0000
# 2 -7.7334 63.6102 -4.9703 0.0000 0.1720 0.0000
# 3 6.6716 -4.9703 78.4066 0.0000 1.2634 0.0000
# 4 0.0000 0.0000 0.0000 15.0600 0.0000 -3.5718
# 5 2.2998 0.1720 1.2634 0.0000 40.1214 0.0000
# 6 0.0000 0.0000 0.0000 -3.5718 0.0000 19.5916
#
#
#
# Elastic Compliance Matrix: (Units=1/GPa)
#
#
# Indices 1 2 3 4 5 6 
#
# 1 0.009088 0.001052 -0.000699 0.000000 -0.000503 0.000000
# 2 0.001052 0.015921 0.000922 0.000000 -0.000158 0.000000
# 3 -0.000699 0.000922 0.012878 0.000000 -0.000369 0.000000
# 4 0.000000 0.000000 0.000000 0.069402 0.000000 0.012653
# 5 -0.000503 -0.000158 -0.000369 0.000000 0.024966 0.000000
# 6 0.000000 0.000000 0.000000 0.012653 0.000000 0.053349
#
#
# Mechanical properties :
#
#
# Convention : Reuss Voigt Hill
#
# Bulk Modulus (GPa) = 24.72938 26.83605 25.78271
# Shear Modulus (GPa) = 25.44118 32.26264 28.85191
#
# Velocity S-wave (km/s) = 3.32747 3.74710 3.54351
# Velocity P-wave (km/s) = 5.05223 5.51364 5.28797
#
# Compressibility (1/GPa) = 0.04043773
#
# Stress axis : x y z
#
# Youngs Moduli (GPa) = 110.03664 62.80980 77.65252
#
# Poissons Ratio (x) = -0.06605 0.05424
# Poissons Ratio (y) = -0.11572 -0.07162
# Poissons Ratio (z) = 0.07686 -0.05793
#
# Static dielectric constant tensor:
#      x y z
#    x 1.843720 0.000000 -0.003050 
#    y 0.000000 1.726560 0.000000 
#    z -0.003050 0.000000 1.835300 
# 
# From -- ./inp_files/249935.got.cif
#   From: 2010.05.17/outbox.cif.g08.bks.cpg/sg12_125_cif.got.tgz:249935.got - 2010.06.03 13:09:07.
