data_PCOD9192102
_publ_section_title
;
Structure prediction by ZEFSAII (Michael W. Deem and Ramdas Pophale) SiO2 
 PCOD9192102
Probable space group: C 2/M
;
_chemical_formula_sum "Si O2"
_cell_formula_units_Z 48
_cell_length_a 20.547985
_cell_length_b 7.391605
_cell_length_c 34.647899
_cell_angle_alpha 90.000000
_cell_angle_beta 154.974392
_cell_angle_gamma 90.000000
_cell_volume 2226.123079
_symmetry_space_group_name_H-M "C 2/M"
_symmetry_group_IT_number 12
_symmetry_cell_setting 'monoclinic'
loop_
_space_group_symop_operation_xyz
x,y,z
-x,y,-z
-x,-y,-z
x,-y,z
1/2+x,1/2+y,z
1/2-x,1/2+y,-z
1/2-x,1/2-y,-z
1/2+x,1/2-y,z
loop_
_atom_site_type_symbol
_atom_site_label
_atom_site_fract_x
_atom_site_fract_y
_atom_site_fract_z
Si Si1 0.245806 0.785415 0.952195
Si Si2 0.235498 0.278426 0.749853
Si Si3 0.660411 0.220393 0.566658
Si Si4 0.597310 0.279138 0.240018
Si Si5 0.889888 0.715837 0.546516
Si Si6 0.955244 0.793813 0.934568
O O1 0.078019 0.720458 0.849029
O O2 0.255672 0.000000 0.950957
O O3 0.250000 0.750000 0.000000
O O4 0.390699 0.702950 0.008379
O O5 0.239220 0.500000 0.752464
O O6 0.329023 0.223934 0.761489
O O7 0.323336 0.215453 0.835680
O O8 0.058102 0.219229 0.650633
O O9 0.500000 0.270450 0.500000
O O10 0.797271 0.280546 0.667893
O O11 0.656379 0.284664 0.520645
O O12 0.667218 0.000000 0.569818
O O13 0.597024 0.500000 0.239099
O O14 0.908303 0.500000 0.552711
O O15 0.750000 0.750000 0.500000
O O16 0.905167 0.000000 0.916196
O O17 0.000000 0.710350 0.000000
#
# Coordination Sequence:
#
# PCOD9192102 Si02
#       6
#     8   8   8   8   8   8
#     4  11  21  34  55  81 109 139 177 223 268 315
#     4   9  16  31  53  75 101 139 176 210 260 315
#     4   9  15  27  50  78  97 123 173 218 246 290
#     4   9  16  28  51  79 103 129 171 221 260 301
#     4  10  20  33  53  78 106 136 169 211 261 314
#     4  10  21  37  56  78 108 145 184 220 261 318
#
# _framework density 21.562149999999999
#
# number of rings (size 3 to 8) (size 9 to 14) (size 15 to 20)
#    0.000    2.333    3.333    0.500    0.000    1.667 
#    0.000    0.833    0.000    1.500    0.000    0.000 
#    0.000    0.000    0.000    0.000    0.000    0.000 
#
# Total GULP energy -134035.503886 kJ/mol
# GULP energy per Si atom -5584.812662 kJ/mol
# Density = 2.151307 g / cm^3
# Si number density = 21.562150 Si / 1000 Ang^3
#
#
#
# Elastic Constant Matrix: (Units=GPa)
#
#
# Indices 1 2 3 4 5 6 
#
# 1 124.8038 -8.6171 68.6710 -0.0010 -28.4490 0.0031
# 2 -8.6171 76.4932 2.2766 -0.0023 -4.3957 0.0056
# 3 68.6710 2.2766 213.2836 0.0005 -29.3905 -0.0004
# 4 -0.0010 -0.0023 0.0005 1.0369 -0.0007 13.2075
# 5 -28.4490 -4.3957 -29.3905 -0.0007 41.7619 0.0000
# 6 0.0031 0.0056 -0.0004 13.2075 0.0000 8.5856
#
#
#
# Elastic Compliance Matrix: (Units=1/GPa)
#
#
# Indices 1 2 3 4 5 6 
#
# 1 0.010938 0.001641 -0.002756 -0.000004 0.005684 0.000002
# 2 0.001641 0.013399 -0.000358 -0.000008 0.002276 0.000003
# 3 -0.002756 -0.000358 0.005887 0.000001 0.002228 0.000000
# 4 -0.000004 -0.000008 0.000001 -0.051866 -0.000004 0.079787
# 5 0.005684 0.002276 0.002228 -0.000004 0.029625 0.000003
# 6 0.000002 0.000003 0.000000 0.079787 0.000003 -0.006264
#
#
# Mechanical properties :
#
#
# Convention : Reuss Voigt Hill
#
# Bulk Modulus (GPa) = 36.65864 59.91576 48.28720
# Shear Modulus (GPa) = 363.42914 33.76021 198.59468
#
# Velocity S-wave (km/s) = 12.99675 3.96121 9.60746
# Velocity P-wave (km/s) = 15.56467 6.98350 12.06292
#
# Compressibility (1/GPa) = 0.02727870
#
# Stress axis : x y z
#
# Youngs Moduli (GPa) = 91.42425 74.63044 169.87357
#
# Poissons Ratio (x) = -0.12246 0.46816
# Poissons Ratio (y) = -0.15001 0.06075
# Poissons Ratio (z) = 0.25196 0.02669
#
# Static dielectric constant tensor:
#      x y z
#    x 1.730190 0.000000 -0.040160 
#    y 0.000000 1.839260 0.000000 
#    z -0.040160 0.000000 1.797160 
# 
# From -- ./inp_files/280800.got.cif
#   From: 2010.05.17/outbox.cif.g08.bks.cpg/sg12_141_cif.got.tgz:280800.got - 2010.06.03 13:09:07.
