data_PCOD9192561
_publ_section_title
;
Structure prediction by ZEFSAII (Michael W. Deem and Ramdas Pophale) SiO2 
 PCOD9192561
Probable space group: C 2/M
;
_chemical_formula_sum "Si O2"
_cell_formula_units_Z 32
_cell_length_a 12.665881
_cell_length_b 21.759244
_cell_length_c 8.310912
_cell_angle_alpha 90.000000
_cell_angle_beta 147.134474
_cell_angle_gamma 90.000000
_cell_volume 1242.976835
_symmetry_space_group_name_H-M "C 2/M"
_symmetry_group_IT_number 12
_symmetry_cell_setting 'monoclinic'
loop_
_space_group_symop_operation_xyz
x,y,z
-x,y,-z
-x,-y,-z
x,-y,z
1/2+x,1/2+y,z
1/2-x,1/2+y,-z
1/2-x,1/2-y,-z
1/2+x,1/2-y,z
loop_
_atom_site_type_symbol
_atom_site_label
_atom_site_fract_x
_atom_site_fract_y
_atom_site_fract_z
Si Si1 0.222633 0.570123 0.727536
Si Si2 0.910799 0.806904 0.062110
Si Si3 0.775940 0.433618 0.660385
Si Si4 0.267928 0.806286 0.743154
O O1 0.297674 0.500000 0.848072
O O2 0.233447 0.581527 0.545459
O O3 0.000000 0.569863 0.500000
O O4 0.318473 0.625028 0.954983
O O5 0.098887 0.788562 0.404011
O O6 0.764461 0.749278 0.862859
O O7 0.000000 0.811891 0.000000
O O8 0.681430 0.500000 0.563751
O O9 0.708822 0.377444 0.685806
O O10 0.000000 0.440130 0.000000
O O11 0.500000 0.811000 0.000000
#
# Coordination Sequence:
#
# PCOD9192561 Si02
#       4
#     8   8   8   8
#     4  10  22  39  58  86 124 158 193 246 302 350
#     4  11  20  34  59  88 115 158 200 240 293 351
#     4   9  18  33  58  86 111 151 199 239 289 346
#     4  10  20  33  58  86 121 148 195 250 292 335
#
# _framework density 25.744645999999999
#
# number of rings (size 3 to 8) (size 9 to 14) (size 15 to 20)
#    0.000    2.000    2.500    3.000    3.500    1.500 
#    0.000    1.250    0.000    0.000    0.000   22.750 
#    0.000    0.000    0.000    0.000    0.000    0.000 
#
# Total GULP energy -89084.863508 kJ/mol
# GULP energy per Si atom -5567.803969 kJ/mol
# Density = 2.568605 g / cm^3
# Si number density = 25.744646 Si / 1000 Ang^3
#
#
#
# Elastic Constant Matrix: (Units=GPa)
#
#
# Indices 1 2 3 4 5 6 
#
# 1 83.2963 32.8867 44.5565 0.0000 -2.2441 0.0000
# 2 32.8867 263.8160 91.0990 0.0000 -10.9304 0.0000
# 3 44.5565 91.0990 225.4856 0.0000 -12.5660 0.0000
# 4 0.0000 0.0000 0.0000 7.5596 0.0000 105.2760
# 5 -2.2441 -10.9304 -12.5660 0.0000 32.8214 0.0000
# 6 0.0000 0.0000 0.0000 105.2760 0.0000 -258.3274
#
#
#
# Elastic Compliance Matrix: (Units=1/GPa)
#
#
# Indices 1 2 3 4 5 6 
#
# 1 0.013605 -0.000899 -0.002340 0.000000 -0.000265 0.000000
# 2 -0.000899 0.004485 -0.001589 0.000000 0.000824 0.000000
# 3 -0.002340 -0.001589 0.005621 0.000000 0.001463 0.000000
# 4 0.000000 0.000000 0.000000 0.019817 0.000000 0.008076
# 5 -0.000265 0.000824 0.001463 0.000000 0.031284 0.000000
# 6 0.000000 0.000000 0.000000 0.008076 0.000000 -0.000580
#
#
# Mechanical properties :
#
#
# Convention : Reuss Voigt Hill
#
# Bulk Modulus (GPa) = 71.14497 101.07583 86.11040
# Shear Modulus (GPa) = 56.45145 -16.65224 19.89960
#
# Velocity S-wave (km/s) = 4.68776 -2.54603 2.78323
# Velocity P-wave (km/s) = 7.54950 5.54104 6.62186
#
# Compressibility (1/GPa) = 0.01405581
#
# Stress axis : x y z
#
# Youngs Moduli (GPa) = 73.50362 222.95212 177.91794
#
# Poissons Ratio (x) = 0.20041 0.41632
# Poissons Ratio (y) = 0.06607 0.28263
# Poissons Ratio (z) = 0.17199 0.35417
#
# Static dielectric constant tensor:
#      x y z
#    x 2.113830 0.000000 -0.048140 
#    y 0.000000 2.176330 0.000000 
#    z -0.048140 0.000000 2.002330 
# 
# From -- ./inp_files/65691.got.cif
#   From: 2010.05.17/outbox.cif.g08.bks.cpg/sg12_33_cif.got.tgz:65691.got - 2010.06.03 13:09:07.
