data_PCOD9192834
_publ_section_title
;
Structure prediction by ZEFSAII (Michael W. Deem and Ramdas Pophale) SiO2 
 PCOD9192834
Probable space group: C 2/M
;
_chemical_formula_sum "Si O2"
_cell_formula_units_Z 56
_cell_length_a 20.501186
_cell_length_b 7.607692
_cell_length_c 22.030465
_cell_angle_alpha 90.000000
_cell_angle_beta 127.089380
_cell_angle_gamma 90.000000
_cell_volume 2740.897751
_symmetry_space_group_name_H-M "C 2/M"
_symmetry_group_IT_number 12
_symmetry_cell_setting 'monoclinic'
loop_
_space_group_symop_operation_xyz
x,y,z
-x,y,-z
-x,-y,-z
x,-y,z
1/2+x,1/2+y,z
1/2-x,1/2+y,-z
1/2-x,1/2-y,-z
1/2+x,1/2-y,z
loop_
_atom_site_type_symbol
_atom_site_label
_atom_site_fract_x
_atom_site_fract_y
_atom_site_fract_z
Si Si1 0.103672 0.293942 0.378257
Si Si2 0.344202 0.710721 0.045454
Si Si3 0.753688 0.205337 0.380750
Si Si4 0.065974 0.703084 0.489453
Si Si5 0.144468 0.211768 0.207331
Si Si6 0.491981 0.288234 0.205087
Si Si7 0.905269 0.785025 0.950146
O O1 0.121470 0.500000 0.398439
O O2 0.185674 0.222467 0.390660
O O3 0.076907 0.217229 0.428000
O O4 0.030268 0.280466 0.288780
O O5 0.355397 0.500000 0.050701
O O6 0.404049 0.774973 0.132540
O O7 0.250000 0.750000 0.000000
O O8 0.371050 0.777902 0.994730
O O9 0.842044 0.292545 0.432945
O O10 0.712924 0.220747 0.291642
O O11 0.765999 0.000000 0.401195
O O12 0.039781 0.500000 0.465569
O O13 0.000000 0.780019 0.500000
O O14 0.142655 0.273195 0.136974
O O15 0.057492 0.256931 0.189333
O O16 0.150473 0.000000 0.210885
O O17 0.491084 0.500000 0.210167
O O18 0.902830 0.000000 0.948346
O O19 0.000000 0.735276 0.000000
#
# Coordination Sequence:
#
# PCOD9192834 Si02
#       7
#     8   8   8   8   8   8   8
#     4   9  19  35  56  80 103 131 169 213 257 303
#     4  10  20  34  51  75 106 139 175 214 257 304
#     4  10  20  34  54  80 109 135 164 207 259 313
#     4  10  21  38  57  77 103 135 173 212 249 298
#     4   9  16  30  55  81 101 129 174 222 257 290
#     4   9  17  31  53  78 103 133 172 215 256 302
#     4   9  15  29  55  79  98 129 179 225 252 287
#
# _framework density 20.431260999999999
#
# number of rings (size 3 to 8) (size 9 to 14) (size 15 to 20)
#    0.000    2.571    1.429    0.857    0.000    2.000 
#    2.571    0.714    0.000    0.857    0.000    0.000 
#    0.000    0.000    0.000    0.000    0.000    0.000 
#
# Total GULP energy -156174.932012 kJ/mol
# GULP energy per Si atom -5577.676143 kJ/mol
# Density = 2.038476 g / cm^3
# Si number density = 20.431261 Si / 1000 Ang^3
#
#
#
# Elastic Constant Matrix: (Units=GPa)
#
#
# Indices 1 2 3 4 5 6 
#
# 1 144.9418 1.9795 81.5071 0.0000 -2.4970 0.0000
# 2 1.9795 39.6457 -1.2105 0.0000 -3.6993 0.0000
# 3 81.5071 -1.2105 119.4275 0.0000 -1.0684 0.0000
# 4 0.0000 0.0000 0.0000 17.6637 0.0000 2.5863
# 5 -2.4970 -3.6993 -1.0684 0.0000 27.8350 0.0000
# 6 0.0000 0.0000 0.0000 2.5863 0.0000 3.1231
#
#
#
# Elastic Compliance Matrix: (Units=1/GPa)
#
#
# Indices 1 2 3 4 5 6 
#
# 1 0.011232 -0.000738 -0.007667 0.000000 0.000615 0.000000
# 2 -0.000738 0.025599 0.000793 0.000000 0.003366 0.000000
# 3 -0.007667 0.000793 0.013614 0.000000 -0.000060 0.000000
# 4 0.000000 0.000000 0.000000 0.064425 0.000000 -0.053352
# 5 0.000615 0.003366 -0.000060 0.000000 0.036426 0.000000
# 6 0.000000 0.000000 0.000000 -0.053352 0.000000 0.364372
#
#
# Mechanical properties :
#
#
# Convention : Reuss Voigt Hill
#
# Bulk Modulus (GPa) = 28.39299 52.06301 40.22800
# Shear Modulus (GPa) = 9.21436 24.50694 16.86065
#
# Velocity S-wave (km/s) = 2.12596 3.46711 2.87581
# Velocity P-wave (km/s) = 4.46691 6.44711 5.54610
#
# Compressibility (1/GPa) = 0.03521996
#
# Stress axis : x y z
#
# Youngs Moduli (GPa) = 89.03355 39.06465 73.45564
#
# Poissons Ratio (x) = 0.02881 0.56322
# Poissons Ratio (y) = 0.06566 -0.05824
# Poissons Ratio (z) = 0.68266 -0.03098
#
# Static dielectric constant tensor:
#      x y z
#    x 1.721800 0.000000 -0.015450 
#    y 0.000000 1.802500 0.000000 
#    z -0.015450 0.000000 1.735560 
# 
# From -- ./inp_files/275326.got.cif
#   From: 2010.05.17/outbox.cif.g08.bks.cpg/sg12_138_cif.got.tgz:275326.got - 2010.06.03 13:09:07.
