data_PCOD9192907
_publ_section_title
;
Structure prediction by ZEFSAII (Michael W. Deem and Ramdas Pophale) SiO2 
 PCOD9192907
Probable space group: C 2/M
;
_chemical_formula_sum "Si O2"
_cell_formula_units_Z 56
_cell_length_a 16.022105
_cell_length_b 7.454178
_cell_length_c 24.477618
_cell_angle_alpha 90.000000
_cell_angle_beta 59.627585
_cell_angle_gamma 90.000000
_cell_volume 2522.185806
_symmetry_space_group_name_H-M "C 2/M"
_symmetry_group_IT_number 12
_symmetry_cell_setting 'monoclinic'
loop_
_space_group_symop_operation_xyz
x,y,z
-x,y,-z
-x,-y,-z
x,-y,z
1/2+x,1/2+y,z
1/2-x,1/2+y,-z
1/2-x,1/2-y,-z
1/2+x,1/2-y,z
loop_
_atom_site_type_symbol
_atom_site_label
_atom_site_fract_x
_atom_site_fract_y
_atom_site_fract_z
Si Si1 0.043057 0.720223 0.157239
Si Si2 0.217070 0.697094 0.571106
Si Si3 0.732140 0.783725 0.162132
Si Si4 0.570060 0.795578 0.704144
Si Si5 0.589731 0.218821 0.432658
Si Si6 0.957780 0.286396 0.070748
Si Si7 0.126741 0.703567 0.299270
O O1 0.042360 0.500000 0.158748
O O2 0.148360 0.774906 0.146727
O O3 0.013369 0.780394 0.106599
O O4 0.959662 0.781555 0.227501
O O5 0.172788 0.500000 0.577323
O O6 0.250000 0.750000 0.500000
O O7 0.142285 0.793127 0.636735
O O8 0.315213 0.702962 0.571916
O O9 0.704925 0.713838 0.232092
O O10 0.842332 0.741098 0.111655
O O11 0.723582 0.000000 0.167361
O O12 0.468432 0.805825 0.706423
O O13 0.606459 0.000000 0.702675
O O14 0.500000 0.274293 0.500000
O O15 0.593439 0.278638 0.368420
O O16 0.591697 0.000000 0.433883
O O17 0.974278 0.500000 0.065375
O O18 0.000000 0.213790 0.000000
O O19 0.160158 0.500000 0.300543
#
# Coordination Sequence:
#
# PCOD9192907 Si02
#       7
#     8   8   8   8   8   8   8
#     4   8  16  33  55  77 106 143 181 217 264 327
#     4  11  22  34  51  75 102 135 176 219 263 314
#     4   9  18  34  56  79 103 140 185 225 263 316
#     4   8  15  30  52  74  95 130 175 212 253 316
#     4  10  20  34  52  73 101 138 173 213 268 322
#     4  10  21  35  53  80 113 145 177 221 277 330
#     4   8  15  30  52  75  98 127 170 218 261 310
#
# _framework density 22.202964999999999
#
# number of rings (size 3 to 8) (size 9 to 14) (size 15 to 20)
#    0.000    2.857    0.000    3.000    2.000    3.429 
#    0.000    0.714    0.000    8.571    0.000    0.000 
#    0.000    0.000    0.000    0.000    0.000    0.000 
#
# Total GULP energy -156006.038031 kJ/mol
# GULP energy per Si atom -5571.644215 kJ/mol
# Density = 2.215243 g / cm^3
# Si number density = 22.202965 Si / 1000 Ang^3
#
#
#
# Elastic Constant Matrix: (Units=GPa)
#
#
# Indices 1 2 3 4 5 6 
#
# 1 77.6011 -6.7225 86.1351 0.0003 12.3396 0.0005
# 2 -6.7225 63.1814 7.9979 0.0005 6.8194 0.0007
# 3 86.1351 7.9979 241.0878 0.0001 16.7663 0.0002
# 4 0.0003 0.0005 0.0001 -4.3708 0.0001 -9.9804
# 5 12.3396 6.8194 16.7663 0.0001 47.0041 0.0001
# 6 0.0005 0.0007 0.0002 -9.9804 0.0001 18.3146
#
#
#
# Elastic Compliance Matrix: (Units=1/GPa)
#
#
# Indices 1 2 3 4 5 6 
#
# 1 0.022630 0.003810 -0.007957 0.000001 -0.003655 0.000000
# 2 0.003810 0.016755 -0.001721 0.000002 -0.002817 0.000000
# 3 -0.007957 -0.001721 0.007060 0.000000 -0.000180 0.000000
# 4 0.000001 0.000002 0.000000 -0.101942 0.000000 -0.055552
# 5 -0.003655 -0.002817 -0.000180 0.000000 0.022707 0.000000
# 6 0.000000 0.000000 0.000000 -0.055552 0.000000 0.024328
#
#
# Mechanical properties :
#
#
# Convention : Reuss Voigt Hill
#
# Bulk Modulus (GPa) = 28.81196 61.85460 45.33328
# Shear Modulus (GPa) = 336.78838 31.82022 184.30430
#
# Velocity S-wave (km/s) = 12.32946 3.78981 9.12080
# Velocity P-wave (km/s) = 14.68646 6.86071 11.46214
#
# Compressibility (1/GPa) = 0.03470781
#
# Stress axis : x y z
#
# Youngs Moduli (GPa) = 44.18872 59.68474 141.63363
#
# Poissons Ratio (x) = -0.22738 1.12704
# Poissons Ratio (y) = -0.16834 0.24376
# Poissons Ratio (z) = 0.35163 0.10272
#
# Static dielectric constant tensor:
#      x y z
#    x 1.939210 0.000000 0.054950 
#    y 0.000000 1.864390 0.000000 
#    z 0.054950 0.000000 1.968700 
# 
# From -- ./inp_files/338478.got.cif
#   From: 2010.05.17/outbox.cif.g08.bks.cpg/sg12_170_cif.got.tgz:338478.got - 2010.06.03 13:09:07.
