data_PCOD9192061
_publ_section_title
;
Structure prediction by ZEFSAII (Michael W. Deem and Ramdas Pophale) SiO2 
 PCOD9192061
Probable space group: C 2/M
;
_chemical_formula_sum "Si O2"
_cell_formula_units_Z 64
_cell_length_a 22.761052
_cell_length_b 17.259232
_cell_length_c 17.478931
_cell_angle_alpha 90.000000
_cell_angle_beta 149.078821
_cell_angle_gamma 90.000000
_cell_volume 3528.353757
_symmetry_space_group_name_H-M "C 2/M"
_symmetry_group_IT_number 12
_symmetry_cell_setting 'monoclinic'
loop_
_space_group_symop_operation_xyz
x,y,z
-x,y,-z
-x,-y,-z
x,-y,z
1/2+x,1/2+y,z
1/2-x,1/2+y,-z
1/2-x,1/2-y,-z
1/2+x,1/2-y,z
loop_
_atom_site_type_symbol
_atom_site_label
_atom_site_fract_x
_atom_site_fract_y
_atom_site_fract_z
Si Si1 0.631888 0.413639 0.170732
Si Si2 0.525384 0.591611 0.353390
Si Si3 0.286394 0.409769 0.567105
Si Si4 0.393558 0.705286 0.435370
Si Si5 0.737771 0.299094 0.169188
Si Si6 0.374042 0.720256 0.110092
Si Si7 0.923241 0.324735 0.606524
Si Si8 0.566321 0.914866 0.654417
O O1 0.677104 0.500000 0.203522
O O2 0.648501 0.401424 0.279234
O O3 0.697602 0.351611 0.194284
O O4 0.500000 0.411319 0.000000
O O5 0.500170 0.500000 0.327725
O O6 0.625298 0.605409 0.402355
O O7 0.574596 0.624683 0.488375
O O8 0.418405 0.644170 0.205568
O O9 0.249735 0.500000 0.519786
O O10 0.178966 0.352584 0.453776
O O11 0.500000 0.726183 0.500000
O O12 0.285745 0.719679 0.259505
O O13 0.385157 0.765320 0.496846
O O14 0.840939 0.346792 0.244610
O O15 0.641582 0.292586 0.997629
O O16 0.472798 0.782918 0.234816
O O17 0.250000 0.750000 0.000000
O O18 0.975116 0.397491 0.618603
O O19 0.500000 0.913598 0.500000
O O20 0.618750 0.000000 0.723125
#
# Coordination Sequence:
#
# PCOD9192061 Si02
#       8
#     8   8   8   8   8   8   8   8
#     4  10  20  33  52  83 122 155 189 238 295 365
#     4  10  24  43  64  87 117 162 208 252 302 359
#     4  10  20  38  61  88 120 157 202 243 292 365
#     4  11  20  37  61  83 115 150 199 252 292 348
#     4  12  19  35  53  81 117 156 191 246 302 360
#     4  11  23  38  58  84 122 158 202 251 310 362
#     4  11  19  37  57  84 119 157 194 250 298 352
#     4  11  19  29  53  86 114 150 191 231 299 371
#
# _framework density 18.138770999999998
#
# number of rings (size 3 to 8) (size 9 to 14) (size 15 to 20)
#    0.000    1.250    5.000    2.250    0.000    6.250 
#    2.250    0.000    0.000    1.500    0.000    1.750 
#    0.000    0.000    0.000    0.000    0.000    0.000 
#
# Total GULP energy -178564.718402 kJ/mol
# GULP energy per Si atom -5580.147450 kJ/mol
# Density = 1.809749 g / cm^3
# Si number density = 18.138771 Si / 1000 Ang^3
#
#
#
# Elastic Constant Matrix: (Units=GPa)
#
#
# Indices 1 2 3 4 5 6 
#
# 1 36.0056 30.1456 1.8457 0.0000 4.5707 0.0000
# 2 30.1456 93.6985 48.6442 0.0000 1.0492 0.0000
# 3 1.8457 48.6442 90.0206 0.0000 -6.3637 0.0000
# 4 0.0000 0.0000 0.0000 30.7206 0.0000 1.0255
# 5 4.5707 1.0492 -6.3637 0.0000 28.6208 0.0000
# 6 0.0000 0.0000 0.0000 1.0255 0.0000 26.0904
#
#
#
# Elastic Compliance Matrix: (Units=1/GPa)
#
#
# Indices 1 2 3 4 5 6 
#
# 1 0.043307 -0.018440 0.008773 0.000000 -0.004289 0.000000
# 2 -0.018440 0.022844 -0.012006 0.000000 -0.000562 0.000000
# 3 0.008773 -0.012006 0.017625 0.000000 0.002958 0.000000
# 4 0.000000 0.000000 0.000000 0.032594 0.000000 -0.001281
# 5 -0.004289 -0.000562 0.002958 0.000000 0.036303 0.000000
# 6 0.000000 0.000000 0.000000 -0.001281 0.000000 0.038379
#
#
# Mechanical properties :
#
#
# Convention : Reuss Voigt Hill
#
# Bulk Modulus (GPa) = 24.73325 42.33286 33.53305
# Shear Modulus (GPa) = 20.17144 26.35896 23.26520
#
# Velocity S-wave (km/s) = 3.33838 3.81620 3.58526
# Velocity P-wave (km/s) = 5.34087 6.54269 5.97209
#
# Compressibility (1/GPa) = 0.04043141
#
# Stress axis : x y z
#
# Youngs Moduli (GPa) = 23.09103 43.77428 56.73603
#
# Poissons Ratio (x) = 0.80718 -0.49775
# Poissons Ratio (y) = 0.42579 0.68118
# Poissons Ratio (z) = -0.20258 0.52556
#
# Static dielectric constant tensor:
#      x y z
#    x 1.642540 0.000000 0.007560 
#    y 0.000000 1.652070 0.000000 
#    z 0.007560 0.000000 1.636600 
# 
# From -- ./inp_files/290466.got.cif
#   From: 2010.05.17/outbox.cif.g08.bks.cpg/sg12_146_cif.got.tgz:290466.got - 2010.06.03 13:09:07.
