data_PCOD9192778
_publ_section_title
;
Structure prediction by ZEFSAII (Michael W. Deem and Ramdas Pophale) SiO2 
 PCOD9192778
Probable space group: C 2/M
;
_chemical_formula_sum "Si O2"
_cell_formula_units_Z 48
_cell_length_a 14.694360
_cell_length_b 7.839854
_cell_length_c 21.882700
_cell_angle_alpha 90.000000
_cell_angle_beta 89.434126
_cell_angle_gamma 90.000000
_cell_volume 2520.799915
_symmetry_space_group_name_H-M "C 2/M"
_symmetry_group_IT_number 12
_symmetry_cell_setting 'monoclinic'
loop_
_space_group_symop_operation_xyz
x,y,z
-x,y,-z
-x,-y,-z
x,-y,z
1/2+x,1/2+y,z
1/2-x,1/2+y,-z
1/2-x,1/2-y,-z
1/2+x,1/2-y,z
loop_
_atom_site_type_symbol
_atom_site_label
_atom_site_fract_x
_atom_site_fract_y
_atom_site_fract_z
Si Si1 0.900767 0.296791 0.666592
Si Si2 0.249270 0.706412 0.236867
Si Si3 0.396771 0.205427 0.000216
Si Si4 0.751701 0.705689 0.902142
Si Si5 0.756633 0.203472 0.570537
Si Si6 0.105742 0.295065 0.666015
O O1 0.907359 0.500000 0.675994
O O2 0.834871 0.229952 0.720888
O O3 0.847195 0.267759 0.603835
O O4 0.003049 0.227258 0.665711
O O5 0.245377 0.500000 0.236011
O O6 0.245975 0.768280 0.167341
O O7 0.340838 0.756007 0.271955
O O8 0.340407 0.248245 0.061482
O O9 0.400475 0.000000 0.995412
O O10 0.500000 0.270184 0.000000
O O11 0.335302 0.268495 0.943810
O O12 0.757338 0.500000 0.900384
O O13 0.750000 0.250000 0.500000
O O14 0.670665 0.269667 0.610802
O O15 0.757153 0.000000 0.575601
O O16 0.100876 0.500000 0.659524
#
# Coordination Sequence:
#
# PCOD9192778 Si02
#       6
#     8   8   8   8   8   8
#     4   9  18  34  53  72  96 127 160 197 241 285
#     4   9  18  32  50  71  97 127 158 195 240 289
#     4   9  18  32  50  71  95 126 164 202 238 282
#     4   9  18  32  48  70  99 127 157 196 242 288
#     4  10  20  34  51  73 100 129 162 200 240 284
#     4   9  19  34  52  73  97 126 162 201 238 282
#
# _framework density 19.041575000000002
#
# number of rings (size 3 to 8) (size 9 to 14) (size 15 to 20)
#    0.000    2.833    0.000    0.500    0.000    4.333 
#    0.000    6.667    0.000    0.000    0.000    0.000 
#    0.000    0.000    0.000    0.000    0.000    0.000 
#
# Total GULP energy -133839.104922 kJ/mol
# GULP energy per Si atom -5576.629372 kJ/mol
# Density = 1.899824 g / cm^3
# Si number density = 19.041575 Si / 1000 Ang^3
#
#
#
# Elastic Constant Matrix: (Units=GPa)
#
#
# Indices 1 2 3 4 5 6 
#
# 1 180.1245 8.8285 94.0111 0.0000 20.5213 0.0000
# 2 8.8285 13.4001 -7.4060 0.0000 0.6182 0.0000
# 3 94.0111 -7.4060 167.5215 0.0000 -4.1110 0.0000
# 4 0.0000 0.0000 0.0000 24.3021 0.0000 -0.5456
# 5 20.5213 0.6182 -4.1110 0.0000 11.4567 0.0000
# 6 0.0000 0.0000 0.0000 -0.5456 0.0000 8.2525
#
#
#
# Elastic Compliance Matrix: (Units=1/GPa)
#
#
# Indices 1 2 3 4 5 6 
#
# 1 0.014235 -0.013201 -0.009262 0.000000 -0.028110 0.000000
# 2 -0.013201 0.088835 0.011903 0.000000 0.023123 0.000000
# 3 -0.009262 0.011903 0.012192 0.000000 0.020323 0.000000
# 4 0.000000 0.000000 0.000000 0.041210 0.000000 0.002724
# 5 -0.028110 0.023123 0.020323 0.000000 0.143680 0.000000
# 6 0.000000 0.000000 0.000000 0.002724 0.000000 0.121356
#
#
# Mechanical properties :
#
#
# Convention : Reuss Voigt Hill
#
# Bulk Modulus (GPa) = 10.62217 61.32369 35.97293
# Shear Modulus (GPa) = 10.54831 26.50975 18.52903
#
# Velocity S-wave (km/s) = 2.35619 3.73527 3.12281
# Velocity P-wave (km/s) = 3.60454 7.13289 5.65114
#
# Compressibility (1/GPa) = 0.09414276
#
# Stress axis : x y z
#
# Youngs Moduli (GPa) = 70.24779 11.25677 82.02024
#
# Poissons Ratio (x) = 0.14860 0.75968
# Poissons Ratio (y) = 0.92733 -0.97628
# Poissons Ratio (z) = 0.65064 -0.13399
#
# Static dielectric constant tensor:
#      x y z
#    x 1.664130 0.000000 -0.005900 
#    y 0.000000 1.689280 0.000000 
#    z -0.005900 0.000000 1.578610 
# 
# From -- ./inp_files/261668.got.cif
#   From: 2010.05.17/outbox.cif.g08.bks.cpg/sg12_131_cif.got.tgz:261668.got - 2010.06.03 13:09:07.
