data_PCOD9192624
_publ_section_title
;
Structure prediction by ZEFSAII (Michael W. Deem and Ramdas Pophale) SiO2 
 PCOD9192624
Probable space group: C 2/M
;
_chemical_formula_sum "Si O2"
_cell_formula_units_Z 52
_cell_length_a 10.121692
_cell_length_b 26.396262
_cell_length_c 11.198017
_cell_angle_alpha 90.000000
_cell_angle_beta 104.350026
_cell_angle_gamma 90.000000
_cell_volume 2898.482399
_symmetry_space_group_name_H-M "C 2/M"
_symmetry_group_IT_number 12
_symmetry_cell_setting 'monoclinic'
loop_
_space_group_symop_operation_xyz
x,y,z
-x,y,-z
-x,-y,-z
x,-y,z
1/2+x,1/2+y,z
1/2-x,1/2+y,-z
1/2-x,1/2-y,-z
1/2+x,1/2-y,z
loop_
_atom_site_type_symbol
_atom_site_label
_atom_site_fract_x
_atom_site_fract_y
_atom_site_fract_z
Si Si1 0.702223 0.105794 0.320048
Si Si2 0.942762 0.662651 0.300213
Si Si3 0.132619 0.000000 0.369367
Si Si4 0.807846 0.886197 0.615219
Si Si5 0.397884 0.759547 0.086368
Si Si6 0.818051 0.000000 0.332743
Si Si7 0.083049 0.179918 0.703848
Si Si8 0.500000 0.757995 0.500000
O O1 0.543363 0.116726 0.295857
O O2 0.768471 0.111008 0.466913
O O3 0.738574 0.050491 0.282141
O O4 0.779602 0.147625 0.259186
O O5 0.810193 0.644854 0.343415
O O6 0.900210 0.691467 0.171614
O O7 0.031892 0.702598 0.400486
O O8 0.185192 0.055161 0.338452
O O9 0.162653 0.000000 0.518703
O O10 0.970145 0.000000 0.315823
O O11 0.953179 0.857347 0.657717
O O12 0.437624 0.713379 0.183256
O O13 0.500000 0.764593 0.000000
O O14 0.250000 0.750000 0.000000
O O15 0.095985 0.218830 0.593805
#
# Coordination Sequence:
#
# PCOD9192624 Si02
#       8
#     8   8   4   8   8   4   8   4
#     4  11  19  34  53  87 119 149 184 220 283 343
#     4  11  23  35  55  83 118 148 182 234 286 332
#     4   9  18  31  53  79 119 153 180 221 263 346
#     4  11  19  34  53  87 119 148 182 222 284 339
#     4  11  24  43  56  79 112 152 200 234 271 330
#     4   9  18  31  53  79 119 154 180 218 267 346
#     4  11  21  33  61  81 108 153 189 229 277 330
#     4  10  20  34  48  84 114 138 178 228 276 334
#
# _framework density 17.940422999999999
#
# number of rings (size 3 to 8) (size 9 to 14) (size 15 to 20)
#    0.000    1.385    4.615    1.846    0.000    5.538 
#    0.000    2.308    0.000    0.000    0.000   21.538 
#    0.000    0.000    0.000    0.000    0.000    0.000 
#
# Total GULP energy -144943.968537 kJ/mol
# GULP energy per Si atom -5574.768021 kJ/mol
# Density = 1.789959 g / cm^3
# Si number density = 17.940423 Si / 1000 Ang^3
#
#
#
# Elastic Constant Matrix: (Units=GPa)
#
#
# Indices 1 2 3 4 5 6 
#
# 1 68.7266 17.5663 5.1773 0.0000 -5.3911 0.0000
# 2 17.5663 97.2760 22.0838 0.0000 -6.9506 0.0000
# 3 5.1773 22.0838 60.9418 0.0000 -2.6662 0.0000
# 4 0.0000 0.0000 0.0000 13.7637 0.0000 -2.2295
# 5 -5.3911 -6.9506 -2.6662 0.0000 26.8624 0.0000
# 6 0.0000 0.0000 0.0000 -2.2295 0.0000 15.1734
#
#
#
# Elastic Compliance Matrix: (Units=1/GPa)
#
#
# Indices 1 2 3 4 5 6 
#
# 1 0.015411 -0.002547 -0.000281 0.000000 0.002406 0.000000
# 2 -0.002547 0.011793 -0.003963 0.000000 0.002147 0.000000
# 3 -0.000281 -0.003963 0.017900 0.000000 0.000695 0.000000
# 4 0.000000 0.000000 0.000000 0.074426 0.000000 0.010936
# 5 0.002406 0.002147 0.000695 0.000000 0.038334 0.000000
# 6 0.000000 0.000000 0.000000 0.010936 0.000000 0.067512
#
#
# Mechanical properties :
#
#
# Convention : Reuss Voigt Hill
#
# Bulk Modulus (GPa) = 31.72472 35.17768 33.45120
# Shear Modulus (GPa) = 20.04278 23.30102 21.67190
#
# Velocity S-wave (km/s) = 3.34606 3.60780 3.47939
# Velocity P-wave (km/s) = 5.71401 6.08322 5.90150
#
# Compressibility (1/GPa) = 0.03152116
#
# Stress axis : x y z
#
# Youngs Moduli (GPa) = 64.88704 84.79484 55.86737
#
# Poissons Ratio (x) = 0.21600 0.01569
# Poissons Ratio (y) = 0.16529 0.22141
# Poissons Ratio (z) = 0.01823 0.33606
#
# Static dielectric constant tensor:
#      x y z
#    x 1.589730 0.000000 0.003290 
#    y 0.000000 1.644250 0.000000 
#    z 0.003290 0.000000 1.594320 
# 
# From -- ./inp_files/123788.got.cif
#   From: 2010.05.17/outbox.cif.g08.bks.cpg/sg12_62_cif.got.tgz:123788.got - 2010.06.03 13:09:07.
