data_PCOD9192201
_publ_section_title
;
Structure prediction by ZEFSAII (Michael W. Deem and Ramdas Pophale) SiO2 
 PCOD9192201
Probable space group: C 2/M
;
_chemical_formula_sum "Si O2"
_cell_formula_units_Z 58
_cell_length_a 27.439814
_cell_length_b 11.807727
_cell_length_c 8.019756
_cell_angle_alpha 90.000000
_cell_angle_beta 99.829780
_cell_angle_gamma 90.000000
_cell_volume 2560.269074
_symmetry_space_group_name_H-M "C 2/M"
_symmetry_group_IT_number 12
_symmetry_cell_setting 'monoclinic'
loop_
_space_group_symop_operation_xyz
x,y,z
-x,y,-z
-x,-y,-z
x,-y,z
1/2+x,1/2+y,z
1/2-x,1/2+y,-z
1/2-x,1/2-y,-z
1/2+x,1/2-y,z
loop_
_atom_site_type_symbol
_atom_site_label
_atom_site_fract_x
_atom_site_fract_y
_atom_site_fract_z
Si Si1 0.000000 0.500000 0.000000
Si Si2 0.819970 0.163580 0.692928
Si Si3 0.929184 0.130331 0.369457
Si Si4 0.165061 0.627519 0.117211
Si Si5 0.690460 0.371997 0.684754
Si Si6 0.772631 0.625937 0.164053
Si Si7 0.939249 0.715266 0.062688
Si Si8 0.064122 0.873299 0.247575
O O1 0.968731 0.599415 0.078851
O O2 0.823759 0.298875 0.714421
O O3 0.797067 0.128193 0.505074
O O4 0.785345 0.126165 0.824870
O O5 0.875930 0.121163 0.733069
O O6 0.869237 0.132065 0.334711
O O7 0.946331 0.210294 0.231123
O O8 0.945604 0.161715 0.566804
O O9 0.943992 0.000000 0.349915
O O10 0.151731 0.500000 0.152743
O O11 0.211159 0.628546 0.018711
O O12 0.118974 0.683797 0.994121
O O13 0.704809 0.500000 0.756414
O O14 0.708044 0.247196 0.755684
O O15 0.791529 0.500000 0.235035
O O16 0.951327 0.786400 0.902659
O O17 0.045011 0.000000 0.207798
#
# Coordination Sequence:
#
# PCOD9192201 Si02
#       8
#     2   8   8   8   8   8   8   8
#     4  12  28  44  72  92 128 162 204 266 306 392
#     4  10  20  33  53  82 121 160 206 254 304 351
#     4   9  18  37  65  94 122 159 207 250 311 378
#     4  10  21  37  57  78 116 156 204 252 305 373
#     4  10  20  35  54  83 120 163 208 260 304 363
#     4  11  21  34  53  84 120 165 208 257 305 363
#     4  11  21  42  64  89 121 161 197 250 321 371
#     4   9  19  37  64  94 123 160 205 255 305 375
#
# _framework density 22.653869
#
# number of rings (size 3 to 8) (size 9 to 14) (size 15 to 20)
#    0.000    1.931    2.069    3.310    0.000    1.103 
#    0.000    4.828    0.000    1.655    0.000    0.000 
#    0.000    0.000    0.000    0.000    0.000    0.000 
#
# Total GULP energy -161707.233651 kJ/mol
# GULP energy per Si atom -5576.111505 kJ/mol
# Density = 2.260231 g / cm^3
# Si number density = 22.653869 Si / 1000 Ang^3
#
#
#
# Elastic Constant Matrix: (Units=GPa)
#
#
# Indices 1 2 3 4 5 6 
#
# 1 86.3157 33.2610 37.6671 0.0000 -14.2981 0.0000
# 2 33.2610 231.1419 115.8100 0.0000 3.3996 0.0000
# 3 37.6671 115.8100 107.9312 0.0000 -18.2227 0.0000
# 4 0.0000 0.0000 0.0000 23.0335 0.0000 -10.0550
# 5 -14.2981 3.3996 -18.2227 0.0000 33.0358 0.0000
# 6 0.0000 0.0000 0.0000 -10.0550 0.0000 31.7399
#
#
#
# Elastic Compliance Matrix: (Units=1/GPa)
#
#
# Indices 1 2 3 4 5 6 
#
# 1 0.014074 0.000169 -0.004486 0.000000 0.003600 0.000000
# 2 0.000169 0.011201 -0.013519 0.000000 -0.008537 0.000000
# 3 -0.004486 -0.013519 0.027836 0.000000 0.014804 0.000000
# 4 0.000000 0.000000 0.000000 0.050382 0.000000 0.015961
# 5 0.003600 -0.008537 0.014804 0.000000 0.040873 0.000000
# 6 0.000000 0.000000 0.000000 0.015961 0.000000 0.036562
#
#
# Mechanical properties :
#
#
# Convention : Reuss Voigt Hill
#
# Bulk Modulus (GPa) = 57.33865 88.76280 73.05073
# Shear Modulus (GPa) = 22.48072 33.47190 27.97631
#
# Velocity S-wave (km/s) = 3.15359 3.84804 3.51799
# Velocity P-wave (km/s) = 6.21497 7.68183 6.98700
#
# Compressibility (1/GPa) = 0.01744024
#
# Stress axis : x y z
#
# Youngs Moduli (GPa) = 71.05375 89.27708 35.92463
#
# Poissons Ratio (x) = -0.01511 0.16114
# Poissons Ratio (y) = -0.01203 0.48567
# Poissons Ratio (z) = 0.31871 1.20695
#
# Static dielectric constant tensor:
#      x y z
#    x 1.899100 0.000000 0.022030 
#    y 0.000000 1.838480 0.000000 
#    z 0.022030 0.000000 1.816070 
# 
# From -- ./inp_files/109982.got.cif
#   From: 2010.05.17/outbox.cif.g08.bks.cpg/sg12_55_cif.got.tgz:109982.got - 2010.06.03 13:09:07.
