data_PCOD9192555
_publ_section_title
;
Structure prediction by ZEFSAII (Michael W. Deem and Ramdas Pophale) SiO2 
 PCOD9192555
Probable space group: C 2/M
;
_chemical_formula_sum "Si O2"
_cell_formula_units_Z 64
_cell_length_a 15.245168
_cell_length_b 25.359700
_cell_length_c 14.624359
_cell_angle_alpha 90.000000
_cell_angle_beta 140.889193
_cell_angle_gamma 90.000000
_cell_volume 3566.646895
_symmetry_space_group_name_H-M "C 2/M"
_symmetry_group_IT_number 12
_symmetry_cell_setting 'monoclinic'
loop_
_space_group_symop_operation_xyz
x,y,z
-x,y,-z
-x,-y,-z
x,-y,z
1/2+x,1/2+y,z
1/2-x,1/2+y,-z
1/2-x,1/2-y,-z
1/2+x,1/2-y,z
loop_
_atom_site_type_symbol
_atom_site_label
_atom_site_fract_x
_atom_site_fract_y
_atom_site_fract_z
Si Si1 0.514363 0.164894 0.609964
Si Si2 0.051120 0.364353 0.835026
Si Si3 0.960696 0.757665 0.133968
Si Si4 0.557212 0.620657 0.448417
Si Si5 0.741593 0.622217 0.837791
Si Si6 0.707028 0.258474 0.812213
Si Si7 0.180410 0.438243 0.273598
Si Si8 0.291969 0.694595 0.576384
O O1 0.500000 0.138628 0.500000
O O2 0.583466 0.137650 0.753774
O O3 0.605783 0.219203 0.675276
O O4 0.354535 0.171991 0.510520
O O5 0.005981 0.304945 0.829914
O O6 0.931080 0.405733 0.758603
O O7 0.181829 0.377224 0.004031
O O8 0.874682 0.768782 0.157996
O O9 0.098226 0.792680 0.253892
O O10 0.855452 0.765280 0.964438
O O11 0.500000 0.642343 0.500000
O O12 0.416652 0.602882 0.285014
O O13 0.666900 0.575753 0.563637
O O14 0.634658 0.661111 0.444253
O O15 0.736858 0.683223 0.798365
O O16 0.821074 0.586571 0.829045
O O17 0.154407 0.500000 0.252139
O O18 0.250000 0.750000 0.500000
#
# Coordination Sequence:
#
# PCOD9192555 Si02
#       8
#     8   8   8   8   8   8   8   8
#     4  11  23  35  53  79 114 153 199 243 282 334
#     4  10  20  38  53  78 112 152 188 241 287 332
#     4   9  17  30  53  76 108 148 194 229 279 340
#     4  10  21  35  54  82 111 149 186 228 286 354
#     4  10  20  33  58  79 114 150 188 225 290 354
#     4   9  17  32  49  77 112 150 185 235 280 331
#     4  11  23  39  58  86 118 148 190 243 293 351
#     4  12  18  32  52  79 108 151 194 234 278 347
#
# _framework density 17.944025
#
# number of rings (size 3 to 8) (size 9 to 14) (size 15 to 20)
#    0.000    1.750    5.000    1.125    0.000    8.250 
#    0.000    1.875    0.000    0.375    0.000    0.000 
#    0.000    1.000    0.000    0.000    0.000    0.000 
#
# Total GULP energy -178430.000860 kJ/mol
# GULP energy per Si atom -5575.937527 kJ/mol
# Density = 1.790318 g / cm^3
# Si number density = 17.944025 Si / 1000 Ang^3
#
#
#
# Elastic Constant Matrix: (Units=GPa)
#
#
# Indices 1 2 3 4 5 6 
#
# 1 66.4626 34.5114 25.2195 0.0000 -4.8169 0.0000
# 2 34.5114 76.7551 19.6156 0.0000 -4.7923 0.0000
# 3 25.2195 19.6156 135.8056 0.0000 -3.7156 0.0000
# 4 0.0000 0.0000 0.0000 -11.5484 0.0000 8.5677
# 5 -4.8169 -4.7923 -3.7156 0.0000 23.9857 0.0000
# 6 0.0000 0.0000 0.0000 8.5677 0.0000 11.4543
#
#
#
# Elastic Compliance Matrix: (Units=1/GPa)
#
#
# Indices 1 2 3 4 5 6 
#
# 1 0.020553 -0.008465 -0.002538 0.000000 0.002043 0.000000
# 2 -0.008465 0.017154 -0.000862 0.000000 0.001594 0.000000
# 3 -0.002538 -0.000862 0.007974 0.000000 0.000553 0.000000
# 4 0.000000 0.000000 0.000000 -0.055689 0.000000 0.041655
# 5 0.002043 0.001594 0.000553 0.000000 0.042506 0.000000
# 6 0.000000 0.000000 0.000000 0.041655 0.000000 0.056146
#
#
# Mechanical properties :
#
#
# Convention : Reuss Voigt Hill
#
# Bulk Modulus (GPa) = 45.55580 48.63514 47.09547
# Shear Modulus (GPa) = 41.77364 18.09011 29.93187
#
# Velocity S-wave (km/s) = 4.83017 3.17857 4.08863
# Velocity P-wave (km/s) = 7.51999 6.37446 6.97079
#
# Compressibility (1/GPa) = 0.02195110
#
# Stress axis : x y z
#
# Youngs Moduli (GPa) = 48.65535 58.29416 125.40001
#
# Poissons Ratio (x) = 0.49345 0.31828
# Poissons Ratio (y) = 0.41186 0.10812
# Poissons Ratio (z) = 0.12349 0.05026
#
# Static dielectric constant tensor:
#      x y z
#    x 1.621500 0.000000 -0.004910 
#    y 0.000000 1.595600 0.000000 
#    z -0.004910 0.000000 1.691800 
# 
# From -- ./inp_files/218520.got.cif
#   From: 2010.05.17/outbox.cif.g08.bks.cpg/sg12_110_cif.got.tgz:218520.got - 2010.06.03 13:09:07.
