data_PCOD9192398
_publ_section_title
;
Structure prediction by ZEFSAII (Michael W. Deem and Ramdas Pophale) SiO2 
 PCOD9192398
Probable space group: C 2/M
;
_chemical_formula_sum "Si O2"
_cell_formula_units_Z 56
_cell_length_a 21.883447
_cell_length_b 13.414581
_cell_length_c 9.041652
_cell_angle_alpha 90.000000
_cell_angle_beta 122.399340
_cell_angle_gamma 90.000000
_cell_volume 2241.067614
_symmetry_space_group_name_H-M "C 2/M"
_symmetry_group_IT_number 12
_symmetry_cell_setting 'monoclinic'
loop_
_space_group_symop_operation_xyz
x,y,z
-x,y,-z
-x,-y,-z
x,-y,z
1/2+x,1/2+y,z
1/2-x,1/2+y,-z
1/2-x,1/2-y,-z
1/2+x,1/2-y,z
loop_
_atom_site_type_symbol
_atom_site_label
_atom_site_fract_x
_atom_site_fract_y
_atom_site_fract_z
Si Si1 0.468544 0.172690 0.603770
Si Si2 0.496675 0.612670 0.311436
Si Si3 0.811736 0.887178 0.986390
Si Si4 0.109761 0.168876 0.195759
Si Si5 0.237791 0.886639 0.558661
Si Si6 0.404510 0.106046 0.802489
Si Si7 0.181407 0.252555 0.730403
O O1 0.500000 0.121946 0.500000
O O2 0.517429 0.267758 0.709970
O O3 0.457022 0.106906 0.730910
O O4 0.390232 0.217183 0.451777
O O5 0.500000 0.607283 0.500000
O O6 0.467118 0.500000 0.247229
O O7 0.557836 0.619934 0.253914
O O8 0.872202 0.883685 0.935457
O O9 0.734081 0.845396 0.830469
O O10 0.802910 0.000000 0.028002
O O11 0.834426 0.809958 0.142303
O O12 0.188559 0.167578 0.375196
O O13 0.086836 0.281925 0.125502
O O14 0.322180 0.892715 0.635572
O O15 0.226279 0.827344 0.693655
O O16 0.210305 0.000000 0.535862
O O17 0.411735 0.000000 0.894960
#
# Coordination Sequence:
#
# PCOD9192398 Si02
#       7
#     8   8   8   8   8   8   8
#     4  10  21  36  58  86 118 156 204 252 299 346
#     4   9  17  29  50  79 108 144 192 243 290 341
#     4  11  24  38  58  88 127 164 193 245 313 368
#     4  11  19  34  53  85 118 149 194 246 302 361
#     4  11  19  32  58  86 113 149 197 252 302 352
#     4  10  20  33  55  85 118 148 193 254 304 352
#     4  11  22  39  57  88 126 156 205 246 297 366
#
# _framework density 24.98809
#
# number of rings (size 3 to 8) (size 9 to 14) (size 15 to 20)
#    0.000    1.571    4.286    3.000    0.000    2.571 
#    0.000    0.000    0.000    7.714    0.000   15.000 
#    0.000    0.000    0.000    0.000    0.000    0.000 
#
# Total GULP energy -156009.751453 kJ/mol
# GULP energy per Si atom -5571.776838 kJ/mol
# Density = 2.493122 g / cm^3
# Si number density = 24.988090 Si / 1000 Ang^3
#
#
#
# Elastic Constant Matrix: (Units=GPa)
#
#
# Indices 1 2 3 4 5 6 
#
# 1 108.1260 41.1538 43.0897 0.0000 -14.8117 0.0000
# 2 41.1538 155.5243 21.6130 0.0000 19.7938 0.0000
# 3 43.0897 21.6130 64.1128 0.0000 2.9284 0.0000
# 4 0.0000 0.0000 0.0000 0.5289 0.0000 -2.0151
# 5 -14.8117 19.7938 2.9284 0.0000 45.4744 0.0000
# 6 0.0000 0.0000 0.0000 -2.0151 0.0000 5.9467
#
#
#
# Elastic Compliance Matrix: (Units=1/GPa)
#
#
# Indices 1 2 3 4 5 6 
#
# 1 0.015403 -0.003684 -0.009440 0.000000 0.007228 0.000000
# 2 -0.003684 0.008002 -0.000008 0.000000 -0.004682 0.000000
# 3 -0.009440 -0.000008 0.022150 0.000000 -0.004498 0.000000
# 4 0.000000 0.000000 0.000000 -6.496598 0.000000 -2.201467
# 5 0.007228 -0.004682 -0.004498 0.000000 0.026672 0.000000
# 6 0.000000 0.000000 0.000000 -2.201467 0.000000 -0.577840
#
#
# Mechanical properties :
#
#
# Convention : Reuss Voigt Hill
#
# Bulk Modulus (GPa) = 51.83771 59.94179 55.88975
# Shear Modulus (GPa) = -0.71741 25.18379 12.23319
#
# Velocity S-wave (km/s) = -0.53640 3.17808 2.21500
# Velocity P-wave (km/s) = 4.51734 6.12431 5.38115
#
# Compressibility (1/GPa) = 0.01929098
#
# Stress axis : x y z
#
# Youngs Moduli (GPa) = 64.92280 124.97428 45.14588
#
# Poissons Ratio (x) = 0.46039 0.42620
# Poissons Ratio (y) = 0.23917 0.00035
# Poissons Ratio (z) = 0.61290 0.00096
#
# Static dielectric constant tensor:
#      x y z
#    x 2.038710 0.000000 0.055000 
#    y 0.000000 1.948550 0.000000 
#    z 0.055000 0.000000 2.116510 
# 
# From -- ./inp_files/96517.got.cif
#   From: 2010.05.17/outbox.cif.g08.bks.cpg/sg12_49_cif.got.tgz:96517.got - 2010.06.03 13:09:07.
