data_PCOD9192017
_publ_section_title
;
Structure prediction by ZEFSAII (Michael W. Deem and Ramdas Pophale) SiO2 
 PCOD9192017
Probable space group: C 2/M
;
_chemical_formula_sum "Si O2"
_cell_formula_units_Z 56
_cell_length_a 18.637647
_cell_length_b 18.492875
_cell_length_c 14.587542
_cell_angle_alpha 90.000000
_cell_angle_beta 139.472381
_cell_angle_gamma 90.000000
_cell_volume 3267.134753
_symmetry_space_group_name_H-M "C 2/M"
_symmetry_group_IT_number 12
_symmetry_cell_setting 'monoclinic'
loop_
_space_group_symop_operation_xyz
x,y,z
-x,y,-z
-x,-y,-z
x,-y,z
1/2+x,1/2+y,z
1/2-x,1/2+y,-z
1/2-x,1/2-y,-z
1/2+x,1/2-y,z
loop_
_atom_site_type_symbol
_atom_site_label
_atom_site_fract_x
_atom_site_fract_y
_atom_site_fract_z
Si Si1 0.256646 0.700052 0.868535
Si Si2 0.009821 0.344388 0.234843
Si Si3 0.381008 0.832608 0.930775
Si Si4 0.790316 0.414834 0.680290
Si Si5 0.915483 0.199798 0.187096
Si Si6 0.922101 0.414393 0.336264
Si Si7 0.467609 0.585650 0.573442
O O1 0.319599 0.755990 0.864205
O O2 0.167994 0.751829 0.833277
O O3 0.188670 0.633526 0.762156
O O4 0.346411 0.676059 0.031133
O O5 0.121954 0.372978 0.298047
O O6 0.009473 0.258121 0.251420
O O7 0.981144 0.386253 0.300425
O O8 0.908994 0.353241 0.063072
O O9 0.314777 0.891506 0.808795
O O10 0.500000 0.825996 0.000000
O O11 0.810189 0.500000 0.688833
O O12 0.662257 0.399773 0.537004
O O13 0.961749 0.134027 0.289657
O O14 0.900243 0.500000 0.308015
O O15 0.000000 0.402016 0.500000
O O16 0.500000 0.603342 0.500000
O O17 0.486803 0.500000 0.604824
#
# Coordination Sequence:
#
# PCOD9192017 Si02
#       7
#     8   8   8   8   8   8   8
#     4   9  18  34  52  71  97 129 167 212 252 295
#     4   9  19  34  53  77 104 133 170 217 256 301
#     4   9  18  32  52  79 106 133 165 204 255 313
#     4  10  20  33  52  80 110 138 167 204 258 315
#     4   9  18  33  51  72  98 131 172 207 248 303
#     4  10  21  35  52  75 100 131 174 218 258 298
#     4  10  21  34  49  75 110 141 171 210 254 308
#
# _framework density 17.140401000000001
#
# number of rings (size 3 to 8) (size 9 to 14) (size 15 to 20)
#    0.000    2.571    0.000    2.143    0.000    8.857 
#    0.000    4.286    0.000    0.429    0.000    0.000 
#    0.000    0.000    0.000    0.000    0.000    0.000 
#
# Total GULP energy -156058.871655 kJ/mol
# GULP energy per Si atom -5573.531131 kJ/mol
# Density = 1.710139 g / cm^3
# Si number density = 17.140401 Si / 1000 Ang^3
#
#
#
# Elastic Constant Matrix: (Units=GPa)
#
#
# Indices 1 2 3 4 5 6 
#
# 1 38.5257 28.3892 39.1201 0.0000 -4.2882 0.0000
# 2 28.3892 76.8309 74.2677 0.0000 7.1282 0.0000
# 3 39.1201 74.2677 95.4707 0.0000 2.5799 0.0000
# 4 0.0000 0.0000 0.0000 41.1575 0.0000 -1.8925
# 5 -4.2882 7.1282 2.5799 0.0000 20.4311 0.0000
# 6 0.0000 0.0000 0.0000 -1.8925 0.0000 28.7462
#
#
#
# Elastic Compliance Matrix: (Units=1/GPa)
#
#
# Indices 1 2 3 4 5 6 
#
# 1 0.047472 0.001866 -0.021228 0.000000 0.011993 0.000000
# 2 0.001866 0.056351 -0.044231 0.000000 -0.013683 0.000000
# 3 -0.021228 -0.044231 0.053466 0.000000 0.004225 0.000000
# 4 0.000000 0.000000 0.000000 0.024371 0.000000 0.001604
# 5 0.011993 -0.013683 0.004225 0.000000 0.055703 0.000000
# 6 0.000000 0.000000 0.000000 0.001604 0.000000 0.034893
#
#
# Mechanical properties :
#
#
# Convention : Reuss Voigt Hill
#
# Bulk Modulus (GPa) = 33.21852 54.93125 44.07489
# Shear Modulus (GPa) = 12.21077 22.67029 17.44053
#
# Velocity S-wave (km/s) = 2.67197 3.64073 3.19330
# Velocity P-wave (km/s) = 5.37974 7.05625 6.27424
#
# Compressibility (1/GPa) = 0.03010369
#
# Stress axis : x y z
#
# Youngs Moduli (GPa) = 21.06511 17.74597 18.70347
#
# Poissons Ratio (x) = -0.03311 0.39703
# Poissons Ratio (y) = -0.03930 0.82727
# Poissons Ratio (z) = 0.44716 0.78492
#
# Static dielectric constant tensor:
#      x y z
#    x 1.607410 0.000000 -0.004690 
#    y 0.000000 1.562930 0.000000 
#    z -0.004690 0.000000 1.584440 
# 
# From -- ./inp_files/226552.got.cif
#   From: 2010.05.17/outbox.cif.g08.bks.cpg/sg12_114_cif.got.tgz:226552.got - 2010.06.03 13:09:07.
