data_PCOD9192223
_publ_section_title
;
Structure prediction by ZEFSAII (Michael W. Deem and Ramdas Pophale) SiO2 
 PCOD9192223
Probable space group: C 2/M
;
_chemical_formula_sum "Si O2"
_cell_formula_units_Z 56
_cell_length_a 18.868162
_cell_length_b 13.104531
_cell_length_c 11.983734
_cell_angle_alpha 90.000000
_cell_angle_beta 79.609634
_cell_angle_gamma 90.000000
_cell_volume 2914.489928
_symmetry_space_group_name_H-M "C 2/M"
_symmetry_group_IT_number 12
_symmetry_cell_setting 'monoclinic'
loop_
_space_group_symop_operation_xyz
x,y,z
-x,y,-z
-x,-y,-z
x,-y,z
1/2+x,1/2+y,z
1/2-x,1/2+y,-z
1/2-x,1/2-y,-z
1/2+x,1/2-y,z
loop_
_atom_site_type_symbol
_atom_site_label
_atom_site_fract_x
_atom_site_fract_y
_atom_site_fract_z
Si Si1 0.946733 0.253320 0.414268
Si Si2 0.814441 0.621134 0.367570
Si Si3 0.650612 0.619383 0.425182
Si Si4 0.685791 0.879944 0.104596
Si Si5 0.916051 0.886360 0.998049
Si Si6 0.917808 0.229057 0.767858
Si Si7 0.313451 0.770976 0.129791
O O1 0.881175 0.330953 0.414967
O O2 0.906327 0.149959 0.463523
O O3 0.000000 0.284847 0.500000
O O4 0.999525 0.237699 0.294743
O O5 0.823173 0.500000 0.358100
O O6 0.733304 0.640801 0.435617
O O7 0.816001 0.671160 0.244819
O O8 0.645390 0.500000 0.398794
O O9 0.627036 0.685846 0.324655
O O10 0.612398 0.837247 0.180293
O O11 0.746232 0.806393 0.140633
O O12 0.695745 0.000000 0.118603
O O13 0.688869 0.850448 0.972596
O O14 0.880398 0.803253 0.087942
O O15 0.884686 0.000000 0.020421
O O16 0.906259 0.847367 0.874482
O O17 0.000000 0.890585 0.000000
#
# Coordination Sequence:
#
# PCOD9192223 Si02
#       7
#     8   8   8   8   8   8   8
#     4  10  23  40  62  85 118 152 197 250 298 346
#     4  11  22  39  63  87 117 155 195 240 295 356
#     4  10  21  39  63  88 113 150 198 248 299 348
#     4  10  20  35  57  87 121 154 192 235 285 346
#     4  10  20  33  53  84 121 156 191 237 292 344
#     4  10  20  37  58  86 117 157 193 245 287 351
#     4  10  20  36  57  85 119 154 195 234 283 346
#
# _framework density 19.21434
#
# number of rings (size 3 to 8) (size 9 to 14) (size 15 to 20)
#    0.000    1.857    1.429    2.571    0.000    4.000 
#    0.000    3.571    0.000    4.714    0.000    0.000 
#    0.000    0.000    0.000    0.000    0.000    0.000 
#
# Total GULP energy -156268.984767 kJ/mol
# GULP energy per Si atom -5581.035170 kJ/mol
# Density = 1.917061 g / cm^3
# Si number density = 19.214340 Si / 1000 Ang^3
#
#
#
# Elastic Constant Matrix: (Units=GPa)
#
#
# Indices 1 2 3 4 5 6 
#
# 1 111.9164 32.3425 26.1169 0.0000 -6.3318 0.0000
# 2 32.3425 96.0630 18.1539 0.0000 -1.2204 0.0000
# 3 26.1169 18.1539 39.5114 0.0000 -12.1910 0.0000
# 4 0.0000 0.0000 0.0000 16.0993 0.0000 -0.8886
# 5 -6.3318 -1.2204 -12.1910 0.0000 31.0474 0.0000
# 6 0.0000 0.0000 0.0000 -0.8886 0.0000 22.7871
#
#
#
# Elastic Compliance Matrix: (Units=1/GPa)
#
#
# Indices 1 2 3 4 5 6 
#
# 1 0.011121 -0.002564 -0.006263 0.000000 -0.000292 0.000000
# 2 -0.002564 0.012083 -0.004405 0.000000 -0.001778 0.000000
# 3 -0.006263 -0.004405 0.035302 0.000000 0.012411 0.000000
# 4 0.000000 0.000000 0.000000 0.062248 0.000000 0.002427
# 5 -0.000292 -0.001778 0.012411 0.000000 0.036953 0.000000
# 6 0.000000 0.000000 0.000000 0.002427 0.000000 0.043979
#
#
# Mechanical properties :
#
#
# Convention : Reuss Voigt Hill
#
# Bulk Modulus (GPa) = 31.20933 44.52416 37.86674
# Shear Modulus (GPa) = 20.93515 25.37860 23.15688
#
# Velocity S-wave (km/s) = 3.30443 3.63825 3.47535
# Velocity P-wave (km/s) = 5.55311 6.39310 5.98785
#
# Compressibility (1/GPa) = 0.03204170
#
# Stress axis : x y z
#
# Youngs Moduli (GPa) = 89.91706 82.76000 28.32677
#
# Poissons Ratio (x) = 0.21224 0.17741
# Poissons Ratio (y) = 0.23059 0.12478
# Poissons Ratio (z) = 0.56315 0.36456
#
# Static dielectric constant tensor:
#      x y z
#    x 1.707700 0.000000 -0.014860 
#    y 0.000000 1.642390 0.000000 
#    z -0.014860 0.000000 1.674110 
# 
# From -- ./inp_files/164857.got.cif
#   From: 2010.05.17/outbox.cif.g08.bks.cpg/sg12_83_cif.got.tgz:164857.got - 2010.06.03 13:09:07.
