data_PCOD9192648
_publ_section_title
;
Structure prediction by ZEFSAII (Michael W. Deem and Ramdas Pophale) SiO2 
 PCOD9192648
Probable space group: C 2/M
;
_chemical_formula_sum "Si O2"
_cell_formula_units_Z 64
_cell_length_a 18.897710
_cell_length_b 19.983419
_cell_length_c 9.833964
_cell_angle_alpha 90.000000
_cell_angle_beta 98.880510
_cell_angle_gamma 90.000000
_cell_volume 3669.188296
_symmetry_space_group_name_H-M "C 2/M"
_symmetry_group_IT_number 12
_symmetry_cell_setting 'monoclinic'
loop_
_space_group_symop_operation_xyz
x,y,z
-x,y,-z
-x,-y,-z
x,-y,z
1/2+x,1/2+y,z
1/2-x,1/2+y,-z
1/2-x,1/2-y,-z
1/2+x,1/2-y,z
loop_
_atom_site_type_symbol
_atom_site_label
_atom_site_fract_x
_atom_site_fract_y
_atom_site_fract_z
Si Si1 0.305537 0.814178 0.384420
Si Si2 0.606869 0.574230 0.192959
Si Si3 0.166941 0.725873 0.310155
Si Si4 0.881678 0.187512 0.271182
Si Si5 0.914179 0.925423 0.491086
Si Si6 0.774349 0.423170 0.170341
Si Si7 0.473428 0.292663 0.849951
Si Si8 0.754814 0.677357 0.929652
O O1 0.223481 0.786969 0.349657
O O2 0.329639 0.814153 0.547771
O O3 0.351643 0.757555 0.320019
O O4 0.309000 0.884047 0.307413
O O5 0.578167 0.500000 0.151151
O O6 0.604340 0.581054 0.356073
O O7 0.688675 0.577259 0.169743
O O8 0.561675 0.635731 0.123753
O O9 0.089241 0.752491 0.245287
O O10 0.198541 0.685294 0.192256
O O11 0.882577 0.133966 0.392673
O O12 0.825882 0.161950 0.141638
O O13 0.959374 0.196571 0.228955
O O14 0.000000 0.922178 0.500000
O O15 0.891153 0.000000 0.438680
O O16 0.797337 0.500000 0.163433
O O17 0.785451 0.377075 0.041600
O O18 0.500000 0.261208 0.000000
O O19 0.750000 0.750000 0.000000
#
# Coordination Sequence:
#
# PCOD9192648 Si02
#       8
#     8   8   8   8   8   8   8   8
#     4  10  21  37  59  86 112 155 197 248 286 339
#     4  10  20  34  51  75 117 160 194 228 274 339
#     4  10  21  36  59  81 117 151 193 241 296 330
#     4  11  22  31  58  82 117 152 200 235 286 339
#     4  10  20  34  49  74 118 160 191 231 277 330
#     4  11  22  38  61  85 115 156 196 239 298 350
#     4  12  22  33  52  85 117 151 192 242 278 348
#     4  11  20  39  56  81 120 153 192 243 292 348
#
# _framework density 17.442551000000002
#
# number of rings (size 3 to 8) (size 9 to 14) (size 15 to 20)
#    0.000    1.375    5.000    2.250    3.500    0.750 
#    0.000    0.625    0.000    0.000    0.000    3.500 
#    0.000    0.000    0.000    0.000    0.000    0.000 
#
# Total GULP energy -178689.707039 kJ/mol
# GULP energy per Si atom -5584.053345 kJ/mol
# Density = 1.740285 g / cm^3
# Si number density = 17.442551 Si / 1000 Ang^3
#
#
#
# Elastic Constant Matrix: (Units=GPa)
#
#
# Indices 1 2 3 4 5 6 
#
# 1 56.7275 13.2568 16.6262 0.0000 11.4706 0.0000
# 2 13.2568 107.2651 47.3791 0.0000 12.8426 0.0000
# 3 16.6262 47.3791 111.6941 0.0000 11.1095 0.0000
# 4 0.0000 0.0000 0.0000 21.5458 0.0000 3.3885
# 5 11.4706 12.8426 11.1095 0.0000 26.6383 0.0000
# 6 0.0000 0.0000 0.0000 3.3885 0.0000 19.4392
#
#
#
# Elastic Compliance Matrix: (Units=1/GPa)
#
#
# Indices 1 2 3 4 5 6 
#
# 1 0.019855 -0.000723 -0.001913 0.000000 -0.007403 0.000000
# 2 -0.000723 0.011850 -0.004571 0.000000 -0.003495 0.000000
# 3 -0.001913 -0.004571 0.011346 0.000000 -0.001705 0.000000
# 4 0.000000 0.000000 0.000000 0.047721 0.000000 -0.008318
# 5 -0.007403 -0.003495 -0.001705 0.000000 0.043124 0.000000
# 6 0.000000 0.000000 0.000000 -0.008318 0.000000 0.052892
#
#
# Mechanical properties :
#
#
# Convention : Reuss Voigt Hill
#
# Bulk Modulus (GPa) = 34.91904 47.80121 41.36012
# Shear Modulus (GPa) = 23.72520 26.75297 25.23909
#
# Velocity S-wave (km/s) = 3.69208 3.92059 3.80805
# Velocity P-wave (km/s) = 6.18370 6.92526 6.56496
#
# Compressibility (1/GPa) = 0.02863768
#
# Stress axis : x y z
#
# Youngs Moduli (GPa) = 50.36624 84.39104 88.13440
#
# Poissons Ratio (x) = 0.06098 0.16856
# Poissons Ratio (y) = 0.03640 0.40288
# Poissons Ratio (z) = 0.09633 0.38577
#
# Static dielectric constant tensor:
#      x y z
#    x 1.587990 0.000000 -0.000380 
#    y 0.000000 1.602510 0.000000 
#    z -0.000380 0.000000 1.621300 
# 
# From -- ./inp_files/77498.got.cif
#   From: 2010.05.17/outbox.cif.g08.bks.cpg/sg12_39_cif.got.tgz:77498.got - 2010.06.03 13:09:07.
