data_PCOD9192746
_publ_section_title
;
Structure prediction by ZEFSAII (Michael W. Deem and Ramdas Pophale) SiO2 
 PCOD9192746
Probable space group: C 2/M
;
_chemical_formula_sum "Si O2"
_cell_formula_units_Z 64
_cell_length_a 29.410758
_cell_length_b 7.795553
_cell_length_c 16.345534
_cell_angle_alpha 90.000000
_cell_angle_beta 116.851652
_cell_angle_gamma 90.000000
_cell_volume 3343.522513
_symmetry_space_group_name_H-M "C 2/M"
_symmetry_group_IT_number 12
_symmetry_cell_setting 'monoclinic'
loop_
_space_group_symop_operation_xyz
x,y,z
-x,y,-z
-x,-y,-z
x,-y,z
1/2+x,1/2+y,z
1/2-x,1/2+y,-z
1/2-x,1/2-y,-z
1/2+x,1/2-y,z
loop_
_atom_site_type_symbol
_atom_site_label
_atom_site_fract_x
_atom_site_fract_y
_atom_site_fract_z
Si Si1 0.847369 0.707744 0.393147
Si Si2 0.400281 0.210022 0.602676
Si Si3 0.638424 0.796970 0.255333
Si Si4 0.112168 0.296418 0.747871
Si Si5 0.510456 0.792206 0.751863
Si Si6 0.971312 0.203425 0.896428
Si Si7 0.262315 0.794528 0.755051
Si Si8 0.279057 0.295358 0.106077
O O1 0.849195 0.500000 0.393737
O O2 0.874674 0.767553 0.497852
O O3 0.874884 0.771518 0.332440
O O4 0.788354 0.759199 0.338574
O O5 0.370921 0.270743 0.660414
O O6 0.459203 0.261093 0.662251
O O7 0.399486 0.000000 0.602204
O O8 0.585209 0.775799 0.164379
O O9 0.686780 0.724674 0.246062
O O10 0.647435 0.000000 0.272122
O O11 0.104184 0.500000 0.732048
O O12 0.061748 0.227257 0.750654
O O13 0.163104 0.270455 0.842275
O O14 0.503210 0.737622 0.839864
O O15 0.511312 0.000000 0.752813
O O16 0.965342 0.000000 0.901089
O O17 0.000000 0.271602 0.000000
O O18 0.250071 0.728107 0.836468
O O19 0.268259 0.000000 0.767202
O O20 0.281741 0.500000 0.114715
O O21 0.250000 0.250000 0.000000
#
# Coordination Sequence:
#
# PCOD9192746 Si02
#       8
#     8   8   8   8   8   8   8   8
#     4   9  17  30  49  73 101 129 159 198 240 281
#     4   8  15  29  49  73  98 125 160 200 238 277
#     4   9  18  34  53  71  95 128 164 199 235 283
#     4   9  18  32  50  73  99 129 164 198 236 284
#     4   9  18  33  52  72  97 130 165 198 234 283
#     4  10  21  35  50  72 100 125 155 199 247 290
#     4   9  19  34  50  70  97 128 162 199 239 285
#     4  10  20  34  51  71  97 128 162 202 245 288
#
# _framework density 19.141490000000001
#
# number of rings (size 3 to 8) (size 9 to 14) (size 15 to 20)
#    0.000    2.875    0.000    1.500    0.000    4.500 
#    0.000    8.750    0.000    0.000    0.000    7.000 
#    0.000    0.000    0.000    0.000    0.000    0.000 
#
# Total GULP energy -178434.945204 kJ/mol
# GULP energy per Si atom -5576.092038 kJ/mol
# Density = 1.909792 g / cm^3
# Si number density = 19.141490 Si / 1000 Ang^3
#
#
#
# Elastic Constant Matrix: (Units=GPa)
#
#
# Indices 1 2 3 4 5 6 
#
# 1 192.1529 -6.0633 86.6151 0.0000 -4.8381 0.0000
# 2 -6.0633 15.4201 -18.0392 0.0000 -5.2359 0.0000
# 3 86.6151 -18.0392 165.4413 0.0000 4.5915 0.0000
# 4 0.0000 0.0000 0.0000 11.6456 0.0000 8.0926
# 5 -4.8381 -5.2359 4.5915 0.0000 5.9820 0.0000
# 6 0.0000 0.0000 0.0000 8.0926 0.0000 15.8522
#
#
#
# Elastic Compliance Matrix: (Units=1/GPa)
#
#
# Indices 1 2 3 4 5 6 
#
# 1 0.007288 0.001876 -0.003903 0.000000 0.010532 0.000000
# 2 0.001876 0.104398 0.007994 0.000000 0.086759 0.000000
# 3 -0.003903 0.007994 0.009046 0.000000 -0.003104 0.000000
# 4 0.000000 0.000000 0.000000 0.133080 0.000000 -0.067938
# 5 0.010532 0.086759 -0.003104 0.000000 0.254007 0.000000
# 6 0.000000 0.000000 0.000000 -0.067938 0.000000 0.097765
#
#
# Mechanical properties :
#
#
# Convention : Reuss Voigt Hill
#
# Bulk Modulus (GPa) = 7.53787 55.33772 31.43779
# Shear Modulus (GPa) = 7.83853 27.39605 17.61729
#
# Velocity S-wave (km/s) = 2.02582 3.78728 3.03705
# Velocity P-wave (km/s) = 3.06895 6.93521 5.36263
#
# Compressibility (1/GPa) = 0.13266354
#
# Stress axis : x y z
#
# Youngs Moduli (GPa) = 137.21092 9.57869 110.54930
#
# Poissons Ratio (x) = -0.01797 0.43152
# Poissons Ratio (y) = -0.25735 -0.88368
# Poissons Ratio (z) = 0.53559 -0.07657
#
# Static dielectric constant tensor:
#      x y z
#    x 1.663010 0.000000 -0.024650 
#    y 0.000000 1.715670 0.000000 
#    z -0.024650 0.000000 1.635750 
# 
# From -- ./inp_files/244202.got.cif
#   From: 2010.05.17/outbox.cif.g08.bks.cpg/sg12_123_cif.got.tgz:244202.got - 2010.06.03 13:09:07.
