data_PCOD9192808
_publ_section_title
;
Structure prediction by ZEFSAII (Michael W. Deem and Ramdas Pophale) SiO2 
 PCOD9192808
Probable space group: C 2/M
;
_chemical_formula_sum "Si O2"
_cell_formula_units_Z 56
_cell_length_a 15.083161
_cell_length_b 7.564667
_cell_length_c 22.296010
_cell_angle_alpha 90.000000
_cell_angle_beta 84.387130
_cell_angle_gamma 90.000000
_cell_volume 2531.757355
_symmetry_space_group_name_H-M "C 2/M"
_symmetry_group_IT_number 12
_symmetry_cell_setting 'monoclinic'
loop_
_space_group_symop_operation_xyz
x,y,z
-x,y,-z
-x,-y,-z
x,-y,z
1/2+x,1/2+y,z
1/2-x,1/2+y,-z
1/2-x,1/2-y,-z
1/2+x,1/2-y,z
loop_
_atom_site_type_symbol
_atom_site_label
_atom_site_fract_x
_atom_site_fract_y
_atom_site_fract_z
Si Si1 0.645956 0.711936 0.497919
Si Si2 0.138721 0.707732 0.177439
Si Si3 0.984131 0.712094 0.271204
Si Si4 0.512355 0.711749 0.406874
Si Si5 0.176432 0.286200 0.792005
Si Si6 0.616426 0.787068 0.050332
Si Si7 0.095235 0.286233 0.923070
O O1 0.640589 0.500000 0.498060
O O2 0.750000 0.750000 0.500000
O O3 0.597868 0.775150 0.439606
O O4 0.578822 0.775920 0.554913
O O5 0.120742 0.500000 0.168906
O O6 0.053554 0.782928 0.217287
O O7 0.222584 0.726376 0.214869
O O8 0.159023 0.780909 0.109391
O O9 0.984246 0.500000 0.265190
O O10 0.011825 0.749079 0.336897
O O11 0.886204 0.773619 0.258028
O O12 0.512093 0.500000 0.412228
O O13 0.176858 0.500000 0.792858
O O14 0.135330 0.222283 0.858106
O O15 0.510599 0.751449 0.066370
O O16 0.628417 0.000000 0.046170
O O17 0.639304 0.719180 0.982217
O O18 0.102721 0.500000 0.921890
#
# Coordination Sequence:
#
# PCOD9192808 Si02
#       7
#     8   8   8   8   8   8   8
#     4   9  19  37  60  86 114 141 171 211 254 300
#     4  10  20  34  51  74 102 134 174 219 264 312
#     4  10  21  37  54  74 106 143 180 216 250 302
#     4   9  20  38  58  81 111 144 174 208 257 304
#     4  10  20  34  51  74 102 134 174 219 264 312
#     4   8  13  25  48  72  93 125 170 216 262 313
#     4   8  13  25  48  72  93 125 170 216 262 313
#
# _framework density 22.119025000000001
#
# number of rings (size 3 to 8) (size 9 to 14) (size 15 to 20)
#    0.000    2.857    1.429    1.714    0.000    4.000 
#    0.000    7.143    0.000    0.000    0.000    2.000 
#    0.000    0.000    0.000    0.000    0.000    0.000 
#
# Total GULP energy -156185.887647 kJ/mol
# GULP energy per Si atom -5578.067416 kJ/mol
# Density = 2.206868 g / cm^3
# Si number density = 22.119025 Si / 1000 Ang^3
#
#
#
# Elastic Constant Matrix: (Units=GPa)
#
#
# Indices 1 2 3 4 5 6 
#
# 1 95.7062 -2.4682 36.4732 0.0000 26.9908 0.0000
# 2 -2.4682 49.3121 4.1384 0.0000 -0.1911 0.0000
# 3 36.4732 4.1384 119.2906 0.0000 30.0664 0.0000
# 4 0.0000 0.0000 0.0000 -248.2276 0.0000 104.6911
# 5 26.9908 -0.1911 30.0664 0.0000 24.7202 0.0000
# 6 0.0000 0.0000 0.0000 104.6911 0.0000 -24.6746
#
#
#
# Elastic Compliance Matrix: (Units=1/GPa)
#
#
# Indices 1 2 3 4 5 6 
#
# 1 0.015162 0.000758 -0.000708 0.000000 -0.015688 0.000000
# 2 0.000758 0.020413 -0.001112 0.000000 0.000683 0.000000
# 3 -0.000708 -0.001112 0.012179 0.000000 -0.014048 0.000000
# 4 0.000000 0.000000 0.000000 0.005103 0.000000 0.021651
# 5 -0.015688 0.000683 -0.014048 0.000000 0.074673 0.000000
# 6 0.000000 0.000000 0.000000 0.021651 0.000000 0.051337
#
#
# Mechanical properties :
#
#
# Convention : Reuss Voigt Hill
#
# Bulk Modulus (GPa) = 21.91602 37.84397 29.88000
# Shear Modulus (GPa) = 25.48405 -34.55873 -4.53734
#
# Velocity S-wave (km/s) = 3.39799 -3.95701 -1.43380
# Velocity P-wave (km/s) = 5.03238 1.93153 3.28588
#
# Compressibility (1/GPa) = 0.04562872
#
# Stress axis : x y z
#
# Youngs Moduli (GPa) = 65.95294 48.98865 82.11083
#
# Poissons Ratio (x) = -0.03711 0.05815
# Poissons Ratio (y) = -0.04996 0.09130
# Poissons Ratio (z) = 0.04670 0.05447
#
# Static dielectric constant tensor:
#      x y z
#    x 1.818200 0.000000 0.018080 
#    y 0.000000 1.849140 0.000000 
#    z 0.018080 0.000000 1.830590 
# 
# From -- ./inp_files/308997.got.cif
#   From: 2010.05.17/outbox.cif.g08.bks.cpg/sg12_155_cif.got.tgz:308997.got - 2010.06.03 13:09:07.
