data_PCOD9192360
_publ_section_title
;
Structure prediction by ZEFSAII (Michael W. Deem and Ramdas Pophale) SiO2 
 PCOD9192360
Probable space group: C 2/M
;
_chemical_formula_sum "Si O2"
_cell_formula_units_Z 40
_cell_length_a 27.449798
_cell_length_b 11.245734
_cell_length_c 24.553611
_cell_angle_alpha 90.000000
_cell_angle_beta 16.477834
_cell_angle_gamma 90.000000
_cell_volume 2149.891396
_symmetry_space_group_name_H-M "C 2/M"
_symmetry_group_IT_number 12
_symmetry_cell_setting 'monoclinic'
loop_
_space_group_symop_operation_xyz
x,y,z
-x,y,-z
-x,-y,-z
x,-y,z
1/2+x,1/2+y,z
1/2-x,1/2+y,-z
1/2-x,1/2-y,-z
1/2+x,1/2-y,z
loop_
_atom_site_type_symbol
_atom_site_label
_atom_site_fract_x
_atom_site_fract_y
_atom_site_fract_z
Si Si1 0.677582 0.631225 0.777769
Si Si2 0.762590 0.135504 0.410861
Si Si3 0.404007 0.635419 0.887876
Si Si4 0.601949 0.368900 0.447277
Si Si5 0.574461 0.712099 0.255021
O O1 0.759957 0.500000 0.701128
O O2 0.650480 0.633656 0.741945
O O3 0.783063 0.750158 0.677646
O O4 0.500000 0.634960 0.000000
O O5 0.586746 0.205733 0.590130
O O6 0.909261 0.183399 0.293957
O O7 0.721070 0.000000 0.471992
O O8 0.393535 0.500000 0.919071
O O9 0.391024 0.636338 0.836290
O O10 0.246042 0.711096 0.080026
O O11 0.500000 0.370246 0.500000
O O12 0.688490 0.500000 0.359609
O O13 0.482041 0.353342 0.629325
#
# Coordination Sequence:
#
# PCOD9192360 Si02
#       5
#     8   8   8   8   8
#     4   9  19  35  56  82 111 142 185 233 277 330
#     4   9  18  33  52  78 109 137 178 230 278 331
#     4  10  20  33  55  80 106 142 180 229 282 329
#     4  10  22  38  56  79 113 151 186 228 277 331
#     4  10  20  35  54  77 109 143 184 225 274 330
#
# _framework density 18.605589999999999
#
# number of rings (size 3 to 8) (size 9 to 14) (size 15 to 20)
#    0.000    2.400    0.000    1.800    2.800    1.600 
#    0.000    0.000    0.000    6.000    0.000    0.000 
#    0.000    0.000    0.000    0.000    0.000    0.000 
#
# Total GULP energy -111359.968392 kJ/mol
# GULP energy per Si atom -5567.998420 kJ/mol
# Density = 1.856324 g / cm^3
# Si number density = 18.605590 Si / 1000 Ang^3
#
#
#
# Elastic Constant Matrix: (Units=GPa)
#
#
# Indices 1 2 3 4 5 6 
#
# 1 63.8612 33.7235 15.9505 -0.0009 -8.0035 0.0007
# 2 33.7235 124.8486 41.4891 0.0016 -6.8253 0.0032
# 3 15.9505 41.4891 67.7505 -0.0036 -2.4020 0.0018
# 4 -0.0009 0.0016 -0.0036 100.6592 -0.0007 58.7228
# 5 -8.0035 -6.8253 -2.4020 -0.0007 29.9998 -0.0019
# 6 0.0007 0.0032 0.0018 58.7228 -0.0019 73.9496
#
#
#
# Elastic Compliance Matrix: (Units=1/GPa)
#
#
# Indices 1 2 3 4 5 6 
#
# 1 0.018847 -0.004330 -0.001647 0.000000 0.003911 0.000000
# 2 -0.004330 0.011149 -0.005775 0.000000 0.000919 0.000000
# 3 -0.001647 -0.005775 0.018675 0.000002 -0.000258 -0.000001
# 4 0.000000 0.000000 0.000002 0.018509 0.000000 -0.014698
# 5 0.003911 0.000919 -0.000258 0.000000 0.034565 0.000001
# 6 0.000000 0.000000 -0.000001 -0.014698 0.000001 0.025194
#
#
# Mechanical properties :
#
#
# Convention : Reuss Voigt Hill
#
# Bulk Modulus (GPa) = 39.73481 48.75405 44.24443
# Shear Modulus (GPa) = 31.47968 51.94151 41.71059
#
# Velocity S-wave (km/s) = 4.11779 5.28940 4.73993
# Velocity P-wave (km/s) = 6.63408 7.97274 7.33402
#
# Compressibility (1/GPa) = 0.02516685
#
# Stress axis : x y z
#
# Youngs Moduli (GPa) = 53.05908 89.69673 53.54652
#
# Poissons Ratio (x) = 0.38836 0.08819
# Poissons Ratio (y) = 0.22973 0.30925
# Poissons Ratio (z) = 0.08739 0.51803
#
# Static dielectric constant tensor:
#      x y z
#    x 1.649530 0.000000 0.003670 
#    y 0.000000 1.678530 0.000000 
#    z 0.003670 0.000000 1.627630 
# 
# From -- ./inp_files/27409.got.cif
#   From: 2010.05.17/outbox.cif.g08.bks.cpg/sg12_14_cif.got.tgz:27409.got - 2010.06.03 13:09:07.
