data_PCOD9192235
_publ_section_title
;
Structure prediction by ZEFSAII (Michael W. Deem and Ramdas Pophale) SiO2 
 PCOD9192235
Probable space group: C 2/M
;
_chemical_formula_sum "Si O2"
_cell_formula_units_Z 64
_cell_length_a 28.451807
_cell_length_b 11.603421
_cell_length_c 9.544425
_cell_angle_alpha 90.000000
_cell_angle_beta 88.399373
_cell_angle_gamma 90.000000
_cell_volume 3149.750712
_symmetry_space_group_name_H-M "C 2/M"
_symmetry_group_IT_number 12
_symmetry_cell_setting 'monoclinic'
loop_
_space_group_symop_operation_xyz
x,y,z
-x,y,-z
-x,-y,-z
x,-y,z
1/2+x,1/2+y,z
1/2-x,1/2+y,-z
1/2-x,1/2-y,-z
1/2+x,1/2-y,z
loop_
_atom_site_type_symbol
_atom_site_label
_atom_site_fract_x
_atom_site_fract_y
_atom_site_fract_z
Si Si1 0.394418 0.370734 0.446912
Si Si2 0.172591 0.128185 0.815613
Si Si3 0.727634 0.800528 0.145128
Si Si4 0.848393 0.622687 0.040928
Si Si5 0.057868 0.864955 0.138835
Si Si6 0.984927 0.266273 0.351546
Si Si7 0.047797 0.670979 0.931233
Si Si8 0.344000 0.364864 0.719797
O O1 0.403736 0.500000 0.497439
O O2 0.359942 0.373556 0.317857
O O3 0.444481 0.321530 0.401999
O O4 0.366390 0.313065 0.576327
O O5 0.228667 0.137801 0.784861
O O6 0.159992 0.251900 0.886920
O O7 0.165239 0.000000 0.886883
O O8 0.703155 0.699203 0.232708
O O9 0.750000 0.750000 0.000000
O O10 0.683572 0.874316 0.094692
O O11 0.835883 0.500000 0.116121
O O12 0.904169 0.620285 0.015877
O O13 0.113010 0.854491 0.173549
O O14 0.026788 0.796896 0.259385
O O15 0.045594 0.000000 0.138685
O O16 0.050362 0.803423 0.989284
O O17 0.958593 0.340247 0.234327
O O18 0.000000 0.320079 0.500000
O O19 0.000000 0.624452 0.000000
O O20 0.333228 0.500000 0.704304
#
# Coordination Sequence:
#
# PCOD9192235 Si02
#       8
#     8   8   8   8   8   8   8   8
#     4  10  20  34  57  90 127 166 206 253 311 376
#     4  10  22  40  62  91 123 159 200 257 318 371
#     4  10  22  38  59  85 117 158 204 256 310 372
#     4  11  22  39  63  91 120 161 211 257 305 373
#     4  10  20  33  53  86 127 166 207 256 311 371
#     4  11  20  33  56  88 127 168 208 253 309 374
#     4  10  22  37  55  86 121 166 209 256 309 372
#     4  10  20  35  59  90 125 162 206 258 315 373
#
# _framework density 20.319068000000001
#
# number of rings (size 3 to 8) (size 9 to 14) (size 15 to 20)
#    0.000    1.750    3.750    0.750    0.000    8.500 
#    0.000    0.000    0.000    1.875    0.000    0.000 
#    0.000    0.000    0.000    0.000    0.000    0.000 
#
# Total GULP energy -178135.874172 kJ/mol
# GULP energy per Si atom -5566.746068 kJ/mol
# Density = 2.027282 g / cm^3
# Si number density = 20.319068 Si / 1000 Ang^3
#
#
#
# Elastic Constant Matrix: (Units=GPa)
#
#
# Indices 1 2 3 4 5 6 
#
# 1 105.1696 14.0188 1.0334 0.0000 -2.1709 0.0000
# 2 14.0188 100.0469 6.0584 0.0000 -7.5302 0.0000
# 3 1.0334 6.0584 60.1304 0.0000 -4.8602 0.0000
# 4 0.0000 0.0000 0.0000 -0.5254 0.0000 -3.2434
# 5 -2.1709 -7.5302 -4.8602 0.0000 33.5284 0.0000
# 6 0.0000 0.0000 0.0000 -3.2434 0.0000 -13.1179
#
#
#
# Elastic Compliance Matrix: (Units=1/GPa)
#
#
# Indices 1 2 3 4 5 6 
#
# 1 0.009693 -0.001333 -0.000006 0.000000 0.000327 0.000000
# 2 -0.001333 0.010394 -0.000853 0.000000 0.002124 0.000000
# 3 -0.000006 -0.000853 0.016899 0.000000 0.002258 0.000000
# 4 0.000000 0.000000 0.000000 3.616218 0.000000 -0.894117
# 5 0.000327 0.002124 0.002258 0.000000 0.030651 0.000000
# 6 0.000000 0.000000 0.000000 -0.894117 0.000000 0.144841
#
#
# Mechanical properties :
#
#
# Convention : Reuss Voigt Hill
#
# Bulk Modulus (GPa) = 30.67252 34.17422 32.42337
# Shear Modulus (GPa) = 1.30075 20.25943 10.78009
#
# Velocity S-wave (km/s) = 0.80097 3.16106 2.30585
# Velocity P-wave (km/s) = 3.99795 5.49348 4.80427
#
# Compressibility (1/GPa) = 0.03260247
#
# Stress axis : x y z
#
# Youngs Moduli (GPa) = 103.16748 96.21259 59.17507
#
# Poissons Ratio (x) = 0.12827 0.00034
# Poissons Ratio (y) = 0.13754 0.05045
# Poissons Ratio (z) = 0.00060 0.08203
#
# Static dielectric constant tensor:
#      x y z
#    x 1.751570 0.000000 0.001610 
#    y 0.000000 1.752300 0.000000 
#    z 0.001610 0.000000 1.768780 
# 
# From -- ./inp_files/110446.got.cif
#   From: 2010.05.17/outbox.cif.g08.bks.cpg/sg12_56_cif.got.tgz:110446.got - 2010.06.03 13:09:07.
