data_PCOD9192770
_publ_section_title
;
Structure prediction by ZEFSAII (Michael W. Deem and Ramdas Pophale) SiO2 
 PCOD9192770
Probable space group: C 2/M
;
_chemical_formula_sum "Si O2"
_cell_formula_units_Z 48
_cell_length_a 14.419931
_cell_length_b 9.070136
_cell_length_c 23.179426
_cell_angle_alpha 90.000000
_cell_angle_beta 112.400149
_cell_angle_gamma 90.000000
_cell_volume 2802.900834
_symmetry_space_group_name_H-M "C 2/M"
_symmetry_group_IT_number 12
_symmetry_cell_setting 'monoclinic'
loop_
_space_group_symop_operation_xyz
x,y,z
-x,y,-z
-x,-y,-z
x,-y,z
1/2+x,1/2+y,z
1/2-x,1/2+y,-z
1/2-x,1/2-y,-z
1/2+x,1/2-y,z
loop_
_atom_site_type_symbol
_atom_site_label
_atom_site_fract_x
_atom_site_fract_y
_atom_site_fract_z
Si Si1 0.312918 0.824732 0.600037
Si Si2 0.433623 0.323423 0.158976
Si Si3 0.353747 0.323866 0.731956
Si Si4 0.100065 0.823963 0.489490
Si Si5 0.520694 0.176801 0.070073
Si Si6 0.766751 0.677131 0.821559
O O1 0.332893 0.747169 0.665334
O O2 0.199022 0.796099 0.551469
O O3 0.383802 0.760158 0.566652
O O4 0.326077 0.000000 0.608254
O O5 0.429910 0.500000 0.150445
O O6 0.532896 0.289262 0.219976
O O7 0.448851 0.248895 0.100626
O O8 0.333503 0.277640 0.168725
O O9 0.343055 0.500000 0.726859
O O10 0.282016 0.256629 0.764166
O O11 0.000000 0.781067 0.500000
O O12 0.095576 0.000000 0.477159
O O13 0.634469 0.210250 0.116923
O O14 0.508330 0.000000 0.069177
O O15 0.500000 0.226491 0.000000
O O16 0.763448 0.500000 0.811716
#
# Coordination Sequence:
#
# PCOD9192770 Si02
#       6
#     8   8   8   8   8   8
#     4  10  20  34  53  76 101 129 162 200 243 288
#     4   9  19  34  51  71  96 130 167 201 239 287
#     4  10  20  34  51  72  99 129 164 203 242 286
#     4   9  19  36  55  74  99 131 164 198 238 287
#     4   9  18  32  50  73 100 128 159 200 248 292
#     4   9  18  34  52  70  97 130 164 201 242 290
#
# _framework density 17.125114
#
# number of rings (size 3 to 8) (size 9 to 14) (size 15 to 20)
#    0.000    2.667    0.000    1.000    0.000    4.667 
#    0.000    6.667    0.000    0.000    0.000    0.000 
#    0.000    0.000    0.000    0.000    0.000    0.000 
#
# Total GULP energy -133877.411401 kJ/mol
# GULP energy per Si atom -5578.225475 kJ/mol
# Density = 1.708614 g / cm^3
# Si number density = 17.125114 Si / 1000 Ang^3
#
#
#
# Elastic Constant Matrix: (Units=GPa)
#
#
# Indices 1 2 3 4 5 6 
#
# 1 163.1150 52.4477 80.2079 0.0000 -37.6413 0.0000
# 2 52.4477 38.6072 66.7039 0.0000 -14.6020 0.0000
# 3 80.2079 66.7039 166.8328 0.0000 -38.3021 0.0000
# 4 0.0000 0.0000 0.0000 42.1708 0.0000 -1.4533
# 5 -37.6413 -14.6020 -38.3021 0.0000 18.2489 0.0000
# 6 0.0000 0.0000 0.0000 -1.4533 0.0000 33.6214
#
#
#
# Elastic Compliance Matrix: (Units=1/GPa)
#
#
# Indices 1 2 3 4 5 6 
#
# 1 0.022042 -0.040485 0.016580 0.000000 0.047870 0.000000
# 2 -0.040485 0.158508 -0.065553 0.000000 -0.094262 0.000000
# 3 0.016580 -0.065553 0.038681 0.000000 0.062933 0.000000
# 4 0.000000 0.000000 0.000000 0.023748 0.000000 0.001027
# 5 0.047870 -0.094262 0.062933 0.000000 0.210202 0.000000
# 6 0.000000 0.000000 0.000000 0.001027 0.000000 0.029787
#
#
# Mechanical properties :
#
#
# Convention : Reuss Voigt Hill
#
# Bulk Modulus (GPa) = 24.80414 85.25267 55.02841
# Shear Modulus (GPa) = 7.40388 30.08790 18.74589
#
# Velocity S-wave (km/s) = 2.08154 4.19614 3.31213
# Velocity P-wave (km/s) = 4.50473 8.56546 6.84323
#
# Compressibility (1/GPa) = 0.04031585
#
# Stress axis : x y z
#
# Youngs Moduli (GPa) = 45.36776 6.30884 25.85267
#
# Poissons Ratio (x) = 0.25541 -0.42864
# Poissons Ratio (y) = 1.83670 1.69471
# Poissons Ratio (z) = -0.75220 0.41356
#
# Static dielectric constant tensor:
#      x y z
#    x 1.566650 0.000000 0.013500 
#    y 0.000000 1.570150 0.000000 
#    z 0.013500 0.000000 1.552640 
# 
# From -- ./inp_files/267720.got.cif
#   From: 2010.05.17/outbox.cif.g08.bks.cpg/sg12_134_cif.got.tgz:267720.got - 2010.06.03 13:09:07.
