data_PCOD9192836
_publ_section_title
;
Structure prediction by ZEFSAII (Michael W. Deem and Ramdas Pophale) SiO2 
 PCOD9192836
Probable space group: C 2/M
;
_chemical_formula_sum "Si O2"
_cell_formula_units_Z 52
_cell_length_a 17.255283
_cell_length_b 11.524770
_cell_length_c 25.742808
_cell_angle_alpha 90.000000
_cell_angle_beta 144.761978
_cell_angle_gamma 90.000000
_cell_volume 2953.703215
_symmetry_space_group_name_H-M "C 2/M"
_symmetry_group_IT_number 12
_symmetry_cell_setting 'monoclinic'
loop_
_space_group_symop_operation_xyz
x,y,z
-x,y,-z
-x,-y,-z
x,-y,z
1/2+x,1/2+y,z
1/2-x,1/2+y,-z
1/2-x,1/2-y,-z
1/2+x,1/2-y,z
loop_
_atom_site_type_symbol
_atom_site_label
_atom_site_fract_x
_atom_site_fract_y
_atom_site_fract_z
Si Si1 0.075518 0.363994 0.986424
Si Si2 0.608495 0.633645 0.829266
Si Si3 0.000000 0.723093 0.500000
Si Si4 0.181501 0.130999 0.519221
Si Si5 0.543210 0.739256 0.349695
Si Si6 0.346808 0.868431 0.319435
Si Si7 0.471747 0.636868 0.866614
O O1 0.063185 0.500000 0.958410
O O2 0.233480 0.340505 0.081407
O O3 0.000000 0.366224 0.000000
O O4 0.019704 0.250445 0.925261
O O5 0.596503 0.500000 0.806775
O O6 0.525769 0.702951 0.741310
O O7 0.546113 0.645736 0.852144
O O8 0.096798 0.795632 0.514665
O O9 0.095646 0.652937 0.591445
O O10 0.332766 0.176231 0.595141
O O11 0.111636 0.143009 0.424375
O O12 0.181285 0.000000 0.536859
O O13 0.428068 0.791593 0.323269
O O14 0.187776 0.850223 0.229204
O O15 0.375411 0.000000 0.320479
O O16 0.494279 0.500000 0.897691
#
# Coordination Sequence:
#
# PCOD9192836 Si02
#       7
#     8   8   4   8   8   8   8
#     4  10  21  38  59  82 109 141 179 222 268 321
#     4  10  20  36  57  79 106 139 178 220 263 316
#     4  10  20  34  54  76 102 140 178 216 264 314
#     4  10  20  34  51  75 107 138 174 218 263 315
#     4  10  20  34  54  77 103 139 177 215 264 315
#     4  10  20  35  54  77 106 138 178 222 264 315
#     4  10  21  37  57  82 111 142 178 222 269 319
#
# _framework density 17.605018999999999
#
# number of rings (size 3 to 8) (size 9 to 14) (size 15 to 20)
#    0.000    2.000    0.000    3.692    0.000    0.308 
#    0.000   13.077    0.000    0.000    0.000    0.000 
#    0.000    0.000    0.000    0.000    0.000    0.000 
#
# Total GULP energy -144812.546517 kJ/mol
# GULP energy per Si atom -5569.713328 kJ/mol
# Density = 1.756495 g / cm^3
# Si number density = 17.605019 Si / 1000 Ang^3
#
#
#
# Elastic Constant Matrix: (Units=GPa)
#
#
# Indices 1 2 3 4 5 6 
#
# 1 64.8800 19.0687 33.8066 0.0000 18.4826 0.0000
# 2 19.0687 95.8035 71.2731 0.0000 -0.3815 0.0000
# 3 33.8066 71.2731 100.6076 0.0001 6.1718 0.0000
# 4 0.0000 0.0000 0.0001 -1.2518 0.0000 1.7855
# 5 18.4826 -0.3815 6.1718 0.0000 30.1776 0.0000
# 6 0.0000 0.0000 0.0000 1.7855 0.0000 17.2143
#
#
#
# Elastic Compliance Matrix: (Units=1/GPa)
#
#
# Indices 1 2 3 4 5 6 
#
# 1 0.022538 0.001145 -0.007634 0.000000 -0.012228 0.000000
# 2 0.001145 0.022503 -0.016508 -0.000001 0.002959 0.000000
# 3 -0.007634 -0.016508 0.024230 0.000001 -0.000488 0.000000
# 4 0.000000 -0.000001 0.000001 -0.695901 0.000000 0.072179
# 5 -0.012228 0.002959 -0.000488 0.000000 0.040763 0.000000
# 6 0.000000 0.000000 0.000000 0.072179 0.000000 0.050605
#
#
# Mechanical properties :
#
#
# Convention : Reuss Voigt Hill
#
# Bulk Modulus (GPa) = 42.96319 56.62089 49.79204
# Shear Modulus (GPa) = -10.38403 18.37087 3.99342
#
# Velocity S-wave (km/s) = -2.43128 3.23383 1.50774
# Velocity P-wave (km/s) = 4.07129 6.79523 5.60136
#
# Compressibility (1/GPa) = 0.02327574
#
# Stress axis : x y z
#
# Youngs Moduli (GPa) = 44.36982 44.43825 41.27184
#
# Poissons Ratio (x) = -0.05087 0.31508
# Poissons Ratio (y) = -0.05080 0.68132
# Poissons Ratio (z) = 0.33873 0.73359
#
# Static dielectric constant tensor:
#      x y z
#    x 1.578460 0.000000 -0.000180 
#    y 0.000000 1.618260 0.000000 
#    z -0.000180 0.000000 1.588500 
# 
# From -- ./inp_files/339667.got.cif
#   From: 2010.05.17/outbox.cif.g08.bks.cpg/sg12_170_cif.got.tgz:339667.got - 2010.06.03 13:09:07.
