data_PCOD9192507
_publ_section_title
;
Structure prediction by ZEFSAII (Michael W. Deem and Ramdas Pophale) SiO2 
 PCOD9192507
Probable space group: C 2/M
;
_chemical_formula_sum "Si O2"
_cell_formula_units_Z 64
_cell_length_a 11.650886
_cell_length_b 24.891556
_cell_length_c 11.627954
_cell_angle_alpha 90.000000
_cell_angle_beta 78.803116
_cell_angle_gamma 90.000000
_cell_volume 3308.020053
_symmetry_space_group_name_H-M "C 2/M"
_symmetry_group_IT_number 12
_symmetry_cell_setting 'monoclinic'
loop_
_space_group_symop_operation_xyz
x,y,z
-x,y,-z
-x,-y,-z
x,-y,z
1/2+x,1/2+y,z
1/2-x,1/2+y,-z
1/2-x,1/2-y,-z
1/2+x,1/2-y,z
loop_
_atom_site_type_symbol
_atom_site_label
_atom_site_fract_x
_atom_site_fract_y
_atom_site_fract_z
Si Si1 0.093007 0.061394 0.393354
Si Si2 0.193898 0.436041 0.264653
Si Si3 0.377224 0.436877 0.059127
Si Si4 0.724564 0.272709 0.131390
Si Si5 0.841686 0.562061 0.469868
Si Si6 0.771867 0.900900 0.849280
Si Si7 0.038914 0.605728 0.768736
Si Si8 0.523055 0.772611 0.857134
O O1 0.212935 0.059941 0.441284
O O2 0.128060 0.087363 0.265353
O O3 0.000000 0.086345 0.500000
O O4 0.053753 0.000000 0.376046
O O5 0.207784 0.500000 0.272433
O O6 0.309689 0.413388 0.181457
O O7 0.168595 0.417393 0.398492
O O8 0.084241 0.424095 0.204369
O O9 0.397271 0.500000 0.079667
O O10 0.500000 0.410914 0.000000
O O11 0.298515 0.430897 0.961682
O O12 0.731142 0.337209 0.129130
O O13 0.588960 0.256267 0.180738
O O14 0.839913 0.254206 0.182795
O O15 0.750000 0.250000 0.000000
O O16 0.886545 0.500000 0.458003
O O17 0.917215 0.598702 0.370897
O O18 0.646079 0.917618 0.822346
O O19 0.020217 0.666404 0.812343
O O20 0.500000 0.771678 0.000000
#
# Coordination Sequence:
#
# PCOD9192507 Si02
#       8
#     8   8   8   8   8   8   8   8
#     4   9  18  32  56  82 110 153 191 223 269 327
#     4  10  21  34  53  79 111 152 188 223 268 326
#     4  10  23  37  50  77 119 153 180 225 279 330
#     4   9  19  35  56  80 106 141 180 229 283 339
#     4   9  18  34  53  79 112 147 191 228 262 323
#     4  10  21  36  56  83 112 143 184 234 280 329
#     4  10  20  33  57  81 110 139 181 236 280 319
#     4   9  19  35  56  80 112 138 180 234 284 343
#
# _framework density 19.346920999999998
#
# number of rings (size 3 to 8) (size 9 to 14) (size 15 to 20)
#    0.000    2.500    0.000    1.125    7.000    4.000 
#    0.000    1.250    0.000    1.500    0.000   10.500 
#    0.000    0.000    0.000    0.000    0.000    0.000 
#
# Total GULP energy -178223.142260 kJ/mol
# GULP energy per Si atom -5569.473196 kJ/mol
# Density = 1.930289 g / cm^3
# Si number density = 19.346921 Si / 1000 Ang^3
#
#
#
# Elastic Constant Matrix: (Units=GPa)
#
#
# Indices 1 2 3 4 5 6 
#
# 1 87.4247 0.2394 18.2970 0.0000 -11.4204 0.0000
# 2 0.2394 13.8399 4.4428 0.0000 -4.0313 0.0000
# 3 18.2970 4.4428 44.3460 0.0000 3.4915 0.0000
# 4 0.0000 0.0000 0.0000 21.1287 0.0000 -4.3981
# 5 -11.4204 -4.0313 3.4915 0.0000 21.4765 0.0000
# 6 0.0000 0.0000 0.0000 -4.3981 0.0000 25.7276
#
#
#
# Elastic Compliance Matrix: (Units=1/GPa)
#
#
# Indices 1 2 3 4 5 6 
#
# 1 0.014159 0.004820 -0.007079 0.000000 0.009585 0.000000
# 2 0.004820 0.081708 -0.011734 0.000000 0.019808 0.000000
# 3 -0.007079 -0.011734 0.027468 0.000000 -0.010433 0.000000
# 4 0.000000 0.000000 0.000000 0.049075 0.000000 0.008389
# 5 0.009585 0.019808 -0.010433 0.000000 0.057073 0.000000
# 6 0.000000 0.000000 0.000000 0.008389 0.000000 0.040303
#
#
# Mechanical properties :
#
#
# Convention : Reuss Voigt Hill
#
# Bulk Modulus (GPa) = 10.48801 21.28546 15.88673
# Shear Modulus (GPa) = 15.17189 21.84197 18.50693
#
# Velocity S-wave (km/s) = 2.80340 3.36365 3.09622
# Velocity P-wave (km/s) = 3.98892 5.10993 4.58383
#
# Compressibility (1/GPa) = 0.09534701
#
# Stress axis : x y z
#
# Youngs Moduli (GPa) = 70.62686 12.23870 36.40617
#
# Poissons Ratio (x) = -0.05898 0.25773
# Poissons Ratio (y) = -0.34039 0.42719
# Poissons Ratio (z) = 0.50000 0.14361
#
# Static dielectric constant tensor:
#      x y z
#    x 1.768830 0.000000 -0.035900 
#    y 0.000000 1.653030 0.000000 
#    z -0.035900 0.000000 1.694210 
# 
# From -- ./inp_files/137436.got.cif
#   From: 2010.05.17/outbox.cif.g08.bks.cpg/sg12_69_cif.got.tgz:137436.got - 2010.06.03 13:09:07.
