data_PCOD9192383
_publ_section_title
;
Structure prediction by ZEFSAII (Michael W. Deem and Ramdas Pophale) SiO2 
 PCOD9192383
Probable space group: C 2/M
;
_chemical_formula_sum "Si O2"
_cell_formula_units_Z 64
_cell_length_a 20.962870
_cell_length_b 8.929322
_cell_length_c 33.078777
_cell_angle_alpha 90.000000
_cell_angle_beta 143.601490
_cell_angle_gamma 90.000000
_cell_volume 3674.216261
_symmetry_space_group_name_H-M "C 2/M"
_symmetry_group_IT_number 12
_symmetry_cell_setting 'monoclinic'
loop_
_space_group_symop_operation_xyz
x,y,z
-x,y,-z
-x,-y,-z
x,-y,z
1/2+x,1/2+y,z
1/2-x,1/2+y,-z
1/2-x,1/2-y,-z
1/2+x,1/2-y,z
loop_
_atom_site_type_symbol
_atom_site_label
_atom_site_fract_x
_atom_site_fract_y
_atom_site_fract_z
Si Si1 0.136623 0.679944 0.210305
Si Si2 0.873128 0.320597 0.700658
Si Si3 0.614047 0.820778 0.792659
Si Si4 0.916331 0.178310 0.072680
Si Si5 0.922009 0.321618 0.582098
Si Si6 0.236295 0.821456 0.928374
Si Si7 0.637247 0.320856 0.716118
Si Si8 0.227733 0.821829 0.425789
O O1 0.120500 0.500000 0.200298
O O2 0.139571 0.722615 0.259116
O O3 0.249032 0.715891 0.246346
O O4 0.035767 0.758951 0.137922
O O5 0.858872 0.500000 0.690133
O O6 0.792087 0.239381 0.628965
O O7 0.994094 0.284967 0.747611
O O8 0.697525 0.755280 0.867591
O O9 0.630083 0.749292 0.757031
O O10 0.623402 0.000000 0.795110
O O11 0.852712 0.211157 0.082195
O O12 0.916032 0.000000 0.066817
O O13 0.847267 0.256479 0.002373
O O14 0.933937 0.500000 0.592715
O O15 0.857506 0.258295 0.587979
O O16 0.844993 0.291056 0.504550
O O17 0.037306 0.244410 0.639982
O O18 0.243040 0.000000 0.926972
O O19 0.627477 0.500000 0.713744
O O20 0.209836 0.000000 0.418293
#
# Coordination Sequence:
#
# PCOD9192383 Si02
#       8
#     8   8   8   8   8   8   8   8
#     4  10  22  40  58  80 113 151 187 226 276 333
#     4  10  20  35  57  83 112 145 185 230 278 327
#     4  11  21  35  58  85 114 145 184 234 278 325
#     4  10  20  34  56  85 114 147 185 228 279 328
#     4  10  20  35  54  80 113 148 183 227 280 329
#     4  10  20  34  56  85 116 147 184 230 276 327
#     4  11  23  38  58  82 112 150 188 227 275 335
#     4  10  20  33  55  84 112 142 184 233 278 327
#
# _framework density 17.418680999999999
#
# number of rings (size 3 to 8) (size 9 to 14) (size 15 to 20)
#    0.000    1.750    2.500    2.250    0.000    4.500 
#    0.000    1.250    0.000    7.500    0.000    0.000 
#    0.000    0.000    0.000    0.000    0.000    0.000 
#
# Total GULP energy -178733.791164 kJ/mol
# GULP energy per Si atom -5585.430974 kJ/mol
# Density = 1.737904 g / cm^3
# Si number density = 17.418681 Si / 1000 Ang^3
#
#
#
# Elastic Constant Matrix: (Units=GPa)
#
#
# Indices 1 2 3 4 5 6 
#
# 1 98.0822 51.6053 68.7987 0.0000 6.6012 0.0000
# 2 51.6053 57.4798 69.0125 0.0000 7.0359 0.0000
# 3 68.7987 69.0125 160.7451 0.0000 6.5145 0.0000
# 4 0.0000 0.0000 0.0000 37.9884 0.0000 -1.3532
# 5 6.6012 7.0359 6.5145 0.0000 26.0569 0.0000
# 6 0.0000 0.0000 0.0000 -1.3532 0.0000 23.6151
#
#
#
# Elastic Compliance Matrix: (Units=1/GPa)
#
#
# Indices 1 2 3 4 5 6 
#
# 1 0.019553 -0.015440 -0.001726 0.000000 -0.000353 0.000000
# 2 -0.015440 0.049018 -0.014203 0.000000 -0.005774 0.000000
# 3 -0.001726 -0.014203 0.013016 0.000000 0.001018 0.000000
# 4 0.000000 0.000000 0.000000 0.026378 0.000000 0.001511
# 5 -0.000353 -0.005774 0.001018 0.000000 0.039771 0.000000
# 6 0.000000 0.000000 0.000000 0.001511 0.000000 0.042432
#
#
# Mechanical properties :
#
#
# Convention : Reuss Voigt Hill
#
# Bulk Modulus (GPa) = 53.04715 77.23781 65.14248
# Shear Modulus (GPa) = 19.29088 25.99144 22.64116
#
# Velocity S-wave (km/s) = 3.33150 3.86704 3.60921
# Velocity P-wave (km/s) = 6.73192 8.02352 7.40593
#
# Compressibility (1/GPa) = 0.01885116
#
# Stress axis : x y z
#
# Youngs Moduli (GPa) = 51.14219 20.40050 76.82802
#
# Poissons Ratio (x) = 0.31498 0.13259
# Poissons Ratio (y) = 0.78962 1.09118
# Poissons Ratio (z) = 0.08826 0.28975
#
# Static dielectric constant tensor:
#      x y z
#    x 1.566940 0.000000 -0.001540 
#    y 0.000000 1.578060 0.000000 
#    z -0.001540 0.000000 1.584740 
# 
# From -- ./inp_files/378271.got.cif
#   From: 2010.05.17/outbox.cif.g08.bks.cpg/sg12_190_cif.got.tgz:378271.got - 2010.06.03 13:09:07.
