data_PCOD9192657
_publ_section_title
;
Structure prediction by ZEFSAII (Michael W. Deem and Ramdas Pophale) SiO2 
 PCOD9192657
Probable space group: C 2/M
;
_chemical_formula_sum "Si O2"
_cell_formula_units_Z 48
_cell_length_a 15.962158
_cell_length_b 7.458867
_cell_length_c 17.470722
_cell_angle_alpha 90.000000
_cell_angle_beta 56.716896
_cell_angle_gamma 90.000000
_cell_volume 1738.863985
_symmetry_space_group_name_H-M "C 2/M"
_symmetry_group_IT_number 12
_symmetry_cell_setting 'monoclinic'
loop_
_space_group_symop_operation_xyz
x,y,z
-x,y,-z
-x,-y,-z
x,-y,z
1/2+x,1/2+y,z
1/2-x,1/2+y,-z
1/2-x,1/2-y,-z
1/2+x,1/2-y,z
loop_
_atom_site_type_symbol
_atom_site_label
_atom_site_fract_x
_atom_site_fract_y
_atom_site_fract_z
Si Si1 0.948472 0.780826 0.232159
Si Si2 0.652048 0.294077 0.268657
Si Si3 0.133022 0.785182 0.056211
Si Si4 0.364534 0.293935 0.110013
Si Si5 0.541649 0.285389 0.560937
Si Si6 0.258175 0.785201 0.609611
O O1 0.904783 0.725090 0.170335
O O2 0.857624 0.722167 0.333139
O O3 0.063519 0.722462 0.161189
O O4 0.949711 0.000000 0.239653
O O5 0.647180 0.500000 0.244958
O O6 0.743408 0.208566 0.176901
O O7 0.538123 0.221343 0.335158
O O8 0.692752 0.289080 0.336374
O O9 0.121432 0.000000 0.060134
O O10 0.250000 0.750000 0.000000
O O11 0.102662 0.714157 0.987269
O O12 0.396611 0.500000 0.094021
O O13 0.500000 0.215711 0.500000
O O14 0.528657 0.500000 0.569137
O O15 0.660520 0.257057 0.496316
O O16 0.255998 0.000000 0.617986
#
# Coordination Sequence:
#
# PCOD9192657 Si02
#       6
#     8   8   8   8   8   8
#     4   8  15  29  48  68  90 119 153 186 222 264
#     4   9  16  25  38  59  90 122 147 178 224 270
#     4  10  20  34  50  68  92 119 149 186 228 274
#     4   9  17  30  49  69  88 117 156 191 221 259
#     4   8  14  23  34  54  88 123 146 172 220 271
#     4   9  15  23  39  62  86 116 153 186 217 257
#
# _framework density 27.604227999999999
#
# number of rings (size 3 to 8) (size 9 to 14) (size 15 to 20)
#    0.000    3.167    0.000    3.500    0.000    6.333 
#    0.000    4.167    0.000    5.000    0.000    1.167 
#    0.000    0.000    0.000    0.000    0.000    0.000 
#
# Total GULP energy -134057.517294 kJ/mol
# GULP energy per Si atom -5585.729887 kJ/mol
# Density = 2.754140 g / cm^3
# Si number density = 27.604228 Si / 1000 Ang^3
#
#
#
# Elastic Constant Matrix: (Units=GPa)
#
#
# Indices 1 2 3 4 5 6 
#
# 1 105.8116 -11.3685 66.3123 -0.0001 -37.8909 0.0005
# 2 -11.3685 90.0107 0.4270 -0.0001 -2.6853 0.0011
# 3 66.3123 0.4270 295.0165 0.0000 -33.9334 0.0000
# 4 -0.0001 -0.0001 0.0000 11.1710 0.0000 -10.6164
# 5 -37.8909 -2.6853 -33.9334 0.0000 78.4599 0.0000
# 6 0.0005 0.0011 0.0000 -10.6164 0.0000 -14.3607
#
#
#
# Elastic Compliance Matrix: (Units=1/GPa)
#
#
# Indices 1 2 3 4 5 6 
#
# 1 0.013008 0.001813 -0.002312 0.000000 0.005344 0.000000
# 2 0.001813 0.011374 -0.000293 0.000001 0.001138 0.000000
# 3 -0.002312 -0.000293 0.003978 0.000000 0.000594 0.000000
# 4 0.000000 0.000001 0.000000 0.052578 0.000000 -0.038869
# 5 0.005344 0.001138 0.000594 0.000000 0.015622 0.000000
# 6 0.000000 0.000000 0.000000 -0.038869 0.000000 -0.040900
#
#
# Mechanical properties :
#
#
# Convention : Reuss Voigt Hill
#
# Bulk Modulus (GPa) = 37.34520 66.84228 52.09374
# Shear Modulus (GPa) = 75.56353 44.08525 59.82439
#
# Velocity S-wave (km/s) = 5.23768 4.00064 4.66039
# Velocity P-wave (km/s) = 7.08067 6.75331 6.91893
#
# Compressibility (1/GPa) = 0.02677720
#
# Stress axis : x y z
#
# Youngs Moduli (GPa) = 76.87451 87.91849 251.38092
#
# Poissons Ratio (x) = -0.15943 0.58115
# Poissons Ratio (y) = -0.13940 0.07369
# Poissons Ratio (z) = 0.17772 0.02577
#
# Static dielectric constant tensor:
#      x y z
#    x 2.287170 0.000000 -0.001620 
#    y 0.000000 2.119710 0.000000 
#    z -0.001620 0.000000 2.154640 
# 
# From -- ./inp_files/229323.got.cif
#   From: 2010.05.17/outbox.cif.g08.bks.cpg/sg12_115_cif.got.tgz:229323.got - 2010.06.03 13:09:07.
