data_PCOD9192423
_publ_section_title
;
Structure prediction by ZEFSAII (Michael W. Deem and Ramdas Pophale) SiO2 
 PCOD9192423
Probable space group: C 2/M
;
_chemical_formula_sum "Si O2"
_cell_formula_units_Z 56
_cell_length_a 12.845889
_cell_length_b 29.178268
_cell_length_c 8.152379
_cell_angle_alpha 90.000000
_cell_angle_beta 119.243979
_cell_angle_gamma 90.000000
_cell_volume 2666.226491
_symmetry_space_group_name_H-M "C 2/M"
_symmetry_group_IT_number 12
_symmetry_cell_setting 'monoclinic'
loop_
_space_group_symop_operation_xyz
x,y,z
-x,y,-z
-x,-y,-z
x,-y,z
1/2+x,1/2+y,z
1/2-x,1/2+y,-z
1/2-x,1/2-y,-z
1/2+x,1/2-y,z
loop_
_atom_site_type_symbol
_atom_site_label
_atom_site_fract_x
_atom_site_fract_y
_atom_site_fract_z
Si Si1 0.945065 0.053108 0.639942
Si Si2 0.873702 0.350910 0.964269
Si Si3 0.155599 0.114387 0.927144
Si Si4 0.989689 0.811479 0.802483
Si Si5 0.218894 0.124163 0.358405
Si Si6 0.817146 0.260897 0.720273
Si Si7 0.378720 0.192990 0.328826
O O1 0.819143 0.079273 0.570658
O O2 0.000000 0.056290 0.500000
O O3 0.046533 0.079871 0.820783
O O4 0.934878 0.000000 0.677202
O O5 0.774248 0.390148 0.911249
O O6 0.832019 0.310583 0.808158
O O7 0.890968 0.328647 0.158556
O O8 0.000000 0.368640 0.000000
O O9 0.107085 0.164679 0.826929
O O10 0.190785 0.113736 0.145064
O O11 0.876519 0.838697 0.646540
O O12 0.949936 0.759423 0.786527
O O13 0.000000 0.825563 0.000000
O O14 0.340569 0.152677 0.429865
O O15 0.750000 0.250000 0.500000
O O16 0.734116 0.228074 0.771028
O O17 0.500000 0.213332 0.500000
#
# Coordination Sequence:
#
# PCOD9192423 Si02
#       7
#     8   8   8   8   8   8   8
#     4  10  20  33  55  88 116 135 164 215 275 330
#     4  11  23  36  51  75 107 142 184 231 273 318
#     4   9  19  35  55  75 101 142 180 218 268 320
#     4   8  15  31  50  67  93 128 170 217 260 303
#     4   8  17  34  54  76 102 136 175 214 259 319
#     4  11  22  33  49  75 103 137 184 230 272 316
#     4  10  21  37  55  75 103 144 188 227 271 320
#
# _framework density 21.003466
#
# number of rings (size 3 to 8) (size 9 to 14) (size 15 to 20)
#    0.000    2.429    0.000    3.857    0.000    8.000 
#    0.000    0.000    0.000    0.857    0.000    0.000 
#    0.000    0.000    0.000    0.000    0.000    0.000 
#
# Total GULP energy -155881.097245 kJ/mol
# GULP energy per Si atom -5567.182044 kJ/mol
# Density = 2.095566 g / cm^3
# Si number density = 21.003466 Si / 1000 Ang^3
#
#
#
# Elastic Constant Matrix: (Units=GPa)
#
#
# Indices 1 2 3 4 5 6 
#
# 1 104.5104 18.3235 1.1916 0.0000 -2.9150 0.0000
# 2 18.3235 69.1361 -0.4689 0.0000 -3.5548 0.0000
# 3 1.1916 -0.4689 51.0152 0.0000 -3.9499 0.0000
# 4 0.0000 0.0000 0.0000 15.3296 0.0000 -8.2572
# 5 -2.9150 -3.5548 -3.9499 0.0000 20.2099 0.0000
# 6 0.0000 0.0000 0.0000 -8.2572 0.0000 19.0258
#
#
#
# Elastic Compliance Matrix: (Units=1/GPa)
#
#
# Indices 1 2 3 4 5 6 
#
# 1 0.010056 -0.002617 -0.000185 0.000000 0.000954 0.000000
# 2 -0.002617 0.015283 0.000386 0.000000 0.002386 0.000000
# 3 -0.000185 0.000386 0.019914 0.000000 0.003933 0.000000
# 4 0.000000 0.000000 0.000000 0.085135 0.000000 0.036949
# 5 0.000954 0.002386 0.003933 0.000000 0.050807 0.000000
# 6 0.000000 0.000000 0.000000 0.036949 0.000000 0.068596
#
#
# Mechanical properties :
#
#
# Convention : Reuss Voigt Hill
#
# Bulk Modulus (GPa) = 24.73935 29.19490 26.96713
# Shear Modulus (GPa) = 18.64992 24.62077 21.63534
#
# Velocity S-wave (km/s) = 2.98307 3.42749 3.21297
# Velocity P-wave (km/s) = 4.86510 5.44002 5.16057
#
# Compressibility (1/GPa) = 0.04042143
#
# Stress axis : x y z
#
# Youngs Moduli (GPa) = 99.44271 65.43119 50.21490
#
# Poissons Ratio (x) = 0.17126 0.00929
# Poissons Ratio (y) = 0.26028 -0.01940
# Poissons Ratio (z) = 0.01841 -0.02528
#
# Static dielectric constant tensor:
#      x y z
#    x 1.837990 0.000000 0.001730 
#    y 0.000000 1.787280 0.000000 
#    z 0.001730 0.000000 1.813270 
# 
# From -- ./inp_files/54797.got.cif
#   From: 2010.05.17/outbox.cif.g08.bks.cpg/sg12_28_cif.got.tgz:54797.got - 2010.06.03 13:09:07.
