data_PCOD9192098
_publ_section_title
;
Structure prediction by ZEFSAII (Michael W. Deem and Ramdas Pophale) SiO2 
 PCOD9192098
Probable space group: C 2/M
;
_chemical_formula_sum "Si O2"
_cell_formula_units_Z 40
_cell_length_a 39.936506
_cell_length_b 9.804591
_cell_length_c 5.308217
_cell_angle_alpha 90.000000
_cell_angle_beta 72.988353
_cell_angle_gamma 90.000000
_cell_volume 1987.547569
_symmetry_space_group_name_H-M "C 2/M"
_symmetry_group_IT_number 12
_symmetry_cell_setting 'monoclinic'
loop_
_space_group_symop_operation_xyz
x,y,z
-x,y,-z
-x,-y,-z
x,-y,z
1/2+x,1/2+y,z
1/2-x,1/2+y,-z
1/2-x,1/2-y,-z
1/2+x,1/2-y,z
loop_
_atom_site_type_symbol
_atom_site_label
_atom_site_fract_x
_atom_site_fract_y
_atom_site_fract_z
Si Si1 0.592792 0.165537 0.993360
Si Si2 0.866372 0.336172 0.602115
Si Si3 0.231626 0.150932 0.844698
Si Si4 0.476837 0.659863 0.800002
Si Si5 0.196684 0.651468 0.597016
O O1 0.619223 0.209341 0.159986
O O2 0.556256 0.240692 0.118420
O O3 0.588949 0.000000 0.008571
O O4 0.608329 0.203511 0.685816
O O5 0.867149 0.500000 0.614480
O O6 0.827531 0.305385 0.583634
O O7 0.199001 0.229578 0.795402
O O8 0.263212 0.133854 0.574782
O O9 0.223199 0.000000 0.961692
O O10 0.250000 0.250000 0.000000
O O11 0.500000 0.685231 0.500000
O O12 0.465904 0.500000 0.818090
O O13 0.500000 0.679666 0.000000
O O14 0.184437 0.500000 0.714808
#
# Coordination Sequence:
#
# PCOD9192098 Si02
#       5
#     8   8   8   8   8
#     4  10  20  35  56  84 111 139 179 226 267 318
#     4   9  19  34  56  81 109 143 182 222 273 328
#     4  10  20  33  53  78 105 138 183 233 280 330
#     4  10  21  37  57  80 109 146 181 215 263 322
#     4   9  19  35  54  75 102 143 184 226 277 332
#
# _framework density 20.125304
#
# number of rings (size 3 to 8) (size 9 to 14) (size 15 to 20)
#    0.000    2.400    0.000    1.800    2.800    1.600 
#    0.000    2.000    0.000    0.000    0.000    0.000 
#    0.000    0.000    0.000    0.000    0.000    0.000 
#
# Total GULP energy -111501.022111 kJ/mol
# GULP energy per Si atom -5575.051106 kJ/mol
# Density = 2.007950 g / cm^3
# Si number density = 20.125304 Si / 1000 Ang^3
#
#
#
# Elastic Constant Matrix: (Units=GPa)
#
#
# Indices 1 2 3 4 5 6 
#
# 1 90.1605 32.7177 19.5577 0.0000 3.0520 0.0000
# 2 32.7177 89.4960 21.5748 0.0000 10.4494 0.0000
# 3 19.5577 21.5748 79.9834 0.0000 8.8197 0.0000
# 4 0.0000 0.0000 0.0000 10.8499 0.0000 4.7491
# 5 3.0520 10.4494 8.8197 0.0000 31.6868 0.0000
# 6 0.0000 0.0000 0.0000 4.7491 0.0000 27.5778
#
#
#
# Elastic Compliance Matrix: (Units=1/GPa)
#
#
# Indices 1 2 3 4 5 6 
#
# 1 0.013110 -0.004374 -0.002111 0.000000 0.000767 0.000000
# 2 -0.004374 0.013721 -0.002248 0.000000 -0.003478 0.000000
# 3 -0.002111 -0.002248 0.013949 0.000000 -0.002938 0.000000
# 4 0.000000 0.000000 0.000000 0.099680 0.000000 -0.017166
# 5 0.000767 -0.003478 -0.002938 0.000000 0.033450 0.000000
# 6 0.000000 0.000000 0.000000 -0.017166 0.000000 0.039217
#
#
# Mechanical properties :
#
#
# Convention : Reuss Voigt Hill
#
# Bulk Modulus (GPa) = 42.89014 45.26003 44.07509
# Shear Modulus (GPa) = 20.97639 26.40889 23.69264
#
# Velocity S-wave (km/s) = 3.23195 3.62639 3.43484
# Velocity P-wave (km/s) = 5.94013 6.33026 6.13830
#
# Compressibility (1/GPa) = 0.02331538
#
# Stress axis : x y z
#
# Youngs Moduli (GPa) = 76.27590 72.88334 71.68953
#
# Poissons Ratio (x) = 0.31876 0.15131
# Poissons Ratio (y) = 0.33360 0.16116
# Poissons Ratio (z) = 0.16099 0.16385
#
# Static dielectric constant tensor:
#      x y z
#    x 1.704620 0.000000 -0.009170 
#    y 0.000000 1.808640 0.000000 
#    z -0.009170 0.000000 1.781110 
# 
# From -- ./inp_files/30599.got.cif
#   From: 2010.05.17/outbox.cif.g08.bks.cpg/sg12_16_cif.got.tgz:30599.got - 2010.06.03 13:09:07.
