data_PCOD9192977
_publ_section_title
;
Structure prediction by ZEFSAII (Michael W. Deem and Ramdas Pophale) SiO2 
 PCOD9192977
Probable space group: C 2/M
;
_chemical_formula_sum "Si O2"
_cell_formula_units_Z 56
_cell_length_a 22.888840
_cell_length_b 7.399840
_cell_length_c 17.242284
_cell_angle_alpha 90.000000
_cell_angle_beta 120.124002
_cell_angle_gamma 90.000000
_cell_volume 2525.966107
_symmetry_space_group_name_H-M "C 2/M"
_symmetry_group_IT_number 12
_symmetry_cell_setting 'monoclinic'
loop_
_space_group_symop_operation_xyz
x,y,z
-x,y,-z
-x,-y,-z
x,-y,z
1/2+x,1/2+y,z
1/2-x,1/2+y,-z
1/2-x,1/2-y,-z
1/2+x,1/2-y,z
loop_
_atom_site_type_symbol
_atom_site_label
_atom_site_fract_x
_atom_site_fract_y
_atom_site_fract_z
Si Si1 0.457801 0.209979 0.355431
Si Si2 0.589265 0.290010 0.237632
Si Si3 0.837786 0.279076 0.382056
Si Si4 0.704549 0.721865 0.201650
Si Si5 0.390944 0.218515 0.576465
Si Si6 0.561377 0.719469 0.831385
Si Si7 0.312600 0.715567 0.985306
O O1 0.405708 0.283966 0.383408
O O2 0.533451 0.284308 0.396435
O O3 0.425351 0.222867 0.248268
O O4 0.467188 0.000000 0.382186
O O5 0.579957 0.500000 0.211734
O O6 0.639409 0.215631 0.206679
O O7 0.622493 0.279426 0.345109
O O8 0.513573 0.214447 0.195555
O O9 0.838418 0.500000 0.380558
O O10 0.772148 0.220699 0.291277
O O11 0.841368 0.225812 0.474454
O O12 0.705133 0.500000 0.202663
O O13 0.701091 0.782725 0.110489
O O14 0.392547 0.000000 0.580161
O O15 0.560638 0.500000 0.830189
O O16 0.619230 0.782757 0.928135
O O17 0.320563 0.500000 0.983845
O O18 0.250000 0.750000 0.000000
#
# Coordination Sequence:
#
# PCOD9192977 Si02
#       7
#     8   8   8   8   8   8   8
#     4   9  16  28  48  71  94 122 156 191 230 278
#     4   9  18  33  49  67  93 124 158 191 226 272
#     4   9  16  27  45  69  94 121 156 196 233 270
#     4   9  18  31  48  69  93 123 158 193 227 271
#     4   9  17  29  47  70  94 121 155 195 234 272
#     4   9  18  31  48  70  96 123 151 190 234 272
#     4  10  20  34  52  74  97 121 151 188 232 278
#
# _framework density 22.169733999999998
#
# number of rings (size 3 to 8) (size 9 to 14) (size 15 to 20)
#    0.000    2.857    0.000    1.286    0.000    4.571 
#    0.000    4.286    0.000    5.143    0.000    5.000 
#    0.000    0.000    0.000    0.000    0.000    0.000 
#
# Total GULP energy -156358.911892 kJ/mol
# GULP energy per Si atom -5584.246853 kJ/mol
# Density = 2.211927 g / cm^3
# Si number density = 22.169734 Si / 1000 Ang^3
#
#
#
# Elastic Constant Matrix: (Units=GPa)
#
#
# Indices 1 2 3 4 5 6 
#
# 1 85.8059 -6.2841 62.2087 0.0000 -35.5655 0.0000
# 2 -6.2841 73.9347 -11.5775 0.0000 2.2315 0.0000
# 3 62.2087 -11.5775 178.7982 0.0000 -7.0732 0.0000
# 4 0.0000 0.0000 0.0000 15.3616 0.0000 -2.1235
# 5 -35.5655 2.2315 -7.0732 0.0000 24.4303 0.0000
# 6 0.0000 0.0000 0.0000 -2.1235 0.0000 1.6288
#
#
#
# Elastic Compliance Matrix: (Units=1/GPa)
#
#
# Indices 1 2 3 4 5 6 
#
# 1 0.053239 -0.000128 -0.015644 0.000000 0.072988 0.000000
# 2 -0.000128 0.013689 0.000884 0.000000 -0.001180 0.000000
# 3 -0.015644 0.000884 0.010307 0.000000 -0.019871 0.000000
# 4 0.000000 0.000000 0.000000 0.079409 0.000000 0.103528
# 5 0.072988 -0.001180 -0.019871 0.000000 0.141542 0.000000
# 6 0.000000 0.000000 0.000000 0.103528 0.000000 0.748917
#
#
# Mechanical properties :
#
#
# Convention : Reuss Voigt Hill
#
# Bulk Modulus (GPa) = 21.07055 47.47036 34.27045
# Shear Modulus (GPa) = 4.57583 27.89693 16.23638
#
# Velocity S-wave (km/s) = 1.43822 3.55115 2.70916
# Velocity P-wave (km/s) = 3.50468 6.18651 5.02771
#
# Compressibility (1/GPa) = 0.04745960
#
# Stress axis : x y z
#
# Youngs Moduli (GPa) = 18.78306 73.05321 97.02053
#
# Poissons Ratio (x) = 0.00932 1.51782
# Poissons Ratio (y) = 0.00240 -0.08577
# Poissons Ratio (z) = 0.29385 -0.06458
#
# Static dielectric constant tensor:
#      x y z
#    x 1.784900 0.000000 0.011890 
#    y 0.000000 1.857230 0.000000 
#    z 0.011890 0.000000 1.787490 
# 
# From -- ./inp_files/174783.got.cif
#   From: 2010.05.17/outbox.cif.g08.bks.cpg/sg12_88_cif.got.tgz:174783.got - 2010.06.03 13:09:07.
