data_PCOD9192012
_publ_section_title
;
Structure prediction by ZEFSAII (Michael W. Deem and Ramdas Pophale) SiO2 
 PCOD9192012
Probable space group: C 2/M
;
_chemical_formula_sum "Si O2"
_cell_formula_units_Z 56
_cell_length_a 20.845951
_cell_length_b 7.592788
_cell_length_c 29.513684
_cell_angle_alpha 90.000000
_cell_angle_beta 147.057076
_cell_angle_gamma 90.000000
_cell_volume 2540.319006
_symmetry_space_group_name_H-M "C 2/M"
_symmetry_group_IT_number 12
_symmetry_cell_setting 'monoclinic'
loop_
_space_group_symop_operation_xyz
x,y,z
-x,y,-z
-x,-y,-z
x,-y,z
1/2+x,1/2+y,z
1/2-x,1/2+y,-z
1/2-x,1/2-y,-z
1/2+x,1/2-y,z
loop_
_atom_site_type_symbol
_atom_site_label
_atom_site_fract_x
_atom_site_fract_y
_atom_site_fract_z
Si Si1 0.305363 0.288511 0.767470
Si Si2 0.243331 0.786277 0.924491
Si Si3 0.056714 0.208340 0.886232
Si Si4 0.122161 0.297512 0.589597
Si Si5 0.938532 0.211586 0.619115
Si Si6 0.199259 0.788370 0.797118
Si Si7 0.272402 0.290420 0.439823
O O1 0.305306 0.500000 0.761167
O O2 0.427231 0.218354 0.819089
O O3 0.191573 0.217068 0.672966
O O4 0.290483 0.253636 0.811566
O O5 0.131882 0.721959 0.888304
O O6 0.234992 0.724443 0.868018
O O7 0.241360 0.000000 0.923592
O O8 0.360244 0.732061 0.020738
O O9 0.043072 0.000000 0.870183
O O10 0.094126 0.500000 0.585219
O O11 0.209237 0.293226 0.598175
O O12 0.000000 0.214287 0.500000
O O13 0.851468 0.253641 0.609164
O O14 0.873210 0.275309 0.534751
O O15 0.069854 0.278909 0.705600
O O16 0.943552 0.000000 0.618366
O O17 0.190283 0.000000 0.794824
O O18 0.284826 0.500000 0.441988
#
# Coordination Sequence:
#
# PCOD9192012 Si02
#       7
#     8   8   8   8   8   8   8
#     4  10  22  37  56  81 112 148 185 227 273 328
#     4   9  19  36  59  83 107 140 181 226 275 328
#     4   9  19  37  58  81 108 142 182 223 273 330
#     4  10  21  36  55  78 107 149 190 224 272 326
#     4   9  19  35  54  76 108 146 182 222 274 330
#     4  10  21  36  57  82 109 146 183 225 277 326
#     4  10  20  33  52  80 107 141 185 232 277 318
#
# _framework density 22.044478000000002
#
# number of rings (size 3 to 8) (size 9 to 14) (size 15 to 20)
#    0.000    2.429    0.000    1.286    2.000    3.714 
#    0.000    2.857    0.000    0.000    0.000    0.000 
#    0.000    0.000    0.000    0.000    0.000    0.000 
#
# Total GULP energy -156420.107271 kJ/mol
# GULP energy per Si atom -5586.432403 kJ/mol
# Density = 2.199430 g / cm^3
# Si number density = 22.044478 Si / 1000 Ang^3
#
#
#
# Elastic Constant Matrix: (Units=GPa)
#
#
# Indices 1 2 3 4 5 6 
#
# 1 94.9822 -11.2458 52.1565 -0.0001 -16.6635 0.0010
# 2 -11.2458 49.5901 -4.4458 -0.0003 1.6367 0.0033
# 3 52.1565 -4.4458 81.1380 0.0000 1.7586 0.0006
# 4 -0.0001 -0.0003 0.0000 9.9210 -0.0001 4.6131
# 5 -16.6635 1.6367 1.7586 -0.0001 31.5456 0.0001
# 6 0.0010 0.0033 0.0006 4.6131 0.0001 16.0620
#
#
#
# Elastic Compliance Matrix: (Units=1/GPa)
#
#
# Indices 1 2 3 4 5 6 
#
# 1 0.019884 0.002991 -0.012858 0.000001 0.011065 -0.000002
# 2 0.002991 0.020754 -0.000798 0.000003 0.000548 -0.000005
# 3 -0.012858 -0.000798 0.020717 0.000000 -0.007905 0.000000
# 4 0.000001 0.000003 0.000000 0.116332 0.000001 -0.033411
# 5 0.011065 0.000548 -0.007905 0.000001 0.037957 -0.000001
# 6 -0.000002 -0.000005 0.000000 -0.033411 -0.000001 0.071854
#
#
# Mechanical properties :
#
#
# Convention : Reuss Voigt Hill
#
# Bulk Modulus (GPa) = 24.98266 33.18223 29.08244
# Shear Modulus (GPa) = 15.51978 24.12210 19.82094
#
# Velocity S-wave (km/s) = 2.65622 3.31153 3.00181
# Velocity P-wave (km/s) = 4.55684 5.45039 5.02352
#
# Compressibility (1/GPa) = 0.04002777
#
# Stress axis : x y z
#
# Youngs Moduli (GPa) = 50.29157 48.18328 48.26866
#
# Poissons Ratio (x) = -0.14413 0.62062
# Poissons Ratio (y) = -0.15044 0.03850
# Poissons Ratio (z) = 0.64663 0.03843
#
# Static dielectric constant tensor:
#      x y z
#    x 1.782560 0.000000 0.005530 
#    y 0.000000 1.863990 0.000000 
#    z 0.005530 0.000000 1.806980 
# 
# From -- ./inp_files/380717.got.cif
#   From: 2010.05.17/outbox.cif.g08.bks.cpg/sg12_191_cif.got.tgz:380717.got - 2010.06.03 13:09:07.
