data_PCOD9192724
_publ_section_title
;
Structure prediction by ZEFSAII (Michael W. Deem and Ramdas Pophale) SiO2 
 PCOD9192724
Probable space group: C 2/M
;
_chemical_formula_sum "Si O2"
_cell_formula_units_Z 50
_cell_length_a 8.522534
_cell_length_b 26.073875
_cell_length_c 10.920586
_cell_angle_alpha 90.000000
_cell_angle_beta 111.633788
_cell_angle_gamma 90.000000
_cell_volume 2255.783084
_symmetry_space_group_name_H-M "C 2/M"
_symmetry_group_IT_number 12
_symmetry_cell_setting 'monoclinic'
loop_
_space_group_symop_operation_xyz
x,y,z
-x,y,-z
-x,-y,-z
x,-y,z
1/2+x,1/2+y,z
1/2-x,1/2+y,-z
1/2-x,1/2-y,-z
1/2+x,1/2-y,z
loop_
_atom_site_type_symbol
_atom_site_label
_atom_site_fract_x
_atom_site_fract_y
_atom_site_fract_z
Si Si1 0.159583 0.854526 0.802129
Si Si2 0.500000 0.500000 0.500000
Si Si3 0.543182 0.444073 0.155584
Si Si4 0.000000 0.624470 0.000000
Si Si5 0.668548 0.315009 0.359988
Si Si6 0.000000 0.263159 0.500000
Si Si7 0.243401 0.900782 0.570321
Si Si8 0.575852 0.937892 0.773432
O O1 0.198569 0.861919 0.669726
O O2 0.102024 0.910778 0.827986
O O3 0.989329 0.822249 0.777364
O O4 0.333116 0.842667 0.920716
O O5 0.643857 0.453942 0.549205
O O6 0.541235 0.500000 0.216507
O O7 0.734443 0.424719 0.212918
O O8 0.500000 0.448225 0.000000
O O9 0.036880 0.588472 0.893040
O O10 0.857796 0.296074 0.387206
O O11 0.593736 0.272913 0.431034
O O12 0.691332 0.368877 0.436734
O O13 0.438647 0.915469 0.641100
O O14 0.566584 0.000000 0.780271
#
# Coordination Sequence:
#
# PCOD9192724 Si02
#       8
#     8   2   8   4   8   4   8   8
#     4  11  21  36  57  84 117 154 197 244 292 349
#     4  12  18  36  52  84 132 168 186 238 282 354
#     4  10  21  35  50  78 122 163 209 243 276 335
#     4  10  21  32  56  80 114 166 204 242 282 341
#     4  11  22  43  64  97 114 149 198 249 312 368
#     4  10  23  42  70  88 118 144 193 260 314 364
#     4  11  22  35  57  88 123 159 200 237 289 363
#     4  10  20  34  50  80 118 165 207 241 276 340
#
# _framework density 22.165251000000001
#
# number of rings (size 3 to 8) (size 9 to 14) (size 15 to 20)
#    0.000    1.440    5.600    0.240    3.360    0.640 
#    0.000    0.000    0.000    4.320    0.000    0.000 
#    0.000    0.000    0.000    0.000    0.000    0.000 
#
# Total GULP energy -139363.730082 kJ/mol
# GULP energy per Si atom -5574.549203 kJ/mol
# Density = 2.211480 g / cm^3
# Si number density = 22.165251 Si / 1000 Ang^3
#
#
#
# Elastic Constant Matrix: (Units=GPa)
#
#
# Indices 1 2 3 4 5 6 
#
# 1 87.8101 18.0853 50.0913 0.0000 49.2171 0.0000
# 2 18.0853 41.5553 25.0431 0.0000 19.1624 0.0000
# 3 50.0913 25.0431 97.2982 0.0000 50.0487 0.0000
# 4 0.0000 0.0000 0.0000 -0.6734 0.0000 -5.4956
# 5 49.2171 19.1624 50.0487 0.0000 59.7302 0.0000
# 6 0.0000 0.0000 0.0000 -5.4956 0.0000 -11.6761
#
#
#
# Elastic Compliance Matrix: (Units=1/GPa)
#
#
# Indices 1 2 3 4 5 6 
#
# 1 0.021825 -0.000552 -0.003400 0.000000 -0.014958 0.000000
# 2 -0.000552 0.029470 -0.004695 0.000000 -0.005065 0.000000
# 3 -0.003400 -0.004695 0.019369 0.000000 -0.011921 0.000000
# 4 0.000000 0.000000 0.000000 0.522700 0.000000 -0.246018
# 5 -0.014958 -0.005065 -0.011921 0.000000 0.040681 0.000000
# 6 0.000000 0.000000 0.000000 -0.246018 0.000000 0.030148
#
#
# Mechanical properties :
#
#
# Convention : Reuss Voigt Hill
#
# Bulk Modulus (GPa) = 18.73750 45.90032 32.31891
# Shear Modulus (GPa) = 7.15024 18.37239 12.76131
#
# Velocity S-wave (km/s) = 1.79802 2.88216 2.40205
# Velocity P-wave (km/s) = 3.57525 5.64171 4.72289
#
# Compressibility (1/GPa) = 0.05336891
#
# Stress axis : x y z
#
# Youngs Moduli (GPa) = 45.81872 33.93281 51.62938
#
# Poissons Ratio (x) = 0.01873 0.17554
# Poissons Ratio (y) = 0.02530 0.24243
# Poissons Ratio (z) = 0.15578 0.15933
#
# Static dielectric constant tensor:
#      x y z
#    x 1.869340 0.000000 -0.017020 
#    y 0.000000 1.811390 0.000000 
#    z -0.017020 0.000000 1.946420 
# 
# From -- ./inp_files/199468.got.cif
#   From: 2010.05.17/outbox.cif.g08.bks.cpg/sg12_100_cif.got.tgz:199468.got - 2010.06.03 13:09:07.
