data_PCOD9192072
_publ_section_title
;
Structure prediction by ZEFSAII (Michael W. Deem and Ramdas Pophale) SiO2 
 PCOD9192072
Probable space group: C 2/M
;
_chemical_formula_sum "Si O2"
_cell_formula_units_Z 50
_cell_length_a 19.259233
_cell_length_b 7.622292
_cell_length_c 21.745113
_cell_angle_alpha 90.000000
_cell_angle_beta 53.757415
_cell_angle_gamma 90.000000
_cell_volume 2574.553874
_symmetry_space_group_name_H-M "C 2/M"
_symmetry_group_IT_number 12
_symmetry_cell_setting 'monoclinic'
loop_
_space_group_symop_operation_xyz
x,y,z
-x,y,-z
-x,-y,-z
x,-y,z
1/2+x,1/2+y,z
1/2-x,1/2+y,-z
1/2-x,1/2-y,-z
1/2+x,1/2-y,z
loop_
_atom_site_type_symbol
_atom_site_label
_atom_site_fract_x
_atom_site_fract_y
_atom_site_fract_z
Si Si1 0.620572 0.292027 0.109472
Si Si2 0.564977 0.798328 0.778250
Si Si3 0.500000 0.000000 0.500000
Si Si4 0.685601 0.298310 0.605444
Si Si5 0.436783 0.202361 0.084547
Si Si6 0.122224 0.794565 0.505295
Si Si7 0.306753 0.709183 0.058689
O O1 0.607500 0.500000 0.113539
O O2 0.536465 0.209185 0.182913
O O3 0.708019 0.254284 0.099480
O O4 0.640017 0.228026 0.029496
O O5 0.623383 0.712371 0.696378
O O6 0.568087 0.718059 0.845367
O O7 0.593629 0.000000 0.766978
O O8 0.561992 0.157135 0.500339
O O9 0.707500 0.500000 0.581087
O O10 0.777574 0.208842 0.569378
O O11 0.634909 0.237674 0.570655
O O12 0.345279 0.209015 0.099443
O O13 0.464782 0.000000 0.078196
O O14 0.500000 0.284138 0.000000
O O15 0.092408 0.000000 0.518308
O O16 0.315546 0.500000 0.056994
#
# Coordination Sequence:
#
# PCOD9192072 Si02
#       7
#     8   8   2   8   8   8   8
#     4  10  20  34  52  77 106 147 194 251 309 372
#     4  11  22  35  59  87 117 156 208 256 305 365
#     4  12  22  40  72 110 140 174 206 268 320 382
#     4  10  21  41  66  96 131 173 217 261 309 386
#     4  10  20  35  53  78 111 150 197 257 312 363
#     4  10  22  41  70 104 138 173 215 257 316 387
#     4  10  20  33  53  75 105 143 194 252 313 369
#
# _framework density 19.420839000000001
#
# number of rings (size 3 to 8) (size 9 to 14) (size 15 to 20)
#    0.000    1.760    2.400    2.160    2.240    2.880 
#    0.000    1.600    3.520    5.760    0.000    0.000 
#    0.000    0.000    0.000    0.000    0.000    0.000 
#
# Total GULP energy -139167.820631 kJ/mol
# GULP energy per Si atom -5566.712825 kJ/mol
# Density = 1.937664 g / cm^3
# Si number density = 19.420839 Si / 1000 Ang^3
#
#
#
# Elastic Constant Matrix: (Units=GPa)
#
#
# Indices 1 2 3 4 5 6 
#
# 1 132.9463 36.9715 53.7092 0.0002 7.6467 0.0017
# 2 36.9715 98.9735 12.7103 0.0000 6.1323 0.0023
# 3 53.7092 12.7103 120.7618 0.0000 -2.9848 0.0002
# 4 0.0002 0.0000 0.0000 15.6815 -0.0001 -4.6501
# 5 7.6467 6.1323 -2.9848 -0.0001 13.3119 0.0002
# 6 0.0017 0.0023 0.0002 -4.6501 0.0002 30.3838
#
#
#
# Elastic Compliance Matrix: (Units=1/GPa)
#
#
# Indices 1 2 3 4 5 6 
#
# 1 0.010494 -0.002993 -0.004492 0.000000 -0.005657 0.000000
# 2 -0.002993 0.011436 0.000040 0.000000 -0.003540 -0.000001
# 3 -0.004492 0.000040 0.010395 0.000000 0.004893 0.000000
# 4 0.000000 0.000000 0.000000 0.066801 0.000000 0.010224
# 5 -0.005657 -0.003540 0.004893 0.000000 0.081098 0.000000
# 6 0.000000 -0.000001 0.000000 0.010224 0.000000 0.034477
#
#
# Mechanical properties :
#
#
# Convention : Reuss Voigt Hill
#
# Bulk Modulus (GPa) = 57.35430 62.16262 59.75846
# Shear Modulus (GPa) = 21.24017 28.49483 24.86750
#
# Velocity S-wave (km/s) = 3.31067 3.83460 3.58223
# Velocity P-wave (km/s) = 6.64910 7.18910 6.92437
#
# Compressibility (1/GPa) = 0.01743548
#
# Stress axis : x y z
#
# Youngs Moduli (GPa) = 95.29008 87.44420 96.19623
#
# Poissons Ratio (x) = 0.26170 0.43213
# Poissons Ratio (y) = 0.28518 -0.00384
# Poissons Ratio (z) = 0.42806 -0.00349
#
# Static dielectric constant tensor:
#      x y z
#    x 1.702260 0.000000 0.015540 
#    y 0.000000 1.741370 0.000000 
#    z 0.015540 0.000000 1.683270 
# 
# From -- ./inp_files/274961.got.cif
#   From: 2010.05.17/outbox.cif.g08.bks.cpg/sg12_138_cif.got.tgz:274961.got - 2010.06.03 13:09:07.
