data_PCOD9192416
_publ_section_title
;
Structure prediction by ZEFSAII (Michael W. Deem and Ramdas Pophale) SiO2 
 PCOD9192416
Probable space group: C 2/M
;
_chemical_formula_sum "Si O2"
_cell_formula_units_Z 64
_cell_length_a 30.005649
_cell_length_b 7.835547
_cell_length_c 13.178463
_cell_angle_alpha 90.000000
_cell_angle_beta 101.669592
_cell_angle_gamma 90.000000
_cell_volume 3034.354350
_symmetry_space_group_name_H-M "C 2/M"
_symmetry_group_IT_number 12
_symmetry_cell_setting 'monoclinic'
loop_
_space_group_symop_operation_xyz
x,y,z
-x,y,-z
-x,-y,-z
x,-y,z
1/2+x,1/2+y,z
1/2-x,1/2+y,-z
1/2-x,1/2-y,-z
1/2+x,1/2-y,z
loop_
_atom_site_type_symbol
_atom_site_label
_atom_site_fract_x
_atom_site_fract_y
_atom_site_fract_z
Si Si1 0.050585 0.205912 0.046841
Si Si2 0.694324 0.200739 0.829500
Si Si3 0.353017 0.707476 0.399826
Si Si4 0.547215 0.292019 0.475119
Si Si5 0.082428 0.791893 0.279302
Si Si6 0.319545 0.703192 0.596683
Si Si7 0.789226 0.696904 0.787580
Si Si8 0.855214 0.294239 0.989705
O O1 0.065821 0.271182 0.164048
O O2 0.091607 0.250715 0.990442
O O3 0.048458 0.000000 0.049793
O O4 0.000000 0.268742 0.000000
O O5 0.663790 0.225945 0.715374
O O6 0.742658 0.284670 0.827830
O O7 0.702892 0.000000 0.847274
O O8 0.669589 0.266663 0.919414
O O9 0.351303 0.500000 0.394867
O O10 0.405234 0.757686 0.449396
O O11 0.321670 0.766109 0.481464
O O12 0.500000 0.230299 0.500000
O O13 0.546864 0.500000 0.478834
O O14 0.551197 0.242263 0.359365
O O15 0.133184 0.736078 0.330939
O O16 0.083282 0.000000 0.276487
O O17 0.321478 0.500000 0.587953
O O18 0.283875 0.738202 0.669641
O O19 0.800138 0.500000 0.780068
O O20 0.829007 0.774910 0.877130
O O21 0.851388 0.500000 0.986634
#
# Coordination Sequence:
#
# PCOD9192416 Si02
#       8
#     8   8   8   8   8   8   8   8
#     4  10  20  33  55  87 115 144 186 233 278 327
#     4  11  24  40  57  79 113 153 186 227 288 343
#     4   9  19  35  55  82 113 146 187 231 277 330
#     4   8  14  26  49  78 107 142 180 221 270 322
#     4   8  14  27  46  72 107 141 175 217 267 319
#     4   9  17  33  57  80 108 147 183 224 278 331
#     4  11  22  37  60  86 108 139 192 240 278 334
#     4  10  23  41  58  80 112 150 190 231 280 339
#
# _framework density 21.091801
#
# number of rings (size 3 to 8) (size 9 to 14) (size 15 to 20)
#    0.000    2.500    1.250    2.625    0.000    3.750 
#    0.000    2.500    0.000    0.375    0.000    0.000 
#    0.000    0.000    0.000    0.000    0.000    0.000 
#
# Total GULP energy -178506.833179 kJ/mol
# GULP energy per Si atom -5578.338537 kJ/mol
# Density = 2.104380 g / cm^3
# Si number density = 21.091801 Si / 1000 Ang^3
#
#
#
# Elastic Constant Matrix: (Units=GPa)
#
#
# Indices 1 2 3 4 5 6 
#
# 1 107.5242 -5.9218 39.4479 0.0000 -19.5318 0.0000
# 2 -5.9218 25.5914 -1.1337 0.0000 -0.4491 0.0000
# 3 39.4479 -1.1337 91.9101 0.0000 -16.4381 0.0000
# 4 0.0000 0.0000 0.0000 111.2178 0.0000 -250.0777
# 5 -19.5318 -0.4491 -16.4381 0.0000 36.2500 0.0000
# 6 0.0000 0.0000 0.0000 -250.0777 0.0000 682.4695
#
#
#
# Elastic Compliance Matrix: (Units=1/GPa)
#
#
# Indices 1 2 3 4 5 6 
#
# 1 0.011812 0.002624 -0.004237 0.000000 0.004476 0.000000
# 2 0.002624 0.039699 -0.000322 0.000000 0.001760 0.000000
# 3 -0.004237 -0.000322 0.013370 0.000000 0.003776 0.000000
# 4 0.000000 0.000000 0.000000 0.051068 0.000000 0.018713
# 5 0.004476 0.001760 0.003776 0.000000 0.031732 0.000000
# 6 0.000000 0.000000 0.000000 0.018713 0.000000 0.008322
#
#
# Mechanical properties :
#
#
# Convention : Reuss Voigt Hill
#
# Bulk Modulus (GPa) = 16.39010 32.20117 24.29564
# Shear Modulus (GPa) = 27.74530 178.82967 103.28748
#
# Velocity S-wave (km/s) = 3.63085 9.21794 7.00548
# Velocity P-wave (km/s) = 5.03639 11.33994 8.77381
#
# Compressibility (1/GPa) = 0.06101243
#
# Stress axis : x y z
#
# Youngs Moduli (GPa) = 84.65828 25.18924 74.79401
#
# Poissons Ratio (x) = -0.06610 0.31690
# Poissons Ratio (y) = -0.22216 0.02407
# Poissons Ratio (z) = 0.35869 0.00811
#
# Static dielectric constant tensor:
#      x y z
#    x 1.764850 0.000000 -0.016840 
#    y 0.000000 1.770110 0.000000 
#    z -0.016840 0.000000 1.783810 
# 
# From -- ./inp_files/187607.got.cif
#   From: 2010.05.17/outbox.cif.g08.bks.cpg/sg12_94_cif.got.tgz:187607.got - 2010.06.03 13:09:07.
