data_PCOD9192822
_publ_section_title
;
Structure prediction by ZEFSAII (Michael W. Deem and Ramdas Pophale) SiO2 
 PCOD9192822
Probable space group: C 2/M
;
_chemical_formula_sum "Si O2"
_cell_formula_units_Z 56
_cell_length_a 29.415540
_cell_length_b 9.644922
_cell_length_c 10.042579
_cell_angle_alpha 90.000000
_cell_angle_beta 114.099417
_cell_angle_gamma 90.000000
_cell_volume 2600.846198
_symmetry_space_group_name_H-M "C 2/M"
_symmetry_group_IT_number 12
_symmetry_cell_setting 'monoclinic'
loop_
_space_group_symop_operation_xyz
x,y,z
-x,y,-z
-x,-y,-z
x,-y,z
1/2+x,1/2+y,z
1/2-x,1/2+y,-z
1/2-x,1/2-y,-z
1/2+x,1/2-y,z
loop_
_atom_site_type_symbol
_atom_site_label
_atom_site_fract_x
_atom_site_fract_y
_atom_site_fract_z
Si Si1 0.837471 0.843935 0.211033
Si Si2 0.203872 0.654466 0.483284
Si Si3 0.861468 0.159722 0.939389
Si Si4 0.998812 0.162579 0.657286
Si Si5 0.251642 0.845431 0.174172
Si Si6 0.117192 0.839329 0.451379
Si Si7 0.544868 0.164473 0.948410
O O1 0.865781 0.840960 0.105740
O O2 0.788465 0.751656 0.136352
O O3 0.871293 0.808551 0.378424
O O4 0.820527 0.000000 0.218466
O O5 0.203508 0.500000 0.422644
O O6 0.250000 0.750000 0.500000
O O7 0.215691 0.639293 0.653622
O O8 0.152342 0.737610 0.409856
O O9 0.905061 0.258713 0.942324
O O10 0.866919 0.000000 0.898613
O O11 0.803709 0.203745 0.850130
O O12 0.941462 0.173870 0.635905
O O13 0.000000 0.193710 0.500000
O O14 0.029027 0.263793 0.790054
O O15 0.014451 0.000000 0.690677
O O16 0.244547 0.000000 0.107986
O O17 0.131294 0.000000 0.442420
O O18 0.553087 0.000000 0.941822
O O19 0.500000 0.184674 0.000000
#
# Coordination Sequence:
#
# PCOD9192822 Si02
#       7
#     8   8   8   8   8   8   8
#     4   9  17  31  54  84 115 143 175 220 276 341
#     4  10  20  34  51  74 106 142 182 226 273 331
#     4  10  20  36  58  81 108 147 191 233 282 341
#     4  10  21  40  67  94 118 150 197 248 297 355
#     4   9  19  33  51  79 111 141 178 223 273 336
#     4   9  18  33  54  81 111 142 178 225 282 340
#     4  11  26  44  59  83 120 158 201 251 300 352
#
# _framework density 21.531454
#
# number of rings (size 3 to 8) (size 9 to 14) (size 15 to 20)
#    0.000    2.286    0.000    2.143    0.000    7.143 
#    0.000    7.143    0.000    0.000    0.000    0.000 
#    0.000    0.000    0.000    0.000    0.000    0.000 
#
# Total GULP energy -156248.121556 kJ/mol
# GULP energy per Si atom -5580.290056 kJ/mol
# Density = 2.148245 g / cm^3
# Si number density = 21.531454 Si / 1000 Ang^3
#
#
#
# Elastic Constant Matrix: (Units=GPa)
#
#
# Indices 1 2 3 4 5 6 
#
# 1 114.9694 78.2846 11.8843 0.0000 22.2859 0.0000
# 2 78.2846 108.0384 19.5340 0.0000 17.1270 0.0000
# 3 11.8843 19.5340 68.1921 0.0000 13.3363 0.0000
# 4 0.0000 0.0000 0.0000 14.5976 0.0000 4.2576
# 5 22.2859 17.1270 13.3363 0.0000 34.2932 0.0000
# 6 0.0000 0.0000 0.0000 4.2576 0.0000 31.4455
#
#
#
# Elastic Compliance Matrix: (Units=1/GPa)
#
#
# Indices 1 2 3 4 5 6 
#
# 1 0.018292 -0.012559 0.001632 0.000000 -0.006250 0.000000
# 2 -0.012559 0.018947 -0.003230 0.000000 -0.000045 0.000000
# 3 0.001632 -0.003230 0.016448 0.000000 -0.005844 0.000000
# 4 0.000000 0.000000 0.000000 0.071321 0.000000 -0.009657
# 5 -0.006250 -0.000045 -0.005844 0.000000 0.035517 0.000000
# 6 0.000000 0.000000 0.000000 -0.009657 0.000000 0.033109
#
#
# Mechanical properties :
#
#
# Convention : Reuss Voigt Hill
#
# Bulk Modulus (GPa) = 39.41065 56.73397 48.07231
# Shear Modulus (GPa) = 21.70080 28.16707 24.93394
#
# Velocity S-wave (km/s) = 3.17813 3.62080 3.40667
# Velocity P-wave (km/s) = 5.64011 6.62471 6.15214
#
# Compressibility (1/GPa) = 0.02537385
#
# Stress axis : x y z
#
# Youngs Moduli (GPa) = 54.66760 52.77786 60.79696
#
# Poissons Ratio (x) = 0.66283 -0.09922
# Poissons Ratio (y) = 0.68657 0.19638
# Poissons Ratio (z) = -0.08921 0.17047
#
# Static dielectric constant tensor:
#      x y z
#    x 1.781460 0.000000 -0.034690 
#    y 0.000000 1.823600 0.000000 
#    z -0.034690 0.000000 1.849190 
# 
# From -- ./inp_files/187263.got.cif
#   From: 2010.05.17/outbox.cif.g08.bks.cpg/sg12_94_cif.got.tgz:187263.got - 2010.06.03 13:09:07.
