data_PCOD9192136
_publ_section_title
;
Structure prediction by ZEFSAII (Michael W. Deem and Ramdas Pophale) SiO2 
 PCOD9192136
Probable space group: C 2/M
;
_chemical_formula_sum "Si O2"
_cell_formula_units_Z 64
_cell_length_a 20.278192
_cell_length_b 8.769389
_cell_length_c 24.307045
_cell_angle_alpha 90.000000
_cell_angle_beta 121.372249
_cell_angle_gamma 90.000000
_cell_volume 3690.527374
_symmetry_space_group_name_H-M "C 2/M"
_symmetry_group_IT_number 12
_symmetry_cell_setting 'monoclinic'
loop_
_space_group_symop_operation_xyz
x,y,z
-x,y,-z
-x,-y,-z
x,-y,z
1/2+x,1/2+y,z
1/2-x,1/2+y,-z
1/2-x,1/2-y,-z
1/2+x,1/2-y,z
loop_
_atom_site_type_symbol
_atom_site_label
_atom_site_fract_x
_atom_site_fract_y
_atom_site_fract_z
Si Si1 0.832177 0.682290 0.052605
Si Si2 0.074560 0.682841 0.802970
Si Si3 0.980416 0.816021 0.053385
Si Si4 0.927292 0.181872 0.803279
Si Si5 0.280232 0.179823 0.456493
Si Si6 0.036508 0.318876 0.458418
Si Si7 0.344845 0.818780 0.672128
Si Si8 0.507239 0.681590 0.328691
O O1 0.830840 0.500000 0.046545
O O2 0.853242 0.717061 0.125884
O O3 0.902536 0.745592 0.045562
O O4 0.750000 0.750000 0.000000
O O5 0.064735 0.500000 0.796719
O O6 0.003305 0.759301 0.804463
O O7 0.064109 0.749996 0.737565
O O8 0.052619 0.780083 0.125075
O O9 0.970850 0.000000 0.049934
O O10 0.000000 0.767554 0.000000
O O11 0.858794 0.261749 0.740372
O O12 0.920126 0.000000 0.794629
O O13 0.250000 0.250000 0.500000
O O14 0.371740 0.200430 0.496023
O O15 0.235041 0.261140 0.387701
O O16 0.262865 0.000000 0.447204
O O17 0.020749 0.500000 0.444286
O O18 0.006786 0.232508 0.391674
O O19 0.000000 0.268171 0.500000
O O20 0.413910 0.748484 0.664473
O O21 0.350942 0.000000 0.671797
O O22 0.508495 0.500000 0.323909
#
# Coordination Sequence:
#
# PCOD9192136 Si02
#       8
#     8   8   8   8   8   8   8   8
#     4  10  20  33  53  80 108 140 176 220 265 311
#     4   9  17  30  49  74 103 134 173 214 259 309
#     4   9  18  33  54  79 108 141 177 217 261 316
#     4   9  16  28  48  75 104 134 172 215 259 306
#     4  11  21  34  55  81 106 133 170 214 260 307
#     4  10  22  39  57  76 103 139 175 210 255 314
#     4  11  20  31  50  76 107 137 170 217 261 304
#     4  11  20  31  52  79 105 134 171 216 261 306
#
# _framework density 17.341695000000001
#
# number of rings (size 3 to 8) (size 9 to 14) (size 15 to 20)
#    0.000    2.000    1.250    5.250    0.000    3.000 
#    0.000    0.000    2.750    0.000    0.000    0.000 
#    0.000    0.000    0.000    0.000    0.000    0.000 
#
# Total GULP energy -178432.958931 kJ/mol
# GULP energy per Si atom -5576.029967 kJ/mol
# Density = 1.730222 g / cm^3
# Si number density = 17.341695 Si / 1000 Ang^3
#
#
#
# Elastic Constant Matrix: (Units=GPa)
#
#
# Indices 1 2 3 4 5 6 
#
# 1 44.6381 37.5701 41.6715 0.0000 -18.0462 0.0000
# 2 37.5701 87.7590 67.8957 0.0000 -3.4287 0.0000
# 3 41.6715 67.8957 174.7505 0.0000 -16.4555 0.0000
# 4 0.0000 0.0000 0.0000 31.3275 0.0000 -0.1988
# 5 -18.0462 -3.4287 -16.4555 0.0000 23.4400 0.0000
# 6 0.0000 0.0000 0.0000 -0.1988 0.0000 17.1023
#
#
#
# Elastic Compliance Matrix: (Units=1/GPa)
#
#
# Indices 1 2 3 4 5 6 
#
# 1 0.059904 -0.022882 -0.001464 0.000000 0.041745 0.000000
# 2 -0.022882 0.025140 -0.006022 0.000000 -0.018167 0.000000
# 3 -0.001464 -0.006022 0.008804 0.000000 0.004173 0.000000
# 4 0.000000 0.000000 0.000000 0.031923 0.000000 0.000371
# 5 0.041745 -0.018167 0.004173 0.000000 0.075073 0.000000
# 6 0.000000 0.000000 0.000000 0.000371 0.000000 0.058476
#
#
# Mechanical properties :
#
#
# Convention : Reuss Voigt Hill
#
# Bulk Modulus (GPa) = 30.19937 66.82467 48.51202
# Shear Modulus (GPa) = 15.10150 25.04132 20.07141
#
# Velocity S-wave (km/s) = 2.95417 3.80412 3.40576
# Velocity P-wave (km/s) = 5.39335 7.61005 6.59549
#
# Compressibility (1/GPa) = 0.03311328
#
# Stress axis : x y z
#
# Youngs Moduli (GPa) = 16.69333 39.77764 113.58430
#
# Poissons Ratio (x) = 0.91019 0.16625
# Poissons Ratio (y) = 0.38198 0.68397
# Poissons Ratio (z) = 0.02443 0.23953
#
# Static dielectric constant tensor:
#      x y z
#    x 1.568760 0.000000 -0.008280 
#    y 0.000000 1.582180 0.000000 
#    z -0.008280 0.000000 1.636620 
# 
# From -- ./inp_files/365213.got.cif
#   From: 2010.05.17/outbox.cif.g08.bks.cpg/sg12_183_cif.got.tgz:365213.got - 2010.06.03 13:09:07.
