data_PCOD9192222
_publ_section_title
;
Structure prediction by ZEFSAII (Michael W. Deem and Ramdas Pophale) SiO2 
 PCOD9192222
Probable space group: C 2/M
;
_chemical_formula_sum "Si O2"
_cell_formula_units_Z 64
_cell_length_a 20.675822
_cell_length_b 13.653181
_cell_length_c 15.099110
_cell_angle_alpha 90.000000
_cell_angle_beta 52.750615
_cell_angle_gamma 90.000000
_cell_volume 3392.858022
_symmetry_space_group_name_H-M "C 2/M"
_symmetry_group_IT_number 12
_symmetry_cell_setting 'monoclinic'
loop_
_space_group_symop_operation_xyz
x,y,z
-x,y,-z
-x,-y,-z
x,-y,z
1/2+x,1/2+y,z
1/2-x,1/2+y,-z
1/2-x,1/2-y,-z
1/2+x,1/2-y,z
loop_
_atom_site_type_symbol
_atom_site_label
_atom_site_fract_x
_atom_site_fract_y
_atom_site_fract_z
Si Si1 0.557519 0.224057 0.186716
Si Si2 0.247976 0.383475 0.780696
Si Si3 0.192485 0.382958 0.172744
Si Si4 0.318402 0.383448 0.910957
Si Si5 0.166267 0.882636 0.814214
Si Si6 0.222319 0.117445 0.438641
Si Si7 0.132056 0.233853 0.660224
Si Si8 0.912840 0.712641 0.033963
O O1 0.606609 0.167886 0.223004
O O2 0.595149 0.332604 0.151039
O O3 0.460754 0.230373 0.268768
O O4 0.586567 0.180561 0.068296
O O5 0.242368 0.500000 0.790214
O O6 0.286417 0.350458 0.841159
O O7 0.293738 0.360784 0.651816
O O8 0.157708 0.341089 0.854227
O O9 0.181104 0.500000 0.178818
O O10 0.243337 0.362062 0.220496
O O11 0.254367 0.356137 0.040845
O O12 0.325281 0.500000 0.907227
O O13 0.149187 0.831579 0.734085
O O14 0.106409 0.827457 0.932698
O O15 0.155487 0.000000 0.820589
O O16 0.156175 0.165774 0.557308
O O17 0.306774 0.173506 0.389844
O O18 0.228062 0.000000 0.445713
O O19 0.000000 0.689833 0.000000
#
# Coordination Sequence:
#
# PCOD9192222 Si02
#       8
#     8   8   8   8   8   8   8   8
#     4  12  22  35  59  89 127 158 192 256 303 354
#     4  10  20  37  60  82 112 157 201 245 296 358
#     4  10  21  36  58  88 124 165 200 236 297 372
#     4  10  20  33  53  84 119 158 196 234 294 363
#     4  11  22  37  57  85 120 161 200 238 292 362
#     4  10  22  43  66  84 113 157 208 254 297 353
#     4  11  24  41  62  91 116 155 205 253 308 354
#     4  12  21  34  52  88 125 154 194 245 306 364
#
# _framework density 18.863153000000001
#
# number of rings (size 3 to 8) (size 9 to 14) (size 15 to 20)
#    0.000    1.250    5.000    1.500    0.000    2.000 
#    0.000    0.625    0.000    2.250    0.000    4.375 
#    0.000    0.000    0.000    0.000    0.000    0.000 
#
# Total GULP energy -178545.493810 kJ/mol
# GULP energy per Si atom -5579.546682 kJ/mol
# Density = 1.882022 g / cm^3
# Si number density = 18.863153 Si / 1000 Ang^3
#
#
#
# Elastic Constant Matrix: (Units=GPa)
#
#
# Indices 1 2 3 4 5 6 
#
# 1 85.8995 10.6336 31.9914 0.0000 3.6039 0.0000
# 2 10.6336 41.5098 17.8681 0.0000 6.2854 0.0000
# 3 31.9914 17.8681 88.6242 0.0000 4.0132 0.0000
# 4 0.0000 0.0000 0.0000 21.9740 0.0000 9.2042
# 5 3.6039 6.2854 4.0132 0.0000 22.1265 0.0000
# 6 0.0000 0.0000 0.0000 9.2042 0.0000 19.8826
#
#
#
# Elastic Compliance Matrix: (Units=1/GPa)
#
#
# Indices 1 2 3 4 5 6 
#
# 1 0.013555 -0.001352 -0.004575 0.000000 -0.000994 0.000000
# 2 -0.001352 0.027502 -0.004752 0.000000 -0.006730 0.000000
# 3 -0.004575 -0.004752 0.013913 0.000000 -0.000428 0.000000
# 4 0.000000 0.000000 0.000000 0.056455 0.000000 -0.026135
# 5 -0.000994 -0.006730 -0.000428 0.000000 0.047346 0.000000
# 6 0.000000 0.000000 0.000000 -0.026135 0.000000 0.062394
#
#
# Mechanical properties :
#
#
# Convention : Reuss Voigt Hill
#
# Bulk Modulus (GPa) = 29.75312 37.44664 33.59988
# Shear Modulus (GPa) = 19.70624 23.16596 21.43610
#
# Velocity S-wave (km/s) = 3.23568 3.50824 3.37471
# Velocity P-wave (km/s) = 5.45590 6.02537 5.74770
#
# Compressibility (1/GPa) = 0.03360992
#
# Stress axis : x y z
#
# Youngs Moduli (GPa) = 73.77583 36.36142 71.87725
#
# Poissons Ratio (x) = 0.04917 0.32886
# Poissons Ratio (y) = 0.09977 0.34155
# Poissons Ratio (z) = 0.33754 0.17278
#
# Static dielectric constant tensor:
#      x y z
#    x 1.678790 0.000000 0.049120 
#    y 0.000000 1.683040 0.000000 
#    z 0.049120 0.000000 1.638810 
# 
# From -- ./inp_files/225270.got.cif
#   From: 2010.05.17/outbox.cif.g08.bks.cpg/sg12_113_cif.got.tgz:225270.got - 2010.06.03 13:09:07.
