data_PCOD9192472
_publ_section_title
;
Structure prediction by ZEFSAII (Michael W. Deem and Ramdas Pophale) SiO2 
 PCOD9192472
Probable space group: C 2/M
;
_chemical_formula_sum "Si O2"
_cell_formula_units_Z 48
_cell_length_a 20.652421
_cell_length_b 8.826881
_cell_length_c 27.630070
_cell_angle_alpha 90.000000
_cell_angle_beta 32.875472
_cell_angle_gamma 90.000000
_cell_volume 2734.085160
_symmetry_space_group_name_H-M "C 2/M"
_symmetry_group_IT_number 12
_symmetry_cell_setting 'monoclinic'
loop_
_space_group_symop_operation_xyz
x,y,z
-x,y,-z
-x,-y,-z
x,-y,z
1/2+x,1/2+y,z
1/2-x,1/2+y,-z
1/2-x,1/2-y,-z
1/2+x,1/2-y,z
loop_
_atom_site_type_symbol
_atom_site_label
_atom_site_fract_x
_atom_site_fract_y
_atom_site_fract_z
Si Si1 0.750283 0.318311 0.553149
Si Si2 0.619481 0.317818 0.073432
Si Si3 0.531986 0.682463 0.925684
Si Si4 0.003777 0.318177 0.441774
Si Si5 0.250787 0.180309 0.266275
Si Si6 0.900688 0.681670 0.267711
O O1 0.738154 0.500000 0.559515
O O2 0.750000 0.250000 0.500000
O O3 0.878660 0.280228 0.495846
O O4 0.648867 0.248912 0.651400
O O5 0.622898 0.500000 0.074559
O O6 0.565601 0.276481 0.054200
O O7 0.524919 0.252283 0.171504
O O8 0.750000 0.250000 0.000000
O O9 0.540911 0.500000 0.919888
O O10 0.656961 0.750480 0.829748
O O11 0.500000 0.731813 0.000000
O O12 0.017901 0.500000 0.432060
O O13 0.000000 0.268216 0.500000
O O14 0.118599 0.245026 0.345041
O O15 0.305167 0.219819 0.285153
O O16 0.249811 0.000000 0.262794
O O17 0.910861 0.500000 0.264223
#
# Coordination Sequence:
#
# PCOD9192472 Si02
#       6
#     8   8   8   8   8   8
#     4  11  23  39  58  82 114 150 185 229 281 331
#     4  10  20  36  59  84 110 144 187 232 278 333
#     4   9  19  37  59  81 109 146 184 226 276 331
#     4  10  20  36  59  83 109 145 188 228 269 330
#     4  10  20  33  56  87 114 143 182 233 279 322
#     4  10  20  36  58  83 112 147 187 230 279 334
#
# _framework density 17.556146999999999
#
# number of rings (size 3 to 8) (size 9 to 14) (size 15 to 20)
#    0.000    2.000    1.667    2.000    0.000    4.000 
#    3.000    0.000    0.000    0.000    0.000    0.000 
#    0.000    0.000    0.000    0.000    0.000    0.000 
#
# Total GULP energy -133994.818553 kJ/mol
# GULP energy per Si atom -5583.117440 kJ/mol
# Density = 1.751619 g / cm^3
# Si number density = 17.556147 Si / 1000 Ang^3
#
#
#
# Elastic Constant Matrix: (Units=GPa)
#
#
# Indices 1 2 3 4 5 6 
#
# 1 105.9799 49.0042 94.7708 0.0000 10.1159 0.0000
# 2 49.0042 42.3198 58.5351 -0.0001 -0.3390 0.0003
# 3 94.7708 58.5351 179.7784 0.0000 7.3571 0.0000
# 4 0.0000 -0.0001 0.0000 31.8488 0.0000 -1.5010
# 5 10.1159 -0.3390 7.3571 0.0000 37.0929 0.0000
# 6 0.0000 0.0003 0.0000 -1.5010 0.0000 25.7978
#
#
#
# Elastic Compliance Matrix: (Units=1/GPa)
#
#
# Indices 1 2 3 4 5 6 
#
# 1 0.025036 -0.020208 -0.006383 0.000000 -0.005746 0.000000
# 2 -0.020208 0.059680 -0.009101 0.000000 0.007861 -0.000001
# 3 -0.006383 -0.009101 0.011919 0.000000 -0.000706 0.000000
# 4 0.000000 0.000000 0.000000 0.031485 0.000000 0.001832
# 5 -0.005746 0.007861 -0.000706 0.000000 0.028738 0.000000
# 6 0.000000 -0.000001 0.000000 0.001832 0.000000 0.038870
#
#
# Mechanical properties :
#
#
# Convention : Reuss Voigt Hill
#
# Bulk Modulus (GPa) = 39.60051 81.41092 60.50571
# Shear Modulus (GPa) = 18.14695 27.33244 22.73970
#
# Velocity S-wave (km/s) = 3.21853 3.94999 3.60287
# Velocity P-wave (km/s) = 6.03468 8.20217 7.20045
#
# Compressibility (1/GPa) = 0.02525220
#
# Stress axis : x y z
#
# Youngs Moduli (GPa) = 39.94215 16.75612 83.89714
#
# Poissons Ratio (x) = 0.33860 0.53553
# Poissons Ratio (y) = 0.80714 0.76351
# Poissons Ratio (z) = 0.25496 0.15249
#
# Static dielectric constant tensor:
#      x y z
#    x 1.592180 0.000000 0.004660 
#    y 0.000000 1.583610 0.000000 
#    z 0.004660 0.000000 1.567540 
# 
# From -- ./inp_files/320330.got.cif
#   From: 2010.05.17/outbox.cif.g08.bks.cpg/sg12_161_cif.got.tgz:320330.got - 2010.06.03 13:09:07.
