data_PCOD9192645
_publ_section_title
;
Structure prediction by ZEFSAII (Michael W. Deem and Ramdas Pophale) SiO2 
 PCOD9192645
Probable space group: C 2/M
;
_chemical_formula_sum "Si O2"
_cell_formula_units_Z 36
_cell_length_a 5.415618
_cell_length_b 25.622562
_cell_length_c 11.511600
_cell_angle_alpha 90.000000
_cell_angle_beta 121.600898
_cell_angle_gamma 90.000000
_cell_volume 1360.512260
_symmetry_space_group_name_H-M "C 2/M"
_symmetry_group_IT_number 12
_symmetry_cell_setting 'monoclinic'
loop_
_space_group_symop_operation_xyz
x,y,z
-x,y,-z
-x,-y,-z
x,-y,z
1/2+x,1/2+y,z
1/2-x,1/2+y,-z
1/2-x,1/2-y,-z
1/2+x,1/2-y,z
loop_
_atom_site_type_symbol
_atom_site_label
_atom_site_fract_x
_atom_site_fract_y
_atom_site_fract_z
Si Si1 0.914417 0.943353 0.648130
Si Si2 0.569379 0.912078 0.784502
Si Si3 0.869738 0.771434 0.153858
Si Si4 0.801563 0.339293 0.543949
Si Si5 0.500000 0.866737 0.000000
O O1 0.791485 0.937774 0.749027
O O2 0.795026 0.894135 0.545658
O O3 0.261141 0.940919 0.724249
O O4 0.821087 0.000000 0.579045
O O5 0.479983 0.858140 0.698609
O O6 0.653584 0.899016 0.936542
O O7 0.704652 0.742509 0.217625
O O8 0.750000 0.750000 0.000000
O O9 0.752828 0.830707 0.120266
O O10 0.500000 0.313357 0.500000
O O11 0.000000 0.311559 0.500000
#
# Coordination Sequence:
#
# PCOD9192645 Si02
#       5
#     8   8   8   8   4
#     4  10  20  35  51  65  87 123 173 216 234 263
#     4  10  21  31  48  72  93 125 156 192 253 287
#     4   8  16  30  50  71  92 122 158 183 212 270
#     4   8  16  30  47  67  86 109 159 206 237 269
#     4  10  20  34  49  72 110 126 142 190 239 294
#
# _framework density 26.460622000000001
#
# number of rings (size 3 to 8) (size 9 to 14) (size 15 to 20)
#    0.000    3.111    0.000    0.667    0.000   16.000 
#    0.000    3.333    0.000    0.000    0.000    0.000 
#    0.000  432.000    0.000    0.000    0.000    0.000 
#
# Total GULP energy -100638.126392 kJ/mol
# GULP energy per Si atom -5591.007022 kJ/mol
# Density = 2.640040 g / cm^3
# Si number density = 26.460622 Si / 1000 Ang^3
#
#
#
# Elastic Constant Matrix: (Units=GPa)
#
#
# Indices 1 2 3 4 5 6 
#
# 1 245.5150 30.1290 36.4683 0.0000 -60.3373 0.0000
# 2 30.1290 97.2638 31.9729 0.0000 -1.2575 0.0000
# 3 36.4683 31.9729 107.4342 0.0000 -37.9847 0.0000
# 4 0.0000 0.0000 0.0000 20.1734 0.0000 1.9666
# 5 -60.3373 -1.2575 -37.9847 0.0000 47.9960 0.0000
# 6 0.0000 0.0000 0.0000 1.9666 0.0000 4.7753
#
#
#
# Elastic Compliance Matrix: (Units=1/GPa)
#
#
# Indices 1 2 3 4 5 6 
#
# 1 0.006446 -0.002513 0.001946 0.000000 0.009578 0.000000
# 2 -0.002513 0.012768 -0.005478 0.000000 -0.007160 0.000000
# 3 0.001946 -0.005478 0.015402 0.000000 0.014492 0.000000
# 4 0.000000 0.000000 0.000000 0.051644 0.000000 -0.021268
# 5 0.009578 -0.007160 0.014492 0.000000 0.044158 0.000000
# 6 0.000000 0.000000 0.000000 -0.021268 0.000000 0.218170
#
#
# Mechanical properties :
#
#
# Convention : Reuss Voigt Hill
#
# Bulk Modulus (GPa) = 44.39327 71.92814 58.16071
# Shear Modulus (GPa) = 13.58011 38.03178 25.80595
#
# Velocity S-wave (km/s) = 2.26789 3.79528 3.12630
# Velocity P-wave (km/s) = 4.86532 6.81525 5.92111
#
# Compressibility (1/GPa) = 0.02252594
#
# Stress axis : x y z
#
# Youngs Moduli (GPa) = 155.12853 78.32094 64.92806
#
# Poissons Ratio (x) = 0.19680 -0.12636
# Poissons Ratio (y) = 0.38980 0.35570
# Poissons Ratio (z) = -0.30190 0.42907
#
# Static dielectric constant tensor:
#      x y z
#    x 1.875120 0.000000 -0.091290 
#    y 0.000000 2.103410 0.000000 
#    z -0.091290 0.000000 2.012340 
# 
# From -- ./inp_files/115333.got.cif
#   From: 2010.05.17/outbox.cif.g08.bks.cpg/sg12_58_cif.got.tgz:115333.got - 2010.06.03 13:09:07.
