data_PCOD9192709
_publ_section_title
;
Structure prediction by ZEFSAII (Michael W. Deem and Ramdas Pophale) SiO2 
 PCOD9192709
Probable space group: C 2/M
;
_chemical_formula_sum "Si O2"
_cell_formula_units_Z 36
_cell_length_a 13.332514
_cell_length_b 9.371978
_cell_length_c 18.778261
_cell_angle_alpha 90.000000
_cell_angle_beta 36.916907
_cell_angle_gamma 90.000000
_cell_volume 1409.368706
_symmetry_space_group_name_H-M "C 2/M"
_symmetry_group_IT_number 12
_symmetry_cell_setting 'monoclinic'
loop_
_space_group_symop_operation_xyz
x,y,z
-x,y,-z
-x,-y,-z
x,-y,z
1/2+x,1/2+y,z
1/2-x,1/2+y,-z
1/2-x,1/2-y,-z
1/2+x,1/2-y,z
loop_
_atom_site_type_symbol
_atom_site_label
_atom_site_fract_x
_atom_site_fract_y
_atom_site_fract_z
Si Si1 0.382401 0.661178 0.879578
Si Si2 0.015331 0.664868 0.587870
Si Si3 0.500000 0.500000 0.000000
Si Si4 0.792464 0.273054 0.166115
Si Si5 0.685703 0.833902 0.648694
Si Si6 0.000000 0.500000 0.000000
O O1 0.405144 0.500000 0.897224
O O2 0.302012 0.651129 0.846700
O O3 0.555851 0.742785 0.769860
O O4 0.250000 0.750000 0.000000
O O5 0.985608 0.500000 0.585080
O O6 0.146868 0.745306 0.463284
O O7 0.095501 0.660410 0.621851
O O8 0.844520 0.751566 0.695791
O O9 0.363968 0.623523 0.100233
O O10 0.946956 0.376944 0.088085
O O11 0.711009 0.000000 0.655874
#
# Coordination Sequence:
#
# PCOD9192709 Si02
#       6
#     8   8   2   8   8   2
#     4  11  22  35  53  77 109 140 171 212 260 318
#     4   9  16  28  47  72 104 132 163 211 260 312
#     4  10  20  34  54  76 106 142 174 218 254 306
#     4  10  20  34  53  79 108 136 176 213 262 306
#     4   9  18  29  47  73 102 134 167 205 263 316
#     4  10  20  34  50  76 106 138 178 218 258 298
#
# _framework density 25.543351999999999
#
# number of rings (size 3 to 8) (size 9 to 14) (size 15 to 20)
#    0.000    2.222    2.222    1.333    4.667    2.667 
#    0.000    0.000    0.000    0.000    0.000    9.333 
#    0.000    0.000    0.000    0.000    0.000    0.000 
#
# Total GULP energy -100357.794097 kJ/mol
# GULP energy per Si atom -5575.433005 kJ/mol
# Density = 2.548521 g / cm^3
# Si number density = 25.543352 Si / 1000 Ang^3
#
#
#
# Elastic Constant Matrix: (Units=GPa)
#
#
# Indices 1 2 3 4 5 6 
#
# 1 68.8277 -6.5994 22.8221 0.0000 0.5294 0.0000
# 2 -6.5994 302.7538 143.5141 0.0000 -5.7780 0.0000
# 3 22.8221 143.5141 291.0908 0.0000 -3.8272 0.0000
# 4 0.0000 0.0000 0.0000 -19.7432 0.0000 43.3127
# 5 0.5294 -5.7780 -3.8272 0.0000 41.4743 0.0000
# 6 0.0000 0.0000 0.0000 43.3127 0.0000 -25.5674
#
#
#
# Elastic Compliance Matrix: (Units=1/GPa)
#
#
# Indices 1 2 3 4 5 6 
#
# 1 0.015230 0.001169 -0.001773 0.000000 -0.000195 0.000000
# 2 0.001169 0.004407 -0.002259 0.000000 0.000391 0.000000
# 3 -0.001773 -0.002259 0.004690 0.000000 0.000141 0.000000
# 4 0.000000 0.000000 0.000000 0.018646 0.000000 0.031587
# 5 -0.000195 0.000391 0.000141 0.000000 0.024181 0.000000
# 6 0.000000 0.000000 0.000000 0.031587 0.000000 0.014398
#
#
# Mechanical properties :
#
#
# Convention : Reuss Voigt Hill
#
# Bulk Modulus (GPa) = 53.76175 109.12732 81.44453
# Shear Modulus (GPa) = 53.48756 32.76176 43.12466
#
# Velocity S-wave (km/s) = 4.58098 3.58522 4.11334
# Velocity P-wave (km/s) = 7.00524 7.74297 7.38332
#
# Compressibility (1/GPa) = 0.01860059
#
# Stress axis : x y z
#
# Youngs Moduli (GPa) = 65.65806 226.91953 213.21904
#
# Poissons Ratio (x) = -0.26519 0.37800
# Poissons Ratio (y) = -0.07673 0.48170
# Poissons Ratio (z) = 0.11640 0.51265
#
# Static dielectric constant tensor:
#      x y z
#    x 2.333560 0.000000 -0.048830 
#    y 0.000000 1.919400 0.000000 
#    z -0.048830 0.000000 2.044170 
# 
# From -- ./inp_files/381846.got.cif
#   From: 2010.05.17/outbox.cif.g08.bks.cpg/sg12_191_cif.got.tgz:381846.got - 2010.06.03 13:09:07.
