data_PCOD9192835
_publ_section_title
;
Structure prediction by ZEFSAII (Michael W. Deem and Ramdas Pophale) SiO2 
 PCOD9192835
Probable space group: C 2/M
;
_chemical_formula_sum "Si O2"
_cell_formula_units_Z 48
_cell_length_a 20.962572
_cell_length_b 7.912952
_cell_length_c 19.987574
_cell_angle_alpha 90.000000
_cell_angle_beta 130.182130
_cell_angle_gamma 90.000000
_cell_volume 2532.998945
_symmetry_space_group_name_H-M "C 2/M"
_symmetry_group_IT_number 12
_symmetry_cell_setting 'monoclinic'
loop_
_space_group_symop_operation_xyz
x,y,z
-x,y,-z
-x,-y,-z
x,-y,z
1/2+x,1/2+y,z
1/2-x,1/2+y,-z
1/2-x,1/2-y,-z
1/2+x,1/2-y,z
loop_
_atom_site_type_symbol
_atom_site_label
_atom_site_fract_x
_atom_site_fract_y
_atom_site_fract_z
Si Si1 0.594506 0.202339 0.068311
Si Si2 0.258724 0.200568 0.929006
Si Si3 0.283900 0.295478 0.734715
Si Si4 0.283155 0.796375 0.449998
Si Si5 0.363827 0.202838 0.266593
Si Si6 0.971261 0.706489 0.554978
O O1 0.659983 0.269618 0.056492
O O2 0.637172 0.235758 0.168985
O O3 0.590005 0.000000 0.056237
O O4 0.500000 0.269283 0.000000
O O5 0.177390 0.251548 0.831521
O O6 0.265166 0.000000 0.930533
O O7 0.250000 0.250000 0.000000
O O8 0.285311 0.500000 0.736490
O O9 0.272687 0.237603 0.650783
O O10 0.201647 0.239430 0.720665
O O11 0.250000 0.750000 0.500000
O O12 0.378046 0.733573 0.505913
O O13 0.285456 0.000000 0.446866
O O14 0.456729 0.264529 0.345413
O O15 0.366135 0.000000 0.272700
O O16 0.969008 0.500000 0.555311
O O17 0.000000 0.753262 0.500000
#
# Coordination Sequence:
#
# PCOD9192835 Si02
#       6
#     8   8   8   8   8   8
#     4   9  19  36  56  76  98 129 171 212 249 298
#     4  10  20  35  54  76 105 134 164 207 258 305
#     4   9  17  31  53  77 101 131 168 210 252 297
#     4  10  20  34  51  75 107 138 168 205 252 300
#     4   9  16  30  55  80  99 127 172 215 250 291
#     4   9  15  29  55  79  97 128 175 214 240 288
#
# _framework density 18.949871000000002
#
# number of rings (size 3 to 8) (size 9 to 14) (size 15 to 20)
#    0.000    2.667    1.667    0.500    0.000    1.667 
#    3.000    0.833    0.000    1.000    0.000    0.000 
#    0.000    0.000    0.000    0.000    0.000    0.000 
#
# Total GULP energy -133806.374568 kJ/mol
# GULP energy per Si atom -5575.265607 kJ/mol
# Density = 1.890674 g / cm^3
# Si number density = 18.949871 Si / 1000 Ang^3
#
#
#
# Elastic Constant Matrix: (Units=GPa)
#
#
# Indices 1 2 3 4 5 6 
#
# 1 120.0818 1.5187 104.3824 0.0000 5.5335 0.0000
# 2 1.5187 8.8989 1.2569 0.0000 6.3408 0.0000
# 3 104.3824 1.2569 192.5275 0.0000 2.9336 0.0000
# 4 0.0000 0.0000 0.0000 22.1587 0.0000 -5.9939
# 5 5.5335 6.3408 2.9336 0.0000 36.5223 0.0000
# 6 0.0000 0.0000 0.0000 -5.9939 0.0000 14.4009
#
#
#
# Elastic Compliance Matrix: (Units=1/GPa)
#
#
# Indices 1 2 3 4 5 6 
#
# 1 0.015858 -0.000313 -0.008570 0.000000 -0.001660 0.000000
# 2 -0.000313 0.128292 -0.000330 0.000000 -0.022199 0.000000
# 3 -0.008570 -0.000330 0.009834 0.000000 0.000566 0.000000
# 4 0.000000 0.000000 0.000000 0.050855 0.000000 0.021167
# 5 -0.001660 -0.022199 0.000566 0.000000 0.031441 0.000000
# 6 0.000000 0.000000 0.000000 0.021167 0.000000 0.078250
#
#
# Mechanical properties :
#
#
# Convention : Reuss Voigt Hill
#
# Bulk Modulus (GPa) = 7.37693 59.53601 33.45647
# Shear Modulus (GPa) = 13.22259 28.90639 21.06449
#
# Velocity S-wave (km/s) = 2.64439 3.90989 3.33767
# Velocity P-wave (km/s) = 3.63663 7.20200 5.70499
#
# Compressibility (1/GPa) = 0.13555775
#
# Stress axis : x y z
#
# Youngs Moduli (GPa) = 63.05963 7.79475 101.68607
#
# Poissons Ratio (x) = 0.00244 0.87149
# Poissons Ratio (y) = 0.01974 0.03351
# Poissons Ratio (z) = 0.54045 0.00257
#
# Static dielectric constant tensor:
#      x y z
#    x 1.648300 0.000000 0.023680 
#    y 0.000000 1.695950 0.000000 
#    z 0.023680 0.000000 1.642580 
# 
# From -- ./inp_files/274104.got.cif
#   From: 2010.05.17/outbox.cif.g08.bks.cpg/sg12_138_cif.got.tgz:274104.got - 2010.06.03 13:09:07.
