data_PCOD9192937
_publ_section_title
;
Structure prediction by ZEFSAII (Michael W. Deem and Ramdas Pophale) SiO2 
 PCOD9192937
Probable space group: C 2/M
;
_chemical_formula_sum "Si O2"
_cell_formula_units_Z 56
_cell_length_a 25.339757
_cell_length_b 9.747246
_cell_length_c 15.944429
_cell_angle_alpha 90.000000
_cell_angle_beta 51.292132
_cell_angle_gamma 90.000000
_cell_volume 3073.121562
_symmetry_space_group_name_H-M "C 2/M"
_symmetry_group_IT_number 12
_symmetry_cell_setting 'monoclinic'
loop_
_space_group_symop_operation_xyz
x,y,z
-x,y,-z
-x,-y,-z
x,-y,z
1/2+x,1/2+y,z
1/2-x,1/2+y,-z
1/2-x,1/2-y,-z
1/2+x,1/2-y,z
loop_
_atom_site_type_symbol
_atom_site_label
_atom_site_fract_x
_atom_site_fract_y
_atom_site_fract_z
Si Si1 0.794078 0.659294 0.018393
Si Si2 0.154410 0.662824 0.537729
Si Si3 0.823373 0.846614 0.135400
Si Si4 0.951879 0.658909 0.809486
Si Si5 0.978100 0.154547 0.931923
Si Si6 0.688831 0.660963 0.659510
Si Si7 0.978404 0.333712 0.429562
O O1 0.773855 0.500000 0.039838
O O2 0.787987 0.730753 0.115401
O O3 0.750000 0.750000 0.000000
O O4 0.872027 0.664708 0.909037
O O5 0.146112 0.500000 0.561798
O O6 0.230138 0.683776 0.427235
O O7 0.152923 0.746470 0.625783
O O8 0.095914 0.705920 0.530885
O O9 0.831391 0.810574 0.224819
O O10 0.791450 0.000000 0.162468
O O11 0.897507 0.858061 0.021691
O O12 0.972951 0.500000 0.798022
O O13 0.989966 0.752118 0.839821
O O14 0.970090 0.702568 0.696911
O O15 0.007256 0.000000 0.895052
O O16 0.000000 0.213575 0.000000
O O17 0.676385 0.500000 0.654604
O O18 0.978146 0.500000 0.435377
O O19 0.000000 0.281804 0.500000
#
# Coordination Sequence:
#
# PCOD9192937 Si02
#       7
#     8   8   8   8   8   8   8
#     4  10  20  34  52  74 101 132 167 207 253 301
#     4   9  18  32  51  75 101 132 170 213 261 305
#     4   9  18  32  49  72 101 131 167 204 246 303
#     4   9  19  34  51  74 100 129 167 209 250 294
#     4   9  18  31  48  72 101 133 165 197 245 304
#     4   9  18  32  51  75 103 134 169 210 258 309
#     4   9  18  33  53  76 102 133 173 216 257 305
#
# _framework density 18.222515000000001
#
# number of rings (size 3 to 8) (size 9 to 14) (size 15 to 20)
#    0.000    2.857    0.000    0.429    2.000    2.571 
#    0.000    4.286    0.000    1.714    0.000    0.000 
#    0.000    0.000    0.000    0.000    0.000    0.000 
#
# Total GULP energy -155999.123543 kJ/mol
# GULP energy per Si atom -5571.397269 kJ/mol
# Density = 1.818104 g / cm^3
# Si number density = 18.222515 Si / 1000 Ang^3
#
#
#
# Elastic Constant Matrix: (Units=GPa)
#
#
# Indices 1 2 3 4 5 6 
#
# 1 97.6434 53.4203 41.1298 0.0000 31.8402 0.0000
# 2 53.4203 68.2011 41.8745 0.0001 24.8191 0.0000
# 3 41.1298 41.8745 101.3840 0.0000 32.2280 0.0000
# 4 0.0000 0.0001 0.0000 18.3422 0.0000 13.4697
# 5 31.8402 24.8191 32.2280 0.0000 36.3980 0.0000
# 6 0.0000 0.0000 0.0000 13.4697 0.0000 24.2679
#
#
#
# Elastic Compliance Matrix: (Units=1/GPa)
#
#
# Indices 1 2 3 4 5 6 
#
# 1 0.019930 -0.012249 -0.000194 0.000000 -0.008910 0.000000
# 2 -0.012249 0.029343 -0.005840 0.000000 -0.004122 0.000000
# 3 -0.000194 -0.005840 0.015357 0.000000 -0.009446 0.000000
# 4 0.000000 0.000000 0.000000 0.092030 0.000000 -0.051081
# 5 -0.008910 -0.004122 -0.009446 0.000000 0.046443 0.000000
# 6 0.000000 0.000000 0.000000 -0.051081 0.000000 0.069559
#
#
# Mechanical properties :
#
#
# Convention : Reuss Voigt Hill
#
# Bulk Modulus (GPa) = 35.63229 60.00863 47.82046
# Shear Modulus (GPa) = 15.69459 24.52189 20.10824
#
# Velocity S-wave (km/s) = 2.93793 3.67235 3.32548
# Velocity P-wave (km/s) = 5.57719 7.14031 6.40660
#
# Compressibility (1/GPa) = 0.02806443
#
# Stress axis : x y z
#
# Youngs Moduli (GPa) = 50.17585 34.08015 65.11839
#
# Poissons Ratio (x) = 0.41745 0.01260
# Poissons Ratio (y) = 0.61461 0.38027
# Poissons Ratio (z) = 0.00971 0.19902
#
# Static dielectric constant tensor:
#      x y z
#    x 1.639510 0.000000 -0.023880 
#    y 0.000000 1.629590 0.000000 
#    z -0.023880 0.000000 1.637560 
# 
# From -- ./inp_files/238359.got.cif
#   From: 2010.05.17/outbox.cif.g08.bks.cpg/sg12_120_cif.got.tgz:238359.got - 2010.06.03 13:09:07.
