data_PCOD9192035
_publ_section_title
;
Structure prediction by ZEFSAII (Michael W. Deem and Ramdas Pophale) SiO2 
 PCOD9192035
Probable space group: C 2/M
;
_chemical_formula_sum "Si O2"
_cell_formula_units_Z 64
_cell_length_a 33.324911
_cell_length_b 9.111848
_cell_length_c 17.516970
_cell_angle_alpha 90.000000
_cell_angle_beta 137.977255
_cell_angle_gamma 90.000000
_cell_volume 3560.711144
_symmetry_space_group_name_H-M "C 2/M"
_symmetry_group_IT_number 12
_symmetry_cell_setting 'monoclinic'
loop_
_space_group_symop_operation_xyz
x,y,z
-x,y,-z
-x,-y,-z
x,-y,z
1/2+x,1/2+y,z
1/2-x,1/2+y,-z
1/2-x,1/2-y,-z
1/2+x,1/2-y,z
loop_
_atom_site_type_symbol
_atom_site_label
_atom_site_fract_x
_atom_site_fract_y
_atom_site_fract_z
Si Si1 0.495694 0.326117 0.815325
Si Si2 0.775988 0.169159 0.609419
Si Si3 0.636326 0.174797 0.650643
Si Si4 0.109446 0.325712 0.032701
Si Si5 0.913348 0.168519 0.843464
Si Si6 0.040204 0.325567 0.382724
Si Si7 0.049848 0.167491 0.637929
Si Si8 0.265412 0.677198 0.767759
O O1 0.502158 0.500000 0.813363
O O2 0.463048 0.302468 0.850359
O O3 0.456097 0.256893 0.692174
O O4 0.559847 0.246858 0.908256
O O5 0.750000 0.250000 0.500000
O O6 0.848161 0.175073 0.712079
O O7 0.757360 0.223789 0.667526
O O8 0.756963 0.000000 0.578134
O O9 0.595391 0.206430 0.518016
O O10 0.608143 0.262545 0.681305
O O11 0.705049 0.208707 0.728629
O O12 0.630627 0.000000 0.656703
O O13 0.110968 0.500000 0.026673
O O14 0.089012 0.278246 0.089234
O O15 0.175310 0.255304 0.117009
O O16 0.920880 0.000000 0.883208
O O17 0.037318 0.500000 0.367834
O O18 0.980370 0.265804 0.339728
O O19 0.000000 0.165212 0.500000
O O20 0.059360 0.000000 0.676779
O O21 0.275126 0.500000 0.780522
#
# Coordination Sequence:
#
# PCOD9192035 Si02
#       8
#     8   8   8   8   8   8   8   8
#     4  11  22  36  55  76 103 140 176 217 265 315
#     4   9  18  31  47  69 101 137 170 208 253 303
#     4   9  18  33  55  80 107 140 174 212 257 309
#     4  11  22  36  54  77 102 133 178 227 265 303
#     4   9  20  37  53  71  99 138 179 215 261 316
#     4  10  20  33  52  81 112 138 170 214 261 308
#     4   9  17  31  51  76 108 142 173 208 253 310
#     4   9  19  36  54  73 102 140 177 211 257 315
#
# _framework density 17.973935999999998
#
# number of rings (size 3 to 8) (size 9 to 14) (size 15 to 20)
#    0.000    2.375    0.000    3.375    1.750    7.000 
#    0.000    0.000    0.000    0.750    0.000    0.000 
#    0.000    0.000    0.000    0.000    0.000    0.000 
#
# Total GULP energy -178549.034877 kJ/mol
# GULP energy per Si atom -5579.657340 kJ/mol
# Density = 1.793303 g / cm^3
# Si number density = 17.973936 Si / 1000 Ang^3
#
#
#
# Elastic Constant Matrix: (Units=GPa)
#
#
# Indices 1 2 3 4 5 6 
#
# 1 83.6101 33.4501 3.9783 0.0000 22.5516 0.0000
# 2 33.4501 69.1208 19.0711 0.0000 9.4032 0.0000
# 3 3.9783 19.0711 21.9103 0.0000 4.6971 0.0000
# 4 0.0000 0.0000 0.0000 23.5966 0.0000 -3.8246
# 5 22.5516 9.4032 4.6971 0.0000 13.8230 0.0000
# 6 0.0000 0.0000 0.0000 -3.8246 0.0000 24.8938
#
#
#
# Elastic Compliance Matrix: (Units=1/GPa)
#
#
# Indices 1 2 3 4 5 6 
#
# 1 0.026742 -0.011155 0.013569 0.000000 -0.040651 0.000000
# 2 -0.011155 0.024527 -0.021192 0.000000 0.008715 0.000000
# 3 0.013569 -0.021192 0.068249 0.000000 -0.030912 0.000000
# 4 0.000000 0.000000 0.000000 0.043461 0.000000 0.006677
# 5 -0.040651 0.008715 -0.030912 0.000000 0.143238 0.000000
# 6 0.000000 0.000000 0.000000 0.006677 0.000000 0.041196
#
#
# Mechanical properties :
#
#
# Convention : Reuss Voigt Hill
#
# Bulk Modulus (GPa) = 12.20074 31.96000 22.08037
# Shear Modulus (GPa) = 12.12735 20.33881 16.23308
#
# Velocity S-wave (km/s) = 2.60035 3.36753 3.00850
# Velocity P-wave (km/s) = 3.97725 5.73936 4.93755
#
# Compressibility (1/GPa) = 0.08196224
#
# Stress axis : x y z
#
# Youngs Moduli (GPa) = 37.39454 40.77127 14.65213
#
# Poissons Ratio (x) = 0.45480 -0.19881
# Poissons Ratio (y) = 0.41713 0.31050
# Poissons Ratio (z) = -0.50739 0.86401
#
# Static dielectric constant tensor:
#      x y z
#    x 1.616000 0.000000 0.001090 
#    y 0.000000 1.602300 0.000000 
#    z 0.001090 0.000000 1.614240 
# 
# From -- ./inp_files/249973.got.cif
#   From: 2010.05.17/outbox.cif.g08.bks.cpg/sg12_125_cif.got.tgz:249973.got - 2010.06.03 13:09:07.
