data_PCOD9192368
_publ_section_title
;
Structure prediction by ZEFSAII (Michael W. Deem and Ramdas Pophale) SiO2 
 PCOD9192368
Probable space group: C 2/M
;
_chemical_formula_sum "Si O2"
_cell_formula_units_Z 58
_cell_length_a 24.274807
_cell_length_b 7.558506
_cell_length_c 14.573528
_cell_angle_alpha 90.000000
_cell_angle_beta 101.531063
_cell_angle_gamma 90.000000
_cell_volume 2619.999354
_symmetry_space_group_name_H-M "C 2/M"
_symmetry_group_IT_number 12
_symmetry_cell_setting 'monoclinic'
loop_
_space_group_symop_operation_xyz
x,y,z
-x,y,-z
-x,-y,-z
x,-y,z
1/2+x,1/2+y,z
1/2-x,1/2+y,-z
1/2-x,1/2-y,-z
1/2+x,1/2-y,z
loop_
_atom_site_type_symbol
_atom_site_label
_atom_site_fract_x
_atom_site_fract_y
_atom_site_fract_z
Si Si1 0.399970 0.212963 0.623289
Si Si2 0.000000 0.500000 0.000000
Si Si3 0.381887 0.702028 0.114385
Si Si4 0.480849 0.203473 0.279509
Si Si5 0.697459 0.716701 0.755848
Si Si6 0.920697 0.793218 0.930739
Si Si7 0.098154 0.791376 0.590140
Si Si8 0.823189 0.714538 0.755890
O O1 0.456762 0.279487 0.691685
O O2 0.399734 0.261584 0.517000
O O3 0.345733 0.269137 0.663218
O O4 0.403127 0.000000 0.628288
O O5 0.029298 0.658231 0.073309
O O6 0.366234 0.500000 0.088176
O O7 0.436241 0.704018 0.198364
O O8 0.331584 0.779050 0.159134
O O9 0.398393 0.780197 0.022161
O O10 0.453962 0.208477 0.372776
O O11 0.482411 0.000000 0.250657
O O12 0.697485 0.500000 0.758416
O O13 0.655103 0.769495 0.660151
O O14 0.760746 0.775989 0.759869
O O15 0.869690 0.777333 0.843298
O O16 0.937439 0.000000 0.942991
O O17 0.092968 0.000000 0.604965
O O18 0.822466 0.500000 0.758475
#
# Coordination Sequence:
#
# PCOD9192368 Si02
#       8
#     8   2   8   8   8   8   8   8
#     4  10  22  35  53  81 116 153 201 250 307 378
#     4  12  26  44  68  90 136 170 202 252 316 370
#     4   9  20  38  60  90 120 156 204 255 305 361
#     4  10  20  33  55  82 116 152 196 247 305 375
#     4   8  17  37  62  84 118 159 201 254 311 368
#     4  11  25  42  65  96 129 166 213 253 302 373
#     4  10  20  36  56  82 112 152 201 253 310 366
#     4  10  21  40  61  86 121 166 205 251 315 369
#
# _framework density 22.137409999999999
#
# number of rings (size 3 to 8) (size 9 to 14) (size 15 to 20)
#    0.000    2.207    0.690    2.276    2.897    4.414 
#    0.000    3.448    0.000    0.000    0.000    0.000 
#    0.000    0.000    0.000    0.000    0.000    0.000 
#
# Total GULP energy -161800.458908 kJ/mol
# GULP energy per Si atom -5579.326169 kJ/mol
# Density = 2.208702 g / cm^3
# Si number density = 22.137410 Si / 1000 Ang^3
#
#
#
# Elastic Constant Matrix: (Units=GPa)
#
#
# Indices 1 2 3 4 5 6 
#
# 1 124.5095 18.8683 26.1632 0.0000 -11.6117 0.0000
# 2 18.8683 89.0698 -3.7339 0.0000 -0.7809 0.0000
# 3 26.1632 -3.7339 83.3842 0.0000 -25.5692 0.0000
# 4 0.0000 0.0000 0.0000 13.8531 0.0000 8.7148
# 5 -11.6117 -0.7809 -25.5692 0.0000 31.5390 0.0000
# 6 0.0000 0.0000 0.0000 8.7148 0.0000 12.9509
#
#
#
# Elastic Compliance Matrix: (Units=1/GPa)
#
#
# Indices 1 2 3 4 5 6 
#
# 1 0.008980 -0.001998 -0.002540 0.000000 0.001198 0.000000
# 2 -0.001998 0.011713 0.001351 0.000000 0.000649 0.000000
# 3 -0.002540 0.001351 0.016734 0.000000 0.012665 0.000000
# 4 0.000000 0.000000 0.000000 0.125175 0.000000 -0.084232
# 5 0.001198 0.000649 0.012665 0.000000 0.042431 0.000000
# 6 0.000000 0.000000 0.000000 -0.084232 0.000000 0.133895
#
#
# Mechanical properties :
#
#
# Convention : Reuss Voigt Hill
#
# Bulk Modulus (GPa) = 32.20497 42.17317 37.18907
# Shear Modulus (GPa) = 14.05865 28.71298 21.38582
#
# Velocity S-wave (km/s) = 2.52278 3.60534 3.11150
# Velocity P-wave (km/s) = 4.80263 6.03517 5.45383
#
# Compressibility (1/GPa) = 0.03105111
#
# Stress axis : x y z
#
# Youngs Moduli (GPa) = 111.36235 85.37705 59.76011
#
# Poissons Ratio (x) = 0.17060 0.15178
# Poissons Ratio (y) = 0.22252 -0.08071
# Poissons Ratio (z) = 0.28284 -0.11530
#
# Static dielectric constant tensor:
#      x y z
#    x 1.836090 0.000000 -0.045910 
#    y 0.000000 1.849190 0.000000 
#    z -0.045910 0.000000 1.802770 
# 
# From -- ./inp_files/237695.got.cif
#   From: 2010.05.17/outbox.cif.g08.bks.cpg/sg12_119_cif.got.tgz:237695.got - 2010.06.03 13:09:07.
