data_PCOD9192846
_publ_section_title
;
Structure prediction by ZEFSAII (Michael W. Deem and Ramdas Pophale) SiO2 
 PCOD9192846
Probable space group: C 2/M
;
_chemical_formula_sum "Si O2"
_cell_formula_units_Z 64
_cell_length_a 11.356724
_cell_length_b 15.092791
_cell_length_c 15.924435
_cell_angle_alpha 90.000000
_cell_angle_beta 85.033831
_cell_angle_gamma 90.000000
_cell_volume 2719.275732
_symmetry_space_group_name_H-M "C 2/M"
_symmetry_group_IT_number 12
_symmetry_cell_setting 'monoclinic'
loop_
_space_group_symop_operation_xyz
x,y,z
-x,y,-z
-x,-y,-z
x,-y,z
1/2+x,1/2+y,z
1/2-x,1/2+y,-z
1/2-x,1/2-y,-z
1/2+x,1/2-y,z
loop_
_atom_site_type_symbol
_atom_site_label
_atom_site_fract_x
_atom_site_fract_y
_atom_site_fract_z
Si Si1 0.197941 0.153225 0.711902
Si Si2 0.559436 0.392650 0.867183
Si Si3 0.314418 0.607521 0.973854
Si Si4 0.437804 0.102126 0.755334
Si Si5 0.364476 0.103376 0.145581
Si Si6 0.062644 0.658500 0.579790
Si Si7 0.031174 0.132178 0.588599
Si Si8 0.273662 0.353516 0.675910
O O1 0.088088 0.160229 0.781561
O O2 0.298093 0.106722 0.760524
O O3 0.144525 0.102400 0.635310
O O4 0.251668 0.248043 0.684992
O O5 0.565949 0.500000 0.852432
O O6 0.429652 0.373834 0.910421
O O7 0.652552 0.366419 0.934064
O O8 0.306001 0.500000 0.977744
O O9 0.201024 0.643422 0.931047
O O10 0.509764 0.139808 0.830010
O O11 0.482566 0.144138 0.666391
O O12 0.473717 0.000000 0.748108
O O13 0.278890 0.109198 0.233338
O O14 0.381903 0.000000 0.123533
O O15 0.066601 0.764696 0.570047
O O16 0.189539 0.621019 0.601734
O O17 0.000000 0.622107 0.500000
O O18 0.000000 0.094414 0.500000
O O19 0.909346 0.125605 0.648792
#
# Coordination Sequence:
#
# PCOD9192846 Si02
#       8
#     8   8   8   8   8   8   8   8
#     4  11  21  33  53  78 110 137 174 221 267 318
#     4   9  17  31  54  83 110 142 177 212 261 313
#     4   8  15  31  56  81 106 139 182 217 247 308
#     4  10  20  34  51  76 108 142 175 213 265 315
#     4   9  18  35  57  78 104 139 179 219 257 310
#     4   9  19  32  53  75  99 134 180 221 258 307
#     4  10  21  34  54  77 102 140 178 221 266 313
#     4  10  20  34  54  80 104 135 178 220 266 315
#
# _framework density 23.535678999999998
#
# number of rings (size 3 to 8) (size 9 to 14) (size 15 to 20)
#    0.000    2.500    1.250    1.875    1.750    1.750 
#    0.000    1.875    0.000    4.875    0.000    0.000 
#    0.000    0.000    0.000    0.000    0.000    0.000 
#
# Total GULP energy -178526.983203 kJ/mol
# GULP energy per Si atom -5578.968225 kJ/mol
# Density = 2.348211 g / cm^3
# Si number density = 23.535679 Si / 1000 Ang^3
#
#
#
# Elastic Constant Matrix: (Units=GPa)
#
#
# Indices 1 2 3 4 5 6 
#
# 1 97.2849 -0.7825 25.8154 0.0000 28.7968 0.0000
# 2 -0.7825 51.1927 -8.7608 0.0000 2.2251 0.0000
# 3 25.8154 -8.7608 38.6783 0.0000 20.2033 0.0000
# 4 0.0000 0.0000 0.0000 9.7026 0.0000 -3.8086
# 5 28.7968 2.2251 20.2033 0.0000 33.8078 0.0000
# 6 0.0000 0.0000 0.0000 -3.8086 0.0000 6.4178
#
#
#
# Elastic Compliance Matrix: (Units=1/GPa)
#
#
# Indices 1 2 3 4 5 6 
#
# 1 0.014293 -0.000178 -0.004691 0.000000 -0.009359 0.000000
# 2 -0.000178 0.021180 0.008090 0.000000 -0.006078 0.000000
# 3 -0.004691 0.008090 0.042173 0.000000 -0.021739 0.000000
# 4 0.000000 0.000000 0.000000 0.134364 0.000000 0.079737
# 5 -0.009359 -0.006078 -0.021739 0.000000 0.050942 0.000000
# 6 0.000000 0.000000 0.000000 0.079737 0.000000 0.203137
#
#
# Mechanical properties :
#
#
# Convention : Reuss Voigt Hill
#
# Bulk Modulus (GPa) = 11.89210 24.41113 18.15162
# Shear Modulus (GPa) = 10.25272 21.37789 15.81531
#
# Velocity S-wave (km/s) = 2.08943 3.01710 2.59505
# Velocity P-wave (km/s) = 3.29920 4.74676 4.08757
#
# Compressibility (1/GPa) = 0.08408943
#
# Stress axis : x y z
#
# Youngs Moduli (GPa) = 69.96484 47.21432 23.71191
#
# Poissons Ratio (x) = 0.00838 0.11123
# Poissons Ratio (y) = 0.01242 -0.19184
# Poissons Ratio (z) = 0.32821 -0.38198
#
# Static dielectric constant tensor:
#      x y z
#    x 1.959280 0.000000 0.064830 
#    y 0.000000 1.907550 0.000000 
#    z 0.064830 0.000000 1.913980 
# 
# From -- ./inp_files/206657.got.cif
#   From: 2010.05.17/outbox.cif.g08.bks.cpg/sg12_104_cif.got.tgz:206657.got - 2010.06.03 13:09:07.
