data_PCOD9192680
_publ_section_title
;
Structure prediction by ZEFSAII (Michael W. Deem and Ramdas Pophale) SiO2 
 PCOD9192680
Probable space group: C 2/M
;
_chemical_formula_sum "Si O2"
_cell_formula_units_Z 56
_cell_length_a 25.103936
_cell_length_b 8.742067
_cell_length_c 19.386829
_cell_angle_alpha 90.000000
_cell_angle_beta 49.479989
_cell_angle_gamma 90.000000
_cell_volume 3234.287716
_symmetry_space_group_name_H-M "C 2/M"
_symmetry_group_IT_number 12
_symmetry_cell_setting 'monoclinic'
loop_
_space_group_symop_operation_xyz
x,y,z
-x,y,-z
-x,-y,-z
x,-y,z
1/2+x,1/2+y,z
1/2-x,1/2+y,-z
1/2-x,1/2-y,-z
1/2+x,1/2-y,z
loop_
_atom_site_type_symbol
_atom_site_label
_atom_site_fract_x
_atom_site_fract_y
_atom_site_fract_z
Si Si1 0.702584 0.183571 0.600341
Si Si2 0.693168 0.316729 0.994950
Si Si3 0.782788 0.816966 0.806640
Si Si4 0.408039 0.317144 0.803009
Si Si5 0.458989 0.182591 0.253420
Si Si6 0.208768 0.817627 0.745816
Si Si7 0.945342 0.314538 0.106429
O O1 0.750000 0.250000 0.500000
O O2 0.620417 0.221278 0.659183
O O3 0.721043 0.254936 0.658780
O O4 0.708886 0.000000 0.598476
O O5 0.699441 0.500000 0.982555
O O6 0.622357 0.280288 0.094990
O O7 0.750000 0.250000 0.000000
O O8 0.714003 0.234560 0.907551
O O9 0.851524 0.765375 0.792708
O O10 0.770473 0.741745 0.743469
O O11 0.784661 0.000000 0.800595
O O12 0.410084 0.500000 0.795675
O O13 0.485174 0.250689 0.740559
O O14 0.468640 0.231256 0.164779
O O15 0.466486 0.000000 0.247621
O O16 0.133098 0.752307 0.834454
O O17 0.205649 0.000000 0.749289
O O18 0.940240 0.500000 0.109157
O O19 0.000000 0.268586 0.000000
#
# Coordination Sequence:
#
# PCOD9192680 Si02
#       7
#     8   8   8   8   8   8   8
#     4  10  21  40  63  86 108 135 172 218 272 330
#     4   9  17  29  43  66  97 138 186 226 259 302
#     4  10  20  34  50  71 104 147 186 226 268 314
#     4   9  19  32  48  72 105 142 182 223 264 310
#     4   9  19  33  52  79 107 138 176 215 264 323
#     4  11  22  35  54  82 109 139 179 224 271 323
#     4   9  19  35  51  72 105 146 184 221 269 321
#
# _framework density 17.314478000000001
#
# number of rings (size 3 to 8) (size 9 to 14) (size 15 to 20)
#    0.000    2.429    0.000    4.286    2.000    6.571 
#    0.000    0.000    0.000    0.857    0.000    6.000 
#    0.000    0.000    0.000    0.000    0.000    0.000 
#
# Total GULP energy -156018.782519 kJ/mol
# GULP energy per Si atom -5572.099376 kJ/mol
# Density = 1.727507 g / cm^3
# Si number density = 17.314478 Si / 1000 Ang^3
#
#
#
# Elastic Constant Matrix: (Units=GPa)
#
#
# Indices 1 2 3 4 5 6 
#
# 1 141.8254 41.0703 62.4353 -0.0033 4.1774 0.0051
# 2 41.0703 44.1337 40.2266 -0.0067 -0.4626 0.0115
# 3 62.4353 40.2266 114.3584 -0.0010 5.2610 0.0030
# 4 -0.0033 -0.0067 -0.0010 27.2639 0.0009 -0.6631
# 5 4.1774 -0.4626 5.2610 0.0009 13.7835 -0.0027
# 6 0.0051 0.0115 0.0030 -0.6631 -0.0027 26.9125
#
#
#
# Elastic Compliance Matrix: (Units=1/GPa)
#
#
# Indices 1 2 3 4 5 6 
#
# 1 0.010528 -0.006878 -0.003228 0.000000 -0.002190 0.000001
# 2 -0.006878 0.038291 -0.010045 0.000008 0.007204 -0.000013
# 3 -0.003228 -0.010045 0.014261 -0.000002 -0.004802 0.000003
# 4 0.000000 0.000008 -0.000002 0.036701 -0.000001 0.000904
# 5 -0.002190 0.007204 -0.004802 -0.000001 0.075289 0.000005
# 6 0.000001 -0.000013 0.000003 0.000904 0.000005 0.037180
#
#
# Mechanical properties :
#
#
# Convention : Reuss Voigt Hill
#
# Bulk Modulus (GPa) = 43.90307 65.30909 54.60608
# Shear Modulus (GPa) = 19.22010 24.03099 21.62555
#
# Velocity S-wave (km/s) = 3.33537 3.72951 3.53793
# Velocity P-wave (km/s) = 6.34384 7.50646 6.94950
#
# Compressibility (1/GPa) = 0.02277745
#
# Stress axis : x y z
#
# Youngs Moduli (GPa) = 94.98270 26.11590 70.12106
#
# Poissons Ratio (x) = 0.17964 0.22633
# Poissons Ratio (y) = 0.65333 0.70438
# Poissons Ratio (z) = 0.30658 0.26234
#
# Static dielectric constant tensor:
#      x y z
#    x 1.599400 0.000000 0.000280 
#    y 0.000000 1.577870 0.000000 
#    z 0.000280 0.000000 1.596170 
# 
# From -- ./inp_files/288218.got.cif
#   From: 2010.05.17/outbox.cif.g08.bks.cpg/sg12_145_cif.got.tgz:288218.got - 2010.06.03 13:09:07.
