data_PCOD9192256
_publ_section_title
;
Structure prediction by ZEFSAII (Michael W. Deem and Ramdas Pophale) SiO2 
 PCOD9192256
Probable space group: C 2/M
;
_chemical_formula_sum "Si O2"
_cell_formula_units_Z 48
_cell_length_a 9.927301
_cell_length_b 14.589769
_cell_length_c 31.229495
_cell_angle_alpha 90.000000
_cell_angle_beta 28.618976
_cell_angle_gamma 90.000000
_cell_volume 2166.528055
_symmetry_space_group_name_H-M "C 2/M"
_symmetry_group_IT_number 12
_symmetry_cell_setting 'monoclinic'
loop_
_space_group_symop_operation_xyz
x,y,z
-x,y,-z
-x,-y,-z
x,-y,z
1/2+x,1/2+y,z
1/2-x,1/2+y,-z
1/2-x,1/2-y,-z
1/2+x,1/2-y,z
loop_
_atom_site_type_symbol
_atom_site_label
_atom_site_fract_x
_atom_site_fract_y
_atom_site_fract_z
Si Si1 0.826747 0.112040 0.915354
Si Si2 0.256459 0.391708 0.761914
Si Si3 0.918498 0.893068 0.245183
Si Si4 0.293404 0.356597 0.436179
Si Si5 0.131769 0.111937 0.917491
Si Si6 0.728224 0.136151 0.550465
O O1 0.999531 0.142226 0.824837
O O2 0.964880 0.144244 0.921676
O O3 0.833177 0.000000 0.915347
O O4 0.500000 0.137907 0.000000
O O5 0.215181 0.500000 0.781518
O O6 0.405487 0.352786 0.763466
O O7 0.464630 0.381777 0.663999
O O8 0.953956 0.356351 0.831359
O O9 0.585248 0.890736 0.347746
O O10 0.997664 0.000000 0.221506
O O11 0.282681 0.246443 0.442372
O O12 0.301387 0.390851 0.481922
O O13 0.000000 0.390082 0.500000
O O14 0.127462 0.000000 0.916312
O O15 0.000000 0.136984 0.000000
O O16 0.000000 0.103852 0.500000
#
# Coordination Sequence:
#
# PCOD9192256 Si02
#       6
#     8   8   8   8   8   8
#     4   9  17  30  49  74 107 140 169 207 258 312
#     4  10  20  33  54  80 106 136 174 218 259 304
#     4  10  20  34  52  79 109 137 171 215 265 307
#     4  10  20  38  55  74 102 140 182 213 255 310
#     4   9  17  30  49  75 105 138 174 209 252 309
#     4  10  22  36  54  75 103 141 178 216 257 311
#
# _framework density 22.155263999999999
#
# number of rings (size 3 to 8) (size 9 to 14) (size 15 to 20)
#    0.000    2.333    1.667    1.000    2.333    5.333 
#    0.000    0.000    0.000    1.000    0.000    4.667 
#    0.000    0.000    0.000    0.000    0.000    0.000 
#
# Total GULP energy -133969.820350 kJ/mol
# GULP energy per Si atom -5582.075848 kJ/mol
# Density = 2.210484 g / cm^3
# Si number density = 22.155264 Si / 1000 Ang^3
#
#
#
# Elastic Constant Matrix: (Units=GPa)
#
#
# Indices 1 2 3 4 5 6 
#
# 1 281.4183 7.7511 141.3612 -0.0334 -1.1189 -0.0084
# 2 7.7511 57.5610 -12.1083 -0.0695 -2.8942 -0.0142
# 3 141.3612 -12.1083 196.8624 0.0303 -2.1305 -0.0298
# 4 -0.0334 -0.0695 0.0303 34.0291 -0.0655 15.4585
# 5 -1.1189 -2.8942 -2.1305 -0.0655 37.0234 -0.0064
# 6 -0.0084 -0.0142 -0.0298 15.4585 -0.0064 5.1732
#
#
#
# Elastic Compliance Matrix: (Units=1/GPa)
#
#
# Indices 1 2 3 4 5 6 
#
# 1 0.005711 -0.001664 -0.004205 -0.000041 -0.000200 0.000102
# 2 -0.001664 0.018162 0.002328 -0.000022 0.001503 0.000129
# 3 -0.004205 0.002328 0.008248 0.000077 0.000530 -0.000181
# 4 -0.000041 -0.000022 0.000077 -0.082212 -0.000102 0.245664
# 5 -0.000200 0.001503 0.000530 -0.000102 0.027152 0.000344
# 6 0.000102 0.000129 -0.000181 0.245664 0.000344 -0.540784
#
#
# Mechanical properties :
#
#
# Convention : Reuss Voigt Hill
#
# Bulk Modulus (GPa) = 39.93693 89.98331 64.96012
# Shear Modulus (GPa) = -9.11919 41.83434 16.35758
#
# Velocity S-wave (km/s) = -2.03100 4.35010 2.72014
# Velocity P-wave (km/s) = 3.54473 8.11999 6.26495
#
# Compressibility (1/GPa) = 0.02503948
#
# Stress axis : x y z
#
# Youngs Moduli (GPa) = 175.10620 55.05940 121.23806
#
# Poissons Ratio (x) = 0.09160 0.50984
# Poissons Ratio (y) = 0.29132 -0.28224
# Poissons Ratio (z) = 0.73636 -0.12818
#
# Static dielectric constant tensor:
#      x y z
#    x 1.779340 -0.000020 -0.000290 
#    y -0.000020 1.866250 0.000080 
#    z -0.000290 0.000080 1.712140 
# 
# From -- ./inp_files/121928.got.cif
#   From: 2010.05.17/outbox.cif.g08.bks.cpg/sg12_61_cif.got.tgz:121928.got - 2010.06.03 13:09:07.
