data_PCOD9192877
_publ_section_title
;
Structure prediction by ZEFSAII (Michael W. Deem and Ramdas Pophale) SiO2 
 PCOD9192877
Probable space group: C 2/M
;
_chemical_formula_sum "Si O2"
_cell_formula_units_Z 56
_cell_length_a 14.350546
_cell_length_b 9.274021
_cell_length_c 20.629649
_cell_angle_alpha 90.000000
_cell_angle_beta 115.390575
_cell_angle_gamma 90.000000
_cell_volume 2480.340087
_symmetry_space_group_name_H-M "C 2/M"
_symmetry_group_IT_number 12
_symmetry_cell_setting 'monoclinic'
loop_
_space_group_symop_operation_xyz
x,y,z
-x,y,-z
-x,-y,-z
x,-y,z
1/2+x,1/2+y,z
1/2-x,1/2+y,-z
1/2-x,1/2-y,-z
1/2+x,1/2-y,z
loop_
_atom_site_type_symbol
_atom_site_label
_atom_site_fract_x
_atom_site_fract_y
_atom_site_fract_z
Si Si1 0.574185 0.335664 0.379150
Si Si2 0.622405 0.834749 0.518160
Si Si3 0.975689 0.338587 0.754608
Si Si4 0.287093 0.839611 0.209786
Si Si5 0.849918 0.826648 0.949836
Si Si6 0.026193 0.324790 0.915907
Si Si7 0.171573 0.835186 0.657673
O O1 0.607329 0.500000 0.387091
O O2 0.629603 0.250692 0.453222
O O3 0.584874 0.261687 0.312597
O O4 0.451124 0.335302 0.360219
O O5 0.500000 0.833366 0.500000
O O6 0.678489 0.760572 0.595399
O O7 0.652724 0.000000 0.519092
O O8 0.932296 0.500000 0.744293
O O9 0.090127 0.350098 0.758474
O O10 0.998016 0.288408 0.833940
O O11 0.248504 0.803451 0.125822
O O12 0.267386 0.728765 0.262065
O O13 0.245180 0.000000 0.212661
O O14 0.937304 0.754333 0.930262
O O15 0.862259 0.000000 0.962685
O O16 0.868945 0.742452 0.022892
O O17 0.027196 0.500000 0.923227
O O18 0.199022 0.000000 0.652754
#
# Coordination Sequence:
#
# PCOD9192877 Si02
#       7
#     8   8   8   8   8   8   8
#     4   9  16  25  39  62  91 121 154 193 233 272
#     4   9  15  23  37  57  86 125 160 189 226 273
#     4   9  18  32  48  68  95 125 156 191 234 281
#     4   9  18  32  48  68  95 125 156 191 234 281
#     4  10  20  34  52  71  93 122 156 194 233 278
#     4  10  20  34  52  71  93 122 156 194 233 278
#     4   9  16  25  39  62  91 121 154 193 233 272
#
# _framework density 22.577548
#
# number of rings (size 3 to 8) (size 9 to 14) (size 15 to 20)
#    0.000    2.714    0.000    3.000    0.000    8.000 
#    0.000    0.000    0.000    0.000    0.000    1.000 
#    0.000    0.000    0.000    0.000    0.000    0.000 
#
# Total GULP energy -156347.523997 kJ/mol
# GULP energy per Si atom -5583.840143 kJ/mol
# Density = 2.252616 g / cm^3
# Si number density = 22.577548 Si / 1000 Ang^3
#
#
#
# Elastic Constant Matrix: (Units=GPa)
#
#
# Indices 1 2 3 4 5 6 
#
# 1 40.6870 7.4478 25.2451 0.0000 14.4398 0.0000
# 2 7.4478 159.6707 132.6906 0.0000 -15.5841 0.0000
# 3 25.2451 132.6906 218.5635 0.0000 -17.2193 0.0000
# 4 0.0000 0.0000 0.0000 43.7005 0.0000 -4.6514
# 5 14.4398 -15.5841 -17.2193 0.0000 41.0889 0.0000
# 6 0.0000 0.0000 0.0000 -4.6514 0.0000 1.1911
#
#
#
# Elastic Compliance Matrix: (Units=1/GPa)
#
#
# Indices 1 2 3 4 5 6 
#
# 1 0.032727 0.002402 -0.006280 0.000000 -0.013222 0.000000
# 2 0.002402 0.012923 -0.008070 0.000000 0.000676 0.000000
# 3 -0.006280 -0.008070 0.010479 0.000000 0.003538 0.000000
# 4 0.000000 0.000000 0.000000 0.039160 0.000000 0.152929
# 5 -0.013222 0.000676 0.003538 0.000000 0.030723 0.000000
# 6 0.000000 0.000000 0.000000 0.152929 0.000000 1.436796
#
#
# Mechanical properties :
#
#
# Convention : Reuss Voigt Hill
#
# Bulk Modulus (GPa) = 31.02420 83.29870 57.16145
# Shear Modulus (GPa) = 3.12999 34.09862 18.61431
#
# Velocity S-wave (km/s) = 1.17870 3.89046 2.87446
# Velocity P-wave (km/s) = 3.95265 7.56012 6.03237
#
# Compressibility (1/GPa) = 0.03223290
#
# Stress axis : x y z
#
# Youngs Moduli (GPa) = 30.55555 77.38133 95.43257
#
# Poissons Ratio (x) = -0.18585 0.59931
# Poissons Ratio (y) = -0.07339 0.77012
# Poissons Ratio (z) = 0.19189 0.62445
#
# Static dielectric constant tensor:
#      x y z
#    x 1.938650 0.000000 0.046620 
#    y 0.000000 1.782910 0.000000 
#    z 0.046620 0.000000 1.853150 
# 
# From -- ./inp_files/257599.got.cif
#   From: 2010.05.17/outbox.cif.g08.bks.cpg/sg12_129_cif.got.tgz:257599.got - 2010.06.03 13:09:07.
