data_PCOD9192387
_publ_section_title
;
Structure prediction by ZEFSAII (Michael W. Deem and Ramdas Pophale) SiO2 
 PCOD9192387
Probable space group: C 2/M
;
_chemical_formula_sum "Si O2"
_cell_formula_units_Z 64
_cell_length_a 26.626329
_cell_length_b 13.594388
_cell_length_c 9.282586
_cell_angle_alpha 90.000000
_cell_angle_beta 99.179368
_cell_angle_gamma 90.000000
_cell_volume 3316.976114
_symmetry_space_group_name_H-M "C 2/M"
_symmetry_group_IT_number 12
_symmetry_cell_setting 'monoclinic'
loop_
_space_group_symop_operation_xyz
x,y,z
-x,y,-z
-x,-y,-z
x,-y,z
1/2+x,1/2+y,z
1/2-x,1/2+y,-z
1/2-x,1/2-y,-z
1/2+x,1/2-y,z
loop_
_atom_site_type_symbol
_atom_site_label
_atom_site_fract_x
_atom_site_fract_y
_atom_site_fract_z
Si Si1 0.307928 0.258234 0.970496
Si Si2 0.211726 0.609003 0.556567
Si Si3 0.964975 0.109589 0.315883
Si Si4 0.102927 0.888390 0.998727
Si Si5 0.183152 0.793928 0.359707
Si Si6 0.641196 0.889218 0.788059
Si Si7 0.943516 0.690725 0.473245
Si Si8 0.573293 0.312733 0.276790
O O1 0.308629 0.251062 0.797573
O O2 0.250000 0.250000 0.000000
O O3 0.338629 0.360411 0.007277
O O4 0.344159 0.181846 0.073618
O O5 0.200753 0.500000 0.492542
O O6 0.185647 0.699712 0.464087
O O7 0.271137 0.633419 0.582742
O O8 0.191031 0.610737 0.709403
O O9 0.929706 0.117704 0.159996
O O10 0.949435 0.198219 0.412766
O O11 0.023088 0.126658 0.292603
O O12 0.958290 0.000000 0.373153
O O13 0.099305 0.000000 0.053389
O O14 0.079330 0.814944 0.106982
O O15 0.129380 0.848611 0.347963
O O16 0.596245 0.858817 0.654761
O O17 0.631044 0.000000 0.833952
O O18 0.930513 0.710301 0.635470
O O19 0.000000 0.644753 0.500000
#
# Coordination Sequence:
#
# PCOD9192387 Si02
#       8
#     8   8   8   8   8   8   8   8
#     4  11  22  38  59  83 119 153 192 242 286 343
#     4  10  21  38  60  84 113 150 194 237 288 348
#     4  10  20  35  56  83 119 154 186 229 286 353
#     4  10  21  36  57  84 116 153 190 228 281 353
#     4  10  21  37  60  84 118 151 188 240 290 342
#     4  11  22  40  63  83 112 154 200 245 294 346
#     4  10  21  38  60  86 118 150 194 247 294 341
#     4  10  20  33  55  84 115 149 185 229 284 341
#
# _framework density 19.294682000000002
#
# number of rings (size 3 to 8) (size 9 to 14) (size 15 to 20)
#    0.000    1.750    3.750    0.750    0.000    7.500 
#    0.000    0.000    0.000    0.000    0.000    3.500 
#    0.000    0.000    0.000    0.000    0.000    0.000 
#
# Total GULP energy -178180.494950 kJ/mol
# GULP energy per Si atom -5568.140467 kJ/mol
# Density = 1.925077 g / cm^3
# Si number density = 19.294682 Si / 1000 Ang^3
#
#
#
# Elastic Constant Matrix: (Units=GPa)
#
#
# Indices 1 2 3 4 5 6 
#
# 1 70.8151 -1.0793 3.2519 0.0000 2.8608 0.0000
# 2 -1.0793 55.2108 15.9442 0.0000 0.0237 0.0000
# 3 3.2519 15.9442 70.4351 0.0000 7.5311 0.0000
# 4 0.0000 0.0000 0.0000 10.3030 0.0000 -5.0764
# 5 2.8608 0.0237 7.5311 0.0000 28.6087 0.0000
# 6 0.0000 0.0000 0.0000 -5.0764 0.0000 13.2560
#
#
#
# Elastic Compliance Matrix: (Units=1/GPa)
#
#
# Indices 1 2 3 4 5 6 
#
# 1 0.014208 0.000459 -0.000625 0.000000 -0.001256 0.000000
# 2 0.000459 0.019432 -0.004541 0.000000 0.001133 0.000000
# 3 -0.000625 -0.004541 0.015689 0.000000 -0.004064 0.000000
# 4 0.000000 0.000000 0.000000 0.119632 0.000000 0.045814
# 5 -0.001256 0.001133 -0.004064 0.000000 0.036149 0.000000
# 6 0.000000 0.000000 0.000000 0.045814 0.000000 0.092982
#
#
# Mechanical properties :
#
#
# Convention : Reuss Voigt Hill
#
# Bulk Modulus (GPa) = 25.05431 25.85497 25.45464
# Shear Modulus (GPa) = 15.58546 22.32315 18.95431
#
# Velocity S-wave (km/s) = 2.84519 3.40510 3.13766
# Velocity P-wave (km/s) = 4.87922 5.37482 5.13301
#
# Compressibility (1/GPa) = 0.03991330
#
# Stress axis : x y z
#
# Youngs Moduli (GPa) = 70.38409 51.46063 63.73955
#
# Poissons Ratio (x) = -0.02362 0.03987
# Poissons Ratio (y) = -0.03230 0.28946
# Poissons Ratio (z) = 0.04402 0.23369
#
# Static dielectric constant tensor:
#      x y z
#    x 1.706860 0.000000 0.000030 
#    y 0.000000 1.667840 0.000000 
#    z 0.000030 0.000000 1.700290 
# 
# From -- ./inp_files/104616.got.cif
#   From: 2010.05.17/outbox.cif.g08.bks.cpg/sg12_53_cif.got.tgz:104616.got - 2010.06.03 13:09:07.
