data_PCOD9192292
_publ_section_title
;
Structure prediction by ZEFSAII (Michael W. Deem and Ramdas Pophale) SiO2 
 PCOD9192292
Probable space group: C 2/M
;
_chemical_formula_sum "Si O2"
_cell_formula_units_Z 56
_cell_length_a 19.556659
_cell_length_b 8.983185
_cell_length_c 27.184629
_cell_angle_alpha 90.000000
_cell_angle_beta 38.628977
_cell_angle_gamma 90.000000
_cell_volume 2981.427122
_symmetry_space_group_name_H-M "C 2/M"
_symmetry_group_IT_number 12
_symmetry_cell_setting 'monoclinic'
loop_
_space_group_symop_operation_xyz
x,y,z
-x,y,-z
-x,-y,-z
x,-y,z
1/2+x,1/2+y,z
1/2-x,1/2+y,-z
1/2-x,1/2-y,-z
1/2+x,1/2-y,z
loop_
_atom_site_type_symbol
_atom_site_label
_atom_site_fract_x
_atom_site_fract_y
_atom_site_fract_z
Si Si1 0.941247 0.170561 0.979290
Si Si2 0.289046 0.676923 0.319447
Si Si3 0.241147 0.822537 0.137058
Si Si4 0.168246 0.819816 0.814601
Si Si5 0.509379 0.676962 0.726833
Si Si6 0.629068 0.822807 0.567467
Si Si7 0.405553 0.325426 0.512790
O O1 0.831460 0.263478 0.047931
O O2 0.913682 0.000000 0.982442
O O3 0.000000 0.170247 0.000000
O O4 0.039529 0.224280 0.889186
O O5 0.264972 0.500000 0.337607
O O6 0.282256 0.718636 0.266046
O O7 0.411236 0.700440 0.271422
O O8 0.205863 0.767564 0.399847
O O9 0.270573 0.752470 0.173664
O O10 0.116710 0.782322 0.193650
O O11 0.249971 0.000000 0.135535
O O12 0.170631 0.000000 0.818863
O O13 0.513161 0.500000 0.713067
O O14 0.560576 0.764804 0.652299
O O15 0.750000 0.750000 0.500000
O O16 0.573868 0.767481 0.548029
O O17 0.639059 0.000000 0.562632
O O18 0.500000 0.305463 0.500000
O O19 0.397001 0.500000 0.505224
#
# Coordination Sequence:
#
# PCOD9192292 Si02
#       7
#     8   8   8   8   8   8   8
#     4   8  15  31  53  77 109 144 183 229 275 329
#     4  10  21  39  60  80 109 150 192 230 276 338
#     4  10  20  33  54  83 113 144 183 230 282 333
#     4   9  19  35  56  82 109 144 188 232 280 332
#     4  10  22  39  57  81 114 151 187 231 281 331
#     4  12  24  40  63  86 112 150 193 233 279 338
#     4  11  25  42  60  85 118 149 185 237 287 333
#
# _framework density 18.782951000000001
#
# number of rings (size 3 to 8) (size 9 to 14) (size 15 to 20)
#    0.000    2.000    1.429    3.000    2.000    5.429 
#    0.000    0.714    0.000    0.000    0.000    0.000 
#    0.000    0.000    0.000    0.000    0.000    0.000 
#
# Total GULP energy -156319.159703 kJ/mol
# GULP energy per Si atom -5582.827132 kJ/mol
# Density = 1.874020 g / cm^3
# Si number density = 18.782951 Si / 1000 Ang^3
#
#
#
# Elastic Constant Matrix: (Units=GPa)
#
#
# Indices 1 2 3 4 5 6 
#
# 1 41.3741 19.7263 -3.0554 0.0000 -13.5774 0.0001
# 2 19.7263 43.6383 5.3280 -0.0001 -13.6868 0.0002
# 3 -3.0554 5.3280 26.3470 0.0000 -18.3096 0.0001
# 4 0.0000 -0.0001 0.0000 28.8161 0.0000 -4.0211
# 5 -13.5774 -13.6868 -18.3096 0.0000 33.4326 -0.0001
# 6 0.0001 0.0002 0.0001 -4.0211 -0.0001 19.5768
#
#
#
# Elastic Compliance Matrix: (Units=1/GPa)
#
#
# Indices 1 2 3 4 5 6 
#
# 1 0.040334 -0.013650 0.024116 0.000000 0.024000 0.000000
# 2 -0.013650 0.031111 -0.004643 0.000000 0.004651 0.000000
# 3 0.024116 -0.004643 0.076163 0.000000 0.049604 0.000000
# 4 0.000000 0.000000 0.000000 0.035727 0.000000 0.007338
# 5 0.024000 0.004651 0.049604 0.000000 0.068728 0.000000
# 6 0.000000 0.000000 0.000000 0.007338 0.000000 0.052588
#
#
# Mechanical properties :
#
#
# Convention : Reuss Voigt Hill
#
# Bulk Modulus (GPa) = 6.27920 17.26192 11.77056
# Shear Modulus (GPa) = 14.44713 22.32245 18.38479
#
# Velocity S-wave (km/s) = 2.77639 3.45112 3.13198
# Velocity P-wave (km/s) = 3.69162 5.00904 4.39991
#
# Compressibility (1/GPa) = 0.15925592
#
# Stress axis : x y z
#
# Youngs Moduli (GPa) = 24.79268 32.14248 13.12979
#
# Poissons Ratio (x) = 0.43874 -0.31664
# Poissons Ratio (y) = 0.33842 0.06096
# Poissons Ratio (z) = -0.59791 0.14923
#
# Static dielectric constant tensor:
#      x y z
#    x 1.646850 0.000000 -0.012320 
#    y 0.000000 1.633560 0.000000 
#    z -0.012320 0.000000 1.647720 
# 
# From -- ./inp_files/362954.got.cif
#   From: 2010.05.17/outbox.cif.g08.bks.cpg/sg12_182_cif.got.tgz:362954.got - 2010.06.03 13:09:07.
