data_PCOD9192562
_publ_section_title
;
Structure prediction by ZEFSAII (Michael W. Deem and Ramdas Pophale) SiO2 
 PCOD9192562
Probable space group: C 2/M
;
_chemical_formula_sum "Si O2"
_cell_formula_units_Z 56
_cell_length_a 9.826829
_cell_length_b 17.786657
_cell_length_c 23.980222
_cell_angle_alpha 90.000000
_cell_angle_beta 43.602678
_cell_angle_gamma 90.000000
_cell_volume 2890.625330
_symmetry_space_group_name_H-M "C 2/M"
_symmetry_group_IT_number 12
_symmetry_cell_setting 'monoclinic'
loop_
_space_group_symop_operation_xyz
x,y,z
-x,y,-z
-x,-y,-z
x,-y,z
1/2+x,1/2+y,z
1/2-x,1/2+y,-z
1/2-x,1/2-y,-z
1/2+x,1/2-y,z
loop_
_atom_site_type_symbol
_atom_site_label
_atom_site_fract_x
_atom_site_fract_y
_atom_site_fract_z
Si Si1 0.410949 0.415095 0.746469
Si Si2 0.531389 0.151389 0.813569
Si Si3 0.928849 0.694418 0.458001
Si Si4 0.541962 0.912752 0.925170
Si Si5 0.597185 0.088725 0.257512
Si Si6 0.186514 0.805488 0.722408
Si Si7 0.775525 0.089552 0.560660
O O1 0.482328 0.500000 0.715200
O O2 0.246257 0.390347 0.750536
O O3 0.276524 0.414492 0.842619
O O4 0.571890 0.351988 0.708799
O O5 0.462413 0.137858 0.897761
O O6 0.395637 0.110460 0.809102
O O7 0.565721 0.236561 0.784073
O O8 0.750000 0.750000 0.500000
O O9 0.840238 0.616972 0.459827
O O10 0.000000 0.689366 0.500000
O O11 0.111633 0.720877 0.365983
O O12 0.474256 0.000000 0.939275
O O13 0.500000 0.887094 0.000000
O O14 0.750120 0.136127 0.248451
O O15 0.376584 0.110887 0.344781
O O16 0.622876 0.000000 0.258665
O O17 0.000000 0.119596 0.500000
O O18 0.789050 0.000000 0.556400
#
# Coordination Sequence:
#
# PCOD9192562 Si02
#       7
#     8   8   8   8   8   8   8
#     4   9  19  36  59  84 109 147 190 225 277 336
#     4  10  20  33  58  87 108 143 188 229 269 336
#     4  11  26  38  57  77 109 153 195 235 289 353
#     4   8  16  34  60  86 113 147 188 226 268 336
#     4  10  20  35  55  78 109 145 182 227 284 338
#     4  11  23  36  56  81 117 143 181 245 288 328
#     4   9  20  38  56  78 107 142 184 237 290 338
#
# _framework density 19.372972000000001
#
# number of rings (size 3 to 8) (size 9 to 14) (size 15 to 20)
#    0.857    1.429    0.000    2.571    8.000    0.857 
#    0.000    2.143    0.000    0.000    0.000    4.000 
#    0.000    0.000    0.000    0.000    0.000    0.000 
#
# Total GULP energy -155974.427408 kJ/mol
# GULP energy per Si atom -5570.515265 kJ/mol
# Density = 1.932888 g / cm^3
# Si number density = 19.372972 Si / 1000 Ang^3
#
#
#
# Elastic Constant Matrix: (Units=GPa)
#
#
# Indices 1 2 3 4 5 6 
#
# 1 58.3969 -1.7556 11.1111 0.0001 24.3939 0.0011
# 2 -1.7556 55.5917 4.0010 0.0019 7.5234 -0.0040
# 3 11.1111 4.0010 28.0219 0.0042 21.4410 0.0198
# 4 0.0001 0.0019 0.0042 1.5893 0.0014 11.8697
# 5 24.3939 7.5234 21.4410 0.0014 29.2550 -0.0002
# 6 0.0011 -0.0040 0.0198 11.8697 -0.0002 43.1782
#
#
#
# Elastic Compliance Matrix: (Units=1/GPa)
#
#
# Indices 1 2 3 4 5 6 
#
# 1 0.030425 0.005042 0.017348 -0.000041 -0.039381 0.000003
# 2 0.005042 0.019537 0.005174 0.000019 -0.013020 -0.000006
# 3 0.017348 0.005174 0.091423 -0.000132 -0.082800 -0.000006
# 4 -0.000041 0.000019 -0.000132 -0.597496 0.000157 0.164252
# 5 -0.039381 -0.013020 -0.082800 0.000157 0.131052 -0.000005
# 6 0.000003 -0.000006 -0.000006 0.164252 -0.000005 -0.021993
#
#
# Mechanical properties :
#
#
# Convention : Reuss Voigt Hill
#
# Bulk Modulus (GPa) = 5.08871 18.74706 11.91789
# Shear Modulus (GPa) = -14.85116 23.38144 4.26514
#
# Velocity S-wave (km/s) = -2.77174 3.47783 1.48539
# Velocity P-wave (km/s) = 2.75880 5.08183 3.01778
#
# Compressibility (1/GPa) = 0.19651350
#
# Stress axis : x y z
#
# Youngs Moduli (GPa) = 32.86729 51.18434 10.93811
#
# Poissons Ratio (x) = -0.25806 -0.18976
# Poissons Ratio (y) = -0.16571 -0.05659
# Poissons Ratio (z) = -0.57019 -0.26481
#
# Static dielectric constant tensor:
#      x y z
#    x 1.697370 0.000000 0.006710 
#    y 0.000000 1.695640 0.000000 
#    z 0.006710 0.000000 1.713250 
# 
# From -- ./inp_files/301392.got.cif
#   From: 2010.05.17/outbox.cif.g08.bks.cpg/sg12_151_cif.got.tgz:301392.got - 2010.06.03 13:09:07.
