data_PCOD9192755
_publ_section_title
;
Structure prediction by ZEFSAII (Michael W. Deem and Ramdas Pophale) SiO2 
 PCOD9192755
Probable space group: C 2/M
;
_chemical_formula_sum "Si O2"
_cell_formula_units_Z 48
_cell_length_a 14.969280
_cell_length_b 7.458641
_cell_length_c 16.570475
_cell_angle_alpha 90.000000
_cell_angle_beta 101.512951
_cell_angle_gamma 90.000000
_cell_volume 1812.876823
_symmetry_space_group_name_H-M "C 2/M"
_symmetry_group_IT_number 12
_symmetry_cell_setting 'monoclinic'
loop_
_space_group_symop_operation_xyz
x,y,z
-x,y,-z
-x,-y,-z
x,-y,z
1/2+x,1/2+y,z
1/2-x,1/2+y,-z
1/2-x,1/2-y,-z
1/2+x,1/2-y,z
loop_
_atom_site_type_symbol
_atom_site_label
_atom_site_fract_x
_atom_site_fract_y
_atom_site_fract_z
Si Si1 0.881210 0.719796 0.050338
Si Si2 0.057367 0.280097 0.680655
Si Si3 0.223641 0.199536 0.131315
Si Si4 0.044879 0.287572 0.179403
Si Si5 0.892733 0.292895 0.552511
Si Si6 0.725841 0.217192 0.620097
O O1 0.875936 0.500000 0.041728
O O2 0.816869 0.780643 0.113680
O O3 0.983340 0.771247 0.092187
O O4 0.837689 0.794997 0.961452
O O5 0.056452 0.500000 0.680561
O O6 0.005770 0.215637 0.750928
O O7 0.990765 0.221317 0.595703
O O8 0.162015 0.228017 0.683572
O O9 0.151683 0.258429 0.185477
O O10 0.250206 0.000000 0.159865
O O11 0.033103 0.500000 0.180461
O O12 0.906483 0.500000 0.533423
O O13 0.826740 0.285023 0.619220
O O14 0.834016 0.217879 0.468231
O O15 0.732256 0.000000 0.620848
#
# Coordination Sequence:
#
# PCOD9192755 Si02
#       6
#     8   8   8   8   8   8
#     4   9  19  35  53  72  96 128 163 198 239 289
#     4   9  18  32  50  71  97 132 167 196 235 291
#     4  10  20  34  53  76  99 124 159 203 245 284
#     4  10  20  34  51  71  98 132 165 196 237 291
#     4   9  17  31  51  74  98 125 162 206 245 281
#     4   9  17  31  52  74  96 127 166 203 239 284
#
# _framework density 26.477252
#
# number of rings (size 3 to 8) (size 9 to 14) (size 15 to 20)
#    0.000    2.667    0.000    1.500    0.000    6.667 
#    0.000    4.167    0.000    4.000    0.000    0.000 
#    0.000    0.000    0.000    0.000    0.000    0.000 
#
# Total GULP energy -134091.575917 kJ/mol
# GULP energy per Si atom -5587.148997 kJ/mol
# Density = 2.641699 g / cm^3
# Si number density = 26.477252 Si / 1000 Ang^3
#
#
#
# Elastic Constant Matrix: (Units=GPa)
#
#
# Indices 1 2 3 4 5 6 
#
# 1 177.0723 -8.0339 15.0531 0.0000 -21.9512 0.0000
# 2 -8.0339 74.7315 -6.1790 0.0000 -0.0334 0.0000
# 3 15.0531 -6.1790 71.3839 0.0000 -22.9006 0.0000
# 4 0.0000 0.0000 0.0000 -2.5838 0.0000 -18.8294
# 5 -21.9512 -0.0334 -22.9006 0.0000 53.0641 0.0000
# 6 0.0000 0.0000 0.0000 -18.8294 0.0000 10.1609
#
#
#
# Elastic Compliance Matrix: (Units=1/GPa)
#
#
# Indices 1 2 3 4 5 6 
#
# 1 0.005998 0.000606 -0.000483 0.000000 0.002273 0.000000
# 2 0.000606 0.013555 0.001310 0.000000 0.000825 0.000000
# 3 -0.000483 0.001310 0.016436 0.000000 0.006894 0.000000
# 4 0.000000 0.000000 0.000000 -0.026683 0.000000 -0.049447
# 5 0.002273 0.000825 0.006894 0.000000 0.022761 0.000000
# 6 0.000000 0.000000 0.000000 -0.049447 0.000000 0.006785
#
#
# Mechanical properties :
#
#
# Convention : Reuss Voigt Hill
#
# Bulk Modulus (GPa) = 25.73731 36.09646 30.91688
# Shear Modulus (GPa) = 102.17100 33.61807 67.89454
#
# Velocity S-wave (km/s) = 6.21868 3.56715 5.06935
# Velocity P-wave (km/s) = 7.82971 5.53431 6.77986
#
# Compressibility (1/GPa) = 0.03885411
#
# Stress axis : x y z
#
# Youngs Moduli (GPa) = 166.72931 73.77320 60.84312
#
# Poissons Ratio (x) = -0.04470 0.02940
# Poissons Ratio (y) = -0.10101 -0.07971
# Poissons Ratio (z) = 0.08055 -0.09665
#
# Static dielectric constant tensor:
#      x y z
#    x 2.051950 0.000000 -0.047750 
#    y 0.000000 2.053000 0.000000 
#    z -0.047750 0.000000 2.160530 
# 
# From -- ./inp_files/267663.got.cif
#   From: 2010.05.17/outbox.cif.g08.bks.cpg/sg12_134_cif.got.tgz:267663.got - 2010.06.03 13:09:07.
