data_PCOD9192162
_publ_section_title
;
Structure prediction by ZEFSAII (Michael W. Deem and Ramdas Pophale) SiO2 
 PCOD9192162
Probable space group: C 2/M
;
_chemical_formula_sum "Si O2"
_cell_formula_units_Z 40
_cell_length_a 30.400704
_cell_length_b 10.098306
_cell_length_c 18.834156
_cell_angle_alpha 90.000000
_cell_angle_beta 159.693295
_cell_angle_gamma 90.000000
_cell_volume 2006.617656
_symmetry_space_group_name_H-M "C 2/M"
_symmetry_group_IT_number 12
_symmetry_cell_setting 'monoclinic'
loop_
_space_group_symop_operation_xyz
x,y,z
-x,y,-z
-x,-y,-z
x,-y,z
1/2+x,1/2+y,z
1/2-x,1/2+y,-z
1/2-x,1/2-y,-z
1/2+x,1/2-y,z
loop_
_atom_site_type_symbol
_atom_site_label
_atom_site_fract_x
_atom_site_fract_y
_atom_site_fract_z
Si Si1 0.946353 0.653384 0.997344
Si Si2 0.954807 0.154351 0.136003
Si Si3 0.547136 0.791345 0.644359
Si Si4 0.712781 0.143560 0.029813
Si Si5 0.146327 0.148149 0.554054
O O1 0.977188 0.500000 0.063825
O O2 0.794301 0.667151 0.767145
O O3 0.990417 0.762717 0.120254
O O4 0.000000 0.675586 0.000000
O O5 0.845303 0.237789 0.011201
O O6 0.072583 0.156301 0.368180
O O7 0.920261 0.000000 0.070979
O O8 0.500000 0.856139 0.500000
O O9 0.637698 0.857511 0.840821
O O10 0.422047 0.748012 0.496767
O O11 0.639622 0.670944 0.760671
O O12 0.692665 0.000000 0.033676
O O13 0.124902 0.000000 0.549835
#
# Coordination Sequence:
#
# PCOD9192162 Si02
#       5
#     8   8   8   8   8
#     4  10  21  38  61  86 109 138 181 230 276 325
#     4  10  21  38  58  80 112 149 181 221 273 328
#     4  10  20  33  53  81 113 148 184 223 271 322
#     4  10  21  36  55  81 112 147 187 227 267 317
#     4   9  19  36  55  79 112 148 183 219 271 333
#
# _framework density 19.934041000000001
#
# number of rings (size 3 to 8) (size 9 to 14) (size 15 to 20)
#    0.000    2.200    0.000    2.400    0.000    9.600 
#    0.000    9.000    0.000    0.000    0.000    0.000 
#    0.000    0.000    0.000    0.000    0.000    0.000 
#
# Total GULP energy -111574.694946 kJ/mol
# GULP energy per Si atom -5578.734747 kJ/mol
# Density = 1.988867 g / cm^3
# Si number density = 19.934041 Si / 1000 Ang^3
#
#
#
# Elastic Constant Matrix: (Units=GPa)
#
#
# Indices 1 2 3 4 5 6 
#
# 1 117.7959 67.5034 29.6320 0.0000 -20.5680 0.0000
# 2 67.5034 135.6848 27.8256 0.0000 -16.9620 0.0000
# 3 29.6320 27.8256 65.3561 0.0000 -11.9280 0.0000
# 4 0.0000 0.0000 0.0000 -0.3791 0.0000 16.0711
# 5 -20.5680 -16.9620 -11.9280 0.0000 17.4291 0.0000
# 6 0.0000 0.0000 0.0000 16.0711 0.0000 -14.1381
#
#
#
# Elastic Compliance Matrix: (Units=1/GPa)
#
#
# Indices 1 2 3 4 5 6 
#
# 1 0.013680 -0.005143 -0.002263 0.000000 0.009590 0.000000
# 2 -0.005143 0.010661 -0.001624 0.000000 0.003195 0.000000
# 3 -0.002263 -0.001624 0.018561 0.000000 0.008452 0.000000
# 4 0.000000 0.000000 0.000000 0.055900 0.000000 0.063542
# 5 0.009590 0.003195 0.008452 0.000000 0.077586 0.000000
# 6 0.000000 0.000000 0.000000 0.063542 0.000000 0.001499
#
#
# Mechanical properties :
#
#
# Convention : Reuss Voigt Hill
#
# Bulk Modulus (GPa) = 40.25363 63.19543 51.72453
# Shear Modulus (GPa) = 24.48260 13.50743 18.99502
#
# Velocity S-wave (km/s) = 3.50834 2.60591 3.09025
# Velocity P-wave (km/s) = 6.05380 6.38948 6.22391
#
# Compressibility (1/GPa) = 0.02484248
#
# Stress axis : x y z
#
# Youngs Moduli (GPa) = 73.09850 93.79875 53.87756
#
# Poissons Ratio (x) = 0.48241 0.12190
# Poissons Ratio (y) = 0.37595 0.08751
# Poissons Ratio (z) = 0.16539 0.15234
#
# Static dielectric constant tensor:
#      x y z
#    x 1.695290 0.000000 -0.039830 
#    y 0.000000 1.724730 0.000000 
#    z -0.039830 0.000000 1.705610 
# 
# From -- ./inp_files/250228.got.cif
#   From: 2010.05.17/outbox.cif.g08.bks.cpg/sg12_126_cif.got.tgz:250228.got - 2010.06.03 13:09:07.
