data_PCOD9192503
_publ_section_title
;
Structure prediction by ZEFSAII (Michael W. Deem and Ramdas Pophale) SiO2 
 PCOD9192503
Probable space group: C 2/M
;
_chemical_formula_sum "Si O2"
_cell_formula_units_Z 48
_cell_length_a 17.952525
_cell_length_b 18.282054
_cell_length_c 9.111381
_cell_angle_alpha 90.000000
_cell_angle_beta 135.954203
_cell_angle_gamma 90.000000
_cell_volume 2079.051225
_symmetry_space_group_name_H-M "C 2/M"
_symmetry_group_IT_number 12
_symmetry_cell_setting 'monoclinic'
loop_
_space_group_symop_operation_xyz
x,y,z
-x,y,-z
-x,-y,-z
x,-y,z
1/2+x,1/2+y,z
1/2-x,1/2+y,-z
1/2-x,1/2-y,-z
1/2+x,1/2-y,z
loop_
_atom_site_type_symbol
_atom_site_label
_atom_site_fract_x
_atom_site_fract_y
_atom_site_fract_z
Si Si1 0.737995 0.668861 0.917763
Si Si2 0.072040 0.196804 0.456055
Si Si3 0.623965 0.914444 0.712085
Si Si4 0.723526 0.648799 0.321763
Si Si5 0.928891 0.915326 0.106977
Si Si6 0.892398 0.298678 0.759424
O O1 0.500000 0.709363 0.500000
O O2 0.685771 0.677492 0.686628
O O3 0.654712 0.620272 0.894708
O O4 0.750000 0.750000 0.000000
O O5 0.069875 0.264233 0.342975
O O6 0.032426 0.130613 0.298141
O O7 0.500000 0.911020 0.500000
O O8 0.690608 0.869351 0.685188
O O9 0.652570 0.875302 0.906044
O O10 0.656855 0.000000 0.757486
O O11 0.625078 0.597656 0.128597
O O12 0.798785 0.645576 0.573097
O O13 0.666004 0.728586 0.245612
O O14 0.943947 0.000000 0.154214
O O15 0.000000 0.320604 0.000000
#
# Coordination Sequence:
#
# PCOD9192503 Si02
#       6
#     8   8   8   8   8   8
#     4  10  20  33  56  94 129 161 208 268 322 376
#     4  10  21  36  59  91 129 162 212 267 320 388
#     4  10  22  43  68  94 129 176 226 271 325 391
#     4  10  21  39  63  89 125 174 210 265 325 392
#     4  10  20  37  62  89 125 170 212 259 326 390
#     4  11  22  40  62  94 137 166 213 266 340 389
#
# _framework density 23.087454000000001
#
# number of rings (size 3 to 8) (size 9 to 14) (size 15 to 20)
#    0.000    1.833    1.667    4.000    0.000    9.000 
#    6.000    2.500    0.000    2.000    0.000    0.000 
#    0.000    0.000    0.000    0.000    0.000    0.000 
#
# Total GULP energy -133887.955738 kJ/mol
# GULP energy per Si atom -5578.664822 kJ/mol
# Density = 2.303491 g / cm^3
# Si number density = 23.087454 Si / 1000 Ang^3
#
#
#
# Elastic Constant Matrix: (Units=GPa)
#
#
# Indices 1 2 3 4 5 6 
#
# 1 99.9094 16.4352 16.0145 0.0000 -16.8905 0.0000
# 2 16.4352 101.2613 53.2435 0.0000 -3.3644 0.0000
# 3 16.0145 53.2435 238.2125 0.0000 -9.7665 0.0000
# 4 0.0000 0.0000 0.0000 34.6198 0.0000 -2.0317
# 5 -16.8905 -3.3644 -9.7665 0.0000 24.7684 0.0000
# 6 0.0000 0.0000 0.0000 -2.0317 0.0000 21.0315
#
#
#
# Elastic Compliance Matrix: (Units=1/GPa)
#
#
# Indices 1 2 3 4 5 6 
#
# 1 0.011576 -0.001564 -0.000115 0.000000 0.007636 0.000000
# 2 -0.001564 0.011409 -0.002465 0.000000 -0.000489 0.000000
# 3 -0.000115 -0.002465 0.004818 0.000000 0.001486 0.000000
# 4 0.000000 0.000000 0.000000 0.029050 0.000000 0.002806
# 5 0.007636 -0.000489 0.001486 0.000000 0.046101 0.000000
# 6 0.000000 0.000000 0.000000 0.002806 0.000000 0.047819
#
#
# Mechanical properties :
#
#
# Convention : Reuss Voigt Hill
#
# Bulk Modulus (GPa) = 51.24813 67.86331 59.55572
# Shear Modulus (GPa) = 30.19943 39.66329 34.93136
#
# Velocity S-wave (km/s) = 3.62061 4.14932 3.89395
# Velocity P-wave (km/s) = 6.30270 7.23973 6.78740
#
# Compressibility (1/GPa) = 0.01951291
#
# Stress axis : x y z
#
# Youngs Moduli (GPa) = 86.38680 87.64863 207.57322
#
# Poissons Ratio (x) = 0.13712 0.02397
# Poissons Ratio (y) = 0.13514 0.51166
# Poissons Ratio (z) = 0.00998 0.21605
#
# Static dielectric constant tensor:
#      x y z
#    x 2.026360 0.000000 0.051620 
#    y 0.000000 1.815500 0.000000 
#    z 0.051620 0.000000 1.977900 
# 
# From -- ./inp_files/177799.got.cif
#   From: 2010.05.17/outbox.cif.g08.bks.cpg/sg12_89_cif.got.tgz:177799.got - 2010.06.03 13:09:07.
