data_PCOD9192587
_publ_section_title
;
Structure prediction by ZEFSAII (Michael W. Deem and Ramdas Pophale) SiO2 
 PCOD9192587
Probable space group: C 2/M
;
_chemical_formula_sum "Si O2"
_cell_formula_units_Z 52
_cell_length_a 12.771049
_cell_length_b 21.435373
_cell_length_c 11.166372
_cell_angle_alpha 90.000000
_cell_angle_beta 55.416736
_cell_angle_gamma 90.000000
_cell_volume 2516.685715
_symmetry_space_group_name_H-M "C 2/M"
_symmetry_group_IT_number 12
_symmetry_cell_setting 'monoclinic'
loop_
_space_group_symop_operation_xyz
x,y,z
-x,y,-z
-x,-y,-z
x,-y,z
1/2+x,1/2+y,z
1/2-x,1/2+y,-z
1/2-x,1/2-y,-z
1/2+x,1/2-y,z
loop_
_atom_site_type_symbol
_atom_site_label
_atom_site_fract_x
_atom_site_fract_y
_atom_site_fract_z
Si Si1 0.310111 0.632199 0.083001
Si Si2 0.391280 0.384679 0.483184
Si Si3 0.185844 0.707734 0.645802
Si Si4 0.407309 0.500000 0.946626
Si Si5 0.661208 0.500000 0.637003
Si Si6 0.105636 0.500000 0.330370
Si Si7 0.460943 0.864529 0.665743
Si Si8 0.460255 0.321984 0.195107
O O1 0.174967 0.662268 0.204561
O O2 0.383568 0.628126 0.163332
O O3 0.324589 0.563681 0.011019
O O4 0.397672 0.676829 0.945723
O O5 0.500000 0.409287 0.500000
O O6 0.295911 0.338920 0.616239
O O7 0.318603 0.439376 0.459405
O O8 0.452888 0.343325 0.336731
O O9 0.250000 0.750000 0.500000
O O10 0.114485 0.757513 0.774453
O O11 0.076206 0.664942 0.661331
O O12 0.511263 0.500000 0.772017
O O13 0.500000 0.500000 0.000000
O O14 0.759560 0.500000 0.685633
O O15 0.072759 0.436542 0.285276
O O16 0.000000 0.500000 0.500000
O O17 0.500000 0.858153 0.500000
#
# Coordination Sequence:
#
# PCOD9192587 Si02
#       8
#     8   8   8   4   4   4   8   8
#     4  11  21  36  64  94 128 157 210 268 335 369
#     4  11  22  39  62  89 125 169 212 256 311 380
#     4  10  23  39  56  81 123 169 215 259 300 366
#     4  12  18  33  64  96 126 157 189 271 324 378
#     4  12  21  38  64  97 132 154 215 266 325 385
#     4  10  20  33  59  97 128 153 194 268 333 380
#     4  11  21  36  61  93 127 161 202 265 331 381
#     4  10  21  37  57  92 123 167 215 258 310 369
#
# _framework density 20.662095999999998
#
# number of rings (size 3 to 8) (size 9 to 14) (size 15 to 20)
#    0.000    1.231    3.077    6.231    0.000    5.538 
#    0.000    1.538    0.000    0.000    0.000    1.077 
#    0.000    0.000    0.000    0.000    0.000    0.000 
#
# Total GULP energy -144925.192953 kJ/mol
# GULP energy per Si atom -5574.045883 kJ/mol
# Density = 2.061507 g / cm^3
# Si number density = 20.662096 Si / 1000 Ang^3
#
#
#
# Elastic Constant Matrix: (Units=GPa)
#
#
# Indices 1 2 3 4 5 6 
#
# 1 73.5924 31.5972 18.8458 0.0000 -20.9238 0.0000
# 2 31.5972 101.0831 29.0984 0.0000 -9.6786 0.0000
# 3 18.8458 29.0984 102.5150 0.0000 -37.1064 0.0000
# 4 0.0000 0.0000 0.0000 30.0209 0.0000 -13.7116
# 5 -20.9238 -9.6786 -37.1064 0.0000 37.6404 0.0000
# 6 0.0000 0.0000 0.0000 -13.7116 0.0000 19.3219
#
#
#
# Elastic Compliance Matrix: (Units=1/GPa)
#
#
# Indices 1 2 3 4 5 6 
#
# 1 0.018449 -0.005317 0.002076 0.000000 0.010934 0.000000
# 2 -0.005317 0.012309 -0.003795 0.000000 -0.003532 0.000000
# 3 0.002076 -0.003795 0.016348 0.000000 0.016294 0.000000
# 4 0.000000 0.000000 0.000000 0.049284 0.000000 0.034974
# 5 0.010934 -0.003532 0.016294 0.000000 0.047800 0.000000
# 6 0.000000 0.000000 0.000000 0.034974 0.000000 0.076574
#
#
# Mechanical properties :
#
#
# Convention : Reuss Voigt Hill
#
# Bulk Modulus (GPa) = 30.27273 48.47482 39.37378
# Shear Modulus (GPa) = 20.33775 30.57322 25.45549
#
# Velocity S-wave (km/s) = 3.14076 3.85083 3.51378
# Velocity P-wave (km/s) = 5.27595 6.57902 5.96319
#
# Compressibility (1/GPa) = 0.03303303
#
# Stress axis : x y z
#
# Youngs Moduli (GPa) = 54.20438 81.24005 61.16918
#
# Poissons Ratio (x) = 0.43198 -0.12696
# Poissons Ratio (y) = 0.28822 0.23212
# Poissons Ratio (z) = -0.11250 0.30828
#
# Static dielectric constant tensor:
#      x y z
#    x 1.729720 0.000000 -0.037030 
#    y 0.000000 1.871380 0.000000 
#    z -0.037030 0.000000 1.800580 
# 
# From -- ./inp_files/133838.got.cif
#   From: 2010.05.17/outbox.cif.g08.bks.cpg/sg12_67_cif.got.tgz:133838.got - 2010.06.03 13:09:07.
