data_PCOD9192132
_publ_section_title
;
Structure prediction by ZEFSAII (Michael W. Deem and Ramdas Pophale) SiO2 
 PCOD9192132
Probable space group: C 2/M
;
_chemical_formula_sum "Si O2"
_cell_formula_units_Z 64
_cell_length_a 15.148378
_cell_length_b 7.452253
_cell_length_c 24.165344
_cell_angle_alpha 90.000000
_cell_angle_beta 93.769730
_cell_angle_gamma 90.000000
_cell_volume 2722.112208
_symmetry_space_group_name_H-M "C 2/M"
_symmetry_group_IT_number 12
_symmetry_cell_setting 'monoclinic'
loop_
_space_group_symop_operation_xyz
x,y,z
-x,y,-z
-x,-y,-z
x,-y,z
1/2+x,1/2+y,z
1/2-x,1/2+y,-z
1/2-x,1/2-y,-z
1/2+x,1/2-y,z
loop_
_atom_site_type_symbol
_atom_site_label
_atom_site_fract_x
_atom_site_fract_y
_atom_site_fract_z
Si Si1 0.706273 0.285113 0.389580
Si Si2 0.462395 0.212299 0.555762
Si Si3 0.581293 0.204623 0.757658
Si Si4 0.889265 0.279988 0.358869
Si Si5 0.793205 0.285096 0.060753
Si Si6 0.377367 0.280825 0.730304
Si Si7 0.166222 0.209718 0.151437
Si Si8 0.462309 0.217714 0.124650
O O1 0.706660 0.500000 0.388173
O O2 0.640588 0.233889 0.435821
O O3 0.807821 0.227158 0.394426
O O4 0.666492 0.224012 0.328879
O O5 0.500000 0.286589 0.500000
O O6 0.519821 0.282796 0.609795
O O7 0.479747 0.000000 0.555358
O O8 0.624806 0.284267 0.704537
O O9 0.477005 0.208352 0.738229
O O10 0.581874 0.281646 0.819229
O O11 0.614084 0.000000 0.764125
O O12 0.890995 0.500000 0.355088
O O13 0.795837 0.500000 0.066375
O O14 0.730846 0.213546 0.107599
O O15 0.894586 0.225108 0.074083
O O16 0.750000 0.250000 0.000000
O O17 0.381468 0.500000 0.731166
O O18 0.330062 0.220878 0.785333
O O19 0.063887 0.222971 0.127686
O O20 0.187975 0.000000 0.156882
O O21 0.466472 0.000000 0.126956
#
# Coordination Sequence:
#
# PCOD9192132 Si02
#       8
#     8   8   8   8   8   8   8   8
#     4  10  20  33  53  80 106 135 173 216 262 312
#     4  10  21  38  56  74 104 144 181 217 258 308
#     4   9  16  30  54  77 103 137 173 211 257 314
#     4   9  18  32  52  78 105 137 173 210 259 314
#     4  10  22  38  55  77 106 141 180 217 258 312
#     4   9  17  30  51  78 107 133 165 213 264 311
#     4   9  19  35  54  77 106 138 171 211 264 317
#     4   9  19  34  54  80 105 134 175 220 261 304
#
# _framework density 23.511154999999999
#
# number of rings (size 3 to 8) (size 9 to 14) (size 15 to 20)
#    0.000    2.625    1.250    0.000    1.750    2.250 
#    0.000    3.750    0.000    0.000    0.000    0.000 
#    0.000    0.000    0.000    0.000    0.000    0.000 
#
# Total GULP energy -178656.230459 kJ/mol
# GULP energy per Si atom -5583.007202 kJ/mol
# Density = 2.345764 g / cm^3
# Si number density = 23.511155 Si / 1000 Ang^3
#
#
#
# Elastic Constant Matrix: (Units=GPa)
#
#
# Indices 1 2 3 4 5 6 
#
# 1 60.6218 -5.1874 4.0882 0.0000 -16.9832 0.0000
# 2 -5.1874 71.6280 3.2573 0.0000 2.8222 0.0000
# 3 4.0882 3.2573 32.7403 0.0000 -18.5171 0.0000
# 4 0.0000 0.0000 0.0000 6.0899 0.0000 -0.5727
# 5 -16.9832 2.8222 -18.5171 0.0000 30.4146 0.0000
# 6 0.0000 0.0000 0.0000 -0.5727 0.0000 12.3192
#
#
#
# Elastic Compliance Matrix: (Units=1/GPa)
#
#
# Indices 1 2 3 4 5 6 
#
# 1 0.020304 0.000625 0.005768 0.000000 0.014791 0.000000
# 2 0.000625 0.014262 -0.003123 0.000000 -0.002876 0.000000
# 3 0.005768 -0.003123 0.048987 0.000000 0.033335 0.000000
# 4 0.000000 0.000000 0.000000 0.164927 0.000000 0.007667
# 5 0.014791 -0.002876 0.033335 0.000000 0.061700 0.000000
# 6 0.000000 0.000000 0.000000 0.007667 0.000000 0.081530
#
#
# Mechanical properties :
#
#
# Convention : Reuss Voigt Hill
#
# Bulk Modulus (GPa) = 11.09965 18.81181 14.95573
# Shear Modulus (GPa) = 12.04235 20.62023 16.33129
#
# Velocity S-wave (km/s) = 2.26563 2.96470 2.63842
# Velocity P-wave (km/s) = 3.40226 4.44273 3.95684
#
# Compressibility (1/GPa) = 0.09009292
#
# Stress axis : x y z
#
# Youngs Moduli (GPa) = 49.25144 70.11809 20.41340
#
# Poissons Ratio (x) = -0.04385 -0.11774
# Poissons Ratio (y) = -0.03080 0.06376
# Poissons Ratio (z) = -0.28408 0.21901
#
# Static dielectric constant tensor:
#      x y z
#    x 1.876290 0.000000 -0.010610 
#    y 0.000000 1.991330 0.000000 
#    z -0.010610 0.000000 1.896420 
# 
# From -- ./inp_files/338761.got.cif
#   From: 2010.05.17/outbox.cif.g08.bks.cpg/sg12_170_cif.got.tgz:338761.got - 2010.06.03 13:09:07.
