data_PCOD9192244
_publ_section_title
;
Structure prediction by ZEFSAII (Michael W. Deem and Ramdas Pophale) SiO2 
 PCOD9192244
Probable space group: C 2/M
;
_chemical_formula_sum "Si O2"
_cell_formula_units_Z 64
_cell_length_a 14.217366
_cell_length_b 14.147812
_cell_length_c 18.392777
_cell_angle_alpha 90.000000
_cell_angle_beta 116.520904
_cell_angle_gamma 90.000000
_cell_volume 3310.303982
_symmetry_space_group_name_H-M "C 2/M"
_symmetry_group_IT_number 12
_symmetry_cell_setting 'monoclinic'
loop_
_space_group_symop_operation_xyz
x,y,z
-x,y,-z
-x,-y,-z
x,-y,z
1/2+x,1/2+y,z
1/2-x,1/2+y,-z
1/2-x,1/2-y,-z
1/2+x,1/2-y,z
loop_
_atom_site_type_symbol
_atom_site_label
_atom_site_fract_x
_atom_site_fract_y
_atom_site_fract_z
Si Si1 0.793108 0.171821 0.572906
Si Si2 0.410569 0.889705 0.416396
Si Si3 0.825975 0.328566 0.682086
Si Si4 0.385454 0.393526 0.465451
Si Si5 0.045385 0.608471 0.725184
Si Si6 0.385197 0.886623 0.862187
Si Si7 0.100030 0.701960 0.896038
Si Si8 0.229037 0.888580 0.945372
O O1 0.750000 0.250000 0.500000
O O2 0.696829 0.120712 0.577799
O O3 0.852141 0.225314 0.658496
O O4 0.857848 0.107272 0.541205
O O5 0.500000 0.851574 0.500000
O O6 0.411185 0.849802 0.335262
O O7 0.435182 0.000000 0.412805
O O8 0.709040 0.348103 0.612815
O O9 0.833714 0.348340 0.769837
O O10 0.917904 0.391374 0.677718
O O11 0.500000 0.348971 0.500000
O O12 0.392384 0.500000 0.440040
O O13 0.080719 0.500000 0.748625
O O14 0.076827 0.669587 0.805703
O O15 0.495552 0.829974 0.904470
O O16 0.304883 0.874571 0.901038
O O17 0.407595 0.000000 0.862935
O O18 0.134606 0.811892 0.910979
O O19 0.197211 0.641976 0.961730
O O20 0.200213 0.000000 0.938586
#
# Coordination Sequence:
#
# PCOD9192244 Si02
#       8
#     8   8   8   8   8   8   8   8
#     4  10  21  32  47  73 101 138 177 228 284 342
#     4  10  20  34  54  77 105 142 187 240 293 346
#     4  10  20  33  54  77 108 140 186 241 287 341
#     4  10  20  35  52  71 102 144 190 236 289 347
#     4  10  20  35  59  86 111 146 193 246 298 346
#     4  10  20  37  62  89 117 156 204 249 296 350
#     4  10  20  36  62  92 125 157 198 248 296 356
#     4  10  21  37  62  94 126 160 198 245 300 362
#
# _framework density 19.333572
#
# number of rings (size 3 to 8) (size 9 to 14) (size 15 to 20)
#    0.000    2.000    0.000    5.250    1.750    6.000 
#    2.250    0.000    0.000   10.500    0.000    0.000 
#    0.000    0.500    0.000    0.000    0.000    0.000 
#
# Total GULP energy -178340.983937 kJ/mol
# GULP energy per Si atom -5573.155748 kJ/mol
# Density = 1.928957 g / cm^3
# Si number density = 19.333572 Si / 1000 Ang^3
#
#
#
# Elastic Constant Matrix: (Units=GPa)
#
#
# Indices 1 2 3 4 5 6 
#
# 1 89.3597 18.5391 46.4261 0.0000 1.6417 0.0000
# 2 18.5391 101.6956 31.0251 0.0000 10.2109 0.0000
# 3 46.4261 31.0251 84.6738 0.0000 -0.2099 0.0000
# 4 0.0000 0.0000 0.0000 2.4686 0.0000 -17.4513
# 5 1.6417 10.2109 -0.2099 0.0000 28.9804 0.0000
# 6 0.0000 0.0000 0.0000 -17.4513 0.0000 20.3443
#
#
#
# Elastic Compliance Matrix: (Units=1/GPa)
#
#
# Indices 1 2 3 4 5 6 
#
# 1 0.015677 -0.000164 -0.008538 0.000000 -0.000892 0.000000
# 2 -0.000164 0.011539 -0.004148 0.000000 -0.004086 0.000000
# 3 -0.008538 -0.004148 0.018016 0.000000 0.002076 0.000000
# 4 0.000000 0.000000 0.000000 -0.079993 0.000000 -0.068618
# 5 -0.000892 -0.004086 0.002076 0.000000 0.036011 0.000000
# 6 0.000000 0.000000 0.000000 -0.068618 0.000000 -0.009706
#
#
# Mechanical properties :
#
#
# Convention : Reuss Voigt Hill
#
# Bulk Modulus (GPa) = 51.19636 51.96774 51.58205
# Shear Modulus (GPa) = 210.48217 22.34126 116.41171
#
# Velocity S-wave (km/s) = 10.44534 3.40305 7.76807
# Velocity P-wave (km/s) = 13.11531 6.50991 10.35351
#
# Compressibility (1/GPa) = 0.01953264
#
# Stress axis : x y z
#
# Youngs Moduli (GPa) = 63.78864 86.66286 55.50516
#
# Poissons Ratio (x) = 0.01418 0.47389
# Poissons Ratio (y) = 0.01044 0.23026
# Poissons Ratio (z) = 0.54461 0.35951
#
# Static dielectric constant tensor:
#      x y z
#    x 1.716120 0.000000 0.006160 
#    y 0.000000 1.719360 0.000000 
#    z 0.006160 0.000000 1.685180 
# 
# From -- ./inp_files/270352.got.cif
#   From: 2010.05.17/outbox.cif.g08.bks.cpg/sg12_136_cif.got.tgz:270352.got - 2010.06.03 13:09:07.
