data_PCOD9192322
_publ_section_title
;
Structure prediction by ZEFSAII (Michael W. Deem and Ramdas Pophale) SiO2 
 PCOD9192322
Probable space group: C 2/M
;
_chemical_formula_sum "Si O2"
_cell_formula_units_Z 56
_cell_length_a 27.468096
_cell_length_b 23.128537
_cell_length_c 7.805278
_cell_angle_alpha 90.000000
_cell_angle_beta 146.382642
_cell_angle_gamma 90.000000
_cell_volume 2745.336495
_symmetry_space_group_name_H-M "C 2/M"
_symmetry_group_IT_number 12
_symmetry_cell_setting 'monoclinic'
loop_
_space_group_symop_operation_xyz
x,y,z
-x,y,-z
-x,-y,-z
x,-y,z
1/2+x,1/2+y,z
1/2-x,1/2+y,-z
1/2-x,1/2-y,-z
1/2+x,1/2-y,z
loop_
_atom_site_type_symbol
_atom_site_label
_atom_site_fract_x
_atom_site_fract_y
_atom_site_fract_z
Si Si1 0.596419 0.874604 0.864278
Si Si2 0.294575 0.931539 0.107896
Si Si3 0.952047 0.161865 0.025323
Si Si4 0.871882 0.133523 0.259130
Si Si5 0.641808 0.066214 0.330005
Si Si6 0.602998 0.255513 0.856874
Si Si7 0.346742 0.566015 0.836736
O O1 0.500000 0.874601 0.500000
O O2 0.653730 0.916857 0.913117
O O3 0.635043 0.809738 0.961550
O O4 0.591146 0.894172 0.046523
O O5 0.349529 0.917259 0.444085
O O6 0.274933 0.000000 0.060979
O O7 0.205654 0.894531 0.859161
O O8 0.034004 0.137820 0.376214
O O9 0.899885 0.211818 0.970377
O O10 0.000000 0.185173 0.000000
O O11 0.886192 0.108133 0.808928
O O12 0.850660 0.199054 0.134488
O O13 0.878648 0.093857 0.109456
O O14 0.741690 0.067281 0.549124
O O15 0.609371 0.000000 0.226529
O O16 0.500000 0.253167 0.500000
O O17 0.374761 0.500000 0.897487
#
# Coordination Sequence:
#
# PCOD9192322 Si02
#       7
#     8   8   8   8   8   8   8
#     4  11  23  40  61  84 110 147 196 240 293 339
#     4  10  22  39  61  87 115 150 188 232 288 343
#     4  10  20  33  54  85 118 151 188 228 274 330
#     4   9  18  36  58  78 115 155 186 227 275 332
#     4   9  20  39  58  84 120 147 183 239 288 338
#     4   8  18  39  56  78 114 150 188 233 275 330
#     4   9  18  34  55  79 116 157 188 225 275 331
#
# _framework density 20.398229000000001
#
# number of rings (size 3 to 8) (size 9 to 14) (size 15 to 20)
#    0.000    2.571    0.000    3.000    2.000    4.286 
#    7.714    7.857    0.000    0.000    0.000    0.000 
#    0.000    0.000    0.000    0.000    0.000    0.000 
#
# Total GULP energy -156148.542880 kJ/mol
# GULP energy per Si atom -5576.733674 kJ/mol
# Density = 2.035180 g / cm^3
# Si number density = 20.398229 Si / 1000 Ang^3
#
#
#
# Elastic Constant Matrix: (Units=GPa)
#
#
# Indices 1 2 3 4 5 6 
#
# 1 45.7224 -3.2140 4.9073 0.0000 -2.8535 0.0000
# 2 -3.2140 74.3210 19.0039 0.0000 -10.5659 0.0000
# 3 4.9073 19.0039 42.3445 0.0000 -12.2646 0.0000
# 4 0.0000 0.0000 0.0000 10.2579 0.0000 7.2235
# 5 -2.8535 -10.5659 -12.2646 0.0000 22.2448 0.0000
# 6 0.0000 0.0000 0.0000 7.2235 0.0000 32.9707
#
#
#
# Elastic Compliance Matrix: (Units=1/GPa)
#
#
# Indices 1 2 3 4 5 6 
#
# 1 0.022461 0.002024 -0.002854 0.000000 0.002269 0.000000
# 2 0.002024 0.015705 -0.006006 0.000000 0.004408 0.000000
# 3 -0.002854 -0.006006 0.030596 0.000000 0.013650 0.000000
# 4 0.000000 0.000000 0.000000 0.115270 0.000000 -0.025254
# 5 0.002269 0.004408 0.013650 0.000000 0.054865 0.000000
# 6 0.000000 0.000000 0.000000 -0.025254 0.000000 0.035863
#
#
# Mechanical properties :
#
#
# Convention : Reuss Voigt Hill
#
# Bulk Modulus (GPa) = 18.15247 22.64247 20.39747
# Shear Modulus (GPa) = 16.29748 22.54073 19.41910
#
# Velocity S-wave (km/s) = 2.82966 3.32781 3.08880
# Velocity P-wave (km/s) = 4.42655 5.08823 4.76888
#
# Compressibility (1/GPa) = 0.05508892
#
# Stress axis : x y z
#
# Youngs Moduli (GPa) = 44.52102 63.67372 32.68438
#
# Poissons Ratio (x) = -0.12886 0.09328
# Poissons Ratio (y) = -0.09010 0.19631
# Poissons Ratio (z) = 0.12707 0.38243
#
# Static dielectric constant tensor:
#      x y z
#    x 1.750840 0.000000 -0.018960 
#    y 0.000000 1.714920 0.000000 
#    z -0.018960 0.000000 1.754250 
# 
# From -- ./inp_files/113397.got.cif
#   From: 2010.05.17/outbox.cif.g08.bks.cpg/sg12_57_cif.got.tgz:113397.got - 2010.06.03 13:09:07.
