data_PCOD9192804
_publ_section_title
;
Structure prediction by ZEFSAII (Michael W. Deem and Ramdas Pophale) SiO2 
 PCOD9192804
Probable space group: C 2/M
;
_chemical_formula_sum "Si O2"
_cell_formula_units_Z 48
_cell_length_a 14.511826
_cell_length_b 8.581692
_cell_length_c 22.614500
_cell_angle_alpha 90.000000
_cell_angle_beta 105.960373
_cell_angle_gamma 90.000000
_cell_volume 2707.756641
_symmetry_space_group_name_H-M "C 2/M"
_symmetry_group_IT_number 12
_symmetry_cell_setting 'monoclinic'
loop_
_space_group_symop_operation_xyz
x,y,z
-x,y,-z
-x,-y,-z
x,-y,z
1/2+x,1/2+y,z
1/2-x,1/2+y,-z
1/2-x,1/2-y,-z
1/2+x,1/2-y,z
loop_
_atom_site_type_symbol
_atom_site_label
_atom_site_fract_x
_atom_site_fract_y
_atom_site_fract_z
Si Si1 0.377467 0.687727 0.764023
Si Si2 0.193506 0.188002 0.672287
Si Si3 0.959401 0.187950 0.905225
Si Si4 0.854164 0.313494 0.001551
Si Si5 0.522085 0.688419 0.339788
Si Si6 0.706312 0.186539 0.431948
O O1 0.373934 0.500000 0.763227
O O2 0.271406 0.750780 0.732551
O O3 0.421587 0.736730 0.834245
O O4 0.442062 0.736780 0.719218
O O5 0.230202 0.236698 0.613705
O O6 0.085757 0.240825 0.666244
O O7 0.194654 0.000000 0.674277
O O8 0.064393 0.254017 0.938700
O O9 0.962891 0.000000 0.908738
O O10 0.889225 0.249475 0.944214
O O11 0.853823 0.500000 0.000413
O O12 0.750000 0.250000 0.000000
O O13 0.524165 0.500000 0.342569
O O14 0.599697 0.752212 0.399674
O O15 0.750000 0.250000 0.500000
O O16 0.705390 0.000000 0.433392
#
# Coordination Sequence:
#
# PCOD9192804 Si02
#       6
#     8   8   8   8   8   8
#     4   9  19  34  54  78 105 134 167 208 256 303
#     4   9  19  34  53  75 102 135 173 211 252 303
#     4  10  20  36  55  80 111 141 175 217 261 316
#     4  11  22  37  56  79 106 141 180 221 267 314
#     4   9  18  35  54  74 101 134 168 207 252 302
#     4  10  20  34  51  74 101 133 170 212 257 304
#
# _framework density 17.726852000000001
#
# number of rings (size 3 to 8) (size 9 to 14) (size 15 to 20)
#    0.000    2.333    0.000    3.500    0.000    4.667 
#    0.000    5.000    0.000    0.000    0.000    0.000 
#    0.000    0.000    0.000    0.000    0.000    0.000 
#
# Total GULP energy -133941.502929 kJ/mol
# GULP energy per Si atom -5580.895955 kJ/mol
# Density = 1.768650 g / cm^3
# Si number density = 17.726852 Si / 1000 Ang^3
#
#
#
# Elastic Constant Matrix: (Units=GPa)
#
#
# Indices 1 2 3 4 5 6 
#
# 1 178.3280 36.8223 87.0562 0.0000 25.4241 0.0000
# 2 36.8223 51.2019 37.4364 0.0000 5.8112 0.0000
# 3 87.0562 37.4364 175.6486 0.0000 26.1160 0.0000
# 4 0.0000 0.0000 0.0000 29.1807 0.0000 5.9565
# 5 25.4241 5.8112 26.1160 0.0000 11.4591 0.0000
# 6 0.0000 0.0000 0.0000 5.9565 0.0000 28.0103
#
#
#
# Elastic Compliance Matrix: (Units=1/GPa)
#
#
# Indices 1 2 3 4 5 6 
#
# 1 0.009325 -0.003855 -0.001535 0.000000 -0.015237 0.000000
# 2 -0.003855 0.024734 -0.004186 0.000000 0.005550 0.000000
# 3 -0.001535 -0.004186 0.009868 0.000000 -0.016962 0.000000
# 4 0.000000 0.000000 0.000000 0.035824 0.000000 -0.007618
# 5 -0.015237 0.005550 -0.016962 0.000000 0.156914 0.000000
# 6 0.000000 0.000000 0.000000 -0.007618 0.000000 0.037321
#
#
# Mechanical properties :
#
#
# Convention : Reuss Voigt Hill
#
# Bulk Modulus (GPa) = 40.36295 80.86760 60.61527
# Shear Modulus (GPa) = 16.58944 29.98760 23.28852
#
# Velocity S-wave (km/s) = 3.06246 4.11743 3.62849
# Velocity P-wave (km/s) = 5.94338 8.26571 7.19881
#
# Compressibility (1/GPa) = 0.02477520
#
# Stress axis : x y z
#
# Youngs Moduli (GPa) = 107.23679 40.43084 101.33780
#
# Poissons Ratio (x) = 0.15585 0.15553
# Poissons Ratio (y) = 0.41338 0.42422
# Poissons Ratio (z) = 0.16458 0.16925
#
# Static dielectric constant tensor:
#      x y z
#    x 1.587570 0.000000 -0.012120 
#    y 0.000000 1.599920 0.000000 
#    z -0.012120 0.000000 1.585880 
# 
# From -- ./inp_files/308596.got.cif
#   From: 2010.05.17/outbox.cif.g08.bks.cpg/sg12_155_cif.got.tgz:308596.got - 2010.06.03 13:09:07.
