data_PCOD9192176
_publ_section_title
;
Structure prediction by ZEFSAII (Michael W. Deem and Ramdas Pophale) SiO2 
 PCOD9192176
Probable space group: C 2/M
;
_chemical_formula_sum "Si O2"
_cell_formula_units_Z 58
_cell_length_a 23.867327
_cell_length_b 7.505194
_cell_length_c 25.794424
_cell_angle_alpha 90.000000
_cell_angle_beta 146.454917
_cell_angle_gamma 90.000000
_cell_volume 2553.270832
_symmetry_space_group_name_H-M "C 2/M"
_symmetry_group_IT_number 12
_symmetry_cell_setting 'monoclinic'
loop_
_space_group_symop_operation_xyz
x,y,z
-x,y,-z
-x,-y,-z
x,-y,z
1/2+x,1/2+y,z
1/2-x,1/2+y,-z
1/2-x,1/2-y,-z
1/2+x,1/2-y,z
loop_
_atom_site_type_symbol
_atom_site_label
_atom_site_fract_x
_atom_site_fract_y
_atom_site_fract_z
Si Si1 0.088311 0.282707 0.607010
Si Si2 0.481031 0.217349 0.230603
Si Si3 0.283830 0.300781 0.583297
Si Si4 0.867044 0.706804 0.926363
Si Si5 0.867897 0.715581 0.246730
Si Si6 0.000000 0.000000 0.000000
Si Si7 0.476863 0.791379 0.113558
Si Si8 0.214311 0.216489 0.301991
O O1 0.087228 0.500000 0.605390
O O2 0.075415 0.227895 0.656852
O O3 0.199231 0.227371 0.671555
O O4 0.000000 0.223213 0.500000
O O5 0.594815 0.287178 0.323836
O O6 0.416814 0.275320 0.230521
O O7 0.445074 0.277025 0.145830
O O8 0.485410 0.000000 0.233591
O O9 0.245014 0.500000 0.558962
O O10 0.250000 0.250000 0.500000
O O11 0.255526 0.215057 0.616815
O O12 0.893345 0.500000 0.938007
O O13 0.747307 0.722702 0.837750
O O14 0.916363 0.783193 0.018005
O O15 0.914901 0.842331 0.922710
O O16 0.868042 0.500000 0.245967
O O17 0.598373 0.773297 0.203079
O O18 0.452115 0.000000 0.093589
O O19 0.212195 0.000000 0.301020
#
# Coordination Sequence:
#
# PCOD9192176 Si02
#       8
#     8   8   8   8   8   2   8   8
#     4   9  19  34  56  84 114 154 206 258 308 375
#     4   9  19  37  60  86 123 163 203 257 312 382
#     4  10  20  33  53  82 111 150 203 260 321 375
#     4  11  25  42  66  98 130 170 213 263 319 378
#     4  10  21  38  62  92 126 168 213 255 320 382
#     4  12  26  44  68  94 134 168 218 264 316 370
#     4   9  20  38  59  89 123 159 203 253 317 372
#     4   9  19  33  56  83 111 148 199 253 309 375
#
# _framework density 22.715962000000001
#
# number of rings (size 3 to 8) (size 9 to 14) (size 15 to 20)
#    0.000    2.345    0.690    0.621    4.828    1.655 
#    0.000    0.000    0.000    0.828    0.000    0.000 
#    0.000    0.000    0.000    0.000    0.000    0.000 
#
# Total GULP energy -161677.476773 kJ/mol
# GULP energy per Si atom -5575.085406 kJ/mol
# Density = 2.266426 g / cm^3
# Si number density = 22.715962 Si / 1000 Ang^3
#
#
#
# Elastic Constant Matrix: (Units=GPa)
#
#
# Indices 1 2 3 4 5 6 
#
# 1 131.1563 3.8665 34.0287 -0.0002 -19.9977 -0.0001
# 2 3.8665 80.5868 -10.5196 -0.0006 -10.1042 -0.0007
# 3 34.0287 -10.5196 83.9930 -0.0001 -35.0801 0.0000
# 4 -0.0002 -0.0006 -0.0001 -8.8476 -0.0001 19.9743
# 5 -19.9977 -10.1042 -35.0801 -0.0001 38.3668 0.0000
# 6 -0.0001 -0.0007 0.0000 19.9743 0.0000 -2.5754
#
#
#
# Elastic Compliance Matrix: (Units=1/GPa)
#
#
# Indices 1 2 3 4 5 6 
#
# 1 0.008646 -0.000564 -0.002837 0.000000 0.001765 0.000000
# 2 -0.000564 0.014240 0.005590 0.000001 0.008568 0.000001
# 3 -0.002837 0.005590 0.022249 0.000000 0.020337 0.000000
# 4 0.000000 0.000001 0.000000 0.006846 0.000000 0.053097
# 5 0.001765 0.008568 0.020337 0.000000 0.047835 0.000001
# 6 0.000000 0.000001 0.000000 0.053097 0.000001 0.023519
#
#
# Mechanical properties :
#
#
# Convention : Reuss Voigt Hill
#
# Bulk Modulus (GPa) = 20.19609 38.94302 29.56956
# Shear Modulus (GPa) = 36.91138 23.27947 30.09543
#
# Velocity S-wave (km/s) = 4.03539 3.20473 3.64381
# Velocity P-wave (km/s) = 5.53376 5.55648 5.54513
#
# Compressibility (1/GPa) = 0.04951454
#
# Stress axis : x y z
#
# Youngs Moduli (GPa) = 115.65913 70.22469 44.94645
#
# Poissons Ratio (x) = 0.03960 0.12749
# Poissons Ratio (y) = 0.06522 -0.25126
# Poissons Ratio (z) = 0.32807 -0.39257
#
# Static dielectric constant tensor:
#      x y z
#    x 1.935580 0.000000 -0.075830 
#    y 0.000000 1.830490 0.000000 
#    z -0.075830 0.000000 1.829610 
# 
# From -- ./inp_files/367583.got.cif
#   From: 2010.05.17/outbox.cif.g08.bks.cpg/sg12_184_cif.got.tgz:367583.got - 2010.06.03 13:09:07.
