data_PCOD9192352
_publ_section_title
;
Structure prediction by ZEFSAII (Michael W. Deem and Ramdas Pophale) SiO2 
 PCOD9192352
Probable space group: C 2/M
;
_chemical_formula_sum "Si O2"
_cell_formula_units_Z 48
_cell_length_a 16.098655
_cell_length_b 17.646319
_cell_length_c 17.626303
_cell_angle_alpha 90.000000
_cell_angle_beta 28.469984
_cell_angle_gamma 90.000000
_cell_volume 2386.978766
_symmetry_space_group_name_H-M "C 2/M"
_symmetry_group_IT_number 12
_symmetry_cell_setting 'monoclinic'
loop_
_space_group_symop_operation_xyz
x,y,z
-x,y,-z
-x,-y,-z
x,-y,z
1/2+x,1/2+y,z
1/2-x,1/2+y,-z
1/2-x,1/2-y,-z
1/2+x,1/2-y,z
loop_
_atom_site_type_symbol
_atom_site_label
_atom_site_fract_x
_atom_site_fract_y
_atom_site_fract_z
Si Si1 0.975485 0.745218 0.381729
Si Si2 0.481917 0.413172 0.925963
Si Si3 0.601529 0.719378 0.726090
Si Si4 0.568300 0.917720 0.244191
Si Si5 0.691537 0.836681 0.844661
Si Si6 0.507741 0.126394 0.127113
O O1 0.001023 0.656347 0.341648
O O2 0.145125 0.782581 0.282263
O O3 0.799196 0.749866 0.571192
O O4 0.941860 0.787172 0.328154
O O5 0.543065 0.500000 0.867684
O O6 0.577706 0.355540 0.793656
O O7 0.500000 0.393242 0.000000
O O8 0.276803 0.410427 0.072540
O O9 0.479912 0.785750 0.856379
O O10 0.502779 0.916008 0.210008
O O11 0.525702 0.000000 0.312947
O O12 0.661797 0.882593 0.790828
O O13 0.500000 0.794560 0.000000
O O14 0.668041 0.886630 0.940071
#
# Coordination Sequence:
#
# PCOD9192352 Si02
#       6
#     8   8   8   8   8   8
#     4  10  20  34  53  85 108 136 187 225 280 330
#     4  10  22  36  52  79 112 150 189 222 273 332
#     4  10  20  33  55  78 109 143 178 235 272 326
#     4  10  20  35  54  75 109 148 184 223 266 327
#     4   8  18  32  52  80 105 133 173 227 274 316
#     4   8  18  33  52  79 101 140 181 217 279 312
#
# _framework density 20.109102
#
# number of rings (size 3 to 8) (size 9 to 14) (size 15 to 20)
#    1.000    1.500    0.000    2.000    4.667    4.000 
#    0.000    1.667    0.000    4.000    0.000   10.500 
#    0.000    0.000    0.000    0.000    0.000    0.000 
#
# Total GULP energy -133608.735638 kJ/mol
# GULP energy per Si atom -5567.030652 kJ/mol
# Density = 2.006333 g / cm^3
# Si number density = 20.109102 Si / 1000 Ang^3
#
#
#
# Elastic Constant Matrix: (Units=GPa)
#
#
# Indices 1 2 3 4 5 6 
#
# 1 67.3664 10.3410 29.6124 0.0016 -8.2807 -0.0036
# 2 10.3410 53.5205 10.8164 -0.0013 6.9796 -0.0017
# 3 29.6124 10.8164 37.5054 -0.0067 -11.3812 0.0021
# 4 0.0016 -0.0013 -0.0067 18.6414 0.0029 -2.0000
# 5 -8.2807 6.9796 -11.3812 0.0029 30.0520 -0.0007
# 6 -0.0036 -0.0017 0.0021 -2.0000 -0.0007 20.2248
#
#
#
# Elastic Compliance Matrix: (Units=1/GPa)
#
#
# Indices 1 2 3 4 5 6 
#
# 1 0.022770 -0.000750 -0.017858 -0.000008 -0.000315 0.000005
# 2 -0.000750 0.021557 -0.008143 0.000000 -0.008297 0.000002
# 3 -0.017858 -0.008143 0.047670 0.000015 0.015024 -0.000007
# 4 -0.000008 0.000000 0.000015 0.054219 -0.000002 0.005362
# 5 -0.000315 -0.008297 0.015024 -0.000002 0.040806 -0.000001
# 6 0.000005 0.000002 -0.000007 0.005362 -0.000001 0.049975
#
#
# Mechanical properties :
#
#
# Convention : Reuss Voigt Hill
#
# Bulk Modulus (GPa) = 25.97607 28.88131 27.42869
# Shear Modulus (GPa) = 16.48374 20.95845 18.72109
#
# Velocity S-wave (km/s) = 2.86617 3.23187 3.05450
# Velocity P-wave (km/s) = 4.88865 5.32167 5.10975
#
# Compressibility (1/GPa) = 0.03849697
#
# Stress axis : x y z
#
# Youngs Moduli (GPa) = 43.91692 46.38876 20.97762
#
# Poissons Ratio (x) = 0.03477 0.37461
# Poissons Ratio (y) = 0.03292 0.17082
# Poissons Ratio (z) = 0.78425 0.37774
#
# Static dielectric constant tensor:
#      x y z
#    x 1.802390 0.000000 0.012580 
#    y 0.000000 1.723090 0.000000 
#    z 0.012580 0.000000 1.725200 
# 
# From -- ./inp_files/271611.got.cif
#   From: 2010.05.17/outbox.cif.g08.bks.cpg/sg12_136_cif.got.tgz:271611.got - 2010.06.03 13:09:07.
