data_PCOD9192227
_publ_section_title
;
Structure prediction by ZEFSAII (Michael W. Deem and Ramdas Pophale) SiO2 
 PCOD9192227
Probable space group: C 2/M
;
_chemical_formula_sum "Si O2"
_cell_formula_units_Z 44
_cell_length_a 16.750540
_cell_length_b 19.556066
_cell_length_c 12.013020
_cell_angle_alpha 90.000000
_cell_angle_beta 34.245831
_cell_angle_gamma 90.000000
_cell_volume 2214.491323
_symmetry_space_group_name_H-M "C 2/M"
_symmetry_group_IT_number 12
_symmetry_cell_setting 'monoclinic'
loop_
_space_group_symop_operation_xyz
x,y,z
-x,y,-z
-x,-y,-z
x,-y,z
1/2+x,1/2+y,z
1/2-x,1/2+y,-z
1/2-x,1/2-y,-z
1/2+x,1/2-y,z
loop_
_atom_site_type_symbol
_atom_site_label
_atom_site_fract_x
_atom_site_fract_y
_atom_site_fract_z
Si Si1 0.531987 0.919253 0.691399
Si Si2 0.825617 0.840551 0.409706
Si Si3 0.361010 0.883694 0.092748
Si Si4 0.000000 0.658458 0.500000
Si Si5 0.568599 0.423156 0.528895
Si Si6 0.759679 0.242418 0.291941
O O1 0.672492 0.878354 0.572691
O O2 0.494857 0.888875 0.614359
O O3 0.562030 0.000000 0.654702
O O4 0.398496 0.904413 0.925175
O O5 0.935842 0.890520 0.343944
O O6 0.856214 0.809974 0.252596
O O7 0.813952 0.782307 0.518726
O O8 0.231364 0.921151 0.301407
O O9 0.335428 0.802277 0.136123
O O10 0.500000 0.902724 0.000000
O O11 0.859826 0.704743 0.642318
O O12 0.500000 0.386360 0.500000
O O13 0.512441 0.500000 0.599863
#
# Coordination Sequence:
#
# PCOD9192227 Si02
#       6
#     8   8   8   4   8   8
#     4  11  21  37  60  87 117 150 196 243 294 345
#     4   9  18  33  55  77 109 158 183 231 279 345
#     4  11  21  35  57  88 113 151 190 246 292 331
#     4  10  23  38  58  84 119 160 188 238 290 358
#     4  10  20  33  53  85 117 151 194 236 292 345
#     4   9  19  35  52  78 115 147 196 221 284 349
#
# _framework density 19.869122999999998
#
# number of rings (size 3 to 8) (size 9 to 14) (size 15 to 20)
#    0.000    2.000    3.636    1.364    5.091    1.455 
#    0.000    1.818    0.000    0.000    0.000    0.000 
#    0.000   14.545    0.000    0.000    0.000    0.000 
#
# Total GULP energy -122555.969735 kJ/mol
# GULP energy per Si atom -5570.725897 kJ/mol
# Density = 1.982390 g / cm^3
# Si number density = 19.869123 Si / 1000 Ang^3
#
#
#
# Elastic Constant Matrix: (Units=GPa)
#
#
# Indices 1 2 3 4 5 6 
#
# 1 127.7144 31.9884 4.6334 -0.0003 9.1134 -0.0002
# 2 31.9884 84.0787 1.0941 -0.0003 9.0467 0.0003
# 3 4.6334 1.0941 20.6414 0.0000 4.6343 0.0007
# 4 -0.0003 -0.0003 0.0000 19.2762 0.0000 3.4283
# 5 9.1134 9.0467 4.6343 0.0000 23.0372 -0.0002
# 6 -0.0002 0.0003 0.0007 3.4283 -0.0002 67.4175
#
#
#
# Elastic Compliance Matrix: (Units=1/GPa)
#
#
# Indices 1 2 3 4 5 6 
#
# 1 0.008802 -0.003118 -0.001365 0.000000 -0.001983 0.000000
# 2 -0.003118 0.013527 0.000941 0.000000 -0.004268 0.000000
# 3 -0.001365 0.000941 0.050966 0.000000 -0.010082 -0.000001
# 4 0.000000 0.000000 0.000000 0.052351 0.000000 -0.002662
# 5 -0.001983 -0.004268 -0.010082 0.000000 0.047897 0.000000
# 6 0.000000 0.000000 -0.000001 -0.002662 0.000000 0.014968
#
#
# Mechanical properties :
#
#
# Convention : Reuss Voigt Hill
#
# Bulk Modulus (GPa) = 15.10315 34.20736 24.65525
# Shear Modulus (GPa) = 22.97106 34.92742 28.94924
#
# Velocity S-wave (km/s) = 3.40386 4.19725 3.82120
# Velocity P-wave (km/s) = 4.80273 6.38302 5.64841
#
# Compressibility (1/GPa) = 0.06621136
#
# Stress axis : x y z
#
# Youngs Moduli (GPa) = 113.61219 73.92776 19.62075
#
# Poissons Ratio (x) = 0.23048 0.02679
# Poissons Ratio (y) = 0.35420 -0.01846
# Poissons Ratio (z) = 0.15511 -0.06957
#
# Static dielectric constant tensor:
#      x y z
#    x 1.761910 0.000000 0.006490 
#    y 0.000000 1.794600 0.000000 
#    z 0.006490 0.000000 1.720010 
# 
# From -- ./inp_files/147474.got.cif
#   From: 2010.05.17/outbox.cif.g08.bks.cpg/sg12_74_cif.got.tgz:147474.got - 2010.06.03 13:09:07.
