data_PCOD9192825
_publ_section_title
;
Structure prediction by ZEFSAII (Michael W. Deem and Ramdas Pophale) SiO2 
 PCOD9192825
Probable space group: C 2/M
;
_chemical_formula_sum "Si O2"
_cell_formula_units_Z 64
_cell_length_a 16.218312
_cell_length_b 11.943777
_cell_length_c 29.037835
_cell_angle_alpha 90.000000
_cell_angle_beta 29.781986
_cell_angle_gamma 90.000000
_cell_volume 2793.873246
_symmetry_space_group_name_H-M "C 2/M"
_symmetry_group_IT_number 12
_symmetry_cell_setting 'monoclinic'
loop_
_space_group_symop_operation_xyz
x,y,z
-x,y,-z
-x,-y,-z
x,-y,z
1/2+x,1/2+y,z
1/2-x,1/2+y,-z
1/2-x,1/2-y,-z
1/2+x,1/2-y,z
loop_
_atom_site_type_symbol
_atom_site_label
_atom_site_fract_x
_atom_site_fract_y
_atom_site_fract_z
Si Si1 0.394687 0.375808 0.757315
Si Si2 0.877319 0.615199 0.867649
Si Si3 0.649043 0.194914 0.957453
Si Si4 0.347868 0.372077 0.508458
Si Si5 0.056747 0.374355 0.573375
Si Si6 0.867815 0.719005 0.314840
Si Si7 0.580327 0.170254 0.853653
Si Si8 0.672132 0.372832 0.757548
O O1 0.458643 0.500000 0.723771
O O2 0.277578 0.361849 0.859848
O O3 0.552029 0.296497 0.684561
O O4 0.267381 0.354532 0.777773
O O5 0.782582 0.500000 0.912178
O O6 0.756531 0.717464 0.933211
O O7 0.980327 0.637917 0.771748
O O8 0.016967 0.614146 0.838550
O O9 0.500000 0.249546 0.000000
O O10 0.542103 0.129509 0.046704
O O11 0.422996 0.500000 0.468234
O O12 0.189956 0.375394 0.550020
O O13 0.429512 0.249620 0.457254
O O14 0.282488 0.351117 0.592165
O O15 0.081848 0.500000 0.537214
O O16 0.863144 0.377746 0.680614
O O17 0.836317 0.800727 0.286173
O O18 0.574564 0.302130 0.843503
O O19 0.611225 0.500000 0.779883
#
# Coordination Sequence:
#
# PCOD9192825 Si02
#       8
#     8   8   8   8   8   8   8   8
#     4  10  20  35  55  79 109 144 183 230 284 336
#     4  10  20  34  51  74 107 141 175 221 273 322
#     4   9  20  35  51  76 106 138 183 230 272 330
#     4  10  20  38  62  86 115 150 187 231 284 337
#     4   9  20  38  60  86 114 148 189 233 280 337
#     4  10  21  36  55  82 110 141 183 226 271 333
#     4  10  20  35  54  79 105 138 185 229 273 331
#     4  10  21  38  57  79 111 147 183 227 281 335
#
# _framework density 22.907267000000001
#
# number of rings (size 3 to 8) (size 9 to 14) (size 15 to 20)
#    0.000    2.250    0.000    2.250    0.000    5.000 
#    0.000   14.375    0.000    0.000    0.000    0.000 
#    0.000    0.000    0.000    0.000    0.000    0.000 
#
# Total GULP energy -178186.343651 kJ/mol
# GULP energy per Si atom -5568.323239 kJ/mol
# Density = 2.285513 g / cm^3
# Si number density = 22.907267 Si / 1000 Ang^3
#
#
#
# Elastic Constant Matrix: (Units=GPa)
#
#
# Indices 1 2 3 4 5 6 
#
# 1 48.9161 28.3497 -7.7133 0.0001 -5.9900 0.0002
# 2 28.3497 154.6707 22.9881 -0.0028 -3.5388 -0.0015
# 3 -7.7133 22.9881 40.9414 -0.0103 0.1313 -0.0046
# 4 0.0001 -0.0028 -0.0103 -261.2044 -0.0011 -154.7875
# 5 -5.9900 -3.5388 0.1313 -0.0011 18.9640 -0.0009
# 6 0.0002 -0.0015 -0.0046 -154.7875 -0.0009 -79.3047
#
#
#
# Elastic Compliance Matrix: (Units=1/GPa)
#
#
# Indices 1 2 3 4 5 6 
#
# 1 0.025952 -0.005803 0.008125 0.000000 0.007058 -0.000001
# 2 -0.005803 0.008386 -0.005801 0.000000 -0.000228 0.000001
# 3 0.008125 -0.005801 0.029209 0.000001 0.001281 -0.000004
# 4 0.000000 0.000000 0.000001 0.024443 -0.000001 -0.047709
# 5 0.007058 -0.000228 0.001281 -0.000001 0.054909 0.000001
# 6 -0.000001 0.000001 -0.000004 -0.047709 0.000001 0.080509
#
#
# Mechanical properties :
#
#
# Convention : Reuss Voigt Hill
#
# Bulk Modulus (GPa) = 17.67145 36.86414 27.26780
# Shear Modulus (GPa) = 20.06188 -50.91545 -15.42679
#
# Velocity S-wave (km/s) = 2.96258 -4.71964 -2.59790
# Velocity P-wave (km/s) = 4.40836 3.68406 1.71191
#
# Compressibility (1/GPa) = 0.05658844
#
# Stress axis : x y z
#
# Youngs Moduli (GPa) = 38.53320 119.24737 34.23601
#
# Poissons Ratio (x) = 0.69197 -0.27816
# Poissons Ratio (y) = 0.22360 0.19861
# Poissons Ratio (z) = -0.31308 0.69177
#
# Static dielectric constant tensor:
#      x y z
#    x 1.871070 0.000000 0.042910 
#    y 0.000000 1.693700 0.000000 
#    z 0.042910 0.000000 1.839180 
# 
# From -- ./inp_files/379090.got.cif
#   From: 2010.05.17/outbox.cif.g08.bks.cpg/sg12_190_cif.got.tgz:379090.got - 2010.06.03 13:09:07.
