data_PCOD9192429
_publ_section_title
;
Structure prediction by ZEFSAII (Michael W. Deem and Ramdas Pophale) SiO2 
 PCOD9192429
Probable space group: C 2/M
;
_chemical_formula_sum "Si O2"
_cell_formula_units_Z 64
_cell_length_a 17.681827
_cell_length_b 27.164492
_cell_length_c 8.629240
_cell_angle_alpha 90.000000
_cell_angle_beta 36.929538
_cell_angle_gamma 90.000000
_cell_volume 2490.316952
_symmetry_space_group_name_H-M "C 2/M"
_symmetry_group_IT_number 12
_symmetry_cell_setting 'monoclinic'
loop_
_space_group_symop_operation_xyz
x,y,z
-x,y,-z
-x,-y,-z
x,-y,z
1/2+x,1/2+y,z
1/2-x,1/2+y,-z
1/2-x,1/2-y,-z
1/2+x,1/2-y,z
loop_
_atom_site_type_symbol
_atom_site_label
_atom_site_fract_x
_atom_site_fract_y
_atom_site_fract_z
Si Si1 0.890607 0.117765 0.794995
Si Si2 0.381301 0.743431 0.583104
Si Si3 0.726553 0.057521 0.835466
Si Si4 0.943779 0.196980 0.945349
Si Si5 0.939622 0.058023 0.261531
Si Si6 0.548214 0.944317 0.599896
Si Si7 0.844184 0.304382 0.134896
Si Si8 0.115928 0.341559 0.595441
O O1 0.777449 0.094035 0.884945
O O2 0.871398 0.160302 0.951452
O O3 0.000000 0.136474 0.500000
O O4 0.960996 0.074148 0.771242
O O5 0.500000 0.747023 0.500000
O O6 0.436060 0.716152 0.344739
O O7 0.265246 0.707024 0.812307
O O8 0.349793 0.798603 0.581448
O O9 0.802639 0.073388 0.555997
O O10 0.759501 0.000000 0.815644
O O11 0.575710 0.058489 0.087019
O O12 0.880108 0.247363 0.105768
O O13 0.000000 0.170193 0.000000
O O14 0.928563 0.000000 0.270985
O O15 0.000000 0.072742 0.000000
O O16 0.500000 0.939988 0.500000
O O17 0.631721 0.897142 0.508683
O O18 0.602872 0.000000 0.526488
O O19 0.822020 0.329036 0.339053
O O20 0.965454 0.331694 0.867652
#
# Coordination Sequence:
#
# PCOD9192429 Si02
#       8
#     8   8   8   8   8   8   8   8
#     4  10  20  33  55  88 129 170 223 276 342 430
#     4  11  23  39  65  96 131 177 227 290 355 429
#     4   9  19  37  61  92 133 180 225 292 368 419
#     4  11  22  38  56  86 130 173 220 280 351 411
#     4   9  17  32  57  88 128 174 226 286 354 440
#     4  10  22  41  67  99 138 182 244 310 356 421
#     4  10  22  43  64  90 136 178 228 291 359 434
#     4  10  21  41  68  98 131 185 238 290 365 434
#
# _framework density 25.699539999999999
#
# number of rings (size 3 to 8) (size 9 to 14) (size 15 to 20)
#    0.000    2.000    2.500    1.875    0.000    8.500 
#    0.000    1.250    2.750    0.000    0.000    0.875 
#    0.000    1.500    0.000    1.500    0.000    0.000 
#
# Total GULP energy -178797.812190 kJ/mol
# GULP energy per Si atom -5587.431631 kJ/mol
# Density = 2.564105 g / cm^3
# Si number density = 25.699540 Si / 1000 Ang^3
#
#
#
# Elastic Constant Matrix: (Units=GPa)
#
#
# Indices 1 2 3 4 5 6 
#
# 1 75.0662 59.5443 33.6586 0.0000 11.8828 0.0000
# 2 59.5443 163.8641 14.1879 0.0000 -0.9819 0.0000
# 3 33.6586 14.1879 76.1243 0.0000 8.6695 0.0000
# 4 0.0000 0.0000 0.0000 -2.2715 0.0000 0.2253
# 5 11.8828 -0.9819 8.6695 0.0000 31.6352 0.0000
# 6 0.0000 0.0000 0.0000 0.2253 0.0000 38.4565
#
#
#
# Elastic Compliance Matrix: (Units=1/GPa)
#
#
# Indices 1 2 3 4 5 6 
#
# 1 0.025007 -0.008380 -0.008666 0.000000 -0.007278 0.000000
# 2 -0.008380 0.009020 0.001687 0.000000 0.002965 0.000000
# 3 -0.008666 0.001687 0.016801 0.000000 -0.001297 0.000000
# 4 0.000000 0.000000 0.000000 -0.439974 0.000000 0.002577
# 5 -0.007278 0.002965 -0.001297 0.000000 0.034792 0.000000
# 6 0.000000 0.000000 0.000000 0.002577 0.000000 0.025988
#
#
# Mechanical properties :
#
#
# Convention : Reuss Voigt Hill
#
# Bulk Modulus (GPa) = 49.73036 58.87071 54.30053
# Shear Modulus (GPa) = -17.18543 27.40829 5.11143
#
# Velocity S-wave (km/s) = -2.58874 3.26926 1.41182
# Velocity P-wave (km/s) = 3.23377 6.09982 4.88185
#
# Compressibility (1/GPa) = 0.02010844
#
# Stress axis : x y z
#
# Youngs Moduli (GPa) = 39.98917 110.87086 59.51852
#
# Poissons Ratio (x) = 0.92911 0.51579
# Poissons Ratio (y) = 0.33511 -0.10038
# Poissons Ratio (z) = 0.34655 -0.18699
#
# Static dielectric constant tensor:
#      x y z
#    x 2.042620 0.000000 -0.073910 
#    y 0.000000 1.993180 0.000000 
#    z -0.073910 0.000000 2.075650 
# 
# From -- ./inp_files/80718.got.cif
#   From: 2010.05.17/outbox.cif.g08.bks.cpg/sg12_41_cif.got.tgz:80718.got - 2010.06.03 13:09:07.
