data_PCOD9192600
_publ_section_title
;
Structure prediction by ZEFSAII (Michael W. Deem and Ramdas Pophale) SiO2 
 PCOD9192600
Probable space group: C 2/M
;
_chemical_formula_sum "Si O2"
_cell_formula_units_Z 40
_cell_length_a 21.813234
_cell_length_b 11.881614
_cell_length_c 10.552407
_cell_angle_alpha 90.000000
_cell_angle_beta 38.247239
_cell_angle_gamma 90.000000
_cell_volume 1693.078294
_symmetry_space_group_name_H-M "C 2/M"
_symmetry_group_IT_number 12
_symmetry_cell_setting 'monoclinic'
loop_
_space_group_symop_operation_xyz
x,y,z
-x,y,-z
-x,-y,-z
x,-y,z
1/2+x,1/2+y,z
1/2-x,1/2+y,-z
1/2-x,1/2-y,-z
1/2+x,1/2-y,z
loop_
_atom_site_type_symbol
_atom_site_label
_atom_site_fract_x
_atom_site_fract_y
_atom_site_fract_z
Si Si1 0.564973 0.500000 0.200244
Si Si2 0.103522 0.252281 0.951267
Si Si3 0.311002 0.735144 0.663320
Si Si4 0.642705 0.500000 0.831545
Si Si5 0.098246 0.368148 0.695373
Si Si6 0.149466 0.000000 0.539333
Si Si7 0.000000 0.809652 0.500000
O O1 0.470101 0.500000 0.259577
O O2 0.547694 0.392559 0.316723
O O3 0.662433 0.500000 0.954113
O O4 0.197621 0.259683 0.891082
O O5 0.122836 0.333101 0.798942
O O6 0.097213 0.126699 0.905413
O O7 0.001111 0.296463 0.174041
O O8 0.320061 0.825387 0.535129
O O9 0.325067 0.610993 0.580997
O O10 0.404828 0.755316 0.600811
O O11 0.693438 0.500000 0.609412
O O12 0.078618 0.500000 0.717511
#
# Coordination Sequence:
#
# PCOD9192600 Si02
#       7
#     4   8   8   4   8   4   4
#     4   9  19  36  58  92 120 156 205 293 303 375
#     4  11  24  38  65  99 130 178 206 271 334 394
#     4  11  23  41  68  92 133 177 219 271 322 388
#     4  12  22  35  64  99 129 149 227 266 333 378
#     4  11  25  42  61  99 140 168 213 264 332 400
#     4  10  20  33  64  95 123 162 213 259 339 375
#     4   9  20  42  63  88 124 172 223 263 328 378
#
# _framework density 23.625606000000001
#
# number of rings (size 3 to 8) (size 9 to 14) (size 15 to 20)
#    0.000    1.400    2.000    5.100    7.000    0.000 
#    0.000    4.500    0.000    0.000    0.000    0.000 
#    0.000    0.000    0.000    0.000    0.000    0.000 
#
# Total GULP energy -111618.535953 kJ/mol
# GULP energy per Si atom -5580.926798 kJ/mol
# Density = 2.357183 g / cm^3
# Si number density = 23.625606 Si / 1000 Ang^3
#
#
#
# Elastic Constant Matrix: (Units=GPa)
#
#
# Indices 1 2 3 4 5 6 
#
# 1 108.6068 -1.9890 21.6231 0.0000 -31.7473 0.0000
# 2 -1.9890 149.9783 -2.4766 0.0000 -7.6553 0.0000
# 3 21.6231 -2.4766 67.2798 0.0000 -11.9819 0.0000
# 4 0.0000 0.0000 0.0000 4.3168 0.0000 -1.6634
# 5 -31.7473 -7.6553 -11.9819 0.0000 45.5848 0.0000
# 6 0.0000 0.0000 0.0000 -1.6634 0.0000 24.8655
#
#
#
# Elastic Compliance Matrix: (Units=1/GPa)
#
#
# Indices 1 2 3 4 5 6 
#
# 1 0.011980 0.000516 -0.002444 0.000000 0.007788 0.000000
# 2 0.000516 0.006762 0.000366 0.000000 0.001591 0.000000
# 3 -0.002444 0.000366 0.016125 0.000000 0.002598 0.000000
# 4 0.000000 0.000000 0.000000 0.237779 0.000000 0.015906
# 5 0.007788 0.001591 0.002598 0.000000 0.028311 0.000000
# 6 0.000000 0.000000 0.000000 0.015906 0.000000 0.041280
#
#
# Mechanical properties :
#
#
# Convention : Reuss Voigt Hill
#
# Bulk Modulus (GPa) = 31.50306 40.01999 35.76152
# Shear Modulus (GPa) = 14.04722 35.53392 24.79057
#
# Velocity S-wave (km/s) = 2.44104 3.88241 3.24282
# Velocity P-wave (km/s) = 4.61607 6.08880 5.40285
#
# Compressibility (1/GPa) = 0.03174295
#
# Stress axis : x y z
#
# Youngs Moduli (GPa) = 83.47200 147.89077 62.01547
#
# Poissons Ratio (x) = -0.07631 0.15159
# Poissons Ratio (y) = -0.04307 -0.02273
# Poissons Ratio (z) = 0.20404 -0.05419
#
# Static dielectric constant tensor:
#      x y z
#    x 1.959220 0.000000 -0.049720 
#    y 0.000000 1.869730 0.000000 
#    z -0.049720 0.000000 1.989550 
# 
# From -- ./inp_files/174371.got.cif
#   From: 2010.05.17/outbox.cif.g08.bks.cpg/sg12_88_cif.got.tgz:174371.got - 2010.06.03 13:09:07.
