data_PCOD9192402
_publ_section_title
;
Structure prediction by ZEFSAII (Michael W. Deem and Ramdas Pophale) SiO2 
 PCOD9192402
Probable space group: C 2/M
;
_chemical_formula_sum "Si O2"
_cell_formula_units_Z 64
_cell_length_a 26.452296
_cell_length_b 7.651968
_cell_length_c 14.594160
_cell_angle_alpha 90.000000
_cell_angle_beta 86.473421
_cell_angle_gamma 90.000000
_cell_volume 2948.441056
_symmetry_space_group_name_H-M "C 2/M"
_symmetry_group_IT_number 12
_symmetry_cell_setting 'monoclinic'
loop_
_space_group_symop_operation_xyz
x,y,z
-x,y,-z
-x,-y,-z
x,-y,z
1/2+x,1/2+y,z
1/2-x,1/2+y,-z
1/2-x,1/2-y,-z
1/2+x,1/2-y,z
loop_
_atom_site_type_symbol
_atom_site_label
_atom_site_fract_x
_atom_site_fract_y
_atom_site_fract_z
Si Si1 0.656842 0.292977 0.388134
Si Si2 0.887893 0.711477 0.913274
Si Si3 0.439963 0.791142 0.724501
Si Si4 0.954831 0.793847 0.067973
Si Si5 0.273966 0.789942 0.899890
Si Si6 0.947973 0.793850 0.274433
Si Si7 0.647264 0.714761 0.598305
Si Si8 0.238083 0.202945 0.715009
O O1 0.666284 0.500000 0.389231
O O2 0.605687 0.261325 0.336823
O O3 0.650676 0.227934 0.492719
O O4 0.705969 0.211657 0.334557
O O5 0.888112 0.500000 0.914186
O O6 0.925975 0.771594 0.828934
O O7 0.831887 0.772837 0.893212
O O8 0.905437 0.773564 0.010615
O O9 0.495661 0.727448 0.692293
O O10 0.441383 0.000000 0.726685
O O11 0.948941 0.719304 0.170592
O O12 0.965737 0.000000 0.077825
O O13 0.000000 0.717112 0.000000
O O14 0.242996 0.719586 0.816334
O O15 0.276207 0.000000 0.889478
O O16 0.250000 0.750000 0.000000
O O17 0.903622 0.725415 0.344443
O O18 0.937394 0.000000 0.266577
O O19 0.647049 0.500000 0.595034
O O20 0.695883 0.775456 0.651282
O O21 0.223675 0.000000 0.727882
#
# Coordination Sequence:
#
# PCOD9192402 Si02
#       8
#     8   8   8   8   8   8   8   8
#     4  11  22  38  62  90 113 146 198 248 293 345
#     4  10  21  37  55  79 114 154 191 229 282 342
#     4  11  22  39  61  85 116 156 196 238 293 349
#     4  10  20  33  55  86 112 143 189 232 272 328
#     4  10  22  38  57  85 118 154 190 231 285 341
#     4  10  21  39  59  85 120 154 193 241 290 346
#     4   9  21  39  61  86 116 155 193 237 298 353
#     4  10  20  40  64  86 118 157 194 236 291 351
#
# _framework density 21.706385999999998
#
# number of rings (size 3 to 8) (size 9 to 14) (size 15 to 20)
#    0.000    1.875    2.500    1.125    1.750    2.750 
#    0.000    5.000    0.000    0.000    0.000    0.000 
#    0.000    0.000    0.000    0.000    0.000    0.000 
#
# Total GULP energy -178789.951555 kJ/mol
# GULP energy per Si atom -5587.185986 kJ/mol
# Density = 2.165698 g / cm^3
# Si number density = 21.706386 Si / 1000 Ang^3
#
#
#
# Elastic Constant Matrix: (Units=GPa)
#
#
# Indices 1 2 3 4 5 6 
#
# 1 101.8222 -21.6229 60.4526 0.0000 11.5645 0.0000
# 2 -21.6229 38.2271 -7.6318 0.0000 -3.9993 0.0000
# 3 60.4526 -7.6318 136.8639 0.0000 -1.6439 0.0000
# 4 0.0000 0.0000 0.0000 13.9974 0.0000 2.0195
# 5 11.5645 -3.9993 -1.6439 0.0000 29.8322 0.0000
# 6 0.0000 0.0000 0.0000 2.0195 0.0000 22.3264
#
#
#
# Elastic Compliance Matrix: (Units=1/GPa)
#
#
# Indices 1 2 3 4 5 6 
#
# 1 0.015953 0.007096 -0.006718 0.000000 -0.005603 0.000000
# 2 0.007096 0.030009 -0.001447 0.000000 0.001192 0.000000
# 3 -0.006718 -0.001447 0.010229 0.000000 0.002974 0.000000
# 4 0.000000 0.000000 0.000000 0.072386 0.000000 -0.006548
# 5 -0.005603 0.001192 0.002974 0.000000 0.036017 0.000000
# 6 0.000000 0.000000 0.000000 -0.006548 0.000000 0.045382
#
#
# Mechanical properties :
#
#
# Convention : Reuss Voigt Hill
#
# Bulk Modulus (GPa) = 18.49994 37.70100 28.10047
# Shear Modulus (GPa) = 21.72675 29.61223 25.66949
#
# Velocity S-wave (km/s) = 3.16719 3.69754 3.44259
# Velocity P-wave (km/s) = 4.68147 5.96954 5.36430
#
# Compressibility (1/GPa) = 0.05405423
#
# Stress axis : x y z
#
# Youngs Moduli (GPa) = 62.68470 33.32297 97.76232
#
# Poissons Ratio (x) = -0.23647 0.65676
# Poissons Ratio (y) = -0.44483 0.14143
# Poissons Ratio (z) = 0.42111 0.04821
#
# Static dielectric constant tensor:
#      x y z
#    x 1.781430 0.000000 0.002100 
#    y 0.000000 1.818640 0.000000 
#    z 0.002100 0.000000 1.784620 
# 
# From -- ./inp_files/238661.got.cif
#   From: 2010.05.17/outbox.cif.g08.bks.cpg/sg12_120_cif.got.tgz:238661.got - 2010.06.03 13:09:07.
