data_PCOD9192720
_publ_section_title
;
Structure prediction by ZEFSAII (Michael W. Deem and Ramdas Pophale) SiO2 
 PCOD9192720
Probable space group: C 2/M
;
_chemical_formula_sum "Si O2"
_cell_formula_units_Z 60
_cell_length_a 24.090437
_cell_length_b 9.404903
_cell_length_c 14.251057
_cell_angle_alpha 90.000000
_cell_angle_beta 69.293248
_cell_angle_gamma 90.000000
_cell_volume 3020.261465
_symmetry_space_group_name_H-M "C 2/M"
_symmetry_group_IT_number 12
_symmetry_cell_setting 'monoclinic'
loop_
_space_group_symop_operation_xyz
x,y,z
-x,y,-z
-x,-y,-z
x,-y,z
1/2+x,1/2+y,z
1/2-x,1/2+y,-z
1/2-x,1/2-y,-z
1/2+x,1/2-y,z
loop_
_atom_site_type_symbol
_atom_site_label
_atom_site_fract_x
_atom_site_fract_y
_atom_site_fract_z
Si Si1 0.155185 0.663183 0.256136
Si Si2 0.215402 0.206801 0.905990
Si Si3 0.412790 0.660344 0.059105
Si Si4 0.451199 0.833462 0.207836
Si Si5 0.305286 0.668239 0.588987
Si Si6 0.174104 0.334394 0.613425
Si Si7 0.565631 0.669102 0.174863
Si Si8 0.252737 0.500000 0.952980
O O1 0.135207 0.500000 0.278427
O O2 0.221760 0.660754 0.174432
O O3 0.161158 0.746483 0.350067
O O4 0.113282 0.749430 0.210313
O O5 0.157801 0.166296 0.881935
O O6 0.212263 0.122939 0.006395
O O7 0.217051 0.374418 0.919518
O O8 0.433835 0.500000 0.067606
O O9 0.444235 0.771527 0.107548
O O10 0.421278 0.689551 0.943744
O O11 0.387100 0.817174 0.295010
O O12 0.501446 0.740243 0.228634
O O13 0.467183 0.000000 0.198361
O O14 0.316781 0.500000 0.589572
O O15 0.233823 0.689996 0.638477
O O16 0.322830 0.730786 0.477473
O O17 0.177941 0.500000 0.579123
O O18 0.566836 0.500000 0.193090
#
# Coordination Sequence:
#
# PCOD9192720 Si02
#       8
#     8   8   8   8   8   8   8   4
#     4  12  24  38  60  90 127 164 205 250 304 372
#     4  11  22  35  57  86 119 163 200 248 303 356
#     4  11  23  39  60  87 122 161 210 257 303 358
#     4  11  24  42  63  89 118 160 209 255 304 363
#     4  10  21  38  65 100 125 156 195 244 306 368
#     4   9  20  41  67  92 126 157 192 248 307 362
#     4  11  25  42  61  83 121 168 209 258 304 351
#     4  10  20  34  50  78 120 156 204 236 290 358
#
# _framework density 19.865829999999999
#
# number of rings (size 3 to 8) (size 9 to 14) (size 15 to 20)
#    0.000    1.333    1.333    4.400    4.667    4.267 
#    0.000    0.667    0.000    4.000    0.000    0.000 
#    0.000    0.000    0.000    0.000    0.000    0.000 
#
# Total GULP energy -167172.694875 kJ/mol
# GULP energy per Si atom -5572.423162 kJ/mol
# Density = 1.982061 g / cm^3
# Si number density = 19.865830 Si / 1000 Ang^3
#
#
#
# Elastic Constant Matrix: (Units=GPa)
#
#
# Indices 1 2 3 4 5 6 
#
# 1 107.8390 62.5966 29.8810 0.0000 4.9287 0.0000
# 2 62.5966 187.7815 53.1530 0.0000 14.6689 0.0000
# 3 29.8810 53.1530 51.6580 0.0000 7.8828 0.0000
# 4 0.0000 0.0000 0.0000 109.2232 0.0000 -35.4032
# 5 4.9287 14.6689 7.8828 0.0000 23.5246 0.0000
# 6 0.0000 0.0000 0.0000 -35.4032 0.0000 54.6268
#
#
#
# Elastic Compliance Matrix: (Units=1/GPa)
#
#
# Indices 1 2 3 4 5 6 
#
# 1 0.012068 -0.002920 -0.004076 0.000000 0.000659 0.000000
# 2 -0.002920 0.008331 -0.006517 0.000000 -0.002399 0.000000
# 3 -0.004076 -0.006517 0.029162 0.000000 -0.004854 0.000000
# 4 0.000000 0.000000 0.000000 0.011590 0.000000 0.007512
# 5 0.000659 -0.002399 -0.004854 0.000000 0.045493 0.000000
# 6 0.000000 0.000000 0.000000 0.007512 0.000000 0.023174
#
#
# Mechanical properties :
#
#
# Convention : Reuss Voigt Hill
#
# Bulk Modulus (GPa) = 44.37672 70.94885 57.66278
# Shear Modulus (GPa) = 30.42192 50.91812 40.67002
#
# Velocity S-wave (km/s) = 3.91752 5.06820 4.52955
# Velocity P-wave (km/s) = 6.54594 8.36901 7.51298
#
# Compressibility (1/GPa) = 0.02253434
#
# Stress axis : x y z
#
# Youngs Moduli (GPa) = 82.86676 120.03598 34.29163
#
# Poissons Ratio (x) = 0.35056 0.13977
# Poissons Ratio (y) = 0.24201 0.22346
# Poissons Ratio (z) = 0.33776 0.78222
#
# Static dielectric constant tensor:
#      x y z
#    x 1.726550 0.000000 -0.026940 
#    y 0.000000 1.690310 0.000000 
#    z -0.026940 0.000000 1.716570 
# 
# From -- ./inp_files/238524.got.cif
#   From: 2010.05.17/outbox.cif.g08.bks.cpg/sg12_120_cif.got.tgz:238524.got - 2010.06.03 13:09:07.
