data_PCOD9192013
_publ_section_title
;
Structure prediction by ZEFSAII (Michael W. Deem and Ramdas Pophale) SiO2 
 PCOD9192013
Probable space group: C 2/M
;
_chemical_formula_sum "Si O2"
_cell_formula_units_Z 56
_cell_length_a 25.349580
_cell_length_b 9.512369
_cell_length_c 13.062394
_cell_angle_alpha 90.000000
_cell_angle_beta 70.351816
_cell_angle_gamma 90.000000
_cell_volume 2966.397872
_symmetry_space_group_name_H-M "C 2/M"
_symmetry_group_IT_number 12
_symmetry_cell_setting 'monoclinic'
loop_
_space_group_symop_operation_xyz
x,y,z
-x,y,-z
-x,-y,-z
x,-y,z
1/2+x,1/2+y,z
1/2-x,1/2+y,-z
1/2-x,1/2-y,-z
1/2+x,1/2-y,z
loop_
_atom_site_type_symbol
_atom_site_label
_atom_site_fract_x
_atom_site_fract_y
_atom_site_fract_z
Si Si1 0.233446 0.335143 0.774713
Si Si2 0.942811 0.831597 0.824225
Si Si3 0.153669 0.335081 0.628284
Si Si4 0.143457 0.167472 0.951569
Si Si5 0.934507 0.834400 0.194513
Si Si6 0.173659 0.663012 0.388991
Si Si7 0.047893 0.663287 0.390739
O O1 0.240315 0.500000 0.792380
O O2 0.197038 0.320768 0.693559
O O3 0.197632 0.256334 0.884994
O O4 0.291125 0.258012 0.711127
O O5 0.948669 0.754472 0.713252
O O6 0.999849 0.800563 0.849934
O O7 0.940384 0.000000 0.812259
O O8 0.887749 0.790383 0.923924
O O9 0.139981 0.500000 0.625544
O O10 0.098396 0.251682 0.697475
O O11 0.178910 0.288112 0.503447
O O12 0.097629 0.190196 0.891085
O O13 0.155801 0.000000 0.945782
O O14 0.929194 0.000000 0.220520
O O15 0.192859 0.500000 0.369215
O O16 0.108195 0.667836 0.405417
O O17 0.964427 0.500000 0.627155
O O18 0.000000 0.712468 0.500000
#
# Coordination Sequence:
#
# PCOD9192013 Si02
#       7
#     8   8   8   8   8   8   8
#     4  10  20  33  52  80 108 132 167 216 261 301
#     4  10  20  34  54  79 105 136 174 215 257 300
#     4   9  18  32  51  77 107 137 170 209 255 308
#     4   9  18  34  54  76 106 140 171 206 254 312
#     4   9  17  30  51  79 108 137 169 207 255 310
#     4  10  20  35  54  74 101 140 177 207 251 309
#     4  10  22  39  57  77 103 137 174 210 251 303
#
# _framework density 18.878115000000001
#
# number of rings (size 3 to 8) (size 9 to 14) (size 15 to 20)
#    0.000    2.429    0.000    2.143    0.000    6.000 
#    0.000    0.714    0.000    4.286    0.000    0.000 
#    0.000    0.000    0.000    0.000    0.000    0.000 
#
# Total GULP energy -156269.386525 kJ/mol
# GULP energy per Si atom -5581.049519 kJ/mol
# Density = 1.883515 g / cm^3
# Si number density = 18.878115 Si / 1000 Ang^3
#
#
#
# Elastic Constant Matrix: (Units=GPa)
#
#
# Indices 1 2 3 4 5 6 
#
# 1 37.8263 28.1478 33.6294 0.0000 -28.3549 0.0000
# 2 28.1478 45.4515 57.8693 0.0000 -23.0186 0.0000
# 3 33.6294 57.8693 135.0178 0.0000 -41.3675 0.0000
# 4 0.0000 0.0000 0.0000 31.8967 0.0000 -5.6968
# 5 -28.3549 -23.0186 -41.3675 0.0000 32.0016 0.0000
# 6 0.0000 0.0000 0.0000 -5.6968 0.0000 23.7934
#
#
#
# Elastic Compliance Matrix: (Units=1/GPa)
#
#
# Indices 1 2 3 4 5 6 
#
# 1 0.116795 -0.053496 0.022775 0.000000 0.094447 0.000000
# 2 -0.053496 0.076582 -0.028387 0.000000 -0.029010 0.000000
# 3 0.022775 -0.028387 0.022895 0.000000 0.029357 0.000000
# 4 0.000000 0.000000 0.000000 0.032752 0.000000 0.007842
# 5 0.094447 -0.029010 0.029357 0.000000 0.132015 0.000000
# 6 0.000000 0.000000 0.000000 0.007842 0.000000 0.043906
#
#
# Mechanical properties :
#
#
# Convention : Reuss Voigt Hill
#
# Bulk Modulus (GPa) = 10.19819 50.84317 30.52068
# Shear Modulus (GPa) = 8.68288 24.11496 16.39892
#
# Velocity S-wave (km/s) = 2.14696 3.57795 2.95052
# Velocity P-wave (km/s) = 3.39996 6.63776 5.27350
#
# Compressibility (1/GPa) = 0.09805664
#
# Stress axis : x y z
#
# Youngs Moduli (GPa) = 8.56203 13.05790 43.67715
#
# Poissons Ratio (x) = 0.69854 -0.99476
# Poissons Ratio (y) = 0.45803 1.23988
# Poissons Ratio (z) = -0.19500 0.37068
#
# Static dielectric constant tensor:
#      x y z
#    x 1.662940 0.000000 0.009130 
#    y 0.000000 1.632040 0.000000 
#    z 0.009130 0.000000 1.641320 
# 
# From -- ./inp_files/180771.got.cif
#   From: 2010.05.17/outbox.cif.g08.bks.cpg/sg12_91_cif.got.tgz:180771.got - 2010.06.03 13:09:07.
