data_PCOD9192630
_publ_section_title
;
Structure prediction by ZEFSAII (Michael W. Deem and Ramdas Pophale) SiO2 
 PCOD9192630
Probable space group: C 2/M
;
_chemical_formula_sum "Si O2"
_cell_formula_units_Z 56
_cell_length_a 16.118661
_cell_length_b 17.752429
_cell_length_c 14.195659
_cell_angle_alpha 90.000000
_cell_angle_beta 63.966085
_cell_angle_gamma 90.000000
_cell_volume 3649.866797
_symmetry_space_group_name_H-M "C 2/M"
_symmetry_group_IT_number 12
_symmetry_cell_setting 'monoclinic'
loop_
_space_group_symop_operation_xyz
x,y,z
-x,y,-z
-x,-y,-z
x,-y,z
1/2+x,1/2+y,z
1/2-x,1/2+y,-z
1/2-x,1/2-y,-z
1/2+x,1/2-y,z
loop_
_atom_site_type_symbol
_atom_site_label
_atom_site_fract_x
_atom_site_fract_y
_atom_site_fract_z
Si Si1 0.045672 0.409261 0.122557
Si Si2 0.993195 0.818813 0.615690
Si Si3 0.295241 0.333271 0.486760
Si Si4 0.816988 0.909773 0.679469
Si Si5 0.043295 0.651954 0.330041
Si Si6 0.858358 0.591263 0.112732
Si Si7 0.368619 0.910616 0.527933
O O1 0.046184 0.500000 0.123594
O O2 0.063726 0.381679 0.218245
O O3 0.943659 0.385500 0.137342
O O4 0.116899 0.384033 0.005584
O O5 0.918756 0.885013 0.662532
O O6 0.955691 0.741742 0.677209
O O7 0.000000 0.803791 0.500000
O O8 0.097494 0.833076 0.596686
O O9 0.250000 0.250000 0.500000
O O10 0.295388 0.365063 0.593597
O O11 0.232109 0.387933 0.456431
O O12 0.739143 0.887616 0.794100
O O13 0.813042 0.000000 0.665068
O O14 0.109714 0.623168 0.380205
O O15 0.942361 0.625628 0.418221
O O16 0.860076 0.500000 0.110466
O O17 0.382693 0.000000 0.522087
#
# Coordination Sequence:
#
# PCOD9192630 Si02
#       7
#     8   8   8   8   8   8   8
#     4   9  16  28  49  74 102 128 158 203 250 292
#     4  10  20  34  49  67  99 135 162 197 246 291
#     4  11  20  33  48  70 100 131 161 195 246 294
#     4  10  20  34  53  73  96 129 171 210 242 286
#     4  11  18  32  45  71 102 131 158 190 250 297
#     4   8  16  30  48  75  99 122 161 208 251 284
#     4  11  20  29  47  72  99 127 163 195 231 297
#
# _framework density 15.343026
#
# number of rings (size 3 to 8) (size 9 to 14) (size 15 to 20)
#    0.000    2.000    2.857    4.714    0.000    4.286 
#    0.000    0.714    0.000    0.000    0.000    0.000 
#    0.000    4.571    0.000    0.000    0.000    0.000 
#
# Total GULP energy -156043.907278 kJ/mol
# GULP energy per Si atom -5572.996688 kJ/mol
# Density = 1.530810 g / cm^3
# Si number density = 15.343026 Si / 1000 Ang^3
#
#
#
# Elastic Constant Matrix: (Units=GPa)
#
#
# Indices 1 2 3 4 5 6 
#
# 1 100.9817 24.2459 44.4649 0.0000 -7.7506 0.0000
# 2 24.2459 56.9509 28.3335 0.0000 -3.6399 0.0000
# 3 44.4649 28.3335 95.2660 0.0000 2.8914 0.0000
# 4 0.0000 0.0000 0.0000 -9.4217 0.0000 -5.5495
# 5 -7.7506 -3.6399 2.8914 0.0000 18.7393 0.0000
# 6 0.0000 0.0000 0.0000 -5.5495 0.0000 23.2940
#
#
#
# Elastic Compliance Matrix: (Units=1/GPa)
#
#
# Indices 1 2 3 4 5 6 
#
# 1 0.013487 -0.002509 -0.005730 0.000000 0.005975 0.000000
# 2 -0.002509 0.021547 -0.005358 0.000000 0.003974 0.000000
# 3 -0.005730 -0.005358 0.014938 0.000000 -0.005716 0.000000
# 4 0.000000 0.000000 0.000000 -0.093077 0.000000 -0.022174
# 5 0.005975 0.003974 -0.005716 0.000000 0.057489 0.000000
# 6 0.000000 0.000000 0.000000 -0.022174 0.000000 0.037647
#
#
# Mechanical properties :
#
#
# Convention : Reuss Voigt Hill
#
# Bulk Modulus (GPa) = 43.90202 49.69858 46.80030
# Shear Modulus (GPa) = 57.59206 16.93260 37.26233
#
# Velocity S-wave (km/s) = 6.13334 3.32565 4.93345
# Velocity P-wave (km/s) = 8.87879 6.87085 7.93856
#
# Compressibility (1/GPa) = 0.02277799
#
# Stress axis : x y z
#
# Youngs Moduli (GPa) = 74.14596 46.41062 66.94187
#
# Poissons Ratio (x) = 0.11645 0.38358
# Poissons Ratio (y) = 0.18605 0.35866
# Poissons Ratio (z) = 0.42486 0.24866
#
# Static dielectric constant tensor:
#      x y z
#    x 1.525210 0.000000 -0.015130 
#    y 0.000000 1.512960 0.000000 
#    z -0.015130 0.000000 1.498690 
# 
# From -- ./inp_files/215846.got.cif
#   From: 2010.05.17/outbox.cif.g08.bks.cpg/sg12_108_cif.got.tgz:215846.got - 2010.06.03 13:09:07.
