data_PCOD9192326
_publ_section_title
;
Structure prediction by ZEFSAII (Michael W. Deem and Ramdas Pophale) SiO2 
 PCOD9192326
Probable space group: C 2/M
;
_chemical_formula_sum "Si O2"
_cell_formula_units_Z 64
_cell_length_a 28.462742
_cell_length_b 7.632045
_cell_length_c 14.719490
_cell_angle_alpha 90.000000
_cell_angle_beta 118.905560
_cell_angle_gamma 90.000000
_cell_volume 2799.147007
_symmetry_space_group_name_H-M "C 2/M"
_symmetry_group_IT_number 12
_symmetry_cell_setting 'monoclinic'
loop_
_space_group_symop_operation_xyz
x,y,z
-x,y,-z
-x,-y,-z
x,-y,z
1/2+x,1/2+y,z
1/2-x,1/2+y,-z
1/2-x,1/2-y,-z
1/2+x,1/2-y,z
loop_
_atom_site_type_symbol
_atom_site_label
_atom_site_fract_x
_atom_site_fract_y
_atom_site_fract_z
Si Si1 0.612406 0.298949 0.248461
Si Si2 0.809674 0.789033 0.523160
Si Si3 0.675094 0.295460 0.666391
Si Si4 0.940918 0.711337 0.474096
Si Si5 0.590350 0.795933 0.846631
Si Si6 0.294062 0.299799 0.115206
Si Si7 0.974638 0.712282 0.699783
Si Si8 0.559679 0.286566 0.023754
O O1 0.629795 0.500000 0.252285
O O2 0.651080 0.217750 0.360776
O O3 0.553686 0.293578 0.239878
O O4 0.602643 0.223892 0.139540
O O5 0.750000 0.750000 0.500000
O O6 0.816419 0.718304 0.426578
O O7 0.818815 0.000000 0.527701
O O8 0.690095 0.500000 0.672730
O O9 0.611060 0.284646 0.623385
O O10 0.703700 0.214685 0.781800
O O11 0.939255 0.500000 0.463155
O O12 0.939657 0.758467 0.579365
O O13 0.000000 0.768865 0.500000
O O14 0.646661 0.713679 0.872507
O O15 0.536163 0.730007 0.747094
O O16 0.595807 0.000000 0.828422
O O17 0.576233 0.776295 0.939798
O O18 0.282475 0.500000 0.123520
O O19 0.250000 0.250000 0.000000
O O20 0.974949 0.500000 0.708845
O O21 0.559866 0.500000 0.023213
O O22 0.500000 0.230798 0.000000
#
# Coordination Sequence:
#
# PCOD9192326 Si02
#       8
#     8   8   8   8   8   8   8   8
#     4  10  20  36  58  83 116 156 197 246 301 356
#     4  10  22  40  61  87 119 154 197 245 295 355
#     4  10  22  41  64  90 119 153 199 249 299 356
#     4  10  20  34  55  86 123 159 197 242 295 357
#     4  11  23  39  61  90 125 164 206 253 304 362
#     4  11  25  45  67  90 119 158 205 256 308 360
#     4  10  20  33  54  85 120 157 197 242 297 358
#     4  10  20  35  58  88 122 162 205 251 305 364
#
# _framework density 22.864108000000002
#
# number of rings (size 3 to 8) (size 9 to 14) (size 15 to 20)
#    0.000    1.750    2.500    1.500    0.000    5.500 
#    0.000    2.500    0.000    0.000    0.000    0.000 
#    0.000    0.000    0.000    0.000    0.000    0.000 
#
# Total GULP energy -178690.862149 kJ/mol
# GULP energy per Si atom -5584.089442 kJ/mol
# Density = 2.281207 g / cm^3
# Si number density = 22.864108 Si / 1000 Ang^3
#
#
#
# Elastic Constant Matrix: (Units=GPa)
#
#
# Indices 1 2 3 4 5 6 
#
# 1 66.9724 -13.5348 44.0060 0.0000 9.0043 0.0000
# 2 -13.5348 45.8497 6.9367 0.0000 3.0032 0.0000
# 3 44.0060 6.9367 194.7391 0.0000 12.4077 0.0000
# 4 0.0000 0.0000 0.0000 12.9303 0.0000 5.3417
# 5 9.0043 3.0032 12.4077 0.0000 33.4934 0.0000
# 6 0.0000 0.0000 0.0000 5.3417 0.0000 23.6037
#
#
#
# Elastic Compliance Matrix: (Units=1/GPa)
#
#
# Indices 1 2 3 4 5 6 
#
# 1 0.019802 0.006799 -0.004444 0.000000 -0.004287 0.000000
# 2 0.006799 0.024360 -0.002200 0.000000 -0.003197 0.000000
# 3 -0.004444 -0.002200 0.006277 0.000000 -0.000933 0.000000
# 4 0.000000 0.000000 0.000000 0.085314 0.000000 -0.019307
# 5 -0.004287 -0.003197 -0.000933 0.000000 0.031642 0.000000
# 6 0.000000 0.000000 0.000000 -0.019307 0.000000 0.046736
#
#
# Mechanical properties :
#
#
# Convention : Reuss Voigt Hill
#
# Bulk Modulus (GPa) = 19.70543 42.48634 31.09589
# Shear Modulus (GPa) = 21.66980 32.01570 26.84275
#
# Velocity S-wave (km/s) = 3.08192 3.74606 3.43010
# Velocity P-wave (km/s) = 4.61536 6.11008 5.41455
#
# Compressibility (1/GPa) = 0.05074743
#
# Stress axis : x y z
#
# Youngs Moduli (GPa) = 50.50077 41.05156 159.30960
#
# Poissons Ratio (x) = -0.27909 0.70792
# Poissons Ratio (y) = -0.34333 0.35053
# Poissons Ratio (z) = 0.22441 0.09033
#
# Static dielectric constant tensor:
#      x y z
#    x 1.829220 0.000000 -0.016450 
#    y 0.000000 1.890290 0.000000 
#    z -0.016450 0.000000 2.023400 
# 
# From -- ./inp_files/249215.got.cif
#   From: 2010.05.17/outbox.cif.g08.bks.cpg/sg12_125_cif.got.tgz:249215.got - 2010.06.03 13:09:07.
