data_PCOD9192643
_publ_section_title
;
Structure prediction by ZEFSAII (Michael W. Deem and Ramdas Pophale) SiO2 
 PCOD9192643
Probable space group: C 2/M
;
_chemical_formula_sum "Si O2"
_cell_formula_units_Z 48
_cell_length_a 22.415957
_cell_length_b 8.059049
_cell_length_c 19.480781
_cell_angle_alpha 90.000000
_cell_angle_beta 140.968706
_cell_angle_gamma 90.000000
_cell_volume 2216.215606
_symmetry_space_group_name_H-M "C 2/M"
_symmetry_group_IT_number 12
_symmetry_cell_setting 'monoclinic'
loop_
_space_group_symop_operation_xyz
x,y,z
-x,y,-z
-x,-y,-z
x,-y,z
1/2+x,1/2+y,z
1/2-x,1/2+y,-z
1/2-x,1/2-y,-z
1/2+x,1/2-y,z
loop_
_atom_site_type_symbol
_atom_site_label
_atom_site_fract_x
_atom_site_fract_y
_atom_site_fract_z
Si Si1 0.526949 0.804777 0.354387
Si Si2 0.377584 0.297834 0.956468
Si Si3 0.106521 0.810043 0.563952
Si Si4 0.329759 0.310061 0.622858
Si Si5 0.173303 0.698639 0.766864
Si Si6 0.916698 0.796689 0.834180
O O1 0.595496 0.782787 0.482058
O O2 0.572653 0.710478 0.331836
O O3 0.423084 0.739579 0.283613
O O4 0.521826 0.000000 0.334053
O O5 0.376442 0.500000 0.957764
O O6 0.273486 0.239418 0.885579
O O7 0.390135 0.250012 0.887721
O O8 0.473831 0.244704 0.079963
O O9 0.167957 0.735758 0.680519
O O10 0.000000 0.807052 0.500000
O O11 0.133200 0.000000 0.574662
O O12 0.307431 0.500000 0.615375
O O13 0.250000 0.250000 0.500000
O O14 0.347250 0.231457 0.713084
O O15 0.170328 0.500000 0.770945
O O16 0.915393 0.000000 0.831516
#
# Coordination Sequence:
#
# PCOD9192643 Si02
#       6
#     8   8   8   8   8   8
#     4  10  20  34  49  72 106 143 179 216 257 312
#     4   8  14  29  54  81 104 130 169 223 268 309
#     4   9  17  29  46  71 105 139 171 213 262 309
#     4  11  23  37  54  78 106 142 178 215 263 319
#     4   9  17  29  52  80 104 134 176 220 265 311
#     4   8  16  31  52  78 106 133 172 219 265 313
#
# _framework density 21.658541
#
# number of rings (size 3 to 8) (size 9 to 14) (size 15 to 20)
#    0.000    2.833    0.000    2.500    2.333    2.667 
#    0.000    0.833    0.000    2.000    0.000    5.833 
#    0.000    0.000    0.000    0.000    0.000    0.000 
#
# Total GULP energy -133843.339366 kJ/mol
# GULP energy per Si atom -5576.805807 kJ/mol
# Density = 2.160925 g / cm^3
# Si number density = 21.658541 Si / 1000 Ang^3
#
#
#
# Elastic Constant Matrix: (Units=GPa)
#
#
# Indices 1 2 3 4 5 6 
#
# 1 40.0040 -3.6376 23.2552 0.0000 9.4993 0.0000
# 2 -3.6376 14.1214 5.4765 0.0000 0.1466 0.0000
# 3 23.2552 5.4765 117.2677 0.0000 9.2157 0.0000
# 4 0.0000 0.0000 0.0000 6.1789 0.0000 0.0030
# 5 9.4993 0.1466 9.2157 0.0000 32.7073 0.0000
# 6 0.0000 0.0000 0.0000 0.0030 0.0000 16.9013
#
#
#
# Elastic Compliance Matrix: (Units=1/GPa)
#
#
# Indices 1 2 3 4 5 6 
#
# 1 0.031261 0.010498 -0.006108 0.000000 -0.007405 0.000000
# 2 0.010498 0.075659 -0.005470 0.000000 -0.001847 0.000000
# 3 -0.006108 -0.005470 0.010076 0.000000 -0.001041 0.000000
# 4 0.000000 0.000000 0.000000 0.161840 0.000000 -0.000029
# 5 -0.007405 -0.001847 -0.001041 0.000000 0.033026 0.000000
# 6 0.000000 0.000000 0.000000 -0.000029 0.000000 0.059167
#
#
# Mechanical properties :
#
#
# Convention : Reuss Voigt Hill
#
# Bulk Modulus (GPa) = 8.70797 24.62015 16.66406
# Shear Modulus (GPa) = 12.15160 20.91076 16.53118
#
# Velocity S-wave (km/s) = 2.37123 3.11058 2.76572
# Velocity P-wave (km/s) = 3.39503 4.92880 4.23198
#
# Compressibility (1/GPa) = 0.11483732
#
# Stress axis : x y z
#
# Youngs Moduli (GPa) = 31.98862 13.21713 99.24630
#
# Poissons Ratio (x) = -0.13876 0.60616
# Poissons Ratio (y) = -0.33582 0.54289
# Poissons Ratio (z) = 0.19538 0.07230
#
# Static dielectric constant tensor:
#      x y z
#    x 1.823610 0.000000 0.033610 
#    y 0.000000 1.772780 0.000000 
#    z 0.033610 0.000000 1.842150 
# 
# From -- ./inp_files/323865.got.cif
#   From: 2010.05.17/outbox.cif.g08.bks.cpg/sg12_162_cif.got.tgz:323865.got - 2010.06.03 13:09:07.
