data_PCOD9192254
_publ_section_title
;
Structure prediction by ZEFSAII (Michael W. Deem and Ramdas Pophale) SiO2 
 PCOD9192254
Probable space group: C 2/M
;
_chemical_formula_sum "Si O2"
_cell_formula_units_Z 50
_cell_length_a 25.194557
_cell_length_b 7.911340
_cell_length_c 14.428526
_cell_angle_alpha 90.000000
_cell_angle_beta 69.978065
_cell_angle_gamma 90.000000
_cell_volume 2702.116113
_symmetry_space_group_name_H-M "C 2/M"
_symmetry_group_IT_number 12
_symmetry_cell_setting 'monoclinic'
loop_
_space_group_symop_operation_xyz
x,y,z
-x,y,-z
-x,-y,-z
x,-y,z
1/2+x,1/2+y,z
1/2-x,1/2+y,-z
1/2-x,1/2-y,-z
1/2+x,1/2-y,z
loop_
_atom_site_type_symbol
_atom_site_label
_atom_site_fract_x
_atom_site_fract_y
_atom_site_fract_z
Si Si1 0.772065 0.196695 0.887206
Si Si2 0.125620 0.299654 0.654948
Si Si3 0.718286 0.302387 0.736018
Si Si4 0.832155 0.295103 0.570906
Si Si5 0.613072 0.702252 0.271587
Si Si6 0.490937 0.194837 0.356025
Si Si7 0.000000 0.000000 0.500000
O O1 0.727265 0.224993 0.831724
O O2 0.832015 0.270612 0.815774
O O3 0.783292 0.000000 0.886274
O O4 0.750000 0.250000 0.000000
O O5 0.136570 0.500000 0.651777
O O6 0.159428 0.224317 0.720295
O O7 0.150665 0.235985 0.541426
O O8 0.058578 0.275680 0.688869
O O9 0.728191 0.500000 0.742331
O O10 0.769370 0.238886 0.639075
O O11 0.834814 0.500000 0.569441
O O12 0.873464 0.230914 0.627324
O O13 0.606316 0.500000 0.263531
O O14 0.554863 0.791697 0.281379
O O15 0.486789 0.347783 0.431396
O O16 0.481640 0.000000 0.397154
#
# Coordination Sequence:
#
# PCOD9192254 Si02
#       7
#     8   8   8   8   8   8   2
#     4  10  21  38  62  88 112 139 182 237 300 355
#     4  10  21  34  50  75 112 155 195 230 275 332
#     4  10  20  33  54  79 109 147 187 231 287 343
#     4   9  18  32  49  74 108 149 191 234 276 327
#     4  10  20  35  55  81 113 149 190 240 290 342
#     4  11  23  36  54  81 115 159 201 245 287 331
#     4  12  22  36  56  78 116 154 214 240 280 322
#
# _framework density 18.504014999999999
#
# number of rings (size 3 to 8) (size 9 to 14) (size 15 to 20)
#    0.000    1.920    0.800    3.120    1.120    4.480 
#    0.000    0.000    0.000    0.960    0.000    6.720 
#    0.000    0.000    0.000    0.000    0.000    0.000 
#
# Total GULP energy -139207.589927 kJ/mol
# GULP energy per Si atom -5568.303597 kJ/mol
# Density = 1.846190 g / cm^3
# Si number density = 18.504015 Si / 1000 Ang^3
#
#
#
# Elastic Constant Matrix: (Units=GPa)
#
#
# Indices 1 2 3 4 5 6 
#
# 1 121.2883 16.7501 46.9529 0.0000 7.7445 0.0000
# 2 16.7501 66.9622 10.4791 0.0000 -1.0206 0.0000
# 3 46.9529 10.4791 89.7740 0.0000 7.1517 0.0000
# 4 0.0000 0.0000 0.0000 24.6054 0.0000 5.4201
# 5 7.7445 -1.0206 7.1517 0.0000 8.1782 0.0000
# 6 0.0000 0.0000 0.0000 5.4201 0.0000 24.4451
#
#
#
# Elastic Compliance Matrix: (Units=1/GPa)
#
#
# Indices 1 2 3 4 5 6 
#
# 1 0.010831 -0.002032 -0.004934 0.000000 -0.006195 0.000000
# 2 -0.002032 0.015698 -0.001160 0.000000 0.004897 0.000000
# 3 -0.004934 -0.001160 0.014505 0.000000 -0.008157 0.000000
# 4 0.000000 0.000000 0.000000 0.042728 0.000000 -0.009474
# 5 -0.006195 0.004897 -0.008157 0.000000 0.135888 0.000000
# 6 0.000000 0.000000 0.000000 -0.009474 0.000000 0.043009
#
#
# Mechanical properties :
#
#
# Convention : Reuss Voigt Hill
#
# Bulk Modulus (GPa) = 40.35069 47.37652 43.86360
# Shear Modulus (GPa) = 17.41123 25.03524 21.22323
#
# Velocity S-wave (km/s) = 3.07081 3.68225 3.39034
# Velocity P-wave (km/s) = 5.86745 6.61344 6.25158
#
# Compressibility (1/GPa) = 0.02478273
#
# Stress axis : x y z
#
# Youngs Moduli (GPa) = 92.32721 63.70168 68.94247
#
# Poissons Ratio (x) = 0.12942 0.34017
# Poissons Ratio (y) = 0.18757 0.07997
# Poissons Ratio (z) = 0.45555 0.07389
#
# Static dielectric constant tensor:
#      x y z
#    x 1.723400 0.000000 -0.115570 
#    y 0.000000 1.656900 0.000000 
#    z -0.115570 0.000000 1.731780 
# 
# From -- ./inp_files/230119.got.cif
#   From: 2010.05.17/outbox.cif.g08.bks.cpg/sg12_116_cif.got.tgz:230119.got - 2010.06.03 13:09:07.
