data_PCOD9192859
_publ_section_title
;
Structure prediction by ZEFSAII (Michael W. Deem and Ramdas Pophale) SiO2 
 PCOD9192859
Probable space group: C 2/M
;
_chemical_formula_sum "Si O2"
_cell_formula_units_Z 56
_cell_length_a 20.565015
_cell_length_b 18.015798
_cell_length_c 22.095274
_cell_angle_alpha 90.000000
_cell_angle_beta 160.694079
_cell_angle_gamma 90.000000
_cell_volume 2706.452686
_symmetry_space_group_name_H-M "C 2/M"
_symmetry_group_IT_number 12
_symmetry_cell_setting 'monoclinic'
loop_
_space_group_symop_operation_xyz
x,y,z
-x,y,-z
-x,-y,-z
x,-y,z
1/2+x,1/2+y,z
1/2-x,1/2+y,-z
1/2-x,1/2-y,-z
1/2+x,1/2-y,z
loop_
_atom_site_type_symbol
_atom_site_label
_atom_site_fract_x
_atom_site_fract_y
_atom_site_fract_z
Si Si1 0.829676 0.083019 0.128299
Si Si2 0.378796 0.155614 0.947434
Si Si3 0.766337 0.082164 0.807234
Si Si4 0.381970 0.580064 0.041034
Si Si5 0.439931 0.771776 0.350015
Si Si6 0.479412 0.739671 0.709814
Si Si7 0.405350 0.733257 0.776922
O O1 0.764001 0.086310 0.000318
O O2 0.977420 0.152343 0.260849
O O3 0.909928 0.000000 0.208378
O O4 0.677046 0.101181 0.047097
O O5 0.508046 0.221213 0.091386
O O6 0.500000 0.119748 0.000000
O O7 0.188270 0.197762 0.752627
O O8 0.646934 0.157627 0.690072
O O9 0.710292 0.000000 0.733122
O O10 0.752216 0.077185 0.867467
O O11 0.000000 0.091993 0.000000
O O12 0.488461 0.500000 0.137585
O O13 0.533710 0.647169 0.167014
O O14 0.419565 0.780201 0.258128
O O15 0.670373 0.760566 0.565501
O O16 0.250000 0.750000 0.500000
O O17 0.514554 0.760803 0.810664
#
# Coordination Sequence:
#
# PCOD9192859 Si02
#       7
#     8   8   8   8   8   8   8
#     4   9  19  35  59  83 108 148 192 229 281 339
#     4  11  23  37  55  81 112 146 190 239 285 327
#     4  10  20  34  51  77 118 151 182 229 273 329
#     4   9  18  33  55  82 111 148 184 224 280 335
#     4  10  20  34  56  81 108 145 193 222 283 341
#     4   8  17  33  55  87 114 138 182 232 281 330
#     4  10  20  34  56  81 113 143 181 240 276 330
#
# _framework density 20.691291
#
# number of rings (size 3 to 8) (size 9 to 14) (size 15 to 20)
#    0.000    2.429    1.429    0.429    2.000    3.143 
#    0.000    2.143    0.000   10.286    0.000   10.000 
#    0.000    0.000    0.000    0.000    0.000    0.000 
#
# Total GULP energy -155998.344139 kJ/mol
# GULP energy per Si atom -5571.369434 kJ/mol
# Density = 2.064420 g / cm^3
# Si number density = 20.691291 Si / 1000 Ang^3
#
#
#
# Elastic Constant Matrix: (Units=GPa)
#
#
# Indices 1 2 3 4 5 6 
#
# 1 91.2368 14.1590 4.8072 0.0057 10.9867 -0.0085
# 2 14.1590 88.7299 13.9198 0.0104 3.1640 0.0019
# 3 4.8072 13.9198 48.3983 0.0413 3.8874 0.0086
# 4 0.0057 0.0104 0.0413 6.2940 0.0068 -0.7504
# 5 10.9867 3.1640 3.8874 0.0068 24.4317 -0.0007
# 6 -0.0085 0.0019 0.0086 -0.7504 -0.0007 13.0203
#
#
#
# Elastic Compliance Matrix: (Units=1/GPa)
#
#
# Indices 1 2 3 4 5 6 
#
# 1 0.011844 -0.001664 -0.000291 0.000000 -0.005064 0.000008
# 2 -0.001664 0.012061 -0.003280 0.000003 -0.000292 0.000000
# 3 -0.000291 -0.003280 0.021869 -0.000137 -0.002924 -0.000022
# 4 0.000000 0.000003 -0.000137 0.159981 -0.000023 0.009221
# 5 -0.005064 -0.000292 -0.002924 -0.000023 0.043711 0.000000
# 6 0.000008 0.000000 -0.000022 0.009221 0.000000 0.077335
#
#
# Mechanical properties :
#
#
# Convention : Reuss Voigt Hill
#
# Bulk Modulus (GPa) = 28.32557 32.68188 30.50373
# Shear Modulus (GPa) = 14.32508 21.78113 18.05310
#
# Velocity S-wave (km/s) = 2.63406 3.24801 2.95701
# Velocity P-wave (km/s) = 4.79274 5.46767 5.14129
#
# Compressibility (1/GPa) = 0.03530379
#
# Stress axis : x y z
#
# Youngs Moduli (GPa) = 84.43189 82.91445 45.72656
#
# Poissons Ratio (x) = 0.13795 0.01331
# Poissons Ratio (y) = 0.14047 0.14999
# Poissons Ratio (z) = 0.02458 0.27196
#
# Static dielectric constant tensor:
#      x y z
#    x 1.846200 0.000000 -0.001630 
#    y 0.000000 1.768860 0.000000 
#    z -0.001630 0.000000 1.713830 
# 
# From -- ./inp_files/347822.got.cif
#   From: 2010.05.17/outbox.cif.g08.bks.cpg/sg12_174_cif.got.tgz:347822.got - 2010.06.03 13:09:07.
