data_PCOD9192070
_publ_section_title
;
Structure prediction by ZEFSAII (Michael W. Deem and Ramdas Pophale) SiO2 
 PCOD9192070
Probable space group: C 2/M
;
_chemical_formula_sum "Si O2"
_cell_formula_units_Z 56
_cell_length_a 13.529066
_cell_length_b 11.095573
_cell_length_c 22.339499
_cell_angle_alpha 90.000000
_cell_angle_beta 111.554708
_cell_angle_gamma 90.000000
_cell_volume 3118.927692
_symmetry_space_group_name_H-M "C 2/M"
_symmetry_group_IT_number 12
_symmetry_cell_setting 'monoclinic'
loop_
_space_group_symop_operation_xyz
x,y,z
-x,y,-z
-x,-y,-z
x,-y,z
1/2+x,1/2+y,z
1/2-x,1/2+y,-z
1/2-x,1/2-y,-z
1/2+x,1/2-y,z
loop_
_atom_site_type_symbol
_atom_site_label
_atom_site_fract_x
_atom_site_fract_y
_atom_site_fract_z
Si Si1 0.896504 0.363822 0.404785
Si Si2 0.331610 0.359360 0.703475
Si Si3 0.384399 0.205647 0.959760
Si Si4 0.611649 0.226406 0.401209
Si Si5 0.072407 0.857482 0.150093
Si Si6 0.657530 0.634698 0.525734
Si Si7 0.154980 0.865915 0.931807
O O1 0.893841 0.500000 0.431028
O O2 0.793755 0.354420 0.339207
O O3 0.886478 0.251463 0.448288
O O4 0.005244 0.343516 0.393770
O O5 0.364340 0.500000 0.704661
O O6 0.385841 0.277558 0.665062
O O7 0.361857 0.320008 0.776951
O O8 0.399572 0.285500 0.903776
O O9 0.271389 0.139107 0.928507
O O10 0.500000 0.145886 0.000000
O O11 0.360829 0.282296 0.014274
O O12 0.627135 0.338976 0.450325
O O13 0.715770 0.146201 0.437186
O O14 0.945766 0.840542 0.133172
O O15 0.091717 0.000000 0.144572
O O16 0.623790 0.500000 0.536798
O O17 0.139496 0.000000 0.952052
#
# Coordination Sequence:
#
# PCOD9192070 Si02
#       7
#     8   8   8   8   8   8   8
#     4  10  21  36  54  76 102 132 167 208 256 306
#     4   9  19  34  50  72  99 130 168 205 244 294
#     4   9  17  29  47  71  97 125 158 199 241 284
#     4  10  20  33  53  74 101 132 163 205 254 301
#     4   9  17  31  50  69  95 130 164 198 236 284
#     4  10  21  35  53  78 103 129 166 210 255 304
#     4   9  17  29  47  72  97 124 160 199 242 287
#
# _framework density 17.954888
#
# number of rings (size 3 to 8) (size 9 to 14) (size 15 to 20)
#    0.000    2.571    0.000    1.714    0.000    9.429 
#    0.000    0.000    0.000    4.286    0.000    0.000 
#    0.000    0.000    0.000    0.000    0.000    0.000 
#
# Total GULP energy -155877.515553 kJ/mol
# GULP energy per Si atom -5567.054127 kJ/mol
# Density = 1.791402 g / cm^3
# Si number density = 17.954888 Si / 1000 Ang^3
#
#
#
# Elastic Constant Matrix: (Units=GPa)
#
#
# Indices 1 2 3 4 5 6 
#
# 1 105.5260 30.0825 19.6977 0.0000 4.2170 0.0000
# 2 30.0825 85.1399 25.1989 0.0000 0.7192 0.0000
# 3 19.6977 25.1989 91.7874 0.0000 3.4289 0.0000
# 4 0.0000 0.0000 0.0000 18.5327 0.0000 -10.4320
# 5 4.2170 0.7192 3.4289 0.0000 17.7621 0.0000
# 6 0.0000 0.0000 0.0000 -10.4320 0.0000 21.6863
#
#
#
# Elastic Compliance Matrix: (Units=1/GPa)
#
#
# Indices 1 2 3 4 5 6 
#
# 1 0.010776 -0.003405 -0.001297 0.000000 -0.002170 0.000000
# 2 -0.003405 0.013861 -0.003106 0.000000 0.000847 0.000000
# 3 -0.001297 -0.003106 0.012097 0.000000 -0.001902 0.000000
# 4 0.000000 0.000000 0.000000 0.073995 0.000000 0.035595
# 5 -0.002170 0.000847 -0.001902 0.000000 0.057148 0.000000
# 6 0.000000 0.000000 0.000000 0.035595 0.000000 0.063235
#
#
# Mechanical properties :
#
#
# Convention : Reuss Voigt Hill
#
# Bulk Modulus (GPa) = 47.35448 48.04572 47.70010
# Shear Modulus (GPa) = 19.70324 25.42784 22.56554
#
# Velocity S-wave (km/s) = 3.31626 3.76734 3.54897
# Velocity P-wave (km/s) = 6.41052 6.76321 6.58923
#
# Compressibility (1/GPa) = 0.02111733
#
# Stress axis : x y z
#
# Youngs Moduli (GPa) = 92.80010 72.14618 82.66677
#
# Poissons Ratio (x) = 0.24568 0.10718
# Poissons Ratio (y) = 0.31602 0.25677
# Poissons Ratio (z) = 0.12032 0.22409
#
# Static dielectric constant tensor:
#      x y z
#    x 1.660740 0.000000 0.030750 
#    y 0.000000 1.631920 0.000000 
#    z 0.030750 0.000000 1.600620 
# 
# From -- ./inp_files/309506.got.cif
#   From: 2010.05.17/outbox.cif.g08.bks.cpg/sg12_155_cif.got.tgz:309506.got - 2010.06.03 13:09:07.
