data_PCOD9192880
_publ_section_title
;
Structure prediction by ZEFSAII (Michael W. Deem and Ramdas Pophale) SiO2 
 PCOD9192880
Probable space group: C 2/M
;
_chemical_formula_sum "Si O2"
_cell_formula_units_Z 64
_cell_length_a 34.127510
_cell_length_b 7.588132
_cell_length_c 11.665646
_cell_angle_alpha 90.000000
_cell_angle_beta 88.032780
_cell_angle_gamma 90.000000
_cell_volume 3019.202466
_symmetry_space_group_name_H-M "C 2/M"
_symmetry_group_IT_number 12
_symmetry_cell_setting 'monoclinic'
loop_
_space_group_symop_operation_xyz
x,y,z
-x,y,-z
-x,-y,-z
x,-y,z
1/2+x,1/2+y,z
1/2-x,1/2+y,-z
1/2-x,1/2-y,-z
1/2+x,1/2-y,z
loop_
_atom_site_type_symbol
_atom_site_label
_atom_site_fract_x
_atom_site_fract_y
_atom_site_fract_z
Si Si1 0.455122 0.215640 0.508950
Si Si2 0.770237 0.792408 0.316901
Si Si3 0.307173 0.785015 0.557386
Si Si4 0.385725 0.793823 0.662181
Si Si5 0.163400 0.789813 0.847397
Si Si6 0.957801 0.286561 0.045230
Si Si7 0.878729 0.206305 0.923680
Si Si8 0.584507 0.212377 0.723175
O O1 0.500000 0.277946 0.500000
O O2 0.428384 0.273620 0.619185
O O3 0.430879 0.270586 0.398404
O O4 0.457478 0.000000 0.508839
O O5 0.727151 0.722817 0.352492
O O6 0.794922 0.772069 0.431764
O O7 0.796733 0.717268 0.211930
O O8 0.765336 0.000000 0.294617
O O9 0.349427 0.719634 0.593338
O O10 0.306825 0.000000 0.557481
O O11 0.376455 0.780870 0.796962
O O12 0.386632 0.000000 0.632533
O O13 0.127704 0.764926 0.761042
O O14 0.167967 0.000000 0.860430
O O15 0.148858 0.718778 0.971889
O O16 0.958538 0.500000 0.045377
O O17 0.922835 0.230412 0.965470
O O18 0.945229 0.228959 0.173644
O O19 0.000000 0.223363 0.000000
O O20 0.870305 0.000000 0.914632
O O21 0.584481 0.000000 0.720983
#
# Coordination Sequence:
#
# PCOD9192880 Si02
#       8
#     8   8   8   8   8   8   8   8
#     4   9  18  30  48  72  96 125 159 198 244 294
#     4   9  17  31  53  77 103 131 163 202 247 300
#     4   9  18  32  51  79 105 129 162 204 252 296
#     4  10  20  34  52  71  99 133 166 206 250 296
#     4   9  18  33  51  71  97 132 164 199 246 294
#     4   9  18  31  52  77  97 122 162 209 252 294
#     4  10  21  35  50  70  98 134 172 205 245 296
#     4   9  17  30  49  74  98 122 159 204 245 289
#
# _framework density 21.197649999999999
#
# number of rings (size 3 to 8) (size 9 to 14) (size 15 to 20)
#    0.000    2.750    0.000    1.125    1.750    2.750 
#    0.000    1.250    0.000    0.750    0.000    0.000 
#    0.000    0.000    0.000    0.000    0.000    0.000 
#
# Total GULP energy -178510.078815 kJ/mol
# GULP energy per Si atom -5578.439963 kJ/mol
# Density = 2.114940 g / cm^3
# Si number density = 21.197650 Si / 1000 Ang^3
#
#
#
# Elastic Constant Matrix: (Units=GPa)
#
#
# Indices 1 2 3 4 5 6 
#
# 1 108.1538 5.3953 37.1775 0.0000 -33.8188 0.0000
# 2 5.3953 42.9336 -4.5846 0.0000 -4.7755 0.0000
# 3 37.1775 -4.5846 53.9034 0.0000 -10.2337 0.0000
# 4 0.0000 0.0000 0.0000 20.9755 0.0000 0.7717
# 5 -33.8188 -4.7755 -10.2337 0.0000 29.7649 0.0000
# 6 0.0000 0.0000 0.0000 0.7717 0.0000 12.2177
#
#
#
# Elastic Compliance Matrix: (Units=1/GPa)
#
#
# Indices 1 2 3 4 5 6 
#
# 1 0.017688 -0.001336 -0.009134 0.000000 0.016742 0.000000
# 2 -0.001336 0.024257 0.003675 0.000000 0.003637 0.000000
# 3 -0.009134 0.003675 0.024933 0.000000 -0.001216 0.000000
# 4 0.000000 0.000000 0.000000 0.047786 0.000000 -0.003018
# 5 0.016742 0.003637 -0.001216 0.000000 0.052784 0.000000
# 6 0.000000 0.000000 0.000000 -0.003018 0.000000 0.082039
#
#
# Mechanical properties :
#
#
# Convention : Reuss Voigt Hill
#
# Bulk Modulus (GPa) = 18.76625 31.21857 24.99241
# Shear Modulus (GPa) = 17.80377 23.72515 20.76446
#
# Velocity S-wave (km/s) = 2.90124 3.34913 3.13319
# Velocity P-wave (km/s) = 4.48276 5.45113 4.99049
#
# Compressibility (1/GPa) = 0.05328715
#
# Stress axis : x y z
#
# Youngs Moduli (GPa) = 56.53651 41.22576 40.10678
#
# Poissons Ratio (x) = 0.05508 0.36635
# Poissons Ratio (y) = 0.07553 -0.14740
# Poissons Ratio (z) = 0.51643 -0.15151
#
# Static dielectric constant tensor:
#      x y z
#    x 1.768410 0.000000 -0.054110 
#    y 0.000000 1.798470 0.000000 
#    z -0.054110 0.000000 1.761080 
# 
# From -- ./inp_files/187396.got.cif
#   From: 2010.05.17/outbox.cif.g08.bks.cpg/sg12_94_cif.got.tgz:187396.got - 2010.06.03 13:09:07.
