data_PCOD9192899
_publ_section_title
;
Structure prediction by ZEFSAII (Michael W. Deem and Ramdas Pophale) SiO2 
 PCOD9192899
Probable space group: C 2/M
;
_chemical_formula_sum "Si O2"
_cell_formula_units_Z 56
_cell_length_a 20.430278
_cell_length_b 8.630846
_cell_length_c 23.940140
_cell_angle_alpha 90.000000
_cell_angle_beta 50.173254
_cell_angle_gamma 90.000000
_cell_volume 3241.954085
_symmetry_space_group_name_H-M "C 2/M"
_symmetry_group_IT_number 12
_symmetry_cell_setting 'monoclinic'
loop_
_space_group_symop_operation_xyz
x,y,z
-x,y,-z
-x,-y,-z
x,-y,z
1/2+x,1/2+y,z
1/2-x,1/2+y,-z
1/2-x,1/2-y,-z
1/2+x,1/2-y,z
loop_
_atom_site_type_symbol
_atom_site_label
_atom_site_fract_x
_atom_site_fract_y
_atom_site_fract_z
Si Si1 0.615093 0.685725 0.275428
Si Si2 0.988262 0.813024 0.442830
Si Si3 0.029827 0.685881 0.723855
Si Si4 0.804112 0.188046 0.159182
Si Si5 0.956071 0.188114 0.159609
Si Si6 0.920676 0.821344 0.999807
Si Si7 0.344417 0.185141 0.443447
O O1 0.616894 0.500000 0.271345
O O2 0.566666 0.730686 0.359378
O O3 0.555982 0.750218 0.257979
O O4 0.710100 0.750589 0.220858
O O5 0.903709 0.745564 0.461032
O O6 0.000000 0.761512 0.500000
O O7 0.982303 0.000000 0.445622
O O8 0.026111 0.500000 0.727097
O O9 0.042867 0.749923 0.778585
O O10 0.107068 0.733025 0.640169
O O11 0.871141 0.232292 0.171279
O O12 0.803355 0.000000 0.157753
O O13 0.843531 0.245911 0.078397
O O14 0.038137 0.245782 0.078884
O O15 0.958935 0.000000 0.158396
O O16 0.897940 0.000000 0.999744
O O17 0.000000 0.825121 0.000000
O O18 0.250000 0.250000 0.500000
O O19 0.341870 0.000000 0.445993
#
# Coordination Sequence:
#
# PCOD9192899 Si02
#       7
#     8   8   8   8   8   8   8
#     4  10  20  34  52  73 100 133 167 203 245 296
#     4   9  19  36  55  74  99 131 164 202 250 297
#     4  10  21  36  52  72 101 134 166 203 248 293
#     4   9  17  31  52  76 102 131 164 204 248 294
#     4   9  17  31  53  78 101 129 167 206 245 293
#     4   7  12  26  48  72  98 129 163 200 244 291
#     4  10  21  36  54  75 100 131 166 204 245 292
#
# _framework density 17.273531999999999
#
# number of rings (size 3 to 8) (size 9 to 14) (size 15 to 20)
#    0.000    2.857    0.000    3.000    0.000    4.286 
#    0.000    5.714    0.000    2.571    0.000    0.000 
#    0.000    0.000    0.000    0.000    0.000    0.000 
#
# Total GULP energy -156018.439287 kJ/mol
# GULP energy per Si atom -5572.087117 kJ/mol
# Density = 1.723422 g / cm^3
# Si number density = 17.273532 Si / 1000 Ang^3
#
#
#
# Elastic Constant Matrix: (Units=GPa)
#
#
# Indices 1 2 3 4 5 6 
#
# 1 124.8561 34.4085 123.9659 0.0000 -4.6147 0.0003
# 2 34.4085 20.3024 37.2369 0.0001 -0.6797 0.0004
# 3 123.9659 37.2369 159.6809 0.0000 2.1224 -0.0001
# 4 0.0000 0.0001 0.0000 22.6590 0.0000 -2.3094
# 5 -4.6147 -0.6797 2.1224 0.0000 34.7867 0.0000
# 6 0.0003 0.0004 -0.0001 -2.3094 0.0000 28.5392
#
#
#
# Elastic Compliance Matrix: (Units=1/GPa)
#
#
# Indices 1 2 3 4 5 6 
#
# 1 0.039883 -0.018216 -0.026802 0.000000 0.006570 0.000000
# 2 -0.018216 0.094682 -0.007937 0.000000 -0.000082 -0.000001
# 3 -0.026802 -0.007937 0.028994 0.000000 -0.005480 0.000000
# 4 0.000000 0.000000 0.000000 0.044500 0.000000 0.003601
# 5 0.006570 -0.000082 -0.005480 0.000000 0.029951 0.000000
# 6 0.000000 -0.000001 0.000000 0.003601 0.000000 0.035331
#
#
# Mechanical properties :
#
#
# Convention : Reuss Voigt Hill
#
# Bulk Modulus (GPa) = 17.34634 77.34019 47.34327
# Shear Modulus (GPa) = 12.54815 24.47884 18.51350
#
# Velocity S-wave (km/s) = 2.69818 3.76856 3.27736
# Velocity P-wave (km/s) = 4.44644 7.98793 6.46444
#
# Compressibility (1/GPa) = 0.05764904
#
# Stress axis : x y z
#
# Youngs Moduli (GPa) = 25.07331 10.56172 34.49042
#
# Poissons Ratio (x) = 0.19239 0.92442
# Poissons Ratio (y) = 0.45673 0.27374
# Poissons Ratio (z) = 0.67202 0.08383
#
# Static dielectric constant tensor:
#      x y z
#    x 1.544040 0.000000 -0.000390 
#    y 0.000000 1.587750 0.000000 
#    z -0.000390 0.000000 1.611410 
# 
# From -- ./inp_files/319680.got.cif
#   From: 2010.05.17/outbox.cif.g08.bks.cpg/sg12_160_cif.got.tgz:319680.got - 2010.06.03 13:09:07.
