data_PCOD9192260
_publ_section_title
;
Structure prediction by ZEFSAII (Michael W. Deem and Ramdas Pophale) SiO2 
 PCOD9192260
Probable space group: C 2/M
;
_chemical_formula_sum "Si O2"
_cell_formula_units_Z 56
_cell_length_a 15.451052
_cell_length_b 7.614431
_cell_length_c 18.109629
_cell_angle_alpha 90.000000
_cell_angle_beta 95.271842
_cell_angle_gamma 90.000000
_cell_volume 2121.602846
_symmetry_space_group_name_H-M "C 2/M"
_symmetry_group_IT_number 12
_symmetry_cell_setting 'monoclinic'
loop_
_space_group_symop_operation_xyz
x,y,z
-x,y,-z
-x,-y,-z
x,-y,z
1/2+x,1/2+y,z
1/2-x,1/2+y,-z
1/2-x,1/2-y,-z
1/2+x,1/2-y,z
loop_
_atom_site_type_symbol
_atom_site_label
_atom_site_fract_x
_atom_site_fract_y
_atom_site_fract_z
Si Si1 0.552472 0.214023 0.176206
Si Si2 0.658182 0.789445 0.326820
Si Si3 0.684282 0.793990 0.561404
Si Si4 0.492850 0.799396 0.404242
Si Si5 0.109395 0.199661 0.743409
Si Si6 0.372867 0.788092 0.969768
Si Si7 0.694496 0.291614 0.886599
O O1 0.629689 0.255953 0.241139
O O2 0.470382 0.306040 0.205311
O O3 0.565694 0.265108 0.092456
O O4 0.541727 0.000000 0.177636
O O5 0.754830 0.744632 0.362335
O O6 0.582577 0.720148 0.377882
O O7 0.652523 0.000000 0.330485
O O8 0.750000 0.750000 0.500000
O O9 0.583955 0.720684 0.548201
O O10 0.670552 0.000000 0.557397
O O11 0.430636 0.803703 0.327018
O O12 0.514080 0.000000 0.426172
O O13 0.179399 0.281437 0.803862
O O14 0.130305 0.000000 0.721186
O O15 0.281039 0.720916 0.930787
O O16 0.374481 0.000000 0.971321
O O17 0.376645 0.733267 0.054860
O O18 0.705853 0.500000 0.875799
#
# Coordination Sequence:
#
# PCOD9192260 Si02
#       7
#     8   8   8   8   8   8   8
#     4   9  19  35  55  77 106 144 185 225 275 338
#     4   9  19  38  62  85 115 154 191 234 283 333
#     4  11  24  41  62  91 121 151 190 230 276 337
#     4   9  21  41  61  84 118 156 191 229 280 342
#     4  10  20  33  54  80 107 139 181 232 281 328
#     4   9  18  33  51  71  99 141 187 225 270 333
#     4   9  19  33  48  72 104 138 179 230 282 325
#
# _framework density 26.395137999999999
#
# number of rings (size 3 to 8) (size 9 to 14) (size 15 to 20)
#    0.000    2.571    0.000    1.714    2.000    6.286 
#    0.000    5.714    0.000    0.000    0.000    0.000 
#    0.000    0.000    0.000    0.000    0.000    0.000 
#
# Total GULP energy -156232.987032 kJ/mol
# GULP energy per Si atom -5579.749537 kJ/mol
# Density = 2.633506 g / cm^3
# Si number density = 26.395138 Si / 1000 Ang^3
#
#
#
# Elastic Constant Matrix: (Units=GPa)
#
#
# Indices 1 2 3 4 5 6 
#
# 1 154.1444 -3.8918 -23.0501 0.0000 -7.7843 0.0000
# 2 -3.8918 61.7930 5.8826 0.0000 0.0069 0.0000
# 3 -23.0501 5.8826 49.9243 0.0000 0.0065 0.0000
# 4 0.0000 0.0000 0.0000 21.1264 0.0000 -5.6616
# 5 -7.7843 0.0069 0.0065 0.0000 46.5809 0.0000
# 6 0.0000 0.0000 0.0000 -5.6616 0.0000 16.4683
#
#
#
# Elastic Compliance Matrix: (Units=1/GPa)
#
#
# Indices 1 2 3 4 5 6 
#
# 1 0.007033 0.000135 0.003231 0.000000 0.001175 0.000000
# 2 0.000135 0.016369 -0.001866 0.000000 0.000020 0.000000
# 3 0.003231 -0.001866 0.021742 0.000000 0.000537 0.000000
# 4 0.000000 0.000000 0.000000 0.052138 0.000000 0.017924
# 5 0.001175 0.000020 0.000537 0.000000 0.021664 0.000000
# 6 0.000000 0.000000 0.000000 0.017924 0.000000 0.066885
#
#
# Mechanical properties :
#
#
# Convention : Reuss Voigt Hill
#
# Bulk Modulus (GPa) = 20.77067 24.86035 22.81551
# Shear Modulus (GPa) = 25.14088 35.96318 30.55203
#
# Velocity S-wave (km/s) = 3.08958 3.69520 3.40588
# Velocity P-wave (km/s) = 4.54021 5.25785 4.91215
#
# Compressibility (1/GPa) = 0.04814480
#
# Stress axis : x y z
#
# Youngs Moduli (GPa) = 142.17962 61.09014 45.99382
#
# Poissons Ratio (x) = -0.00826 -0.14862
# Poissons Ratio (y) = -0.01923 0.08584
# Poissons Ratio (z) = -0.45941 0.11402
#
# Static dielectric constant tensor:
#      x y z
#    x 2.217370 0.000000 -0.027050 
#    y 0.000000 2.264910 0.000000 
#    z -0.027050 0.000000 2.211190 
# 
# From -- ./inp_files/309001.got.cif
#   From: 2010.05.17/outbox.cif.g08.bks.cpg/sg12_155_cif.got.tgz:309001.got - 2010.06.03 13:09:07.
