data_PCOD9192570
_publ_section_title
;
Structure prediction by ZEFSAII (Michael W. Deem and Ramdas Pophale) SiO2 
 PCOD9192570
Probable space group: C 2/M
;
_chemical_formula_sum "Si O2"
_cell_formula_units_Z 64
_cell_length_a 18.578764
_cell_length_b 13.506187
_cell_length_c 13.547998
_cell_angle_alpha 90.000000
_cell_angle_beta 92.415598
_cell_angle_gamma 90.000000
_cell_volume 3396.554689
_symmetry_space_group_name_H-M "C 2/M"
_symmetry_group_IT_number 12
_symmetry_cell_setting 'monoclinic'
loop_
_space_group_symop_operation_xyz
x,y,z
-x,y,-z
-x,-y,-z
x,-y,z
1/2+x,1/2+y,z
1/2-x,1/2+y,-z
1/2-x,1/2-y,-z
1/2+x,1/2-y,z
loop_
_atom_site_type_symbol
_atom_site_label
_atom_site_fract_x
_atom_site_fract_y
_atom_site_fract_z
Si Si1 0.994912 0.184993 0.203229
Si Si2 0.840261 0.117441 0.119126
Si Si3 0.856156 0.691328 0.584436
Si Si4 0.132939 0.883552 0.109242
Si Si5 0.157968 0.385309 0.628543
Si Si6 0.942217 0.886453 0.584515
Si Si7 0.997020 0.613211 0.695756
Si Si8 0.761951 0.747223 0.757966
O O1 0.050200 0.144781 0.125125
O O2 0.019100 0.137086 0.309126
O O3 0.003634 0.302733 0.220272
O O4 0.914382 0.155507 0.171789
O O5 0.774969 0.174707 0.166208
O O6 0.834343 0.000000 0.134514
O O7 0.845098 0.135486 0.002242
O O8 0.826398 0.646329 0.482409
O O9 0.879651 0.805635 0.569239
O O10 0.929455 0.635672 0.621121
O O11 0.801520 0.689062 0.672226
O O12 0.180109 0.817093 0.185153
O O13 0.142778 0.000000 0.130610
O O14 0.176287 0.500000 0.645632
O O15 0.201288 0.316044 0.705225
O O16 0.072331 0.373523 0.642394
O O17 0.000000 0.873796 0.500000
O O18 0.916872 0.000000 0.582645
O O19 0.993551 0.500000 0.730932
#
# Coordination Sequence:
#
# PCOD9192570 Si02
#       8
#     8   8   8   8   8   8   8   8
#     4  11  20  41  66  92 122 153 207 264 304 362
#     4  11  25  42  65  93 122 156 205 260 318 368
#     4  11  22  38  60  90 125 164 207 250 295 363
#     4  11  23  43  68  92 116 160 210 257 311 368
#     4  11  23  40  62  89 121 166 212 248 294 361
#     4  10  20  33  58  92 125 160 201 252 312 358
#     4  10  20  38  65  88 118 161 205 253 296 348
#     4  12  24  41  61  89 131 166 195 253 309 370
#
# _framework density 18.842621999999999
#
# number of rings (size 3 to 8) (size 9 to 14) (size 15 to 20)
#    0.000    1.125    3.750    4.875    0.000    3.500 
#    0.000    0.000    0.000    2.250    0.000    0.000 
#    0.000    0.000    0.000    0.000    0.000    0.000 
#
# Total GULP energy -178921.125868 kJ/mol
# GULP energy per Si atom -5591.285183 kJ/mol
# Density = 1.879974 g / cm^3
# Si number density = 18.842622 Si / 1000 Ang^3
#
#
#
# Elastic Constant Matrix: (Units=GPa)
#
#
# Indices 1 2 3 4 5 6 
#
# 1 49.8643 13.4568 6.0726 0.0000 -15.4732 0.0000
# 2 13.4568 68.6985 25.2358 0.0000 -7.7567 0.0000
# 3 6.0726 25.2358 59.7801 0.0000 -17.4974 0.0000
# 4 0.0000 0.0000 0.0000 19.6351 0.0000 -1.8027
# 5 -15.4732 -7.7567 -17.4974 0.0000 27.9196 0.0000
# 6 0.0000 0.0000 0.0000 -1.8027 0.0000 11.3716
#
#
#
# Elastic Compliance Matrix: (Units=1/GPa)
#
#
# Indices 1 2 3 4 5 6 
#
# 1 0.025603 -0.004707 0.003866 0.000000 0.015304 0.000000
# 2 -0.004707 0.018095 -0.007902 0.000000 -0.002534 0.000000
# 3 0.003866 -0.007902 0.024071 0.000000 0.015033 0.000000
# 4 0.000000 0.000000 0.000000 0.051682 0.000000 0.008193
# 5 0.015304 -0.002534 0.015033 0.000000 0.053016 0.000000
# 6 0.000000 0.000000 0.000000 0.008193 0.000000 0.089237
#
#
# Mechanical properties :
#
#
# Convention : Reuss Voigt Hill
#
# Bulk Modulus (GPa) = 19.88785 29.76371 24.82578
# Shear Modulus (GPa) = 16.89465 20.69045 18.79255
#
# Velocity S-wave (km/s) = 2.99761 3.31730 3.16150
# Velocity P-wave (km/s) = 4.74958 5.52294 5.15080
#
# Compressibility (1/GPa) = 0.05028196
#
# Stress axis : x y z
#
# Youngs Moduli (GPa) = 39.05794 55.26347 41.54349
#
# Poissons Ratio (x) = 0.26014 -0.16060
# Poissons Ratio (y) = 0.18386 0.32829
# Poissons Ratio (z) = -0.15099 0.43671
#
# Static dielectric constant tensor:
#      x y z
#    x 1.643620 0.000000 -0.008270 
#    y 0.000000 1.647580 0.000000 
#    z -0.008270 0.000000 1.628610 
# 
# From -- ./inp_files/156650.got.cif
#   From: 2010.05.17/outbox.cif.g08.bks.cpg/sg12_79_cif.got.tgz:156650.got - 2010.06.03 13:09:07.
