data_PCOD9192536
_publ_section_title
;
Structure prediction by ZEFSAII (Michael W. Deem and Ramdas Pophale) SiO2 
 PCOD9192536
Probable space group: C 2/M
;
_chemical_formula_sum "Si O2"
_cell_formula_units_Z 48
_cell_length_a 8.334280
_cell_length_b 14.242741
_cell_length_c 19.648699
_cell_angle_alpha 90.000000
_cell_angle_beta 123.160848
_cell_angle_gamma 90.000000
_cell_volume 1952.507306
_symmetry_space_group_name_H-M "C 2/M"
_symmetry_group_IT_number 12
_symmetry_cell_setting 'monoclinic'
loop_
_space_group_symop_operation_xyz
x,y,z
-x,y,-z
-x,-y,-z
x,-y,z
1/2+x,1/2+y,z
1/2-x,1/2+y,-z
1/2-x,1/2-y,-z
1/2+x,1/2-y,z
loop_
_atom_site_type_symbol
_atom_site_label
_atom_site_fract_x
_atom_site_fract_y
_atom_site_fract_z
Si Si1 0.260793 0.398143 0.871709
Si Si2 0.751686 0.392202 0.695982
Si Si3 0.215425 0.858358 0.974847
Si Si4 0.809855 0.185016 0.178250
Si Si5 0.652104 0.392114 0.334009
Si Si6 0.196578 0.777903 0.563069
O O1 0.215341 0.500000 0.829112
O O2 0.190337 0.297763 0.826940
O O3 0.473913 0.354955 0.759108
O O4 0.491640 0.385821 0.922943
O O5 0.500000 0.329228 0.500000
O O6 0.803443 0.500000 0.708375
O O7 0.802700 0.345465 0.779944
O O8 0.517993 0.386923 0.648362
O O9 0.275345 0.862973 0.909582
O O10 0.250000 0.750000 0.000000
O O11 0.296979 0.903969 0.061917
O O12 0.710796 0.500000 0.339425
O O13 0.812912 0.319131 0.395213
O O14 0.817233 0.341717 0.642551
O O15 0.250000 0.750000 0.500000
#
# Coordination Sequence:
#
# PCOD9192536 Si02
#       6
#     8   8   8   8   8   8
#     4  10  20  33  57  90 124 164 213 268 329 372
#     4   9  21  40  63  88 120 170 212 246 314 387
#     4   9  18  33  54  84 122 168 210 260 314 374
#     4   9  19  36  59  86 121 166 218 260 308 379
#     4   9  21  40  63  90 122 165 209 256 318 383
#     4  12  23  41  67  98 131 163 201 263 320 388
#
# _framework density 24.583776
#
# number of rings (size 3 to 8) (size 9 to 14) (size 15 to 20)
#    1.000    1.333    1.667    1.000    2.333    4.000 
#    0.000    0.833    0.000    3.000    0.000   23.333 
#    0.000    0.000    0.000    0.000    0.000    0.000 
#
# Total GULP energy -133660.467703 kJ/mol
# GULP energy per Si atom -5569.186154 kJ/mol
# Density = 2.452782 g / cm^3
# Si number density = 24.583776 Si / 1000 Ang^3
#
#
#
# Elastic Constant Matrix: (Units=GPa)
#
#
# Indices 1 2 3 4 5 6 
#
# 1 45.6975 -1.7850 28.0916 0.0000 -5.2175 0.0000
# 2 -1.7850 200.1713 73.2486 0.0000 -11.3840 0.0000
# 3 28.0916 73.2486 186.2217 0.0000 -30.9270 0.0000
# 4 0.0000 0.0000 0.0000 7.7211 0.0000 -6.4032
# 5 -5.2175 -11.3840 -30.9270 0.0000 42.8852 0.0000
# 6 0.0000 0.0000 0.0000 -6.4032 0.0000 16.0884
#
#
#
# Elastic Compliance Matrix: (Units=1/GPa)
#
#
# Indices 1 2 3 4 5 6 
#
# 1 0.024696 0.001848 -0.004399 0.000000 0.000323 0.000000
# 2 0.001848 0.005975 -0.002645 0.000000 -0.000097 0.000000
# 3 -0.004399 -0.002645 0.007803 0.000000 0.004390 0.000000
# 4 0.000000 0.000000 0.000000 0.193327 0.000000 0.076945
# 5 0.000323 -0.000097 0.004390 0.000000 0.026498 0.000000
# 6 0.000000 0.000000 0.000000 0.076945 0.000000 0.092781
#
#
# Mechanical properties :
#
#
# Convention : Reuss Voigt Hill
#
# Bulk Modulus (GPa) = 35.60899 70.13343 52.87121
# Shear Modulus (GPa) = 13.48324 35.50793 24.49559
#
# Velocity S-wave (km/s) = 2.34446 3.80460 3.16002
# Velocity P-wave (km/s) = 4.67385 6.92028 5.90488
#
# Compressibility (1/GPa) = 0.02808279
#
# Stress axis : x y z
#
# Youngs Moduli (GPa) = 40.49208 167.37659 128.15756
#
# Poissons Ratio (x) = -0.30935 0.56374
# Poissons Ratio (y) = -0.07484 0.33896
# Poissons Ratio (z) = 0.17812 0.44269
#
# Static dielectric constant tensor:
#      x y z
#    x 2.083800 0.000000 -0.012970 
#    y 0.000000 1.907060 0.000000 
#    z -0.012970 0.000000 1.996650 
# 
# From -- ./inp_files/214407.got.cif
#   From: 2010.05.17/outbox.cif.g08.bks.cpg/sg12_108_cif.got.tgz:214407.got - 2010.06.03 13:09:07.
