data_PCOD9192950
_publ_section_title
;
Structure prediction by ZEFSAII (Michael W. Deem and Ramdas Pophale) SiO2 
 PCOD9192950
Probable space group: C 2/M
;
_chemical_formula_sum "Si O2"
_cell_formula_units_Z 48
_cell_length_a 8.651818
_cell_length_b 11.236526
_cell_length_c 27.117006
_cell_angle_alpha 90.000000
_cell_angle_beta 114.698933
_cell_angle_gamma 90.000000
_cell_volume 2395.045310
_symmetry_space_group_name_H-M "C 2/M"
_symmetry_group_IT_number 12
_symmetry_cell_setting 'monoclinic'
loop_
_space_group_symop_operation_xyz
x,y,z
-x,y,-z
-x,-y,-z
x,-y,z
1/2+x,1/2+y,z
1/2-x,1/2+y,-z
1/2-x,1/2-y,-z
1/2+x,1/2-y,z
loop_
_atom_site_type_symbol
_atom_site_label
_atom_site_fract_x
_atom_site_fract_y
_atom_site_fract_z
Si Si1 0.371522 0.224465 0.386954
Si Si2 0.240363 0.634691 0.798463
Si Si3 0.446388 0.793274 0.130095
Si Si4 0.367806 0.135232 0.941859
Si Si5 0.691057 0.636706 0.459312
Si Si6 0.547703 0.136719 0.316297
O O1 0.494673 0.331091 0.421568
O O2 0.300283 0.151230 0.423748
O O3 0.478516 0.146929 0.362871
O O4 0.212284 0.280951 0.337178
O O5 0.288269 0.500000 0.791462
O O6 0.406543 0.715086 0.824666
O O7 0.149437 0.636314 0.839719
O O8 0.100910 0.677113 0.740418
O O9 0.538498 0.862969 0.098536
O O10 0.302649 0.710706 0.086164
O O11 0.325664 0.000000 0.950338
O O12 0.500000 0.183580 0.000000
O O13 0.708619 0.500000 0.480237
O O14 0.750000 0.750000 0.500000
O O15 0.588628 0.000000 0.309629
#
# Coordination Sequence:
#
# PCOD9192950 Si02
#       6
#     8   8   8   8   8   8
#     4  10  22  38  58  82 112 144 182 224 270 322
#     4  10  20  34  54  79 106 138 176 218 266 318
#     4  10  20  34  52  76 106 136 174 220 266 314
#     4  10  20  34  52  74 102 138 177 217 264 316
#     4  11  24  40  60  86 115 148 187 229 275 327
#     4  10  20  36  57  80 108 142 178 219 268 321
#
# _framework density 20.041374999999999
#
# number of rings (size 3 to 8) (size 9 to 14) (size 15 to 20)
#    0.000    1.833    0.000    4.000    0.000    5.333 
#    0.000    0.000    0.000   24.000    0.000    0.000 
#    0.000    0.000    0.000    0.000    0.000    0.000 
#
# Total GULP energy -133979.403158 kJ/mol
# GULP energy per Si atom -5582.475132 kJ/mol
# Density = 1.999576 g / cm^3
# Si number density = 20.041375 Si / 1000 Ang^3
#
#
#
# Elastic Constant Matrix: (Units=GPa)
#
#
# Indices 1 2 3 4 5 6 
#
# 1 55.2138 19.1231 -1.9191 0.0000 10.4555 0.0000
# 2 19.1231 84.3149 24.9506 0.0000 18.7975 0.0000
# 3 -1.9191 24.9506 69.9353 0.0000 22.3244 0.0000
# 4 0.0000 0.0000 0.0000 12.3958 0.0000 -0.5561
# 5 10.4555 18.7975 22.3244 0.0000 34.9922 0.0000
# 6 0.0000 0.0000 0.0000 -0.5561 0.0000 -7.1517
#
#
#
# Elastic Compliance Matrix: (Units=1/GPa)
#
#
# Indices 1 2 3 4 5 6 
#
# 1 0.021102 -0.004595 0.004324 0.000000 -0.006595 0.000000
# 2 -0.004595 0.015045 -0.004209 0.000000 -0.004024 0.000000
# 3 0.004324 -0.004209 0.019602 0.000000 -0.011536 0.000000
# 4 0.000000 0.000000 0.000000 0.080392 0.000000 -0.006251
# 5 -0.006595 -0.004024 -0.011536 0.000000 0.040070 0.000000
# 6 0.000000 0.000000 0.000000 -0.006251 0.000000 -0.139341
#
#
# Mechanical properties :
#
#
# Convention : Reuss Voigt Hill
#
# Bulk Modulus (GPa) = 21.37313 32.64147 27.00730
# Shear Modulus (GPa) = 81.39595 19.20121 50.29858
#
# Velocity S-wave (km/s) = 6.37982 3.09864 5.01516
# Velocity P-wave (km/s) = 8.05960 5.39671 6.85863
#
# Compressibility (1/GPa) = 0.04678772
#
# Stress axis : x y z
#
# Youngs Moduli (GPa) = 47.38854 66.46636 51.01542
#
# Poissons Ratio (x) = 0.30543 -0.22058
# Poissons Ratio (y) = 0.21776 0.21474
# Poissons Ratio (z) = -0.20490 0.27978
#
# Static dielectric constant tensor:
#      x y z
#    x 1.682000 0.000000 0.002760 
#    y 0.000000 1.681960 0.000000 
#    z 0.002760 0.000000 1.718420 
# 
# From -- ./inp_files/331981.got.cif
#   From: 2010.05.17/outbox.cif.g08.bks.cpg/sg12_166_cif.got.tgz:331981.got - 2010.06.03 13:09:07.
