data_PCOD9192832
_publ_section_title
;
Structure prediction by ZEFSAII (Michael W. Deem and Ramdas Pophale) SiO2 
 PCOD9192832
Probable space group: C 2/M
;
_chemical_formula_sum "Si O2"
_cell_formula_units_Z 56
_cell_length_a 14.391291
_cell_length_b 9.183170
_cell_length_c 26.587756
_cell_angle_alpha 90.000000
_cell_angle_beta 122.705426
_cell_angle_gamma 90.000000
_cell_volume 2956.700547
_symmetry_space_group_name_H-M "C 2/M"
_symmetry_group_IT_number 12
_symmetry_cell_setting 'monoclinic'
loop_
_space_group_symop_operation_xyz
x,y,z
-x,y,-z
-x,-y,-z
x,-y,z
1/2+x,1/2+y,z
1/2-x,1/2+y,-z
1/2-x,1/2-y,-z
1/2+x,1/2-y,z
loop_
_atom_site_type_symbol
_atom_site_label
_atom_site_fract_x
_atom_site_fract_y
_atom_site_fract_z
Si Si1 0.646444 0.824102 0.995443
Si Si2 0.598106 0.176378 0.096339
Si Si3 0.241036 0.672212 0.333800
Si Si4 0.501195 0.827528 0.691658
Si Si5 0.332814 0.166937 0.453674
Si Si6 0.584504 0.332712 0.428933
Si Si7 0.780849 0.824325 0.229303
O O1 0.529560 0.778043 0.936528
O O2 0.654572 0.000000 0.994654
O O3 0.750000 0.750000 0.000000
O O4 0.638572 0.784607 0.052203
O O5 0.682443 0.224657 0.163899
O O6 0.596515 0.000000 0.097496
O O7 0.262874 0.500000 0.345919
O O8 0.317365 0.757805 0.395358
O O9 0.255293 0.711901 0.279910
O O10 0.114058 0.696719 0.313123
O O11 0.486532 0.753769 0.632733
O O12 0.603605 0.752184 0.749010
O O13 0.518026 0.000000 0.691448
O O14 0.407089 0.254447 0.515006
O O15 0.209392 0.166962 0.442517
O O16 0.367474 0.000000 0.459109
O O17 0.548238 0.500000 0.422656
O O18 0.791673 0.000000 0.228789
#
# Coordination Sequence:
#
# PCOD9192832 Si02
#       7
#     8   8   8   8   8   8   8
#     4   9  17  33  57  83 109 139 174 212 253 299
#     4   8  17  34  54  76 107 144 176 206 250 308
#     4   9  19  34  51  71  99 135 173 212 259 316
#     4  10  20  34  51  75 105 134 169 218 269 310
#     4   9  16  27  47  73  99 128 166 216 269 313
#     4   9  16  28  48  72  98 132 172 212 260 319
#     4  10  20  36  55  74 101 141 181 211 247 306
#
# _framework density 18.940031999999999
#
# number of rings (size 3 to 8) (size 9 to 14) (size 15 to 20)
#    0.000    2.857    0.000    2.143    0.000    5.714 
#    0.000    5.000    0.000    4.286    0.000    0.000 
#    0.000    0.000    0.000    0.000    0.000    0.000 
#
# Total GULP energy -156315.717762 kJ/mol
# GULP energy per Si atom -5582.704206 kJ/mol
# Density = 1.889692 g / cm^3
# Si number density = 18.940032 Si / 1000 Ang^3
#
#
#
# Elastic Constant Matrix: (Units=GPa)
#
#
# Indices 1 2 3 4 5 6 
#
# 1 96.3495 29.1324 48.5933 0.0000 16.2172 0.0000
# 2 29.1324 45.0744 31.2527 0.0000 5.6411 0.0000
# 3 48.5933 31.2527 112.8893 0.0000 25.9042 0.0000
# 4 0.0000 0.0000 0.0000 21.7307 0.0000 5.7012
# 5 16.2172 5.6411 25.9042 0.0000 22.0936 0.0000
# 6 0.0000 0.0000 0.0000 5.7012 0.0000 20.7649
#
#
#
# Elastic Compliance Matrix: (Units=1/GPa)
#
#
# Indices 1 2 3 4 5 6 
#
# 1 0.015005 -0.006684 -0.003383 0.000000 -0.005341 0.000000
# 2 -0.006684 0.030543 -0.006724 0.000000 0.004991 0.000000
# 3 -0.003383 -0.006724 0.015339 0.000000 -0.013785 0.000000
# 4 0.000000 0.000000 0.000000 0.049590 0.000000 -0.013615
# 5 -0.005341 0.004991 -0.013785 0.000000 0.064070 0.000000
# 6 0.000000 0.000000 0.000000 -0.013615 0.000000 0.051896
#
#
# Mechanical properties :
#
#
# Convention : Reuss Voigt Hill
#
# Bulk Modulus (GPa) = 36.62282 52.47446 44.54864
# Shear Modulus (GPa) = 18.57863 22.60684 20.59273
#
# Velocity S-wave (km/s) = 3.13536 3.45860 3.30094
# Velocity P-wave (km/s) = 5.69960 6.61173 6.17254
#
# Compressibility (1/GPa) = 0.02730538
#
# Stress axis : x y z
#
# Youngs Moduli (GPa) = 66.64442 32.74086 65.19355
#
# Poissons Ratio (x) = 0.21884 0.22054
# Poissons Ratio (y) = 0.44545 0.43835
# Poissons Ratio (z) = 0.22545 0.22014
#
# Static dielectric constant tensor:
#      x y z
#    x 1.692130 0.000000 0.013510 
#    y 0.000000 1.630910 0.000000 
#    z 0.013510 0.000000 1.633790 
# 
# From -- ./inp_files/339004.got.cif
#   From: 2010.05.17/outbox.cif.g08.bks.cpg/sg12_170_cif.got.tgz:339004.got - 2010.06.03 13:09:07.
