data_PCOD9192663
_publ_section_title
;
Structure prediction by ZEFSAII (Michael W. Deem and Ramdas Pophale) SiO2 
 PCOD9192663
Probable space group: C 2/M
;
_chemical_formula_sum "Si O2"
_cell_formula_units_Z 64
_cell_length_a 29.731819
_cell_length_b 7.579874
_cell_length_c 14.748578
_cell_angle_alpha 90.000000
_cell_angle_beta 106.032566
_cell_angle_gamma 90.000000
_cell_volume 3194.511054
_symmetry_space_group_name_H-M "C 2/M"
_symmetry_group_IT_number 12
_symmetry_cell_setting 'monoclinic'
loop_
_space_group_symop_operation_xyz
x,y,z
-x,y,-z
-x,-y,-z
x,-y,z
1/2+x,1/2+y,z
1/2-x,1/2+y,-z
1/2-x,1/2-y,-z
1/2+x,1/2-y,z
loop_
_atom_site_type_symbol
_atom_site_label
_atom_site_fract_x
_atom_site_fract_y
_atom_site_fract_z
Si Si1 0.252566 0.209737 0.895079
Si Si2 0.496369 0.789861 0.894085
Si Si3 0.840797 0.215588 0.261051
Si Si4 0.203708 0.785190 0.581799
Si Si5 0.904880 0.212429 0.140671
Si Si6 0.400351 0.198780 0.777072
Si Si7 0.808495 0.705791 0.633611
Si Si8 0.143864 0.203239 0.067480
O O1 0.205874 0.270652 0.819160
O O2 0.300990 0.286133 0.886000
O O3 0.255103 0.000000 0.884000
O O4 0.250000 0.250000 0.000000
O O5 0.544090 0.764473 0.865566
O O6 0.451656 0.717488 0.813967
O O7 0.488098 0.000000 0.897893
O O8 0.500000 0.720880 0.000000
O O9 0.832067 0.270077 0.359630
O O10 0.885094 0.275795 0.226302
O O11 0.841629 0.000000 0.262079
O O12 0.190945 0.719662 0.474867
O O13 0.257121 0.724989 0.633056
O O14 0.204832 0.000000 0.578707
O O15 0.903934 0.000000 0.143830
O O16 0.869096 0.266235 0.040513
O O17 0.356181 0.284505 0.700987
O O18 0.383532 0.192058 0.871817
O O19 0.405739 0.000000 0.742257
O O20 0.808506 0.500000 0.661885
O O21 0.128736 0.000000 0.066200
#
# Coordination Sequence:
#
# PCOD9192663 Si02
#       8
#     8   8   8   8   8   8   8   8
#     4  11  20  32  48  69 102 139 174 207 246 300
#     4  10  20  34  52  75 100 130 176 219 254 303
#     4   9  18  34  52  71 100 139 175 205 251 310
#     4   9  17  32  55  77 100 132 168 206 250 305
#     4  10  20  34  50  70 101 137 172 209 254 304
#     4  10  20  35  54  74 101 137 169 209 264 314
#     4   9  18  33  53  78 104 131 164 206 261 311
#     4  11  21  32  47  73 104 135 173 211 250 301
#
# _framework density 20.034365999999999
#
# number of rings (size 3 to 8) (size 9 to 14) (size 15 to 20)
#    0.000    2.125    2.500    1.500    0.000    3.750 
#    0.000    4.375    0.000    0.750    0.000    5.250 
#    0.000    0.000    0.000    0.000    0.000    0.000 
#
# Total GULP energy -178550.725530 kJ/mol
# GULP energy per Si atom -5579.710173 kJ/mol
# Density = 1.998877 g / cm^3
# Si number density = 20.034366 Si / 1000 Ang^3
#
#
#
# Elastic Constant Matrix: (Units=GPa)
#
#
# Indices 1 2 3 4 5 6 
#
# 1 147.8000 -1.1885 47.8727 0.0000 -4.0535 0.0000
# 2 -1.1885 47.2898 0.7804 0.0000 3.5952 0.0000
# 3 47.8727 0.7804 67.7155 0.0000 -1.6019 0.0000
# 4 0.0000 0.0000 0.0000 13.2920 0.0000 -5.6418
# 5 -4.0535 3.5952 -1.6019 0.0000 34.7445 0.0000
# 6 0.0000 0.0000 0.0000 -5.6418 0.0000 14.6967
#
#
#
# Elastic Compliance Matrix: (Units=1/GPa)
#
#
# Indices 1 2 3 4 5 6 
#
# 1 0.008798 0.000269 -0.006206 0.000000 0.000712 0.000000
# 2 0.000269 0.021328 -0.000488 0.000000 -0.002198 0.000000
# 3 -0.006206 -0.000488 0.019166 0.000000 0.000210 0.000000
# 4 0.000000 0.000000 0.000000 0.089878 0.000000 0.034503
# 5 0.000712 -0.002198 0.000210 0.000000 0.029102 0.000000
# 6 0.000000 0.000000 0.000000 0.034503 0.000000 0.081288
#
#
# Mechanical properties :
#
#
# Convention : Reuss Voigt Hill
#
# Bulk Modulus (GPa) = 27.44095 39.74827 33.59461
# Shear Modulus (GPa) = 18.21121 26.90268 22.55694
#
# Velocity S-wave (km/s) = 3.01823 3.66844 3.35910
# Velocity P-wave (km/s) = 5.08655 6.15031 5.64355
#
# Compressibility (1/GPa) = 0.03644189
#
# Stress axis : x y z
#
# Youngs Moduli (GPa) = 113.66572 46.88638 52.17659
#
# Poissons Ratio (x) = -0.01263 0.32381
# Poissons Ratio (y) = -0.03062 0.02548
# Poissons Ratio (z) = 0.70541 0.02289
#
# Static dielectric constant tensor:
#      x y z
#    x 1.723750 0.000000 0.013830 
#    y 0.000000 1.878680 0.000000 
#    z 0.013830 0.000000 1.705600 
# 
# From -- ./inp_files/244216.got.cif
#   From: 2010.05.17/outbox.cif.g08.bks.cpg/sg12_123_cif.got.tgz:244216.got - 2010.06.03 13:09:07.
