data_PCOD9192214
_publ_section_title
;
Structure prediction by ZEFSAII (Michael W. Deem and Ramdas Pophale) SiO2 
 PCOD9192214
Probable space group: C 2/M
;
_chemical_formula_sum "Si O2"
_cell_formula_units_Z 56
_cell_length_a 9.927456
_cell_length_b 22.504053
_cell_length_c 14.534889
_cell_angle_alpha 90.000000
_cell_angle_beta 110.795386
_cell_angle_gamma 90.000000
_cell_volume 3035.668530
_symmetry_space_group_name_H-M "C 2/M"
_symmetry_group_IT_number 12
_symmetry_cell_setting 'monoclinic'
loop_
_space_group_symop_operation_xyz
x,y,z
-x,y,-z
-x,-y,-z
x,-y,z
1/2+x,1/2+y,z
1/2-x,1/2+y,-z
1/2-x,1/2-y,-z
1/2+x,1/2-y,z
loop_
_atom_site_type_symbol
_atom_site_label
_atom_site_fract_x
_atom_site_fract_y
_atom_site_fract_z
Si Si1 0.406204 0.070742 0.216023
Si Si2 0.581085 0.256968 0.931565
Si Si3 0.965051 0.071152 0.599767
Si Si4 0.400190 0.567782 0.887941
Si Si5 0.575509 0.129284 0.108087
Si Si6 0.642163 0.071865 0.587077
Si Si7 0.088285 0.141659 0.794953
O O1 0.260329 0.087907 0.126550
O O2 0.538052 0.097491 0.193845
O O3 0.375078 0.091524 0.311722
O O4 0.424733 0.000000 0.221681
O O5 0.497750 0.194433 0.902707
O O6 0.566741 0.292219 0.831919
O O7 0.500000 0.287559 0.000000
O O8 0.750000 0.250000 0.000000
O O9 0.057275 0.117136 0.684755
O O10 0.000000 0.077222 0.500000
O O11 0.796904 0.085837 0.580375
O O12 0.988657 0.000000 0.628909
O O13 0.384821 0.500000 0.850173
O O14 0.475948 0.604006 0.827311
O O15 0.500000 0.568051 0.000000
O O16 0.746177 0.129524 0.138672
O O17 0.500000 0.100636 0.000000
O O18 0.500000 0.093532 0.500000
O O19 0.636566 0.000000 0.585949
#
# Coordination Sequence:
#
# PCOD9192214 Si02
#       7
#     8   8   8   8   8   8   8
#     4  10  21  36  55  84 121 157 197 241 298 369
#     4  11  23  42  62  88 118 157 210 256 306 362
#     4  10  22  39  62  94 126 158 201 251 307 367
#     4  10  20  33  53  83 118 157 194 235 297 367
#     4  11  24  39  56  89 122 156 206 249 303 366
#     4   9  18  35  57  84 116 154 198 240 291 356
#     4  12  22  37  63  86 119 159 204 255 302 364
#
# _framework density 18.447337000000001
#
# number of rings (size 3 to 8) (size 9 to 14) (size 15 to 20)
#    0.000    1.571    4.286    1.714    4.000    1.429 
#    0.000    0.000    0.000    1.714    0.000    0.000 
#    0.000    0.000    0.000    0.000    0.000    0.000 
#
# Total GULP energy -156014.125725 kJ/mol
# GULP energy per Si atom -5571.933062 kJ/mol
# Density = 1.840535 g / cm^3
# Si number density = 18.447337 Si / 1000 Ang^3
#
#
#
# Elastic Constant Matrix: (Units=GPa)
#
#
# Indices 1 2 3 4 5 6 
#
# 1 80.5810 4.7308 17.0422 0.0000 -4.1097 0.0000
# 2 4.7308 36.0184 22.0141 0.0000 -3.9667 0.0000
# 3 17.0422 22.0141 90.1798 0.0000 -5.3128 0.0000
# 4 0.0000 0.0000 0.0000 24.1187 0.0000 -12.2588
# 5 -4.1097 -3.9667 -5.3128 0.0000 37.9583 0.0000
# 6 0.0000 0.0000 0.0000 -12.2588 0.0000 6.9082
#
#
#
# Elastic Compliance Matrix: (Units=1/GPa)
#
#
# Indices 1 2 3 4 5 6 
#
# 1 0.012970 -0.000149 -0.002352 0.000000 0.001059 0.000000
# 2 -0.000149 0.032837 -0.007851 0.000000 0.002316 0.000000
# 3 -0.002352 -0.007851 0.013498 0.000000 0.000814 0.000000
# 4 0.000000 0.000000 0.000000 0.422813 0.000000 0.750295
# 5 0.001059 0.002316 0.000814 0.000000 0.026815 0.000000
# 6 0.000000 0.000000 0.000000 0.750295 0.000000 1.476177
#
#
# Mechanical properties :
#
#
# Convention : Reuss Voigt Hill
#
# Bulk Modulus (GPa) = 25.90698 32.70593 29.30646
# Shear Modulus (GPa) = 2.47686 24.66318 13.57002
#
# Velocity S-wave (km/s) = 1.15999 3.66040 2.71515
# Velocity P-wave (km/s) = 3.98351 5.96930 5.07449
#
# Compressibility (1/GPa) = 0.03859963
#
# Stress axis : x y z
#
# Youngs Moduli (GPa) = 77.10011 30.45358 74.08483
#
# Poissons Ratio (x) = 0.00454 0.17427
# Poissons Ratio (y) = 0.01150 0.58166
# Poissons Ratio (z) = 0.18136 0.23910
#
# Static dielectric constant tensor:
#      x y z
#    x 1.640510 0.000000 -0.001770 
#    y 0.000000 1.665050 0.000000 
#    z -0.001770 0.000000 1.683090 
# 
# From -- ./inp_files/198499.got.cif
#   From: 2010.05.17/outbox.cif.g08.bks.cpg/sg12_100_cif.got.tgz:198499.got - 2010.06.03 13:09:07.
