data_PCOD9192775
_publ_section_title
;
Structure prediction by ZEFSAII (Michael W. Deem and Ramdas Pophale) SiO2 
 PCOD9192775
Probable space group: C 2/M
;
_chemical_formula_sum "Si O2"
_cell_formula_units_Z 64
_cell_length_a 17.192891
_cell_length_b 11.681608
_cell_length_c 17.820549
_cell_angle_alpha 90.000000
_cell_angle_beta 97.588622
_cell_angle_gamma 90.000000
_cell_volume 3547.743545
_symmetry_space_group_name_H-M "C 2/M"
_symmetry_group_IT_number 12
_symmetry_cell_setting 'monoclinic'
loop_
_space_group_symop_operation_xyz
x,y,z
-x,y,-z
-x,-y,-z
x,-y,z
1/2+x,1/2+y,z
1/2-x,1/2+y,-z
1/2-x,1/2-y,-z
1/2+x,1/2-y,z
loop_
_atom_site_type_symbol
_atom_site_label
_atom_site_fract_x
_atom_site_fract_y
_atom_site_fract_z
Si Si1 0.808494 0.639290 0.017717
Si Si2 0.155319 0.294146 0.403672
Si Si3 0.880423 0.753947 0.309481
Si Si4 0.804916 0.372843 0.431300
Si Si5 0.570880 0.136052 0.835469
Si Si6 0.214538 0.631474 0.256028
Si Si7 0.906843 0.637340 0.882414
Si Si8 0.013234 0.130461 0.412783
O O1 0.782808 0.500000 0.008080
O O2 0.874253 0.655885 0.961386
O O3 0.750000 0.750000 0.000000
O O4 0.852400 0.650813 0.102857
O O5 0.156442 0.362475 0.481809
O O6 0.231248 0.211870 0.418504
O O7 0.168872 0.363607 0.329435
O O8 0.077654 0.218422 0.391536
O O9 0.864192 0.662082 0.373090
O O10 0.920882 0.700859 0.241890
O O11 0.796029 0.802660 0.274663
O O12 0.933730 0.848981 0.356577
O O13 0.775603 0.500000 0.415688
O O14 0.493767 0.176890 0.871307
O O15 0.563249 0.000000 0.820186
O O16 0.232431 0.500000 0.239546
O O17 0.157716 0.681298 0.184983
O O18 0.909433 0.500000 0.873483
O O19 0.000000 0.150083 0.500000
O O20 0.040398 0.000000 0.407743
#
# Coordination Sequence:
#
# PCOD9192775 Si02
#       8
#     8   8   8   8   8   8   8   8
#     4  10  20  36  61  91 121 155 193 235 283 341
#     4  10  20  35  52  74  98 136 181 220 271 331
#     4  11  21  35  53  79 109 141 183 225 277 337
#     4  10  20  34  51  72  99 132 174 224 270 320
#     4  10  20  35  58  85 116 151 187 231 278 329
#     4  10  20  34  55  79 107 142 183 235 280 324
#     4   9  18  34  56  83 112 147 190 230 276 333
#     4  11  22  37  54  74 104 141 181 226 279 341
#
# _framework density 18.039635000000001
#
# number of rings (size 3 to 8) (size 9 to 14) (size 15 to 20)
#    0.000    1.875    1.250    3.375    0.000    1.500 
#    0.000    3.125    0.000    6.750    0.000    0.000 
#    0.000    0.000    0.000    0.000    0.000    0.000 
#
# Total GULP energy -178336.571815 kJ/mol
# GULP energy per Si atom -5573.017869 kJ/mol
# Density = 1.799858 g / cm^3
# Si number density = 18.039635 Si / 1000 Ang^3
#
#
#
# Elastic Constant Matrix: (Units=GPa)
#
#
# Indices 1 2 3 4 5 6 
#
# 1 66.7374 16.4669 15.8386 0.0000 -5.6294 0.0000
# 2 16.4669 58.1170 15.9011 0.0000 -5.1796 0.0000
# 3 15.8386 15.9011 83.7660 0.0000 -7.3732 0.0000
# 4 0.0000 0.0000 0.0000 16.3061 0.0000 4.7779
# 5 -5.6294 -5.1796 -7.3732 0.0000 28.8417 0.0000
# 6 0.0000 0.0000 0.0000 4.7779 0.0000 -9.3774
#
#
#
# Elastic Compliance Matrix: (Units=1/GPa)
#
#
# Indices 1 2 3 4 5 6 
#
# 1 0.016650 -0.003932 -0.002228 0.000000 0.001974 0.000000
# 2 -0.003932 0.019246 -0.002735 0.000000 0.001990 0.000000
# 3 -0.002228 -0.002735 0.013092 0.000000 0.002421 0.000000
# 4 0.000000 0.000000 0.000000 0.053360 0.000000 0.027188
# 5 0.001974 0.001990 0.002421 0.000000 0.036034 0.000000
# 6 0.000000 0.000000 0.000000 0.027188 0.000000 -0.092787
#
#
# Mechanical properties :
#
#
# Convention : Reuss Voigt Hill
#
# Bulk Modulus (GPa) = 32.05360 33.89265 32.97312
# Shear Modulus (GPa) = 67.76559 17.84832 42.80695
#
# Velocity S-wave (km/s) = 6.13566 3.14888 4.87657
# Velocity P-wave (km/s) = 8.24634 5.66120 7.07289
#
# Compressibility (1/GPa) = 0.03119775
#
# Stress axis : x y z
#
# Youngs Moduli (GPa) = 60.06171 51.95786 76.38530
#
# Poissons Ratio (x) = 0.20430 0.17018
# Poissons Ratio (y) = 0.23616 0.20891
# Poissons Ratio (z) = 0.13382 0.14210
#
# Static dielectric constant tensor:
#      x y z
#    x 1.622530 0.000000 0.008910 
#    y 0.000000 1.617400 0.000000 
#    z 0.008910 0.000000 1.626790 
# 
# From -- ./inp_files/223834.got.cif
#   From: 2010.05.17/outbox.cif.g08.bks.cpg/sg12_112_cif.got.tgz:223834.got - 2010.06.03 13:09:07.
