data_PCOD9192087
_publ_section_title
;
Structure prediction by ZEFSAII (Michael W. Deem and Ramdas Pophale) SiO2 
 PCOD9192087
Probable space group: C 2/M
;
_chemical_formula_sum "Si O2"
_cell_formula_units_Z 64
_cell_length_a 28.859950
_cell_length_b 8.944115
_cell_length_c 14.497054
_cell_angle_alpha 90.000000
_cell_angle_beta 105.903505
_cell_angle_gamma 90.000000
_cell_volume 3598.847197
_symmetry_space_group_name_H-M "C 2/M"
_symmetry_group_IT_number 12
_symmetry_cell_setting 'monoclinic'
loop_
_space_group_symop_operation_xyz
x,y,z
-x,y,-z
-x,-y,-z
x,-y,z
1/2+x,1/2+y,z
1/2-x,1/2+y,-z
1/2-x,1/2-y,-z
1/2+x,1/2-y,z
loop_
_atom_site_type_symbol
_atom_site_label
_atom_site_fract_x
_atom_site_fract_y
_atom_site_fract_z
Si Si1 0.308015 0.178879 0.332818
Si Si2 0.529398 0.179793 0.232567
Si Si3 0.803223 0.679274 0.534746
Si Si4 0.573957 0.820412 0.908994
Si Si5 0.113545 0.178280 0.752720
Si Si6 0.110361 0.680502 0.131137
Si Si7 0.305378 0.678661 0.724349
Si Si8 0.989854 0.180043 0.389793
O O1 0.325523 0.214276 0.446986
O O2 0.340786 0.260025 0.276814
O O3 0.251215 0.218416 0.295296
O O4 0.311491 0.000000 0.323069
O O5 0.480631 0.219516 0.149693
O O6 0.574338 0.225003 0.194157
O O7 0.524676 0.251535 0.330878
O O8 0.530554 0.000000 0.243032
O O9 0.800360 0.500000 0.541671
O O10 0.750000 0.750000 0.500000
O O11 0.824282 0.749224 0.638844
O O12 0.608031 0.746574 0.851315
O O13 0.577738 0.000000 0.904331
O O14 0.587548 0.777999 0.020272
O O15 0.064498 0.220839 0.670953
O O16 0.115276 0.000000 0.758899
O O17 0.115220 0.500000 0.136111
O O18 0.161447 0.756824 0.177271
O O19 0.308308 0.500000 0.719984
O O20 0.000000 0.229170 0.500000
O O21 0.993968 0.000000 0.388884
#
# Coordination Sequence:
#
# PCOD9192087 Si02
#       8
#     8   8   8   8   8   8   8   8
#     4   9  19  35  53  73 100 136 174 210 251 301
#     4   9  18  33  54  79 103 131 170 209 250 307
#     4   9  17  31  51  74 101 133 169 209 251 299
#     4   9  18  35  56  75 101 135 168 208 259 312
#     4  10  20  33  53  78 101 132 175 215 251 299
#     4  10  20  34  54  79 104 132 168 213 263 309
#     4  10  21  35  51  75 106 138 173 214 259 307
#     4   9  19  35  51  73 108 141 167 201 248 301
#
# _framework density 17.783473000000001
#
# number of rings (size 3 to 8) (size 9 to 14) (size 15 to 20)
#    0.000    2.625    0.000    2.250    0.000    7.250 
#    0.000    3.125    0.000    3.750    0.000    0.000 
#    0.000    0.000    0.000    0.000    0.000    0.000 
#
# Total GULP energy -178433.491646 kJ/mol
# GULP energy per Si atom -5576.046614 kJ/mol
# Density = 1.774300 g / cm^3
# Si number density = 17.783473 Si / 1000 Ang^3
#
#
#
# Elastic Constant Matrix: (Units=GPa)
#
#
# Indices 1 2 3 4 5 6 
#
# 1 87.1693 29.2812 50.3422 0.0000 -22.3739 0.0000
# 2 29.2812 20.6314 31.5354 0.0000 -7.0137 0.0000
# 3 50.3422 31.5354 126.0959 0.0000 -13.6068 0.0000
# 4 0.0000 0.0000 0.0000 28.8285 0.0000 -0.2444
# 5 -22.3739 -7.0137 -13.6068 0.0000 21.5748 0.0000
# 6 0.0000 0.0000 0.0000 -0.2444 0.0000 16.2825
#
#
#
# Elastic Compliance Matrix: (Units=1/GPa)
#
#
# Indices 1 2 3 4 5 6 
#
# 1 0.026741 -0.030173 -0.001283 0.000000 0.017113 0.000000
# 2 -0.030173 0.116715 -0.017625 0.000000 -0.004463 0.000000
# 3 -0.001283 -0.017625 0.012972 0.000000 0.001120 0.000000
# 4 0.000000 0.000000 0.000000 0.034692 0.000000 0.000521
# 5 0.017113 -0.004463 0.001120 0.000000 0.063353 0.000000
# 6 0.000000 0.000000 0.000000 0.000521 0.000000 0.061423
#
#
# Mechanical properties :
#
#
# Convention : Reuss Voigt Hill
#
# Bulk Modulus (GPa) = 17.16280 50.69046 33.92663
# Shear Modulus (GPa) = 11.53454 21.51968 16.52711
#
# Velocity S-wave (km/s) = 2.54955 3.48241 3.05184
# Velocity P-wave (km/s) = 4.28239 6.68848 5.61581
#
# Compressibility (1/GPa) = 0.05826555
#
# Stress axis : x y z
#
# Youngs Moduli (GPa) = 37.39573 8.56786 77.09181
#
# Poissons Ratio (x) = 0.25852 0.09894
# Poissons Ratio (y) = 1.12834 1.35873
# Poissons Ratio (z) = 0.04799 0.15101
#
# Static dielectric constant tensor:
#      x y z
#    x 1.655380 0.000000 0.105430 
#    y 0.000000 1.590390 0.000000 
#    z 0.105430 0.000000 1.773200 
# 
# From -- ./inp_files/244177.got.cif
#   From: 2010.05.17/outbox.cif.g08.bks.cpg/sg12_123_cif.got.tgz:244177.got - 2010.06.03 13:09:07.
