data_PCOD9192134
_publ_section_title
;
Structure prediction by ZEFSAII (Michael W. Deem and Ramdas Pophale) SiO2 
 PCOD9192134
Probable space group: C 2/M
;
_chemical_formula_sum "Si O2"
_cell_formula_units_Z 56
_cell_length_a 20.111716
_cell_length_b 13.119894
_cell_length_c 13.008607
_cell_angle_alpha 90.000000
_cell_angle_beta 55.983777
_cell_angle_gamma 90.000000
_cell_volume 2845.125922
_symmetry_space_group_name_H-M "C 2/M"
_symmetry_group_IT_number 12
_symmetry_cell_setting 'monoclinic'
loop_
_space_group_symop_operation_xyz
x,y,z
-x,y,-z
-x,-y,-z
x,-y,z
1/2+x,1/2+y,z
1/2-x,1/2+y,-z
1/2-x,1/2-y,-z
1/2+x,1/2-y,z
loop_
_atom_site_type_symbol
_atom_site_label
_atom_site_fract_x
_atom_site_fract_y
_atom_site_fract_z
Si Si1 0.125023 0.882926 0.082873
Si Si2 0.528917 0.264671 0.867432
Si Si3 0.566723 0.115853 0.666906
Si Si4 0.272515 0.877885 0.098730
Si Si5 0.624670 0.883698 0.188865
Si Si6 0.153737 0.620025 0.389002
Si Si7 0.684724 0.319302 0.819144
O O1 0.182536 0.862445 0.131161
O O2 0.045874 0.815248 0.127676
O O3 0.098969 0.000000 0.112876
O O4 0.182673 0.871132 0.933326
O O5 0.577811 0.187825 0.753941
O O6 0.596926 0.340518 0.849597
O O7 0.500000 0.214248 0.000000
O O8 0.470534 0.112170 0.741940
O O9 0.605243 0.158884 0.528987
O O10 0.595989 0.000000 0.657306
O O11 0.295656 0.799394 0.169288
O O12 0.282677 0.000000 0.111579
O O13 0.331697 0.847533 0.952368
O O14 0.636313 0.835040 0.290975
O O15 0.654832 0.000000 0.171628
O O16 0.132401 0.500000 0.403395
O O17 0.248371 0.636860 0.313856
#
# Coordination Sequence:
#
# PCOD9192134 Si02
#       7
#     8   8   8   8   8   8   8
#     4  10  20  36  56  81 112 143 180 227 273 318
#     4  10  23  36  53  82 109 142 182 220 274 330
#     4  10  21  36  53  76 110 144 177 220 272 327
#     4  10  20  34  57  85 113 143 180 228 274 322
#     4   9  16  30  52  79 105 130 171 221 269 314
#     4  10  20  33  53  80 107 140 179 224 273 319
#     4  11  21  33  55  84 112 141 180 223 273 328
#
# _framework density 19.682784000000002
#
# number of rings (size 3 to 8) (size 9 to 14) (size 15 to 20)
#    0.000    2.000    1.429    3.000    2.000    6.286 
#    0.000    0.000    0.000    0.857    0.000    2.000 
#    0.000    0.000    0.000    0.000    0.000    0.000 
#
# Total GULP energy -155971.610052 kJ/mol
# GULP energy per Si atom -5570.414645 kJ/mol
# Density = 1.963798 g / cm^3
# Si number density = 19.682784 Si / 1000 Ang^3
#
#
#
# Elastic Constant Matrix: (Units=GPa)
#
#
# Indices 1 2 3 4 5 6 
#
# 1 74.3447 5.4727 -1.0556 0.0000 -2.7451 0.0000
# 2 5.4727 60.4213 11.3527 0.0000 10.6914 0.0000
# 3 -1.0556 11.3527 67.8717 0.0000 11.7956 0.0000
# 4 0.0000 0.0000 0.0000 19.9500 0.0000 -1.5774
# 5 -2.7451 10.6914 11.7956 0.0000 12.8548 0.0000
# 6 0.0000 0.0000 0.0000 -1.5774 0.0000 7.5966
#
#
#
# Elastic Compliance Matrix: (Units=1/GPa)
#
#
# Indices 1 2 3 4 5 6 
#
# 1 0.013781 -0.002065 -0.000298 0.000000 0.004934 0.000000
# 2 -0.002065 0.019732 -0.000480 0.000000 -0.016411 0.000000
# 3 -0.000298 -0.000480 0.017550 0.000000 -0.015768 0.000000
# 4 0.000000 0.000000 0.000000 0.050962 0.000000 0.010582
# 5 0.004934 -0.016411 -0.015768 0.000000 0.106964 0.000000
# 6 0.000000 0.000000 0.000000 0.010582 0.000000 0.133835
#
#
# Mechanical properties :
#
#
# Convention : Reuss Voigt Hill
#
# Bulk Modulus (GPa) = 22.03831 26.01970 24.02901
# Shear Modulus (GPa) = 13.75006 20.53814 17.14410
#
# Velocity S-wave (km/s) = 2.64594 3.23376 2.95451
# Velocity P-wave (km/s) = 4.53384 5.21452 4.88605
#
# Compressibility (1/GPa) = 0.04537554
#
# Stress axis : x y z
#
# Youngs Moduli (GPa) = 72.56461 50.67978 56.98101
#
# Poissons Ratio (x) = 0.10467 0.01696
# Poissons Ratio (y) = 0.14987 0.02738
# Poissons Ratio (z) = 0.02160 0.02435
#
# Static dielectric constant tensor:
#      x y z
#    x 1.766660 0.000000 -0.002110 
#    y 0.000000 1.758120 0.000000 
#    z -0.002110 0.000000 1.685390 
# 
# From -- ./inp_files/156499.got.cif
#   From: 2010.05.17/outbox.cif.g08.bks.cpg/sg12_79_cif.got.tgz:156499.got - 2010.06.03 13:09:07.
