data_PCOD9192685
_publ_section_title
;
Structure prediction by ZEFSAII (Michael W. Deem and Ramdas Pophale) SiO2 
 PCOD9192685
Probable space group: C 2/M
;
_chemical_formula_sum "Si O2"
_cell_formula_units_Z 56
_cell_length_a 12.107984
_cell_length_b 13.895662
_cell_length_c 15.807058
_cell_angle_alpha 90.000000
_cell_angle_beta 86.051864
_cell_angle_gamma 90.000000
_cell_volume 2653.201461
_symmetry_space_group_name_H-M "C 2/M"
_symmetry_group_IT_number 12
_symmetry_cell_setting 'monoclinic'
loop_
_space_group_symop_operation_xyz
x,y,z
-x,y,-z
-x,-y,-z
x,-y,z
1/2+x,1/2+y,z
1/2-x,1/2+y,-z
1/2-x,1/2-y,-z
1/2+x,1/2-y,z
loop_
_atom_site_type_symbol
_atom_site_label
_atom_site_fract_x
_atom_site_fract_y
_atom_site_fract_z
Si Si1 0.254645 0.114767 0.324094
Si Si2 0.686003 0.390584 0.144483
Si Si3 0.599470 0.108320 0.425754
Si Si4 0.342584 0.611220 0.494828
Si Si5 0.625715 0.381928 0.973514
Si Si6 0.047457 0.750627 0.641221
Si Si7 0.573207 0.391171 0.797213
O O1 0.227105 0.151375 0.231276
O O2 0.164548 0.125864 0.403774
O O3 0.362830 0.166961 0.350824
O O4 0.271646 0.000000 0.318709
O O5 0.730612 0.500000 0.138929
O O6 0.700316 0.348999 0.049105
O O7 0.553415 0.397736 0.163458
O O8 0.500000 0.110606 0.500000
O O9 0.718112 0.123394 0.463490
O O10 0.566773 0.192120 0.362744
O O11 0.600309 0.000000 0.389179
O O12 0.374770 0.500000 0.477288
O O13 0.417526 0.685896 0.441138
O O14 0.626055 0.500000 0.975349
O O15 0.500000 0.349653 0.000000
O O16 0.645626 0.357370 0.874185
O O17 0.065121 0.820814 0.719240
O O18 0.607185 0.500000 0.770509
#
# Coordination Sequence:
#
# PCOD9192685 Si02
#       7
#     8   8   8   8   8   8   8
#     4  10  20  34  50  72 100 131 172 219 255 297
#     4   8  15  29  51  73  98 130 164 208 265 311
#     4  10  21  38  56  72  99 145 189 219 252 310
#     4  10  22  39  54  73 108 145 178 218 264 312
#     4   7  11  25  48  70  96 133 164 195 252 321
#     4  12  22  31  54  79 104 135 181 218 261 305
#     4   9  18  31  48  76 108 132 163 207 262 320
#
# _framework density 21.106576
#
# number of rings (size 3 to 8) (size 9 to 14) (size 15 to 20)
#    0.000    2.571    1.429    3.000    2.000    0.000 
#    0.000    0.714    0.000    4.286    0.000    0.000 
#    0.000   10.286    0.000    0.000    0.000    0.000 
#
# Total GULP energy -156147.855241 kJ/mol
# GULP energy per Si atom -5576.709116 kJ/mol
# Density = 2.105854 g / cm^3
# Si number density = 21.106576 Si / 1000 Ang^3
#
#
#
# Elastic Constant Matrix: (Units=GPa)
#
#
# Indices 1 2 3 4 5 6 
#
# 1 53.6484 28.2494 26.0187 0.0000 17.9482 0.0000
# 2 28.2494 100.0998 75.6238 0.0000 13.0822 0.0000
# 3 26.0187 75.6238 173.7591 0.0000 38.7540 0.0000
# 4 0.0000 0.0000 0.0000 366.5160 0.0000 228.5665
# 5 17.9482 13.0822 38.7540 0.0000 28.4590 0.0000
# 6 0.0000 0.0000 0.0000 228.5665 0.0000 169.6335
#
#
#
# Elastic Compliance Matrix: (Units=1/GPa)
#
#
# Indices 1 2 3 4 5 6 
#
# 1 0.027221 -0.007882 0.003411 0.000000 -0.018190 0.000000
# 2 -0.007882 0.017328 -0.008177 0.000000 0.008140 0.000000
# 3 0.003411 -0.008177 0.012128 0.000000 -0.014908 0.000000
# 4 0.000000 0.000000 0.000000 0.017082 0.000000 -0.023016
# 5 -0.018190 0.008140 -0.014908 0.000000 0.063169 0.000000
# 6 0.000000 0.000000 0.000000 -0.023016 0.000000 0.036907
#
#
# Mechanical properties :
#
#
# Convention : Reuss Voigt Hill
#
# Bulk Modulus (GPa) = 31.86552 65.25458 48.56005
# Shear Modulus (GPa) = 23.85598 126.09605 74.97602
#
# Velocity S-wave (km/s) = 3.36559 7.73772 5.96655
# Velocity P-wave (km/s) = 5.49846 10.52680 8.39781
#
# Compressibility (1/GPa) = 0.03138188
#
# Stress axis : x y z
#
# Youngs Moduli (GPa) = 36.73591 57.70981 82.45397
#
# Poissons Ratio (x) = 0.45487 -0.28127
# Poissons Ratio (y) = 0.28956 0.67421
# Poissons Ratio (z) = -0.12531 0.47189
#
# Static dielectric constant tensor:
#      x y z
#    x 1.766620 0.000000 0.029600 
#    y 0.000000 1.778350 0.000000 
#    z 0.029600 0.000000 1.855890 
# 
# From -- ./inp_files/214241.got.cif
#   From: 2010.05.17/outbox.cif.g08.bks.cpg/sg12_108_cif.got.tgz:214241.got - 2010.06.03 13:09:07.
