data_PCOD9192433
_publ_section_title
;
Structure prediction by ZEFSAII (Michael W. Deem and Ramdas Pophale) SiO2 
 PCOD9192433
Probable space group: C 2/M
;
_chemical_formula_sum "Si O2"
_cell_formula_units_Z 64
_cell_length_a 12.824379
_cell_length_b 30.624888
_cell_length_c 8.630656
_cell_angle_alpha 90.000000
_cell_angle_beta 93.009209
_cell_angle_gamma 90.000000
_cell_volume 3384.974510
_symmetry_space_group_name_H-M "C 2/M"
_symmetry_group_IT_number 12
_symmetry_cell_setting 'monoclinic'
loop_
_space_group_symop_operation_xyz
x,y,z
-x,y,-z
-x,-y,-z
x,-y,z
1/2+x,1/2+y,z
1/2-x,1/2+y,-z
1/2-x,1/2-y,-z
1/2+x,1/2-y,z
loop_
_atom_site_type_symbol
_atom_site_label
_atom_site_fract_x
_atom_site_fract_y
_atom_site_fract_z
Si Si1 0.227348 0.385493 0.292456
Si Si2 0.121434 0.550153 0.049909
Si Si3 0.603138 0.639558 0.175932
Si Si4 0.605236 0.743270 0.607875
Si Si5 0.759754 0.323920 0.440400
Si Si6 0.313331 0.451039 0.836610
Si Si7 0.888041 0.824926 0.148532
Si Si8 0.622627 0.550013 0.517191
O O1 0.152524 0.414816 0.182190
O O2 0.187858 0.358320 0.437997
O O3 0.283177 0.348876 0.192956
O O4 0.314452 0.418150 0.367453
O O5 0.136755 0.500000 0.106731
O O6 0.199590 0.554828 0.907478
O O7 0.000000 0.555139 0.000000
O O8 0.688945 0.650583 0.310836
O O9 0.620324 0.591160 0.109119
O O10 0.485100 0.646389 0.221719
O O11 0.612564 0.673415 0.035826
O O12 0.500000 0.744969 0.500000
O O13 0.680704 0.708347 0.526802
O O14 0.656679 0.790657 0.622110
O O15 0.594493 0.722072 0.775688
O O16 0.349597 0.500000 0.885191
O O17 0.325174 0.449426 0.650424
O O18 0.500000 0.562030 0.500000
O O19 0.627015 0.500000 0.574295
#
# Coordination Sequence:
#
# PCOD9192433 Si02
#       8
#     8   8   8   8   8   8   8   8
#     4  11  20  36  57  89 116 158 207 257 307 367
#     4  10  22  42  63  81 120 176 221 263 307 354
#     4  11  19  38  57  93 119 163 203 243 310 380
#     4  10  20  41  58  85 113 153 199 250 317 380
#     4  10  22  35  63  84 116 154 197 257 314 375
#     4  10  20  37  58  86 127 167 205 251 303 362
#     4  10  22  33  62  85 121 159 199 244 309 391
#     4  10  20  33  55  89 128 162 198 248 310 374
#
# _framework density 18.907084000000001
#
# number of rings (size 3 to 8) (size 9 to 14) (size 15 to 20)
#    0.000    1.750    3.750    1.125    0.000    0.500 
#    2.250    2.500    0.000    3.000    0.000    0.000 
#    0.000    0.000    0.000    0.000    0.000    0.000 
#
# Total GULP energy -178362.290447 kJ/mol
# GULP energy per Si atom -5573.821576 kJ/mol
# Density = 1.886405 g / cm^3
# Si number density = 18.907084 Si / 1000 Ang^3
#
#
#
# Elastic Constant Matrix: (Units=GPa)
#
#
# Indices 1 2 3 4 5 6 
#
# 1 63.1501 44.1386 21.0806 0.0000 3.4537 0.0000
# 2 44.1386 101.2471 31.9954 0.0000 6.6213 0.0000
# 3 21.0806 31.9954 73.3680 0.0000 5.4244 0.0000
# 4 0.0000 0.0000 0.0000 29.2424 0.0000 -2.8066
# 5 3.4537 6.6213 5.4244 0.0000 18.7135 0.0000
# 6 0.0000 0.0000 0.0000 -2.8066 0.0000 16.1531
#
#
#
# Elastic Compliance Matrix: (Units=1/GPa)
#
#
# Indices 1 2 3 4 5 6 
#
# 1 0.023201 -0.009276 -0.002603 0.000000 -0.000245 0.000000
# 2 -0.009276 0.015295 -0.003813 0.000000 -0.002595 0.000000
# 3 -0.002603 -0.003813 0.016254 0.000000 -0.002882 0.000000
# 4 0.000000 0.000000 0.000000 0.034777 0.000000 0.006043
# 5 -0.000245 -0.002595 -0.002882 0.000000 0.055236 0.000000
# 6 0.000000 0.000000 0.000000 0.006043 0.000000 0.062958
#
#
# Mechanical properties :
#
#
# Convention : Reuss Voigt Hill
#
# Bulk Modulus (GPa) = 42.79706 48.02161 45.40933
# Shear Modulus (GPa) = 20.25168 22.19183 21.22176
#
# Velocity S-wave (km/s) = 3.27634 3.42969 3.35389
# Velocity P-wave (km/s) = 6.08253 6.41386 6.25039
#
# Compressibility (1/GPa) = 0.02336609
#
# Stress axis : x y z
#
# Youngs Moduli (GPa) = 43.10173 65.37947 61.52410
#
# Poissons Ratio (x) = 0.60645 0.16015
# Poissons Ratio (y) = 0.39980 0.23460
# Poissons Ratio (z) = 0.11219 0.24930
#
# Static dielectric constant tensor:
#      x y z
#    x 1.657780 0.000000 -0.046480 
#    y 0.000000 1.668100 0.000000 
#    z -0.046480 0.000000 1.681400 
# 
# From -- ./inp_files/54741.got.cif
#   From: 2010.05.17/outbox.cif.g08.bks.cpg/sg12_28_cif.got.tgz:54741.got - 2010.06.03 13:09:07.
