data_PCOD9192194
_publ_section_title
;
Structure prediction by ZEFSAII (Michael W. Deem and Ramdas Pophale) SiO2 
 PCOD9192194
Probable space group: C 2/M
;
_chemical_formula_sum "Si O2"
_cell_formula_units_Z 40
_cell_length_a 18.402349
_cell_length_b 7.497228
_cell_length_c 27.462485
_cell_angle_alpha 90.000000
_cell_angle_beta 32.631618
_cell_angle_gamma 90.000000
_cell_volume 2043.112922
_symmetry_space_group_name_H-M "C 2/M"
_symmetry_group_IT_number 12
_symmetry_cell_setting 'monoclinic'
loop_
_space_group_symop_operation_xyz
x,y,z
-x,y,-z
-x,-y,-z
x,-y,z
1/2+x,1/2+y,z
1/2-x,1/2+y,-z
1/2-x,1/2-y,-z
1/2+x,1/2-y,z
loop_
_atom_site_type_symbol
_atom_site_label
_atom_site_fract_x
_atom_site_fract_y
_atom_site_fract_z
Si Si1 0.350366 0.298196 0.751792
Si Si2 0.941779 0.000000 0.611054
Si Si3 0.407549 0.287043 0.904959
Si Si4 0.780167 0.000000 0.602514
Si Si5 0.547462 0.295849 0.922254
Si Si6 0.049588 0.783262 0.724587
O O1 0.315125 0.500000 0.788964
O O2 0.413621 0.332449 0.662828
O O3 0.208599 0.201702 0.829182
O O4 0.458645 0.231368 0.729349
O O5 0.838949 0.000000 0.624167
O O6 0.091402 0.000000 0.505516
O O7 0.425756 0.500000 0.893709
O O8 0.487029 0.214222 0.907123
O O9 0.469094 0.227715 0.818865
O O10 0.250000 0.250000 0.000000
O O11 0.687760 0.173745 0.646472
O O12 0.495756 0.500000 0.952254
O O13 0.500000 0.213193 0.000000
O O14 0.069040 0.000000 0.712854
#
# Coordination Sequence:
#
# PCOD9192194 Si02
#       6
#     8   4   8   4   8   8
#     4   9  20  38  56  80 121 145 190 248 289 345
#     4   9  22  42  59  92 117 147 203 251 290 375
#     4  10  21  34  52  82 118 153 198 242 286 351
#     4  11  22  40  70  84 118 161 195 247 311 347
#     4  10  20  33  53  82 116 154 197 238 286 355
#     4  10  22  39  59  91 119 154 201 246 291 360
#
# _framework density 19.577967000000001
#
# number of rings (size 3 to 8) (size 9 to 14) (size 15 to 20)
#    0.600    1.600    0.000    2.400    2.800    2.000 
#    0.000    3.000    0.000    0.000    0.000    0.000 
#    0.000    0.000    0.000    0.000    0.000    0.000 
#
# Total GULP energy -111506.085182 kJ/mol
# GULP energy per Si atom -5575.304259 kJ/mol
# Density = 1.953341 g / cm^3
# Si number density = 19.577967 Si / 1000 Ang^3
#
#
#
# Elastic Constant Matrix: (Units=GPa)
#
#
# Indices 1 2 3 4 5 6 
#
# 1 196.7025 22.4220 102.1405 0.0037 -0.8185 0.0040
# 2 22.4220 55.7457 17.6467 0.0145 -3.6339 -0.0119
# 3 102.1405 17.6467 143.9411 0.0131 0.0672 -0.0005
# 4 0.0037 0.0145 0.0131 62.4801 -0.0017 -18.7459
# 5 -0.8185 -3.6339 0.0672 -0.0017 36.5461 -0.0016
# 6 0.0040 -0.0119 -0.0005 -18.7459 -0.0016 -2.2141
#
#
#
# Elastic Compliance Matrix: (Units=1/GPa)
#
#
# Indices 1 2 3 4 5 6 
#
# 1 0.008170 -0.001507 -0.005613 0.000002 0.000044 0.000004
# 2 -0.001507 0.019068 -0.001269 -0.000010 0.001865 -0.000020
# 3 -0.005613 -0.001269 0.011086 -0.000001 -0.000272 0.000002
# 4 0.000002 -0.000010 -0.000001 0.004521 -0.000002 -0.038277
# 5 0.000044 0.001865 -0.000272 -0.000002 0.027550 -0.000009
# 6 0.000004 -0.000020 0.000002 -0.038277 -0.000009 -0.127576
#
#
# Mechanical properties :
#
#
# Convention : Reuss Voigt Hill
#
# Bulk Modulus (GPa) = 46.41176 75.64528 61.02852
# Shear Modulus (GPa) = -150.50713 36.30776 -57.09969
#
# Velocity S-wave (km/s) = -8.77739 4.31109 -5.40635
# Velocity P-wave (km/s) = 8.88628 7.96884 2.78060
#
# Compressibility (1/GPa) = 0.02154626
#
# Stress axis : x y z
#
# Youngs Moduli (GPa) = 122.39351 52.44391 90.20364
#
# Poissons Ratio (x) = 0.07901 0.50631
# Poissons Ratio (y) = 0.18440 0.11451
# Poissons Ratio (z) = 0.68700 0.06658
#
# Static dielectric constant tensor:
#      x y z
#    x 1.711230 0.000000 0.017340 
#    y 0.000000 1.721600 0.000000 
#    z 0.017340 0.000000 1.650710 
# 
# From -- ./inp_files/377391.got.cif
#   From: 2010.05.17/outbox.cif.g08.bks.cpg/sg12_189_cif.got.tgz:377391.got - 2010.06.03 13:09:07.
