data_PCOD9192263
_publ_section_title
;
Structure prediction by ZEFSAII (Michael W. Deem and Ramdas Pophale) SiO2 
 PCOD9192263
Probable space group: C 2/M
;
_chemical_formula_sum "Si O2"
_cell_formula_units_Z 58
_cell_length_a 19.718113
_cell_length_b 7.293338
_cell_length_c 17.237178
_cell_angle_alpha 90.000000
_cell_angle_beta 95.811067
_cell_angle_gamma 90.000000
_cell_volume 2466.154831
_symmetry_space_group_name_H-M "C 2/M"
_symmetry_group_IT_number 12
_symmetry_cell_setting 'monoclinic'
loop_
_space_group_symop_operation_xyz
x,y,z
-x,y,-z
-x,-y,-z
x,-y,z
1/2+x,1/2+y,z
1/2-x,1/2+y,-z
1/2-x,1/2-y,-z
1/2+x,1/2-y,z
loop_
_atom_site_type_symbol
_atom_site_label
_atom_site_fract_x
_atom_site_fract_y
_atom_site_fract_z
Si Si1 0.393896 0.221168 0.453091
Si Si2 0.878679 0.288374 0.627409
Si Si3 0.829228 0.282249 0.020079
Si Si4 0.858888 0.723633 0.196187
Si Si5 0.946077 0.277228 0.927486
Si Si6 0.730114 0.779920 0.675480
Si Si7 0.500000 0.500000 0.500000
Si Si8 0.010790 0.724370 0.239088
O O1 0.377441 0.284601 0.539766
O O2 0.329101 0.268089 0.392651
O O3 0.460928 0.337619 0.444272
O O4 0.404331 0.000000 0.448214
O O5 0.896917 0.500000 0.618717
O O6 0.804428 0.281404 0.657684
O O7 0.935589 0.209388 0.690987
O O8 0.841144 0.500000 0.024159
O O9 0.852717 0.212736 0.106916
O O10 0.750000 0.250000 0.000000
O O11 0.873624 0.215250 0.952853
O O12 0.857756 0.500000 0.195114
O O13 0.796950 0.782985 0.243908
O O14 0.931977 0.776566 0.239716
O O15 0.947474 0.500000 0.923792
O O16 0.965415 0.216175 0.843971
O O17 0.000000 0.224445 0.000000
O O18 0.733389 0.000000 0.677285
O O19 0.012352 0.500000 0.240053
#
# Coordination Sequence:
#
# PCOD9192263 Si02
#       8
#     8   8   8   8   8   8   2   8
#     4  10  24  44  66  95 130 169 211 256 314 371
#     4  10  22  38  61  89 120 157 202 253 306 370
#     4  10  20  33  54  80 112 149 193 242 299 367
#     4   9  18  34  54  81 113 153 195 245 309 366
#     4   9  15  28  51  79 106 143 195 244 289 354
#     4  10  22  39  61  84 120 164 205 250 306 374
#     4  12  26  40  72 102 128 164 210 268 306 376
#     4   9  17  31  53  81 113 147 193 252 304 355
#
# _framework density 23.518391999999999
#
# number of rings (size 3 to 8) (size 9 to 14) (size 15 to 20)
#    0.000    2.345    1.379    0.621    5.793    0.000 
#    0.000    0.000    0.000    1.241    0.000    0.000 
#    0.000    0.000    0.000    0.000    0.000    0.000 
#
# Total GULP energy -161875.187837 kJ/mol
# GULP energy per Si atom -5581.903029 kJ/mol
# Density = 2.346486 g / cm^3
# Si number density = 23.518392 Si / 1000 Ang^3
#
#
#
# Elastic Constant Matrix: (Units=GPa)
#
#
# Indices 1 2 3 4 5 6 
#
# 1 91.9979 -5.4022 14.8065 0.0000 -0.7674 0.0000
# 2 -5.4022 106.4585 -0.3253 0.0000 5.2847 0.0000
# 3 14.8065 -0.3253 85.2641 0.0000 -13.0615 0.0000
# 4 0.0000 0.0000 0.0000 -28.4477 0.0000 -23.2832
# 5 -0.7674 5.2847 -13.0615 0.0000 41.9082 0.0000
# 6 0.0000 0.0000 0.0000 -23.2832 0.0000 -5.0540
#
#
#
# Elastic Compliance Matrix: (Units=1/GPa)
#
#
# Indices 1 2 3 4 5 6 
#
# 1 0.011226 0.000588 -0.002024 0.000000 -0.000499 0.000000
# 2 0.000588 0.009485 -0.000260 0.000000 -0.001266 0.000000
# 3 -0.002024 -0.000260 0.012684 0.000000 0.003949 0.000000
# 4 0.000000 0.000000 0.000000 0.012688 0.000000 -0.058452
# 5 -0.000499 -0.001266 0.003949 0.000000 0.025243 0.000000
# 6 0.000000 0.000000 0.000000 -0.058452 0.000000 0.071417
#
#
# Mechanical properties :
#
#
# Convention : Reuss Voigt Hill
#
# Bulk Modulus (GPa) = 33.32889 33.54205 33.43547
# Shear Modulus (GPa) = 32.02367 19.99073 26.00720
#
# Velocity S-wave (km/s) = 3.69405 2.91865 3.32900
# Velocity P-wave (km/s) = 5.69182 5.06468 5.38739
#
# Compressibility (1/GPa) = 0.03000400
#
# Stress axis : x y z
#
# Youngs Moduli (GPa) = 89.07980 105.42683 78.84193
#
# Poissons Ratio (x) = -0.06202 0.15955
# Poissons Ratio (y) = -0.05240 0.02050
# Poissons Ratio (z) = 0.18027 0.02741
#
# Static dielectric constant tensor:
#      x y z
#    x 1.686320 0.000000 0.055530 
#    y 0.000000 1.938860 0.000000 
#    z 0.055530 0.000000 1.830410 
# 
# From -- ./inp_files/275408.got.cif
#   From: 2010.05.17/outbox.cif.g08.bks.cpg/sg12_138_cif.got.tgz:275408.got - 2010.06.03 13:09:07.
