data_PCOD9192015
_publ_section_title
;
Structure prediction by ZEFSAII (Michael W. Deem and Ramdas Pophale) SiO2 
 PCOD9192015
Probable space group: C 2/M
;
_chemical_formula_sum "Si O2"
_cell_formula_units_Z 48
_cell_length_a 13.288650
_cell_length_b 11.721556
_cell_length_c 22.197216
_cell_angle_alpha 90.000000
_cell_angle_beta 138.467307
_cell_angle_gamma 90.000000
_cell_volume 2292.498950
_symmetry_space_group_name_H-M "C 2/M"
_symmetry_group_IT_number 12
_symmetry_cell_setting 'monoclinic'
loop_
_space_group_symop_operation_xyz
x,y,z
-x,y,-z
-x,-y,-z
x,-y,z
1/2+x,1/2+y,z
1/2-x,1/2+y,-z
1/2-x,1/2-y,-z
1/2+x,1/2-y,z
loop_
_atom_site_type_symbol
_atom_site_label
_atom_site_fract_x
_atom_site_fract_y
_atom_site_fract_z
Si Si1 0.504704 0.868663 0.803085
Si Si2 0.748988 0.633889 0.779124
Si Si3 0.650687 0.372836 0.991908
Si Si4 0.370390 0.867535 0.489022
Si Si5 0.053866 0.265305 0.352715
Si Si6 0.679471 0.868846 0.047503
O O1 0.383274 0.820004 0.796496
O O2 0.676455 0.871568 0.905037
O O3 0.493605 0.813574 0.733098
O O4 0.462579 0.000000 0.775375
O O5 0.738807 0.500000 0.764320
O O6 0.587205 0.686946 0.691680
O O7 0.784030 0.644431 0.866167
O O8 0.585455 0.500000 0.977532
O O9 0.594287 0.248476 0.988945
O O10 0.673198 0.369412 0.929847
O O11 0.500000 0.827205 0.500000
O O12 0.213148 0.799153 0.414511
O O13 0.424590 0.852297 0.582354
O O14 0.341936 0.000000 0.463012
O O15 0.615279 0.000000 0.008036
#
# Coordination Sequence:
#
# PCOD9192015 Si02
#       6
#     8   8   8   8   8   8
#     4  10  20  33  52  80 109 139 180 223 263 314
#     4  10  20  33  52  80 109 139 180 223 263 314
#     4   9  17  31  52  77 108 146 184 222 266 314
#     4  10  22  38  56  78 102 132 172 214 262 328
#     4  11  20  36  57  76 104 138 169 214 274 319
#     4   9  17  31  52  77 108 146 184 222 266 314
#
# _framework density 20.937850999999998
#
# number of rings (size 3 to 8) (size 9 to 14) (size 15 to 20)
#    0.000    2.167    1.667    2.000    0.000    0.667 
#    0.000    3.333    0.000   11.000    0.000    4.667 
#    0.000    0.000    0.000    0.000    0.000    0.000 
#
# Total GULP energy -133748.887431 kJ/mol
# GULP energy per Si atom -5572.870310 kJ/mol
# Density = 2.089020 g / cm^3
# Si number density = 20.937851 Si / 1000 Ang^3
#
#
#
# Elastic Constant Matrix: (Units=GPa)
#
#
# Indices 1 2 3 4 5 6 
#
# 1 117.6692 12.3359 27.7973 0.0000 -3.6124 0.0000
# 2 12.3359 109.2455 -1.0781 0.0000 3.9367 0.0000
# 3 27.7973 -1.0781 55.2056 0.0000 -6.6203 0.0000
# 4 0.0000 0.0000 0.0000 15.6356 0.0000 -3.4392
# 5 -3.6124 3.9367 -6.6203 0.0000 31.1728 0.0000
# 6 0.0000 0.0000 0.0000 -3.4392 0.0000 11.6184
#
#
#
# Elastic Compliance Matrix: (Units=1/GPa)
#
#
# Indices 1 2 3 4 5 6 
#
# 1 0.009791 -0.001163 -0.004924 0.000000 0.000236 0.000000
# 2 -0.001163 0.009334 0.000626 0.000000 -0.001180 0.000000
# 3 -0.004924 0.000626 0.021064 0.000000 0.003824 0.000000
# 4 0.000000 0.000000 0.000000 0.068411 0.000000 0.020251
# 5 0.000236 -0.001180 0.003824 0.000000 0.033068 0.000000
# 6 0.000000 0.000000 0.000000 0.020251 0.000000 0.092064
#
#
# Mechanical properties :
#
#
# Convention : Reuss Voigt Hill
#
# Bulk Modulus (GPa) = 34.16798 40.02563 37.09681
# Shear Modulus (GPa) = 19.65337 27.88973 23.77155
#
# Velocity S-wave (km/s) = 3.06707 3.65365 3.37313
# Velocity P-wave (km/s) = 5.37557 6.07921 5.73818
#
# Compressibility (1/GPa) = 0.02926716
#
# Stress axis : x y z
#
# Youngs Moduli (GPa) = 102.13654 107.13866 47.47343
#
# Poissons Ratio (x) = 0.12457 0.23378
# Poissons Ratio (y) = 0.11875 -0.02972
# Poissons Ratio (z) = 0.50296 -0.06708
#
# Static dielectric constant tensor:
#      x y z
#    x 1.789840 0.000000 -0.002680 
#    y 0.000000 1.806230 0.000000 
#    z -0.002680 0.000000 1.724920 
# 
# From -- ./inp_files/251507.got.cif
#   From: 2010.05.17/outbox.cif.g08.bks.cpg/sg12_126_cif.got.tgz:251507.got - 2010.06.03 13:09:07.
