data_PCOD9192283
_publ_section_title
;
Structure prediction by ZEFSAII (Michael W. Deem and Ramdas Pophale) SiO2 
 PCOD9192283
Probable space group: C 2/M
;
_chemical_formula_sum "Si O2"
_cell_formula_units_Z 56
_cell_length_a 17.013957
_cell_length_b 24.684945
_cell_length_c 5.333688
_cell_angle_alpha 90.000000
_cell_angle_beta 88.504520
_cell_angle_gamma 90.000000
_cell_volume 2239.325114
_symmetry_space_group_name_H-M "C 2/M"
_symmetry_group_IT_number 12
_symmetry_cell_setting 'monoclinic'
loop_
_space_group_symop_operation_xyz
x,y,z
-x,y,-z
-x,-y,-z
x,-y,z
1/2+x,1/2+y,z
1/2-x,1/2+y,-z
1/2-x,1/2-y,-z
1/2+x,1/2-y,z
loop_
_atom_site_type_symbol
_atom_site_label
_atom_site_fract_x
_atom_site_fract_y
_atom_site_fract_z
Si Si1 0.778452 0.292168 0.284927
Si Si2 0.971493 0.333819 0.754439
Si Si3 0.335148 0.088687 0.771842
Si Si4 0.865971 0.794392 0.076971
Si Si5 0.307700 0.618042 0.465015
Si Si6 0.048743 0.121671 0.237921
Si Si7 0.419999 0.941747 0.263852
O O1 0.750000 0.250000 0.500000
O O2 0.859484 0.265823 0.189900
O O3 0.766551 0.351287 0.399870
O O4 0.716378 0.296324 0.065442
O O5 0.880388 0.352015 0.771669
O O6 0.000000 0.305441 0.500000
O O7 0.021602 0.390541 0.749761
O O8 0.000000 0.304712 0.000000
O O9 0.241453 0.084931 0.735782
O O10 0.374603 0.060623 0.529361
O O11 0.361805 0.064176 0.033519
O O12 0.857653 0.837404 0.303528
O O13 0.926653 0.818642 0.870825
O O14 0.367428 0.596621 0.672131
O O15 0.000000 0.121296 0.500000
O O16 0.000000 0.098150 0.000000
O O17 0.460674 0.000000 0.244059
#
# Coordination Sequence:
#
# PCOD9192283 Si02
#       7
#     8   8   8   8   8   8   8
#     4   8  16  30  51  80 103 139 181 224 263 329
#     4   8  16  30  46  73  99 139 178 213 255 304
#     4  10  21  31  52  80 108 143 182 230 269 319
#     4   9  17  32  53  79 106 140 183 225 274 337
#     4  10  20  33  54  82 113 144 188 228 285 340
#     4  11  21  34  53  80 109 145 175 234 291 334
#     4  10  20  34  53  79 111 150 187 221 269 326
#
# _framework density 25.007535000000001
#
# number of rings (size 3 to 8) (size 9 to 14) (size 15 to 20)
#    0.000    2.571    1.429    0.429    4.000    5.143 
#    0.000    0.000    0.000    0.000   66.857    0.000 
#    0.000   11.429    0.000    0.000    0.000    0.000 
#
# Total GULP energy -156066.345707 kJ/mol
# GULP energy per Si atom -5573.798061 kJ/mol
# Density = 2.495062 g / cm^3
# Si number density = 25.007535 Si / 1000 Ang^3
#
#
#
# Elastic Constant Matrix: (Units=GPa)
#
#
# Indices 1 2 3 4 5 6 
#
# 1 126.4202 14.9571 55.2141 0.0000 48.9297 0.0000
# 2 14.9571 11.1958 7.9697 0.0000 -6.7635 0.0000
# 3 55.2141 7.9697 190.5633 0.0000 30.3704 0.0000
# 4 0.0000 0.0000 0.0000 -6.5885 0.0000 -1.2276
# 5 48.9297 -6.7635 30.3704 0.0000 68.2708 0.0000
# 6 0.0000 0.0000 0.0000 -1.2276 0.0000 9.1050
#
#
#
# Elastic Compliance Matrix: (Units=1/GPa)
#
#
# Indices 1 2 3 4 5 6 
#
# 1 0.018832 -0.033916 -0.001455 0.000000 -0.016210 0.000000
# 2 -0.033916 0.162656 -0.003679 0.000000 0.042058 0.000000
# 3 -0.001455 -0.003679 0.006151 0.000000 -0.002058 0.000000
# 4 0.000000 0.000000 0.000000 -0.148060 0.000000 -0.019962
# 5 -0.016210 0.042058 -0.002058 0.000000 0.031347 0.000000
# 6 0.000000 0.000000 0.000000 -0.019962 0.000000 0.107138
#
#
# Mechanical properties :
#
#
# Convention : Reuss Voigt Hill
#
# Bulk Modulus (GPa) = 9.12902 53.82900 31.47901
# Shear Modulus (GPa) = 17.08374 30.82668 23.95521
#
# Velocity S-wave (km/s) = 2.61654 3.51479 3.09839
# Velocity P-wave (km/s) = 3.57586 6.16794 5.04134
#
# Compressibility (1/GPa) = 0.10954080
#
# Stress axis : x y z
#
# Youngs Moduli (GPa) = 53.10137 6.14795 162.57735
#
# Poissons Ratio (x) = 0.20851 0.23648
# Poissons Ratio (y) = 1.80097 0.59806
# Poissons Ratio (z) = 0.07724 0.02262
#
# Static dielectric constant tensor:
#      x y z
#    x 2.055970 0.000000 0.021340 
#    y 0.000000 2.108510 0.000000 
#    z 0.021340 0.000000 2.178350 
# 
# From -- ./inp_files/13143.got.cif
#   From: 2010.05.17/outbox.cif.g08.bks.cpg/sg12_7_cif.got.tgz:13143.got - 2010.06.03 13:09:07.
