data_PCOD9192116
_publ_section_title
;
Structure prediction by ZEFSAII (Michael W. Deem and Ramdas Pophale) SiO2 
 PCOD9192116
Probable space group: C 2/M
;
_chemical_formula_sum "Si O2"
_cell_formula_units_Z 64
_cell_length_a 14.464004
_cell_length_b 8.753465
_cell_length_c 28.849947
_cell_angle_alpha 90.000000
_cell_angle_beta 87.802711
_cell_angle_gamma 90.000000
_cell_volume 3650.010485
_symmetry_space_group_name_H-M "C 2/M"
_symmetry_group_IT_number 12
_symmetry_cell_setting 'monoclinic'
loop_
_space_group_symop_operation_xyz
x,y,z
-x,y,-z
-x,-y,-z
x,-y,z
1/2+x,1/2+y,z
1/2-x,1/2+y,-z
1/2-x,1/2-y,-z
1/2+x,1/2-y,z
loop_
_atom_site_type_symbol
_atom_site_label
_atom_site_fract_x
_atom_site_fract_y
_atom_site_fract_z
Si Si1 0.751672 0.683219 0.948447
Si Si2 0.249786 0.182183 0.698658
Si Si3 0.099286 0.684517 0.380600
Si Si4 0.237956 0.182565 0.199916
Si Si5 0.891018 0.316231 0.121143
Si Si6 0.596111 0.683987 0.122776
Si Si7 0.737685 0.682876 0.449350
Si Si8 0.111445 0.684019 0.630383
O O1 0.752108 0.500000 0.949152
O O2 0.663631 0.744364 0.921162
O O3 0.841313 0.745625 0.919260
O O4 0.750000 0.750000 0.000000
O O5 0.336498 0.228456 0.664398
O O6 0.261193 0.239462 0.750484
O O7 0.159420 0.249287 0.675162
O O8 0.244493 0.000000 0.698249
O O9 0.101106 0.500000 0.384516
O O10 0.147025 0.754470 0.425025
O O11 0.993858 0.733556 0.375116
O O12 0.328345 0.220856 0.167414
O O13 0.149947 0.222950 0.169486
O O14 0.237202 0.000000 0.206379
O O15 0.892943 0.500000 0.116283
O O16 0.993366 0.249966 0.123605
O O17 0.595448 0.500000 0.118424
O O18 0.734301 0.500000 0.451591
O O19 0.750000 0.750000 0.500000
O O20 0.823672 0.727584 0.414358
O O21 0.112548 0.500000 0.633777
#
# Coordination Sequence:
#
# PCOD9192116 Si02
#       8
#     8   8   8   8   8   8   8   8
#     4  11  22  38  59  83 112 146 183 226 272 323
#     4  10  20  33  53  79 105 133 172 219 262 304
#     4   9  19  36  54  74 101 134 172 214 255 305
#     4   9  20  37  55  76 109 145 177 215 263 320
#     4  10  21  38  58  82 110 144 184 226 271 320
#     4  10  21  38  58  83 112 144 182 226 274 324
#     4  10  20  34  53  76 102 134 169 210 257 309
#     4   9  19  36  55  73 100 138 174 208 258 315
#
# _framework density 17.534196000000001
#
# number of rings (size 3 to 8) (size 9 to 14) (size 15 to 20)
#    0.000    2.250    0.000    3.375    0.000    6.500 
#    0.000    8.750    0.000    0.000    0.000    0.000 
#    0.000    0.000    0.000    0.000    0.000    0.000 
#
# Total GULP energy -178638.719450 kJ/mol
# GULP energy per Si atom -5582.459983 kJ/mol
# Density = 1.749429 g / cm^3
# Si number density = 17.534196 Si / 1000 Ang^3
#
#
#
# Elastic Constant Matrix: (Units=GPa)
#
#
# Indices 1 2 3 4 5 6 
#
# 1 168.5013 51.1539 74.4537 0.0000 18.1874 0.0000
# 2 51.1539 62.2877 54.8574 0.0000 6.6758 0.0000
# 3 74.4537 54.8574 156.3173 0.0000 17.0458 0.0000
# 4 0.0000 0.0000 0.0000 35.8588 0.0000 3.4329
# 5 18.1874 6.6758 17.0458 0.0000 9.0122 0.0000
# 6 0.0000 0.0000 0.0000 3.4329 0.0000 28.9332
#
#
#
# Elastic Compliance Matrix: (Units=1/GPa)
#
#
# Indices 1 2 3 4 5 6 
#
# 1 0.009487 -0.005310 -0.001255 0.000000 -0.012838 0.000000
# 2 -0.005310 0.026244 -0.007218 0.000000 0.004928 0.000000
# 3 -0.001255 -0.007218 0.010922 0.000000 -0.012777 0.000000
# 4 0.000000 0.000000 0.000000 0.028208 0.000000 -0.003347
# 5 -0.012838 0.004928 -0.012777 0.000000 0.157384 0.000000
# 6 0.000000 0.000000 0.000000 -0.003347 0.000000 0.034960
#
#
# Mechanical properties :
#
#
# Convention : Reuss Voigt Hill
#
# Bulk Modulus (GPa) = 52.39447 83.11513 67.75480
# Shear Modulus (GPa) = 16.60395 28.53692 22.57044
#
# Velocity S-wave (km/s) = 3.08059 4.03861 3.59168
# Velocity P-wave (km/s) = 6.52683 8.32176 7.47835
#
# Compressibility (1/GPa) = 0.01908598
#
# Stress axis : x y z
#
# Youngs Moduli (GPa) = 105.40791 38.10353 91.56128
#
# Poissons Ratio (x) = 0.20232 0.11494
# Poissons Ratio (y) = 0.55968 0.66093
# Poissons Ratio (z) = 0.13232 0.27505
#
# Static dielectric constant tensor:
#      x y z
#    x 1.582530 0.000000 -0.008470 
#    y 0.000000 1.587070 0.000000 
#    z -0.008470 0.000000 1.568000 
# 
# From -- ./inp_files/338715.got.cif
#   From: 2010.05.17/outbox.cif.g08.bks.cpg/sg12_170_cif.got.tgz:338715.got - 2010.06.03 13:09:07.
