data_PCOD9192213
_publ_section_title
;
Structure prediction by ZEFSAII (Michael W. Deem and Ramdas Pophale) SiO2 
 PCOD9192213
Probable space group: C 2/M
;
_chemical_formula_sum "Si O2"
_cell_formula_units_Z 58
_cell_length_a 23.725460
_cell_length_b 12.572777
_cell_length_c 11.344758
_cell_angle_alpha 90.000000
_cell_angle_beta 79.971277
_cell_angle_gamma 90.000000
_cell_volume 3332.376811
_symmetry_space_group_name_H-M "C 2/M"
_symmetry_group_IT_number 12
_symmetry_cell_setting 'monoclinic'
loop_
_space_group_symop_operation_xyz
x,y,z
-x,y,-z
-x,-y,-z
x,-y,z
1/2+x,1/2+y,z
1/2-x,1/2+y,-z
1/2-x,1/2-y,-z
1/2+x,1/2-y,z
loop_
_atom_site_type_symbol
_atom_site_label
_atom_site_fract_x
_atom_site_fract_y
_atom_site_fract_z
Si Si1 0.320418 0.874376 0.680160
Si Si2 0.953901 0.375752 0.229889
Si Si3 0.310712 0.627386 0.251650
Si Si4 0.924817 0.275681 0.788439
Si Si5 0.437913 0.381652 0.580903
Si Si6 0.865288 0.268185 0.437342
Si Si7 0.413593 0.301252 0.058370
Si Si8 0.000000 0.000000 0.000000
O O1 0.256141 0.851130 0.746174
O O2 0.369270 0.822989 0.744027
O O3 0.327397 0.834687 0.542913
O O4 0.328969 0.000000 0.679252
O O5 0.946094 0.500000 0.203338
O O6 0.911015 0.341565 0.351065
O O7 0.938526 0.293847 0.130515
O O8 0.020229 0.353181 0.237260
O O9 0.317677 0.500000 0.269718
O O10 0.330810 0.697384 0.356198
O O11 0.351902 0.664995 0.131344
O O12 0.942106 0.172122 0.706563
O O13 0.912225 0.241389 0.925909
O O14 0.500000 0.385545 0.500000
O O15 0.414415 0.500000 0.600072
O O16 0.399993 0.311645 0.508393
O O17 0.453518 0.405133 0.050962
#
# Coordination Sequence:
#
# PCOD9192213 Si02
#       8
#     8   8   8   8   8   8   8   2
#     4  10  22  38  58  81 112 157 198 236 283 338
#     4  11  22  37  58  87 118 152 191 233 289 345
#     4  10  21  38  60  84 112 151 195 241 287 343
#     4  11  22  37  55  85 116 155 188 235 287 340
#     4  10  20  33  53  83 118 148 186 235 296 355
#     4  10  20  37  57  85 114 150 192 242 293 339
#     4  11  24  38  62  89 118 151 187 242 295 346
#     4  12  20  40  62  92 114 148 188 240 298 358
#
# _framework density 17.404993999999999
#
# number of rings (size 3 to 8) (size 9 to 14) (size 15 to 20)
#    0.000    1.517    3.448    1.655    0.966    2.207 
#    2.483    2.069    0.000    7.448    0.000    0.000 
#    0.000    0.000    0.000    0.000    0.000    0.000 
#
# Total GULP energy -161570.173243 kJ/mol
# GULP energy per Si atom -5571.385284 kJ/mol
# Density = 1.736538 g / cm^3
# Si number density = 17.404994 Si / 1000 Ang^3
#
#
#
# Elastic Constant Matrix: (Units=GPa)
#
#
# Indices 1 2 3 4 5 6 
#
# 1 102.8412 49.3446 53.5834 0.0000 -22.7695 0.0000
# 2 49.3446 129.4191 49.2591 0.0000 -9.2364 0.0000
# 3 53.5834 49.2591 111.1722 0.0000 -16.1353 0.0000
# 4 0.0000 0.0000 0.0000 21.2162 0.0000 -1.2434
# 5 -22.7695 -9.2364 -16.1353 0.0000 26.2985 0.0000
# 6 0.0000 0.0000 0.0000 -1.2434 0.0000 19.5973
#
#
#
# Elastic Compliance Matrix: (Units=1/GPa)
#
#
# Indices 1 2 3 4 5 6 
#
# 1 0.016094 -0.003640 -0.004728 0.000000 0.009755 0.000000
# 2 -0.003640 0.010133 -0.002938 0.000000 -0.001395 0.000000
# 3 -0.004728 -0.002938 0.012988 0.000000 0.002843 0.000000
# 4 0.000000 0.000000 0.000000 0.047310 0.000000 0.003002
# 5 0.009755 -0.001395 0.002843 0.000000 0.047725 0.000000
# 6 0.000000 0.000000 0.000000 0.003002 0.000000 0.051218
#
#
# Mechanical properties :
#
#
# Convention : Reuss Voigt Hill
#
# Bulk Modulus (GPa) = 60.23146 71.97851 66.10498
# Shear Modulus (GPa) = 23.40656 26.17209 24.78932
#
# Velocity S-wave (km/s) = 3.67116 3.88198 3.77804
# Velocity P-wave (km/s) = 7.25609 7.84461 7.55608
#
# Compressibility (1/GPa) = 0.01660262
#
# Stress axis : x y z
#
# Youngs Moduli (GPa) = 62.13643 98.68287 76.99172
#
# Poissons Ratio (x) = 0.35924 0.36403
# Poissons Ratio (y) = 0.22620 0.22620
# Poissons Ratio (z) = 0.29379 0.28993
#
# Static dielectric constant tensor:
#      x y z
#    x 1.586430 0.000000 -0.011550 
#    y 0.000000 1.578440 0.000000 
#    z -0.011550 0.000000 1.590970 
# 
# From -- ./inp_files/174561.got.cif
#   From: 2010.05.17/outbox.cif.g08.bks.cpg/sg12_88_cif.got.tgz:174561.got - 2010.06.03 13:09:07.
