data_PCOD9192119
_publ_section_title
;
Structure prediction by ZEFSAII (Michael W. Deem and Ramdas Pophale) SiO2 
 PCOD9192119
Probable space group: C 2/M
;
_chemical_formula_sum "Si O2"
_cell_formula_units_Z 56
_cell_length_a 31.710605
_cell_length_b 7.716841
_cell_length_c 21.175114
_cell_angle_alpha 90.000000
_cell_angle_beta 150.620241
_cell_angle_gamma 90.000000
_cell_volume 2542.106807
_symmetry_space_group_name_H-M "C 2/M"
_symmetry_group_IT_number 12
_symmetry_cell_setting 'monoclinic'
loop_
_space_group_symop_operation_xyz
x,y,z
-x,y,-z
-x,-y,-z
x,-y,z
1/2+x,1/2+y,z
1/2-x,1/2+y,-z
1/2-x,1/2-y,-z
1/2+x,1/2-y,z
loop_
_atom_site_type_symbol
_atom_site_label
_atom_site_fract_x
_atom_site_fract_y
_atom_site_fract_z
Si Si1 0.367687 0.699486 0.350843
Si Si2 0.389924 0.199579 0.656534
Si Si3 0.968910 0.300364 0.361979
Si Si4 0.341996 0.207895 0.091263
Si Si5 0.921771 0.287674 0.067988
Si Si6 0.776297 0.795117 0.624745
Si Si7 0.695255 0.789992 0.194556
O O1 0.352721 0.500000 0.312388
O O2 0.402471 0.794248 0.334119
O O3 0.445543 0.706863 0.502692
O O4 0.281545 0.767508 0.270587
O O5 0.483919 0.276725 0.789615
O O6 0.320387 0.272259 0.516223
O O7 0.340670 0.207673 0.659263
O O8 0.404562 0.000000 0.656535
O O9 0.992931 0.500000 0.381305
O O10 0.918777 0.226738 0.236473
O O11 0.356397 0.264084 0.038268
O O12 0.349445 0.000000 0.101733
O O13 0.250000 0.250000 0.000000
O O14 0.924570 0.500000 0.069716
O O15 0.885608 0.232849 0.953087
O O16 0.802718 0.770183 0.731071
O O17 0.776754 0.000000 0.610311
O O18 0.696861 0.000000 0.197955
#
# Coordination Sequence:
#
# PCOD9192119 Si02
#       7
#     8   8   8   8   8   8   8
#     4  10  20  34  53  77 109 146 185 230 278 330
#     4   9  19  38  62  83 107 144 187 226 269 330
#     4  10  20  33  53  79 107 144 186 235 282 329
#     4  10  21  36  56  80 110 147 189 232 278 327
#     4   9  19  37  59  81 107 147 194 229 266 327
#     4  10  21  36  59  86 114 144 175 227 286 332
#     4  10  21  36  56  81 109 146 187 228 271 327
#
# _framework density 22.028972
#
# number of rings (size 3 to 8) (size 9 to 14) (size 15 to 20)
#    0.000    2.286    0.000    3.000    2.000    4.571 
#    0.000    5.000    0.000    0.000    0.000    0.000 
#    0.000    0.000    0.000    0.000    0.000    0.000 
#
# Total GULP energy -156396.188276 kJ/mol
# GULP energy per Si atom -5585.578153 kJ/mol
# Density = 2.197883 g / cm^3
# Si number density = 22.028972 Si / 1000 Ang^3
#
#
#
# Elastic Constant Matrix: (Units=GPa)
#
#
# Indices 1 2 3 4 5 6 
#
# 1 63.3881 -7.6442 54.2092 0.0000 -18.7417 0.0000
# 2 -7.6442 40.6537 -5.4070 0.0000 0.0837 0.0000
# 3 54.2092 -5.4070 113.8189 0.0000 -18.1678 0.0000
# 4 0.0000 0.0000 0.0000 12.1263 0.0000 -2.6559
# 5 -18.7417 0.0837 -18.1678 0.0000 39.7729 0.0000
# 6 0.0000 0.0000 0.0000 -2.6559 0.0000 14.1446
#
#
#
# Elastic Compliance Matrix: (Units=1/GPa)
#
#
# Indices 1 2 3 4 5 6 
#
# 1 0.029310 0.003834 -0.012484 0.000000 0.008100 0.000000
# 2 0.003834 0.025266 -0.000373 0.000000 0.001583 0.000000
# 3 -0.012484 -0.000373 0.014859 0.000000 0.000905 0.000000
# 4 0.000000 0.000000 0.000000 0.086002 0.000000 0.016148
# 5 0.008100 0.001583 0.000905 0.000000 0.029370 0.000000
# 6 0.000000 0.000000 0.000000 0.016148 0.000000 0.073730
#
#
# Mechanical properties :
#
#
# Convention : Reuss Voigt Hill
#
# Bulk Modulus (GPa) = 19.45994 33.35298 26.40646
# Shear Modulus (GPa) = 17.02341 24.98895 21.00618
#
# Velocity S-wave (km/s) = 2.78290 3.37169 3.09134
# Velocity P-wave (km/s) = 4.37938 5.50737 4.97544
#
# Compressibility (1/GPa) = 0.05138762
#
# Stress axis : x y z
#
# Youngs Moduli (GPa) = 34.11817 39.57878 67.30063
#
# Poissons Ratio (x) = -0.15175 0.84021
# Poissons Ratio (y) = -0.13081 0.02511
# Poissons Ratio (z) = 0.42595 0.01477
#
# Static dielectric constant tensor:
#      x y z
#    x 1.765330 0.000000 -0.002580 
#    y 0.000000 1.905360 0.000000 
#    z -0.002580 0.000000 1.818750 
# 
# From -- ./inp_files/329705.got.cif
#   From: 2010.05.17/outbox.cif.g08.bks.cpg/sg12_165_cif.got.tgz:329705.got - 2010.06.03 13:09:07.
