data_PCOD9192829
_publ_section_title
;
Structure prediction by ZEFSAII (Michael W. Deem and Ramdas Pophale) SiO2 
 PCOD9192829
Probable space group: C 2/M
;
_chemical_formula_sum "Si O2"
_cell_formula_units_Z 56
_cell_length_a 19.616507
_cell_length_b 8.713180
_cell_length_c 25.355378
_cell_angle_alpha 90.000000
_cell_angle_beta 47.885819
_cell_angle_gamma 90.000000
_cell_volume 3214.852624
_symmetry_space_group_name_H-M "C 2/M"
_symmetry_group_IT_number 12
_symmetry_cell_setting 'monoclinic'
loop_
_space_group_symop_operation_xyz
x,y,z
-x,y,-z
-x,-y,-z
x,-y,z
1/2+x,1/2+y,z
1/2-x,1/2+y,-z
1/2-x,1/2-y,-z
1/2+x,1/2-y,z
loop_
_atom_site_type_symbol
_atom_site_label
_atom_site_fract_x
_atom_site_fract_y
_atom_site_fract_z
Si Si1 0.798234 0.819883 0.555484
Si Si2 0.350943 0.684289 0.934350
Si Si3 0.084614 0.685771 0.994060
Si Si4 0.413772 0.818392 0.580950
Si Si5 0.290049 0.313891 0.854293
Si Si6 0.082512 0.183683 0.304626
Si Si7 0.390509 0.181037 0.404345
O O1 0.825743 0.723633 0.591918
O O2 0.693328 0.797924 0.592326
O O3 0.859709 0.763449 0.474342
O O4 0.814864 0.000000 0.555957
O O5 0.351342 0.500000 0.938344
O O6 0.356339 0.726239 0.869515
O O7 0.250000 0.750000 0.000000
O O8 0.417644 0.751915 0.944623
O O9 0.084577 0.500000 0.996514
O O10 0.184652 0.736377 0.919190
O O11 0.000000 0.732276 0.000000
O O12 0.500000 0.765893 0.500000
O O13 0.409042 0.739149 0.639783
O O14 0.423214 0.000000 0.583689
O O15 0.286107 0.500000 0.855497
O O16 0.335775 0.262424 0.776138
O O17 0.985466 0.249989 0.335489
O O18 0.079748 0.000000 0.304925
O O19 0.400403 0.000000 0.410163
#
# Coordination Sequence:
#
# PCOD9192829 Si02
#       7
#     8   8   8   8   8   8   8
#     4  10  20  34  54  75  96 127 168 211 258 313
#     4   9  16  30  52  76 104 134 170 210 249 297
#     4   9  17  32  55  81 109 140 173 210 254 301
#     4  11  22  35  52  75 104 134 171 224 268 303
#     4   8  17  33  51  75 105 137 173 215 256 302
#     4  11  21  34  54  75 102 140 177 211 259 318
#     4  10  20  34  51  75 102 126 162 214 261 303
#
# _framework density 17.419149999999998
#
# number of rings (size 3 to 8) (size 9 to 14) (size 15 to 20)
#    0.000    2.286    1.429    3.000    0.000    2.571 
#    0.000    8.571    0.000    5.143    0.000    0.000 
#    0.000    0.000    0.000    0.000    0.000    0.000 
#
# Total GULP energy -156050.618649 kJ/mol
# GULP energy per Si atom -5573.236380 kJ/mol
# Density = 1.737950 g / cm^3
# Si number density = 17.419150 Si / 1000 Ang^3
#
#
#
# Elastic Constant Matrix: (Units=GPa)
#
#
# Indices 1 2 3 4 5 6 
#
# 1 108.8148 19.8966 41.6376 0.0000 6.5098 0.0003
# 2 19.8966 11.0324 11.9505 0.0000 -3.5341 0.0004
# 3 41.6376 11.9505 92.6582 0.0000 4.4067 0.0000
# 4 0.0000 0.0000 0.0000 16.9211 0.0000 2.4855
# 5 6.5098 -3.5341 4.4067 0.0000 18.9148 0.0000
# 6 0.0003 0.0004 0.0000 2.4855 0.0000 29.7244
#
#
#
# Elastic Compliance Matrix: (Units=1/GPa)
#
#
# Indices 1 2 3 4 5 6 
#
# 1 0.016401 -0.029628 -0.003051 0.000000 -0.010470 0.000000
# 2 -0.029628 0.169916 -0.010715 0.000000 0.044440 -0.000002
# 3 -0.003051 -0.010715 0.013743 0.000000 -0.004154 0.000000
# 4 0.000000 0.000000 0.000000 0.059833 0.000000 -0.005003
# 5 -0.010470 0.044440 -0.004154 0.000000 0.065743 -0.000001
# 6 0.000000 -0.000002 0.000000 -0.005003 -0.000001 0.034061
#
#
# Mechanical properties :
#
#
# Convention : Reuss Voigt Hill
#
# Bulk Modulus (GPa) = 8.82816 39.94164 24.38490
# Shear Modulus (GPa) = 10.32543 22.38010 16.35276
#
# Velocity S-wave (km/s) = 2.43731 3.58830 3.06728
# Velocity P-wave (km/s) = 3.60552 6.33619 5.15495
#
# Compressibility (1/GPa) = 0.11327383
#
# Stress axis : x y z
#
# Youngs Moduli (GPa) = 60.97150 5.88525 72.76529
#
# Poissons Ratio (x) = 0.17437 0.22201
# Poissons Ratio (y) = 1.80645 0.77964
# Poissons Ratio (z) = 0.18603 0.06306
#
# Static dielectric constant tensor:
#      x y z
#    x 1.624260 0.000000 0.005960 
#    y 0.000000 1.587880 0.000000 
#    z 0.005960 0.000000 1.593780 
# 
# From -- ./inp_files/345467.got.cif
#   From: 2010.05.17/outbox.cif.g08.bks.cpg/sg12_173_cif.got.tgz:345467.got - 2010.06.03 13:09:07.
