data_PCOD9192897
_publ_section_title
;
Structure prediction by ZEFSAII (Michael W. Deem and Ramdas Pophale) SiO2 
 PCOD9192897
Probable space group: C 2/M
;
_chemical_formula_sum "Si O2"
_cell_formula_units_Z 56
_cell_length_a 19.949251
_cell_length_b 8.720165
_cell_length_c 23.877824
_cell_angle_alpha 90.000000
_cell_angle_beta 51.273228
_cell_angle_gamma 90.000000
_cell_volume 3240.541384
_symmetry_space_group_name_H-M "C 2/M"
_symmetry_group_IT_number 12
_symmetry_cell_setting 'monoclinic'
loop_
_space_group_symop_operation_xyz
x,y,z
-x,y,-z
-x,-y,-z
x,-y,z
1/2+x,1/2+y,z
1/2-x,1/2+y,-z
1/2-x,1/2-y,-z
1/2+x,1/2-y,z
loop_
_atom_site_type_symbol
_atom_site_label
_atom_site_fract_x
_atom_site_fract_y
_atom_site_fract_z
Si Si1 0.580186 0.677378 0.001508
Si Si2 0.997639 0.186147 0.437827
Si Si3 0.039512 0.315284 0.847455
Si Si4 0.342730 0.315790 0.437295
Si Si5 0.386406 0.686010 0.724021
Si Si6 0.307644 0.184798 0.149692
Si Si7 0.460792 0.815524 0.281683
O O1 0.599423 0.500000 0.001397
O O2 0.657979 0.756398 0.927949
O O3 0.500000 0.687855 0.000000
O O4 0.544301 0.754647 0.076304
O O5 0.076766 0.231299 0.356327
O O6 0.000000 0.244240 0.500000
O O7 0.911103 0.228883 0.449944
O O8 0.998944 0.000000 0.439561
O O9 0.037685 0.500000 0.850127
O O10 0.123629 0.264879 0.838825
O O11 0.043500 0.267356 0.780876
O O12 0.340219 0.500000 0.435806
O O13 0.250000 0.250000 0.500000
O O14 0.382339 0.250465 0.359211
O O15 0.390394 0.500000 0.725215
O O16 0.288824 0.734797 0.785807
O O17 0.452612 0.753824 0.734439
O O18 0.308826 0.000000 0.148314
O O19 0.459185 0.000000 0.285161
#
# Coordination Sequence:
#
# PCOD9192897 Si02
#       7
#     8   8   8   8   8   8   8
#     4   9  17  29  47  72 100 127 157 200 253 296
#     4   8  15  29  50  73  95 123 161 201 237 279
#     4   9  18  32  51  74  97 127 167 204 239 285
#     4  10  20  34  53  75 100 130 163 201 244 289
#     4   9  18  32  50  72  98 129 161 197 245 292
#     4   9  17  31  51  72  96 127 166 207 241 285
#     4  10  20  34  52  73 100 132 163 198 241 290
#
# _framework density 17.281063
#
# number of rings (size 3 to 8) (size 9 to 14) (size 15 to 20)
#    0.000    2.857    0.000    2.143    0.000    4.571 
#    0.000    5.000    0.000   14.143    0.000    0.000 
#    0.000    0.000    0.000    0.000    0.000    0.000 
#
# Total GULP energy -156046.291801 kJ/mol
# GULP energy per Si atom -5573.081850 kJ/mol
# Density = 1.724173 g / cm^3
# Si number density = 17.281063 Si / 1000 Ang^3
#
#
#
# Elastic Constant Matrix: (Units=GPa)
#
#
# Indices 1 2 3 4 5 6 
#
# 1 73.0762 24.0776 106.7974 0.0000 -2.5762 0.0004
# 2 24.0776 23.7886 41.4740 0.0001 0.3848 0.0007
# 3 106.7974 41.4740 209.4980 0.0000 -2.4567 0.0000
# 4 0.0000 0.0001 0.0000 26.0196 0.0000 -0.5970
# 5 -2.5762 0.3848 -2.4567 0.0000 36.6342 0.0000
# 6 0.0004 0.0007 0.0000 -0.5970 0.0000 21.2717
#
#
#
# Elastic Compliance Matrix: (Units=1/GPa)
#
#
# Indices 1 2 3 4 5 6 
#
# 1 0.055495 -0.010582 -0.026169 0.000000 0.002259 -0.000001
# 2 -0.010582 0.066296 -0.007753 0.000000 -0.001960 -0.000002
# 3 -0.026169 -0.007753 0.019643 0.000000 -0.000442 0.000001
# 4 0.000000 0.000000 0.000000 0.038457 0.000000 0.001079
# 5 0.002259 -0.001960 -0.000442 0.000000 0.027447 0.000000
# 6 -0.000001 -0.000002 0.000001 0.001079 0.000000 0.047041
#
#
# Mechanical properties :
#
#
# Convention : Reuss Voigt Hill
#
# Bulk Modulus (GPa) = 19.07426 72.34009 45.70718
# Shear Modulus (GPa) = 13.85568 25.71935 19.78752
#
# Velocity S-wave (km/s) = 2.83465 3.86203 3.38752
# Velocity P-wave (km/s) = 4.66640 7.86377 6.46584
#
# Compressibility (1/GPa) = 0.05242666
#
# Stress axis : x y z
#
# Youngs Moduli (GPa) = 18.01963 15.08386 50.90816
#
# Poissons Ratio (x) = 0.15962 1.33220
# Poissons Ratio (y) = 0.19069 0.39469
# Poissons Ratio (z) = 0.47155 0.11694
#
# Static dielectric constant tensor:
#      x y z
#    x 1.573550 0.000000 0.004340 
#    y 0.000000 1.586260 0.000000 
#    z 0.004340 0.000000 1.580460 
# 
# From -- ./inp_files/319652.got.cif
#   From: 2010.05.17/outbox.cif.g08.bks.cpg/sg12_160_cif.got.tgz:319652.got - 2010.06.03 13:09:07.
