data_PCOD9192419
_publ_section_title
;
Structure prediction by ZEFSAII (Michael W. Deem and Ramdas Pophale) SiO2 
 PCOD9192419
Probable space group: C 2/M
;
_chemical_formula_sum "Si O2"
_cell_formula_units_Z 56
_cell_length_a 25.896183
_cell_length_b 15.533212
_cell_length_c 9.270887
_cell_angle_alpha 90.000000
_cell_angle_beta 45.731091
_cell_angle_gamma 90.000000
_cell_volume 2670.390488
_symmetry_space_group_name_H-M "C 2/M"
_symmetry_group_IT_number 12
_symmetry_cell_setting 'monoclinic'
loop_
_space_group_symop_operation_xyz
x,y,z
-x,y,-z
-x,-y,-z
x,-y,z
1/2+x,1/2+y,z
1/2-x,1/2+y,-z
1/2-x,1/2-y,-z
1/2+x,1/2-y,z
loop_
_atom_site_type_symbol
_atom_site_label
_atom_site_fract_x
_atom_site_fract_y
_atom_site_fract_z
Si Si1 0.421538 0.841952 0.472643
Si Si2 0.124375 0.839462 0.561981
Si Si3 0.991510 0.097192 0.672207
Si Si4 0.265611 0.100299 0.800162
Si Si5 0.632414 0.394341 0.872753
Si Si6 0.075070 0.397696 0.208072
Si Si7 0.266168 0.104042 0.130996
O O1 0.408500 0.750233 0.427358
O O2 0.347172 0.891650 0.585252
O O3 0.499689 0.878762 0.277014
O O4 0.423545 0.846133 0.643633
O O5 0.124411 0.854134 0.731608
O O6 0.204296 0.852170 0.344225
O O7 0.068803 0.905358 0.596490
O O8 0.000000 0.140879 0.500000
O O9 0.964310 0.000000 0.696775
O O10 0.932989 0.134097 0.895800
O O11 0.206156 0.134623 0.806408
O O12 0.248497 0.000000 0.847501
O O13 0.259587 0.133595 0.976243
O O14 0.630961 0.500000 0.859575
O O15 0.076462 0.500000 0.243495
O O16 0.151143 0.378807 0.983500
O O17 0.256005 0.000000 0.157421
#
# Coordination Sequence:
#
# PCOD9192419 Si02
#       7
#     8   8   8   8   8   8   8
#     4  10  20  33  55  87 120 151 194 247 312 350
#     4  12  23  33  53  88 126 158 182 238 309 369
#     4  10  21  38  61  85 112 154 205 247 280 343
#     4   9  18  36  60  82 108 150 206 251 283 339
#     4  10  21  38  59  82 115 163 203 232 283 359
#     4   9  18  37  63  87 115 157 213 257 290 345
#     4   9  18  35  60  88 115 152 201 248 289 347
#
# _framework density 20.970715999999999
#
# number of rings (size 3 to 8) (size 9 to 14) (size 15 to 20)
#    0.000    2.143    0.000    5.143    2.000    6.286 
#    2.571    0.000    3.143    0.000    0.000    4.000 
#    0.000    0.000    0.000    0.000    0.000    1.000 
#
# Total GULP energy -156197.233434 kJ/mol
# GULP energy per Si atom -5578.472623 kJ/mol
# Density = 2.092299 g / cm^3
# Si number density = 20.970716 Si / 1000 Ang^3
#
#
#
# Elastic Constant Matrix: (Units=GPa)
#
#
# Indices 1 2 3 4 5 6 
#
# 1 83.4529 12.2204 143.2431 0.0000 -15.4361 0.0000
# 2 12.2204 46.6655 43.1421 0.0000 4.3915 0.0000
# 3 143.2431 43.1421 126.2666 0.0000 -17.4137 0.0000
# 4 0.0000 0.0000 0.0000 -83.4255 0.0000 -54.2959
# 5 -15.4361 4.3915 -17.4137 0.0000 34.9281 0.0000
# 6 0.0000 0.0000 0.0000 -54.2959 0.0000 -1.2654
#
#
#
# Elastic Compliance Matrix: (Units=1/GPa)
#
#
# Indices 1 2 3 4 5 6 
#
# 1 -0.007675 -0.010209 0.012783 0.000000 0.004265 0.000000
# 2 -0.010209 0.021338 0.003542 0.000000 -0.005429 0.000000
# 3 0.012783 0.003542 -0.007597 0.000000 0.001416 0.000000
# 4 0.000000 0.000000 0.000000 0.000445 0.000000 -0.019102
# 5 0.004265 -0.005429 0.001416 0.000000 0.031904 0.000000
# 6 0.000000 0.000000 0.000000 -0.019102 0.000000 0.029350
#
#
# Mechanical properties :
#
#
# Convention : Reuss Voigt Hill
#
# Bulk Modulus (GPa) = 54.64738 72.62181 63.63459
# Shear Modulus (GPa) = 81.12527 -6.10058 37.51234
#
# Velocity S-wave (km/s) = 6.22648 -1.70746 4.23401
# Velocity P-wave (km/s) = 8.82086 5.55140 7.36972
#
# Compressibility (1/GPa) = 0.01829914
#
# Stress axis : x y z
#
# Youngs Moduli (GPa) = -130.29959 46.86369 -131.63302
#
# Poissons Ratio (x) = 0.47845 1.68266
# Poissons Ratio (y) = -1.33027 0.46631
# Poissons Ratio (z) = 1.66561 -0.16601
#
# Static dielectric constant tensor:
#      x y z
#    x 1.743950 0.000000 -0.029830 
#    y 0.000000 1.857210 0.000000 
#    z -0.029830 0.000000 1.745680 
# 
# From -- ./inp_files/105951.got.cif
#   From: 2010.05.17/outbox.cif.g08.bks.cpg/sg12_53_cif.got.tgz:105951.got - 2010.06.03 13:09:07.
