data_PCOD9192723
_publ_section_title
;
Structure prediction by ZEFSAII (Michael W. Deem and Ramdas Pophale) SiO2 
 PCOD9192723
Probable space group: C 2/M
;
_chemical_formula_sum "Si O2"
_cell_formula_units_Z 56
_cell_length_a 9.776307
_cell_length_b 28.218351
_cell_length_c 11.947508
_cell_angle_alpha 90.000000
_cell_angle_beta 117.153149
_cell_angle_gamma 90.000000
_cell_volume 2932.724302
_symmetry_space_group_name_H-M "C 2/M"
_symmetry_group_IT_number 12
_symmetry_cell_setting 'monoclinic'
loop_
_space_group_symop_operation_xyz
x,y,z
-x,y,-z
-x,-y,-z
x,-y,z
1/2+x,1/2+y,z
1/2-x,1/2+y,-z
1/2-x,1/2-y,-z
1/2+x,1/2-y,z
loop_
_atom_site_type_symbol
_atom_site_label
_atom_site_fract_x
_atom_site_fract_y
_atom_site_fract_z
Si Si1 0.354289 0.944761 0.028499
Si Si2 0.119704 0.118490 0.810662
Si Si3 0.247153 0.343394 0.358185
Si Si4 0.715824 0.358431 0.363052
Si Si5 0.174329 0.740396 0.589682
Si Si6 0.833435 0.201231 0.996353
Si Si7 0.897033 0.366064 0.226872
O O1 0.389319 0.913377 0.150288
O O2 0.332492 0.000000 0.044726
O O3 0.500000 0.939480 0.000000
O O4 0.206659 0.922077 0.911812
O O5 0.186696 0.121624 0.710320
O O6 0.149875 0.167502 0.888727
O O7 0.936835 0.115378 0.733268
O O8 0.279801 0.357248 0.499947
O O9 0.319406 0.292005 0.353429
O O10 0.063708 0.342267 0.280349
O O11 0.724502 0.302846 0.329349
O O12 0.855613 0.377497 0.340178
O O13 0.250000 0.750000 0.500000
O O14 0.000000 0.724871 0.500000
O O15 0.750000 0.250000 0.000000
O O16 0.724408 0.170122 0.874304
O O17 0.000000 0.208838 0.000000
#
# Coordination Sequence:
#
# PCOD9192723 Si02
#       7
#     8   8   8   8   8   8   8
#     4  10  22  45  71  93 116 154 212 269 319 387
#     4  11  23  39  63  91 119 162 208 255 318 368
#     4  11  22  36  61  91 126 171 215 245 296 376
#     4  11  22  38  57  87 136 165 201 256 299 365
#     4  10  20  34  50  79 120 176 214 234 272 339
#     4  11  26  40  56  84 125 170 210 264 307 352
#     4  11  23  39  63  91 121 163 209 255 324 366
#
# _framework density 19.094874000000001
#
# number of rings (size 3 to 8) (size 9 to 14) (size 15 to 20)
#    0.000    1.286    2.857    4.286    6.000    0.000 
#    0.000    1.429    0.000    5.143    0.000    0.000 
#    0.000    0.000    0.000    0.000    0.000    0.000 
#
# Total GULP energy -156189.145728 kJ/mol
# GULP energy per Si atom -5578.183776 kJ/mol
# Density = 1.905141 g / cm^3
# Si number density = 19.094874 Si / 1000 Ang^3
#
#
#
# Elastic Constant Matrix: (Units=GPa)
#
#
# Indices 1 2 3 4 5 6 
#
# 1 91.7010 23.4354 19.7250 0.0000 7.9162 0.0000
# 2 23.4354 99.8990 37.3222 0.0000 -2.8692 0.0000
# 3 19.7250 37.3222 76.1916 0.0000 -5.6058 0.0000
# 4 0.0000 0.0000 0.0000 15.5061 0.0000 2.7403
# 5 7.9162 -2.8692 -5.6058 0.0000 48.8095 0.0000
# 6 0.0000 0.0000 0.0000 2.7403 0.0000 21.0438
#
#
#
# Elastic Compliance Matrix: (Units=1/GPa)
#
#
# Indices 1 2 3 4 5 6 
#
# 1 0.012129 -0.002050 -0.002309 0.000000 -0.002353 0.000000
# 2 -0.002050 0.012599 -0.005609 0.000000 0.000429 0.000000
# 3 -0.002309 -0.005609 0.016614 0.000000 0.001953 0.000000
# 4 0.000000 0.000000 0.000000 0.066010 0.000000 -0.008596
# 5 -0.002353 0.000429 0.001953 0.000000 0.021119 0.000000
# 6 0.000000 0.000000 0.000000 -0.008596 0.000000 0.048639
#
#
# Mechanical properties :
#
#
# Convention : Reuss Voigt Hill
#
# Bulk Modulus (GPa) = 46.71800 47.63964 47.17882
# Shear Modulus (GPa) = 24.48807 29.55915 27.02361
#
# Velocity S-wave (km/s) = 3.58501 3.93875 3.76603
# Velocity P-wave (km/s) = 6.45412 6.75930 6.60847
#
# Compressibility (1/GPa) = 0.02140503
#
# Stress axis : x y z
#
# Youngs Moduli (GPa) = 82.44892 79.37130 60.19077
#
# Poissons Ratio (x) = 0.16274 0.13896
# Poissons Ratio (y) = 0.16905 0.33762
# Poissons Ratio (z) = 0.19035 0.44521
#
# Static dielectric constant tensor:
#      x y z
#    x 1.675170 0.000000 -0.009710 
#    y 0.000000 1.682870 0.000000 
#    z -0.009710 0.000000 1.696930 
# 
# From -- ./inp_files/125162.got.cif
#   From: 2010.05.17/outbox.cif.g08.bks.cpg/sg12_63_cif.got.tgz:125162.got - 2010.06.03 13:09:07.
