data_PCOD9192874
_publ_section_title
;
Structure prediction by ZEFSAII (Michael W. Deem and Ramdas Pophale) SiO2 
 PCOD9192874
Probable space group: C 2/M
;
_chemical_formula_sum "Si O2"
_cell_formula_units_Z 64
_cell_length_a 21.659117
_cell_length_b 14.979817
_cell_length_c 19.567932
_cell_angle_alpha 90.000000
_cell_angle_beta 158.362239
_cell_angle_gamma 90.000000
_cell_volume 2341.041932
_symmetry_space_group_name_H-M "C 2/M"
_symmetry_group_IT_number 12
_symmetry_cell_setting 'monoclinic'
loop_
_space_group_symop_operation_xyz
x,y,z
-x,y,-z
-x,-y,-z
x,-y,z
1/2+x,1/2+y,z
1/2-x,1/2+y,-z
1/2-x,1/2-y,-z
1/2+x,1/2-y,z
loop_
_atom_site_type_symbol
_atom_site_label
_atom_site_fract_x
_atom_site_fract_y
_atom_site_fract_z
Si Si1 0.359302 0.107767 0.442114
Si Si2 0.108690 0.109225 0.811428
Si Si3 0.074513 0.605590 0.240500
Si Si4 0.177988 0.602817 0.849802
Si Si5 0.704423 0.391817 0.414782
Si Si6 0.353413 0.150004 0.899253
Si Si7 0.643252 0.641472 0.097700
Si Si8 0.381694 0.608016 0.459029
O O1 0.216252 0.137891 0.348818
O O2 0.690647 0.134730 0.684604
O O3 0.370999 0.000000 0.451381
O O4 0.525735 0.143035 0.650087
O O5 0.953586 0.131736 0.702539
O O6 0.041357 0.139617 0.668061
O O7 0.262281 0.141755 0.016706
O O8 0.119868 0.000000 0.820404
O O9 0.097381 0.500000 0.268957
O O10 0.131993 0.639364 0.373795
O O11 0.221048 0.637372 0.339732
O O12 0.896992 0.615515 0.019892
O O13 0.131410 0.500000 0.816845
O O14 0.325355 0.601195 0.944354
O O15 0.705742 0.500000 0.412257
O O16 0.386087 0.254265 0.940581
O O17 0.180640 0.133304 0.681114
O O18 0.500000 0.110917 0.000000
O O19 0.500000 0.602236 0.000000
O O20 0.391252 0.500000 0.468228
#
# Coordination Sequence:
#
# PCOD9192874 Si02
#       8
#     8   8   8   8   8   8   8   8
#     4  10  20  34  52  71  91 120 159 200 240 284
#     4   8  14  26  47  75 100 120 149 192 238 279
#     4   8  13  24  46  74 101 127 155 191 233 275
#     4  10  20  34  52  71  91 120 159 200 240 284
#     4   8  14  26  47  75 100 120 149 192 238 279
#     4   9  17  28  43  69 102 131 160 192 230 277
#     4  11  22  33  47  69  98 129 158 194 238 281
#     4   8  13  24  46  74 101 127 155 191 233 275
#
# _framework density 27.338253999999999
#
# number of rings (size 3 to 8) (size 9 to 14) (size 15 to 20)
#    0.000    3.000    0.000    3.375    0.000    4.500 
#    0.000    1.250    0.000   10.500    0.000    0.000 
#    0.000   10.000    0.000    0.000    0.000    0.000 
#
# Total GULP energy -178810.367718 kJ/mol
# GULP energy per Si atom -5587.823991 kJ/mol
# Density = 2.727603 g / cm^3
# Si number density = 27.338254 Si / 1000 Ang^3
#
#
#
# Elastic Constant Matrix: (Units=GPa)
#
#
# Indices 1 2 3 4 5 6 
#
# 1 142.8353 -6.1831 44.6958 -0.0037 -47.7730 -0.0037
# 2 -6.1831 74.1693 -8.8852 -0.0231 -6.4994 -0.0159
# 3 44.6958 -8.8852 187.3569 -0.0333 -37.2070 -0.0219
# 4 -0.0037 -0.0231 -0.0333 40.3118 -0.0227 -8.7761
# 5 -47.7730 -6.4994 -37.2070 -0.0227 63.3939 -0.0080
# 6 -0.0037 -0.0159 -0.0219 -8.7761 -0.0080 0.3413
#
#
#
# Elastic Compliance Matrix: (Units=1/GPa)
#
#
# Indices 1 2 3 4 5 6 
#
# 1 0.009631 0.001302 -0.000869 -0.000014 0.006881 -0.000085
# 2 0.001302 0.013964 0.000940 -0.000040 0.002964 -0.000232
# 3 -0.000869 0.000940 0.006201 -0.000025 0.003081 -0.000150
# 4 -0.000014 -0.000040 -0.000025 -0.005394 -0.000049 -0.138723
# 5 0.006881 0.002964 0.003081 -0.000049 0.023072 -0.000306
# 6 -0.000085 -0.000232 -0.000150 -0.138723 -0.000306 -0.637200
#
#
# Mechanical properties :
#
#
# Convention : Reuss Voigt Hill
#
# Bulk Modulus (GPa) = 30.73053 51.51295 41.12174
# Shear Modulus (GPa) = -8.59660 45.79166 18.59753
#
# Velocity S-wave (km/s) = -1.77521 4.09712 2.61104
# Velocity P-wave (km/s) = 2.65771 6.42383 4.91574
#
# Compressibility (1/GPa) = 0.03254093
#
# Stress axis : x y z
#
# Youngs Moduli (GPa) = 103.83297 71.61507 161.25938
#
# Poissons Ratio (x) = -0.09322 0.14019
# Poissons Ratio (y) = -0.13516 -0.15164
# Poissons Ratio (z) = 0.09027 -0.06734
#
# Static dielectric constant tensor:
#      x y z
#    x 2.166400 -0.000010 0.099560 
#    y -0.000010 2.003490 0.000000 
#    z 0.099560 0.000000 2.224300 
# 
# From -- ./inp_files/326209.got.cif
#   From: 2010.05.17/outbox.cif.g08.bks.cpg/sg12_164_cif.got.tgz:326209.got - 2010.06.03 13:09:07.
