data_PCOD9192688
_publ_section_title
;
Structure prediction by ZEFSAII (Michael W. Deem and Ramdas Pophale) SiO2 
 PCOD9192688
Probable space group: C 2/M
;
_chemical_formula_sum "Si O2"
_cell_formula_units_Z 64
_cell_length_a 29.693219
_cell_length_b 8.594021
_cell_length_c 16.237161
_cell_angle_alpha 90.000000
_cell_angle_beta 62.737739
_cell_angle_gamma 90.000000
_cell_volume 3683.206307
_symmetry_space_group_name_H-M "C 2/M"
_symmetry_group_IT_number 12
_symmetry_cell_setting 'monoclinic'
loop_
_space_group_symop_operation_xyz
x,y,z
-x,y,-z
-x,-y,-z
x,-y,z
1/2+x,1/2+y,z
1/2-x,1/2+y,-z
1/2-x,1/2-y,-z
1/2+x,1/2-y,z
loop_
_atom_site_type_symbol
_atom_site_label
_atom_site_fract_x
_atom_site_fract_y
_atom_site_fract_z
Si Si1 0.682252 0.314918 0.727070
Si Si2 0.209760 0.183688 0.362265
Si Si3 0.453257 0.314994 0.728600
Si Si4 0.338804 0.183412 0.433541
Si Si5 0.077677 0.189593 0.893796
Si Si6 0.445424 0.184650 0.432551
Si Si7 0.613783 0.814516 0.354490
Si Si8 0.475012 0.689605 0.894488
O O1 0.686919 0.500000 0.733563
O O2 0.734321 0.235302 0.710105
O O3 0.673300 0.276091 0.638632
O O4 0.632517 0.258445 0.817704
O O5 0.195671 0.265194 0.460797
O O6 0.166668 0.236179 0.334355
O O7 0.207464 0.000000 0.376191
O O8 0.445273 0.500000 0.735449
O O9 0.506385 0.276226 0.639894
O O10 0.409267 0.235441 0.712722
O O11 0.457936 0.258242 0.818887
O O12 0.396703 0.208611 0.414660
O O13 0.331511 0.000000 0.424589
O O14 0.032130 0.238557 0.870896
O O15 0.078025 0.000000 0.892339
O O16 0.061056 0.237047 0.999589
O O17 0.426365 0.229446 0.539722
O O18 0.457480 0.000000 0.423445
O O19 0.620030 0.000000 0.354528
O O20 0.475381 0.500000 0.892993
#
# Coordination Sequence:
#
# PCOD9192688 Si02
#       8
#     8   8   8   8   8   8   8   8
#     4  11  20  31  51  77 101 131 170 206 246 297
#     4  11  22  36  52  71  98 131 168 211 252 291
#     4  11  20  29  49  78 103 129 166 209 248 294
#     4  10  20  34  50  72 104 138 169 204 246 292
#     4   8  15  29  50  74 103 135 163 197 242 293
#     4   9  19  33  48  68  99 136 168 201 244 293
#     4  10  21  37  52  68  97 135 171 207 248 295
#     4   8  15  29  48  75 106 131 160 200 245 289
#
# _framework density 17.376163999999999
#
# number of rings (size 3 to 8) (size 9 to 14) (size 15 to 20)
#    0.000    2.250    0.000    5.625    0.000    5.500 
#    0.000    0.000    0.000    3.750    0.000    8.750 
#    0.000    0.000    0.000    0.000    0.000    0.000 
#
# Total GULP energy -178649.461462 kJ/mol
# GULP energy per Si atom -5582.795671 kJ/mol
# Density = 1.733662 g / cm^3
# Si number density = 17.376164 Si / 1000 Ang^3
#
#
#
# Elastic Constant Matrix: (Units=GPa)
#
#
# Indices 1 2 3 4 5 6 
#
# 1 76.2444 3.8698 65.0753 0.0000 -0.5922 0.0000
# 2 3.8698 15.1212 -4.0208 0.0000 -1.8375 0.0000
# 3 65.0753 -4.0208 71.7260 0.0000 -0.4059 0.0000
# 4 0.0000 0.0000 0.0000 9.3550 0.0000 -1.7556
# 5 -0.5922 -1.8375 -0.4059 0.0000 32.3847 0.0000
# 6 0.0000 0.0000 0.0000 -1.7556 0.0000 28.6195
#
#
#
# Elastic Compliance Matrix: (Units=1/GPa)
#
#
# Indices 1 2 3 4 5 6 
#
# 1 0.074664 -0.037890 -0.069875 0.000000 -0.001660 0.000000
# 2 -0.037890 0.086846 0.039272 0.000000 0.004727 0.000000
# 3 -0.069875 0.039272 0.079550 0.000000 0.001947 0.000000
# 4 0.000000 0.000000 0.000000 0.108139 0.000000 0.006634
# 5 -0.001660 0.004727 0.001947 0.000000 0.031141 0.000000
# 6 0.000000 0.000000 0.000000 0.006634 0.000000 0.035348
#
#
# Mechanical properties :
#
#
# Convention : Reuss Voigt Hill
#
# Bulk Modulus (GPa) = 9.60848 32.54890 21.07869
# Shear Modulus (GPa) = 8.51258 20.61634 14.56446
#
# Velocity S-wave (km/s) = 2.21577 3.44826 2.89829
# Velocity P-wave (km/s) = 3.47676 5.88443 4.83293
#
# Compressibility (1/GPa) = 0.10407474
#
# Stress axis : x y z
#
# Youngs Moduli (GPa) = 13.39325 11.51464 12.57071
#
# Poissons Ratio (x) = 0.43629 0.87837
# Poissons Ratio (y) = 0.50747 -0.49367
# Poissons Ratio (z) = 0.93585 -0.45220
#
# Static dielectric constant tensor:
#      x y z
#    x 1.589620 0.000000 -0.000190 
#    y 0.000000 1.588230 0.000000 
#    z -0.000190 0.000000 1.580110 
# 
# From -- ./inp_files/249124.got.cif
#   From: 2010.05.17/outbox.cif.g08.bks.cpg/sg12_125_cif.got.tgz:249124.got - 2010.06.03 13:09:07.
