data_PCOD9192011
_publ_section_title
;
Structure prediction by ZEFSAII (Michael W. Deem and Ramdas Pophale) SiO2 
 PCOD9192011
Probable space group: C 2/M
;
_chemical_formula_sum "Si O2"
_cell_formula_units_Z 48
_cell_length_a 26.267530
_cell_length_b 14.382657
_cell_length_c 13.709638
_cell_angle_alpha 90.000000
_cell_angle_beta 22.032096
_cell_angle_gamma 90.000000
_cell_volume 1942.949118
_symmetry_space_group_name_H-M "C 2/M"
_symmetry_group_IT_number 12
_symmetry_cell_setting 'monoclinic'
loop_
_space_group_symop_operation_xyz
x,y,z
-x,y,-z
-x,-y,-z
x,-y,z
1/2+x,1/2+y,z
1/2-x,1/2+y,-z
1/2-x,1/2-y,-z
1/2+x,1/2-y,z
loop_
_atom_site_type_symbol
_atom_site_label
_atom_site_fract_x
_atom_site_fract_y
_atom_site_fract_z
Si Si1 0.135131 0.605114 0.801986
Si Si2 0.750873 0.363833 0.203371
Si Si3 0.729165 0.851835 0.291659
Si Si4 0.935159 0.101606 0.757016
Si Si5 0.647567 0.391121 0.719991
Si Si6 0.446441 0.177589 0.701232
O O1 0.134498 0.500000 0.762409
O O2 0.150043 0.597343 0.890312
O O3 0.269521 0.650374 0.517640
O O4 0.000000 0.649251 0.000000
O O5 0.753965 0.256180 0.226890
O O6 0.597801 0.398977 0.487242
O O7 0.812098 0.368405 0.985821
O O8 0.766075 0.881334 0.334858
O O9 0.569800 0.857272 0.550617
O O10 0.834962 0.898537 0.028310
O O11 0.921774 0.209202 0.740934
O O12 0.907822 0.000000 0.755826
O O13 0.623209 0.500000 0.740463
O O14 0.500000 0.350044 0.000000
O O15 0.500000 0.150341 0.500000
#
# Coordination Sequence:
#
# PCOD9192011 Si02
#       6
#     8   8   8   8   8   8
#     4  10  20  33  52  79 113 155 197 239 293 354
#     4  10  21  37  60  87 119 158 201 252 302 355
#     4  10  21  37  61  90 123 161 200 245 297 358
#     4  10  21  38  63  90 118 156 200 248 301 357
#     4  10  20  34  56  87 122 158 195 241 297 353
#     4  10  23  43  63  86 120 161 203 250 307 361
#
# _framework density 24.704711
#
# number of rings (size 3 to 8) (size 9 to 14) (size 15 to 20)
#    0.000    2.000    0.000    3.000    0.000    9.000 
#    0.000    2.500    0.000    7.000    0.000    0.000 
#    0.000    0.000    0.000    0.000    0.000    0.000 
#
# Total GULP energy -133869.774869 kJ/mol
# GULP energy per Si atom -5577.907286 kJ/mol
# Density = 2.464848 g / cm^3
# Si number density = 24.704711 Si / 1000 Ang^3
#
#
#
# Elastic Constant Matrix: (Units=GPa)
#
#
# Indices 1 2 3 4 5 6 
#
# 1 64.8824 -4.5031 43.7139 0.0000 2.8081 0.0000
# 2 -4.5031 93.5445 42.0436 0.0000 -5.4270 0.0000
# 3 43.7139 42.0436 158.5283 -0.0001 9.3554 0.0000
# 4 0.0000 0.0000 -0.0001 -20.6552 0.0000 -3.5065
# 5 2.8081 -5.4270 9.3554 0.0000 47.9129 0.0000
# 6 0.0000 0.0000 0.0000 -3.5065 0.0000 26.1105
#
#
#
# Elastic Compliance Matrix: (Units=1/GPa)
#
#
# Indices 1 2 3 4 5 6 
#
# 1 0.020142 0.003990 -0.006646 0.000000 0.000569 0.000000
# 2 0.003990 0.013125 -0.004709 0.000000 0.002172 0.000000
# 3 -0.006646 -0.004709 0.009508 0.000000 -0.002000 0.000000
# 4 0.000000 0.000000 0.000000 -0.047335 0.000000 -0.006357
# 5 0.000569 0.002172 -0.002000 0.000000 0.021474 0.000000
# 6 0.000000 0.000000 0.000000 -0.006357 0.000000 0.037445
#
#
# Mechanical properties :
#
#
# Convention : Reuss Voigt Hill
#
# Bulk Modulus (GPa) = 35.65845 53.27378 44.46612
# Shear Modulus (GPa) = 63.74435 26.38702 45.06568
#
# Velocity S-wave (km/s) = 5.08513 3.27172 4.27567
# Velocity P-wave (km/s) = 6.99594 5.99026 6.51254
#
# Compressibility (1/GPa) = 0.02804384
#
# Stress axis : x y z
#
# Youngs Moduli (GPa) = 49.64649 76.19213 105.17900
#
# Poissons Ratio (x) = -0.30398 0.69901
# Poissons Ratio (y) = -0.19807 0.49531
# Poissons Ratio (z) = 0.32995 0.35880
#
# Static dielectric constant tensor:
#      x y z
#    x 3.562290 0.000000 1.629230 
#    y 0.000000 2.015850 0.000000 
#    z 1.629230 0.000000 3.727900 
# 
# From -- ./inp_files/251427.got.cif
#   From: 2010.05.17/outbox.cif.g08.bks.cpg/sg12_126_cif.got.tgz:251427.got - 2010.06.03 13:09:07.
