data_PCOD9192576
_publ_section_title
;
Structure prediction by ZEFSAII (Michael W. Deem and Ramdas Pophale) SiO2 
 PCOD9192576
Probable space group: C 2/M
;
_chemical_formula_sum "Si O2"
_cell_formula_units_Z 58
_cell_length_a 27.197817
_cell_length_b 7.429521
_cell_length_c 24.502521
_cell_angle_alpha 90.000000
_cell_angle_beta 30.886926
_cell_angle_gamma 90.000000
_cell_volume 2541.647639
_symmetry_space_group_name_H-M "C 2/M"
_symmetry_group_IT_number 12
_symmetry_cell_setting 'monoclinic'
loop_
_space_group_symop_operation_xyz
x,y,z
-x,y,-z
-x,-y,-z
x,-y,z
1/2+x,1/2+y,z
1/2-x,1/2+y,-z
1/2-x,1/2-y,-z
1/2+x,1/2-y,z
loop_
_atom_site_type_symbol
_atom_site_label
_atom_site_fract_x
_atom_site_fract_y
_atom_site_fract_z
Si Si1 0.107509 0.280135 0.381863
Si Si2 0.328561 0.212037 0.797319
Si Si3 0.447870 0.220577 0.787972
Si Si4 0.387781 0.216549 0.964961
Si Si5 0.567367 0.207717 0.865015
Si Si6 0.344097 0.214779 0.445833
Si Si7 0.000000 0.000000 0.000000
Si Si8 0.269593 0.782204 0.632005
O O1 0.109685 0.500000 0.379301
O O2 0.138167 0.215506 0.292823
O O3 0.178926 0.222084 0.361685
O O4 0.000000 0.227294 0.500000
O O5 0.385183 0.282619 0.796166
O O6 0.350830 0.000000 0.774591
O O7 0.215760 0.232904 0.914245
O O8 0.405187 0.279845 0.886539
O O9 0.557474 0.280094 0.674816
O O10 0.446032 0.000000 0.790800
O O11 0.474104 0.279121 0.921459
O O12 0.394040 0.000000 0.958720
O O13 0.575337 0.341189 0.908050
O O14 0.659799 0.221957 0.738553
O O15 0.555278 0.000000 0.891765
O O16 0.250000 0.250000 0.500000
O O17 0.324570 0.281764 0.525690
O O18 0.355252 0.000000 0.439252
O O19 0.270131 0.000000 0.630466
#
# Coordination Sequence:
#
# PCOD9192576 Si02
#       8
#     8   8   8   8   8   8   2   8
#     4   9  18  33  56  86 116 151 202 256 311 381
#     4  10  20  33  59  86 112 155 203 250 311 373
#     4   9  18  36  57  84 119 158 205 260 310 372
#     4  10  22  38  57  83 121 160 203 254 316 376
#     4  11  25  42  65  94 129 172 209 261 323 375
#     4  10  20  35  59  85 116 157 207 261 319 376
#     4  12  26  44  68  90 134 164 222 264 306 382
#     4  10  20  36  59  89 125 162 205 262 317 378
#
# _framework density 22.819842999999999
#
# number of rings (size 3 to 8) (size 9 to 14) (size 15 to 20)
#    0.000    2.069    0.690    2.276    2.897    4.966 
#    0.000    1.379    0.000    3.310    0.000    0.000 
#    0.000    0.000    0.000    0.000    0.000    0.000 
#
# Total GULP energy -161944.386827 kJ/mol
# GULP energy per Si atom -5584.289201 kJ/mol
# Density = 2.276790 g / cm^3
# Si number density = 22.819843 Si / 1000 Ang^3
#
#
#
# Elastic Constant Matrix: (Units=GPa)
#
#
# Indices 1 2 3 4 5 6 
#
# 1 136.3257 -1.9279 70.5072 0.0060 4.0337 -0.0065
# 2 -1.9279 96.8895 -0.6503 0.0751 10.0901 -0.0626
# 3 70.5072 -0.6503 185.6052 0.0319 15.7548 -0.0257
# 4 0.0060 0.0751 0.0319 -4.8009 -0.0200 13.2334
# 5 4.0337 10.0901 15.7548 -0.0200 42.3035 0.0114
# 6 -0.0065 -0.0626 -0.0257 13.2334 0.0114 -24.2062
#
#
#
# Elastic Compliance Matrix: (Units=1/GPa)
#
#
# Indices 1 2 3 4 5 6 
#
# 1 0.009138 0.000116 -0.003505 0.000017 0.000407 0.000010
# 2 0.000116 0.010598 0.000215 -0.000194 -0.002619 -0.000135
# 3 -0.003505 0.000215 0.006915 -0.000064 -0.002292 -0.000043
# 4 0.000017 -0.000194 -0.000064 0.410896 0.000202 0.224636
# 5 0.000407 -0.002619 -0.002292 0.000202 0.025078 0.000131
# 6 0.000010 -0.000135 -0.000043 0.224636 0.000131 0.081497
#
#
# Mechanical properties :
#
#
# Convention : Reuss Voigt Hill
#
# Bulk Modulus (GPa) = 49.25568 61.63095 55.44331
# Shear Modulus (GPa) = 8.97285 26.05205 17.51245
#
# Velocity S-wave (km/s) = 1.98509 3.38248 2.77324
# Velocity P-wave (km/s) = 5.18513 6.50547 5.88246
#
# Compressibility (1/GPa) = 0.02030223
#
# Stress axis : x y z
#
# Youngs Moduli (GPa) = 109.43353 94.36103 144.61848
#
# Poissons Ratio (x) = -0.01094 0.50695
# Poissons Ratio (y) = -0.01269 -0.03115
# Poissons Ratio (z) = 0.38361 -0.02033
#
# Static dielectric constant tensor:
#      x y z
#    x 1.869270 -0.000010 0.026450 
#    y -0.000010 1.876890 0.000010 
#    z 0.026450 0.000010 1.834750 
# 
# From -- ./inp_files/324510.got.cif
#   From: 2010.05.17/outbox.cif.g08.bks.cpg/sg12_163_cif.got.tgz:324510.got - 2010.06.03 13:09:07.
