data_PCOD9192110
_publ_section_title
;
Structure prediction by ZEFSAII (Michael W. Deem and Ramdas Pophale) SiO2 
 PCOD9192110
Probable space group: C 2/M
;
_chemical_formula_sum "Si O2"
_cell_formula_units_Z 48
_cell_length_a 21.942229
_cell_length_b 21.765695
_cell_length_c 18.106850
_cell_angle_alpha 90.000000
_cell_angle_beta 160.056642
_cell_angle_gamma 90.000000
_cell_volume 2949.622615
_symmetry_space_group_name_H-M "C 2/M"
_symmetry_group_IT_number 12
_symmetry_cell_setting 'monoclinic'
loop_
_space_group_symop_operation_xyz
x,y,z
-x,y,-z
-x,-y,-z
x,-y,z
1/2+x,1/2+y,z
1/2-x,1/2+y,-z
1/2-x,1/2-y,-z
1/2+x,1/2-y,z
loop_
_atom_site_type_symbol
_atom_site_label
_atom_site_fract_x
_atom_site_fract_y
_atom_site_fract_z
Si Si1 0.276423 0.000000 0.825868
Si Si2 0.720252 0.245338 0.139605
Si Si3 0.341146 0.299215 0.660116
Si Si4 0.464847 0.128566 0.042733
Si Si5 0.983221 0.000000 0.611700
Si Si6 0.134499 0.127033 0.449716
Si Si7 0.079175 0.746134 0.474952
O O1 0.151194 0.000000 0.611265
O O2 0.171380 0.000000 0.783669
O O3 0.389843 0.061090 0.950338
O O4 0.809465 0.251252 0.321903
O O5 0.873134 0.268615 0.258112
O O6 0.525867 0.275415 0.906561
O O7 0.676952 0.173116 0.080292
O O8 0.250000 0.250000 0.500000
O O9 0.392023 0.356342 0.666313
O O10 0.187321 0.301444 0.546769
O O11 0.652413 0.125300 0.296732
O O12 0.500000 0.153700 0.000000
O O13 0.948694 0.062893 0.617556
O O14 0.077681 0.186196 0.434738
#
# Coordination Sequence:
#
# PCOD9192110 Si02
#       7
#     4   8   8   8   4   8   8
#     4  11  22  31  50  73  98 138 184 212 237 281
#     4  11  19  33  54  74 103 133 175 211 253 300
#     4  10  20  34  48  74 104 138 164 209 257 307
#     4  12  18  31  49  72 101 140 177 210 241 292
#     4  11  21  36  47  72 102 135 181 211 240 298
#     4  11  21  33  50  71 105 137 169 207 255 297
#     4  10  20  33  53  78  98 135 172 213 252 301
#
# _framework density 16.273268999999999
#
# number of rings (size 3 to 8) (size 9 to 14) (size 15 to 20)
#    0.000    1.167    6.667    2.250    0.000    5.333 
#    3.000    0.000    0.000    0.000    0.000    2.333 
#    0.000    2.667    0.000    0.000    0.000    0.000 
#
# Total GULP energy -133731.858094 kJ/mol
# GULP energy per Si atom -5572.160754 kJ/mol
# Density = 1.623623 g / cm^3
# Si number density = 16.273269 Si / 1000 Ang^3
#
#
#
# Elastic Constant Matrix: (Units=GPa)
#
#
# Indices 1 2 3 4 5 6 
#
# 1 92.1780 36.2667 21.7104 0.0000 20.7964 0.0000
# 2 36.2667 52.3544 1.0016 -0.0001 1.9356 0.0000
# 3 21.7104 1.0016 52.3533 -0.0002 16.5794 0.0006
# 4 0.0000 -0.0001 -0.0002 18.1269 0.0001 7.8049
# 5 20.7964 1.9356 16.5794 0.0001 22.3963 0.0002
# 6 0.0000 0.0000 0.0006 7.8049 0.0002 49.2721
#
#
#
# Elastic Compliance Matrix: (Units=1/GPa)
#
#
# Indices 1 2 3 4 5 6 
#
# 1 0.020403 -0.013504 -0.003360 0.000000 -0.015291 0.000000
# 2 -0.013504 0.028101 0.002430 0.000000 0.008311 0.000000
# 3 -0.003360 0.002430 0.025506 0.000000 -0.015971 0.000000
# 4 0.000000 0.000000 0.000000 0.059205 0.000000 -0.009378
# 5 -0.015291 0.008311 -0.015971 0.000000 0.069953 0.000000
# 6 0.000000 0.000000 0.000000 -0.009378 0.000000 0.021781
#
#
# Mechanical properties :
#
#
# Convention : Reuss Voigt Hill
#
# Bulk Modulus (GPa) = 22.15224 34.98255 28.56739
# Shear Modulus (GPa) = 18.59682 27.15286 22.87484
#
# Velocity S-wave (km/s) = 3.38418 4.08923 3.75329
# Velocity P-wave (km/s) = 5.37702 6.62113 6.03124
#
# Compressibility (1/GPa) = 0.04514216
#
# Stress axis : x y z
#
# Youngs Moduli (GPa) = 49.01325 35.58588 39.20685
#
# Poissons Ratio (x) = 0.48054 0.13174
# Poissons Ratio (y) = 0.66186 -0.09528
# Poissons Ratio (z) = 0.16469 -0.08648
#
# Static dielectric constant tensor:
#      x y z
#    x 1.602190 0.000000 0.012120 
#    y 0.000000 1.540160 0.000000 
#    z 0.012120 0.000000 1.546580 
# 
# From -- ./inp_files/285874.got.cif
#   From: 2010.05.17/outbox.cif.g08.bks.cpg/sg12_143_cif.got.tgz:285874.got - 2010.06.03 13:09:07.
