data_PCOD9192949
_publ_section_title
;
Structure prediction by ZEFSAII (Michael W. Deem and Ramdas Pophale) SiO2 
 PCOD9192949
Probable space group: C 2/M
;
_chemical_formula_sum "Si O2"
_cell_formula_units_Z 56
_cell_length_a 19.192127
_cell_length_b 9.069668
_cell_length_c 24.946900
_cell_angle_alpha 90.000000
_cell_angle_beta 42.798584
_cell_angle_gamma 90.000000
_cell_volume 2950.335728
_symmetry_space_group_name_H-M "C 2/M"
_symmetry_group_IT_number 12
_symmetry_cell_setting 'monoclinic'
loop_
_space_group_symop_operation_xyz
x,y,z
-x,y,-z
-x,-y,-z
x,-y,z
1/2+x,1/2+y,z
1/2-x,1/2+y,-z
1/2-x,1/2-y,-z
1/2+x,1/2-y,z
loop_
_atom_site_type_symbol
_atom_site_label
_atom_site_fract_x
_atom_site_fract_y
_atom_site_fract_z
Si Si1 0.640163 0.825594 0.569596
Si Si2 0.235924 0.329245 0.683369
Si Si3 0.477079 0.326040 0.183340
Si Si4 0.211891 0.173921 0.226622
Si Si5 0.082336 0.828071 0.499442
Si Si6 0.432360 0.323251 0.089986
Si Si7 0.460892 0.823649 0.748059
O O1 0.750000 0.750000 0.500000
O O2 0.575950 0.776521 0.553760
O O3 0.571384 0.782676 0.659516
O O4 0.655420 0.000000 0.562863
O O5 0.198282 0.500000 0.705117
O O6 0.140688 0.220310 0.739038
O O7 0.300067 0.308783 0.702170
O O8 0.307885 0.311206 0.591574
O O9 0.491355 0.500000 0.182378
O O10 0.490746 0.288390 0.112819
O O11 0.543236 0.239488 0.189655
O O12 0.324613 0.238320 0.150517
O O13 0.126707 0.256843 0.240287
O O14 0.207702 0.000000 0.217452
O O15 0.000000 0.797633 0.500000
O O16 0.070957 0.000000 0.522313
O O17 0.412225 0.500000 0.101903
O O18 0.500000 0.288479 0.000000
O O19 0.453814 0.000000 0.752327
#
# Coordination Sequence:
#
# PCOD9192949 Si02
#       7
#     8   8   8   8   8   8   8
#     4  11  24  38  53  75 105 144 187 231 277 323
#     4   9  18  33  52  75 104 138 176 220 271 322
#     4  10  20  34  56  82 105 136 178 217 257 314
#     4  10  20  35  58  85 111 142 182 225 267 317
#     4  10  20  34  52  74 102 137 177 223 275 324
#     4   9  19  38  62  87 116 145 172 210 264 323
#     4  11  23  38  54  76 110 147 183 225 274 323
#
# _framework density 18.980889999999999
#
# number of rings (size 3 to 8) (size 9 to 14) (size 15 to 20)
#    0.000    2.000    0.000    3.429    0.000    9.143 
#    0.000    0.714    0.000    0.000    0.000    0.000 
#    0.000    0.000    0.000    0.000    0.000    0.000 
#
# Total GULP energy -156394.640702 kJ/mol
# GULP energy per Si atom -5585.522882 kJ/mol
# Density = 1.893769 g / cm^3
# Si number density = 18.980890 Si / 1000 Ang^3
#
#
#
# Elastic Constant Matrix: (Units=GPa)
#
#
# Indices 1 2 3 4 5 6 
#
# 1 90.9887 40.8158 29.7057 0.0000 17.8382 0.0000
# 2 40.8158 50.9627 36.7967 0.0000 13.2025 0.0000
# 3 29.7057 36.7967 77.9225 0.0000 23.5651 0.0000
# 4 0.0000 0.0000 0.0000 21.1932 0.0000 -0.2164
# 5 17.8382 13.2025 23.5651 0.0000 24.5064 0.0000
# 6 0.0000 0.0000 0.0000 -0.2164 0.0000 37.1917
#
#
#
# Elastic Compliance Matrix: (Units=1/GPa)
#
#
# Indices 1 2 3 4 5 6 
#
# 1 0.018085 -0.013958 0.001980 0.000000 -0.007548 0.000000
# 2 -0.013958 0.040768 -0.014609 0.000000 0.002245 0.000000
# 3 0.001980 -0.014609 0.024017 0.000000 -0.016665 0.000000
# 4 0.000000 0.000000 0.000000 0.047188 0.000000 0.000275
# 5 -0.007548 0.002245 -0.016665 0.000000 0.061115 0.000000
# 6 0.000000 0.000000 0.000000 0.000275 0.000000 0.026889
#
#
# Mechanical properties :
#
#
# Convention : Reuss Voigt Hill
#
# Bulk Modulus (GPa) = 33.67643 48.27893 40.97768
# Shear Modulus (GPa) = 17.78489 24.08198 20.93344
#
# Velocity S-wave (km/s) = 3.06435 3.56581 3.32455
# Velocity P-wave (km/s) = 5.50464 6.51492 6.03097
#
# Compressibility (1/GPa) = 0.02969436
#
# Stress axis : x y z
#
# Youngs Moduli (GPa) = 55.29349 24.52893 41.63668
#
# Poissons Ratio (x) = 0.34238 -0.08242
# Poissons Ratio (y) = 0.77181 0.60829
# Poissons Ratio (z) = -0.10946 0.35835
#
# Static dielectric constant tensor:
#      x y z
#    x 1.684640 0.000000 0.012370 
#    y 0.000000 1.632590 0.000000 
#    z 0.012370 0.000000 1.647700 
# 
# From -- ./inp_files/342231.got.cif
#   From: 2010.05.17/outbox.cif.g08.bks.cpg/sg12_172_cif.got.tgz:342231.got - 2010.06.03 13:09:07.
