data_PCOD9192485
_publ_section_title
;
Structure prediction by ZEFSAII (Michael W. Deem and Ramdas Pophale) SiO2 
 PCOD9192485
Probable space group: C 2/M
;
_chemical_formula_sum "Si O2"
_cell_formula_units_Z 40
_cell_length_a 25.370324
_cell_length_b 19.335680
_cell_length_c 8.820789
_cell_angle_alpha 90.000000
_cell_angle_beta 29.649307
_cell_angle_gamma 90.000000
_cell_volume 2140.552971
_symmetry_space_group_name_H-M "C 2/M"
_symmetry_group_IT_number 12
_symmetry_cell_setting 'monoclinic'
loop_
_space_group_symop_operation_xyz
x,y,z
-x,y,-z
-x,-y,-z
x,-y,z
1/2+x,1/2+y,z
1/2-x,1/2+y,-z
1/2-x,1/2-y,-z
1/2+x,1/2-y,z
loop_
_atom_site_type_symbol
_atom_site_label
_atom_site_fract_x
_atom_site_fract_y
_atom_site_fract_z
Si Si1 0.667383 0.318266 0.934546
Si Si2 0.886072 0.681621 0.730641
Si Si3 0.028656 0.871244 0.772906
Si Si4 0.702260 0.579294 0.120397
Si Si5 0.105079 0.723230 0.645087
O O1 0.782376 0.303357 0.572502
O O2 0.639971 0.250854 0.106948
O O3 0.572799 0.336741 0.057035
O O4 0.679879 0.382362 0.017952
O O5 0.896020 0.700517 0.528118
O O6 0.000000 0.655111 0.500000
O O7 0.793929 0.624890 0.971265
O O8 0.095994 0.914459 0.485884
O O9 0.099546 0.806025 0.650763
O O10 0.000000 0.909420 0.000000
O O11 0.733522 0.500000 0.022429
O O12 0.000000 0.700168 0.000000
#
# Coordination Sequence:
#
# PCOD9192485 Si02
#       5
#     8   8   8   8   8
#     4  11  20  39  61  86 114 150 195 235 285 336
#     4  11  19  37  62  84 114 149 194 242 280 330
#     4  11  22  35  58  90 116 147 185 240 292 337
#     4  11  23  39  58  83 118 157 193 229 281 346
#     4  10  20  33  56  89 118 142 180 237 292 333
#
# _framework density 18.68676
#
# number of rings (size 3 to 8) (size 9 to 14) (size 15 to 20)
#    0.000    1.200    6.000    1.800    0.000    7.200 
#    0.000    0.000    0.000    9.600    0.000    0.000 
#    0.000    0.800    0.000    0.000    0.000    0.000 
#
# Total GULP energy -111657.747196 kJ/mol
# GULP energy per Si atom -5582.887360 kJ/mol
# Density = 1.864423 g / cm^3
# Si number density = 18.686760 Si / 1000 Ang^3
#
#
#
# Elastic Constant Matrix: (Units=GPa)
#
#
# Indices 1 2 3 4 5 6 
#
# 1 78.1316 39.1020 33.4026 0.0000 -10.1738 0.0000
# 2 39.1020 97.5068 31.1905 0.0000 -5.0657 0.0000
# 3 33.4026 31.1905 123.1744 0.0000 -7.9522 0.0000
# 4 0.0000 0.0000 0.0000 13.0108 0.0000 -3.7352
# 5 -10.1738 -5.0657 -7.9522 0.0000 23.9696 0.0000
# 6 0.0000 0.0000 0.0000 -3.7352 0.0000 -2.1055
#
#
#
# Elastic Compliance Matrix: (Units=1/GPa)
#
#
# Indices 1 2 3 4 5 6 
#
# 1 0.017695 -0.005871 -0.002971 0.000000 0.005284 0.000000
# 2 -0.005871 0.013157 -0.001759 0.000000 -0.000295 0.000000
# 3 -0.002971 -0.001759 0.009467 0.000000 0.001508 0.000000
# 4 0.000000 0.000000 0.000000 0.050925 0.000000 -0.090339
# 5 0.005284 -0.000295 0.001508 0.000000 0.044400 0.000000
# 6 0.000000 0.000000 0.000000 -0.090339 0.000000 -0.314679
#
#
# Mechanical properties :
#
#
# Convention : Reuss Voigt Hill
#
# Bulk Modulus (GPa) = 52.30583 56.24478 54.27531
# Shear Modulus (GPa) = -33.01215 19.98281 -6.51467
#
# Velocity S-wave (km/s) = -4.20766 3.27365 -1.86918
# Velocity P-wave (km/s) = 2.10849 6.66732 4.94464
#
# Compressibility (1/GPa) = 0.01911833
#
# Stress axis : x y z
#
# Youngs Moduli (GPa) = 56.51164 76.00264 105.63158
#
# Poissons Ratio (x) = 0.44624 0.31381
# Poissons Ratio (y) = 0.33180 0.18576
# Poissons Ratio (z) = 0.16788 0.13366
#
# Static dielectric constant tensor:
#      x y z
#    x 1.678430 0.000000 0.007760 
#    y 0.000000 1.622400 0.000000 
#    z 0.007760 0.000000 1.711340 
# 
# From -- ./inp_files/62568.got.cif
#   From: 2010.05.17/outbox.cif.g08.bks.cpg/sg12_32_cif.got.tgz:62568.got - 2010.06.03 13:09:07.
