data_PCOD9192179
_publ_section_title
;
Structure prediction by ZEFSAII (Michael W. Deem and Ramdas Pophale) SiO2 
 PCOD9192179
Probable space group: C 2/M
;
_chemical_formula_sum "Si O2"
_cell_formula_units_Z 64
_cell_length_a 17.908474
_cell_length_b 9.071905
_cell_length_c 30.545492
_cell_angle_alpha 90.000000
_cell_angle_beta 136.426719
_cell_angle_gamma 90.000000
_cell_volume 3420.589726
_symmetry_space_group_name_H-M "C 2/M"
_symmetry_group_IT_number 12
_symmetry_cell_setting 'monoclinic'
loop_
_space_group_symop_operation_xyz
x,y,z
-x,y,-z
-x,-y,-z
x,-y,z
1/2+x,1/2+y,z
1/2-x,1/2+y,-z
1/2-x,1/2-y,-z
1/2+x,1/2-y,z
loop_
_atom_site_type_symbol
_atom_site_label
_atom_site_fract_x
_atom_site_fract_y
_atom_site_fract_z
Si Si1 0.771116 0.824209 0.181188
Si Si2 0.336437 0.328101 0.699051
Si Si3 0.496710 0.328376 0.570715
Si Si4 0.040277 0.173398 0.067009
Si Si5 0.365903 0.174019 0.055390
Si Si6 0.821977 0.171574 0.429473
Si Si7 0.156282 0.328102 0.699178
Si Si8 0.937715 0.326862 0.186574
O O1 0.654409 0.753343 0.122021
O O2 0.811869 0.767573 0.245562
O O3 0.854650 0.764464 0.180722
O O4 0.764370 0.000000 0.177541
O O5 0.364524 0.500000 0.706559
O O6 0.275577 0.269195 0.629905
O O7 0.251023 0.313998 0.702862
O O8 0.441999 0.233218 0.754156
O O9 0.487493 0.500000 0.580024
O O10 0.586564 0.323777 0.569972
O O11 0.384384 0.281310 0.500114
O O12 0.546053 0.230312 0.630036
O O13 0.952032 0.247847 0.060666
O O14 0.051611 0.000000 0.082288
O O15 0.000000 0.186147 0.000000
O O16 0.405426 0.189666 0.122134
O O17 0.358552 0.000000 0.042263
O O18 0.250000 0.250000 0.000000
O O19 0.789850 0.000000 0.420266
O O20 0.147328 0.500000 0.707163
O O21 0.930853 0.500000 0.194851
#
# Coordination Sequence:
#
# PCOD9192179 Si02
#       8
#     8   8   8   8   8   8   8   8
#     4  12  25  40  60  84 112 148 191 236 281 334
#     4  10  20  33  53  82 112 145 187 233 280 333
#     4   8  14  26  46  74 107 143 185 229 276 331
#     4  11  24  42  64  90 121 154 188 229 277 330
#     4  11  24  41  64  92 120 153 190 231 279 331
#     4   8  14  26  46  73 107 145 182 227 280 331
#     4  10  20  34  54  81 114 149 186 232 284 335
#     4  11  24  41  59  81 112 149 189 232 282 336
#
# _framework density 18.710224
#
# number of rings (size 3 to 8) (size 9 to 14) (size 15 to 20)
#    0.000    1.875    0.000    5.250    0.000   10.000 
#    0.000    2.500    0.000    0.750    0.000    0.000 
#    0.000    0.000    0.000    0.000    0.000    0.000 
#
# Total GULP energy -178767.641301 kJ/mol
# GULP energy per Si atom -5586.488791 kJ/mol
# Density = 1.866764 g / cm^3
# Si number density = 18.710224 Si / 1000 Ang^3
#
#
#
# Elastic Constant Matrix: (Units=GPa)
#
#
# Indices 1 2 3 4 5 6 
#
# 1 59.1332 61.8955 41.3640 0.0000 -0.0790 0.0000
# 2 61.8955 165.7735 101.5092 0.0000 -2.9370 0.0000
# 3 41.3640 101.5092 135.7506 0.0000 4.2710 0.0000
# 4 0.0000 0.0000 0.0000 35.2106 0.0000 0.6542
# 5 -0.0790 -2.9370 4.2710 0.0000 15.3169 0.0000
# 6 0.0000 0.0000 0.0000 0.6542 0.0000 26.8671
#
#
#
# Elastic Compliance Matrix: (Units=1/GPa)
#
#
# Indices 1 2 3 4 5 6 
#
# 1 0.027914 -0.009713 -0.001199 0.000000 -0.001384 0.000000
# 2 -0.009713 0.014822 -0.008284 0.000000 0.005102 0.000000
# 3 -0.001199 -0.008284 0.014101 0.000000 -0.005527 0.000000
# 4 0.000000 0.000000 0.000000 0.028413 0.000000 -0.000692
# 5 -0.001384 0.005102 -0.005527 0.000000 0.067800 0.000000
# 6 0.000000 0.000000 0.000000 -0.000692 0.000000 0.037237
#
#
# Mechanical properties :
#
#
# Convention : Reuss Voigt Hill
#
# Bulk Modulus (GPa) = 54.21765 85.57718 69.89742
# Shear Modulus (GPa) = 21.29222 25.87151 23.58186
#
# Velocity S-wave (km/s) = 3.37708 3.72256 3.55402
# Velocity P-wave (km/s) = 6.65182 8.01961 7.36753
#
# Compressibility (1/GPa) = 0.01844418
#
# Stress axis : x y z
#
# Youngs Moduli (GPa) = 35.82379 67.46754 70.91937
#
# Poissons Ratio (x) = 0.65528 0.08506
# Poissons Ratio (y) = 0.34794 0.58752
# Poissons Ratio (z) = 0.04297 0.55892
#
# Static dielectric constant tensor:
#      x y z
#    x 1.630650 0.000000 -0.002980 
#    y 0.000000 1.624150 0.000000 
#    z -0.002980 0.000000 1.637240 
# 
# From -- ./inp_files/378482.got.cif
#   From: 2010.05.17/outbox.cif.g08.bks.cpg/sg12_190_cif.got.tgz:378482.got - 2010.06.03 13:09:07.
