data_PCOD9192427
_publ_section_title
;
Structure prediction by ZEFSAII (Michael W. Deem and Ramdas Pophale) SiO2 
 PCOD9192427
Probable space group: C 2/M
;
_chemical_formula_sum "Si O2"
_cell_formula_units_Z 56
_cell_length_a 12.811116
_cell_length_b 20.451337
_cell_length_c 20.518139
_cell_angle_alpha 90.000000
_cell_angle_beta 150.338201
_cell_angle_gamma 90.000000
_cell_volume 2660.394392
_symmetry_space_group_name_H-M "C 2/M"
_symmetry_group_IT_number 12
_symmetry_cell_setting 'monoclinic'
loop_
_space_group_symop_operation_xyz
x,y,z
-x,y,-z
-x,-y,-z
x,-y,z
1/2+x,1/2+y,z
1/2-x,1/2+y,-z
1/2-x,1/2-y,-z
1/2+x,1/2-y,z
loop_
_atom_site_type_symbol
_atom_site_label
_atom_site_fract_x
_atom_site_fract_y
_atom_site_fract_z
Si Si1 0.889021 0.142195 0.750181
Si Si2 0.314448 0.923761 0.481759
Si Si3 0.266705 0.786319 0.730189
Si Si4 0.098251 0.668388 0.824433
Si Si5 0.259060 0.575763 0.801251
Si Si6 0.269986 0.199418 0.882992
Si Si7 0.306843 0.685692 0.489136
O O1 0.732170 0.104600 0.615483
O O2 0.806010 0.214788 0.721319
O O3 0.920578 0.108005 0.837461
O O4 0.103377 0.152384 0.826260
O O5 0.545748 0.919536 0.640832
O O6 0.186112 0.877095 0.460287
O O7 0.256564 0.000000 0.449989
O O8 0.470361 0.831774 0.823767
O O9 0.225810 0.780010 0.784877
O O10 0.037757 0.809924 0.584440
O O11 0.217965 0.612748 0.847444
O O12 0.251715 0.731207 0.910674
O O13 0.888593 0.680456 0.666229
O O14 0.304321 0.500000 0.837397
O O15 0.500000 0.170367 0.000000
O O16 0.250000 0.750000 0.500000
#
# Coordination Sequence:
#
# PCOD9192427 Si02
#       7
#     8   8   8   8   8   8   8
#     4  11  20  34  58  84 113 148 190 240 289 338
#     4  10  20  33  55  88 123 155 186 232 288 350
#     4  11  20  36  57  87 115 150 186 242 300 345
#     4  10  21  34  54  85 117 150 180 232 289 347
#     4  10  20  36  57  85 118 152 189 226 280 351
#     4  11  23  39  58  86 111 146 195 248 299 337
#     4  11  17  33  56  86 123 149 189 233 289 355
#
# _framework density 21.049510000000001
#
# number of rings (size 3 to 8) (size 9 to 14) (size 15 to 20)
#    0.000    1.429    4.286    3.000    0.000    5.714 
#    0.000    0.714    0.000    5.571    0.000    0.000 
#    0.000    0.000    0.000    0.000    0.000    0.000 
#
# Total GULP energy -156127.520495 kJ/mol
# GULP energy per Si atom -5575.982875 kJ/mol
# Density = 2.100160 g / cm^3
# Si number density = 21.049510 Si / 1000 Ang^3
#
#
#
# Elastic Constant Matrix: (Units=GPa)
#
#
# Indices 1 2 3 4 5 6 
#
# 1 125.5676 50.5152 29.9330 0.0054 35.6197 -0.0001
# 2 50.5152 102.8413 13.1997 0.0016 14.1059 -0.0011
# 3 29.9330 13.1997 49.0810 -0.0200 17.7510 0.0000
# 4 0.0054 0.0016 -0.0200 5.9529 0.0007 2.4834
# 5 35.6197 14.1059 17.7510 0.0007 37.1088 0.0010
# 6 -0.0001 -0.0011 0.0000 2.4834 0.0010 20.7169
#
#
#
# Elastic Compliance Matrix: (Units=1/GPa)
#
#
# Indices 1 2 3 4 5 6 
#
# 1 0.013399 -0.004852 -0.003485 -0.000023 -0.009350 0.000003
# 2 -0.004852 0.012124 -0.000386 0.000000 0.000233 0.000001
# 3 -0.003485 -0.000386 0.025805 0.000096 -0.008852 -0.000011
# 4 -0.000023 0.000000 0.000096 0.176830 -0.000027 -0.021197
# 5 -0.009350 0.000233 -0.008852 -0.000027 0.040068 0.000001
# 6 0.000003 0.000001 -0.000011 -0.021197 0.000001 0.050811
#
#
# Mechanical properties :
#
#
# Convention : Reuss Voigt Hill
#
# Bulk Modulus (GPa) = 29.51369 51.64286 40.57828
# Shear Modulus (GPa) = 14.37705 25.01185 19.69445
#
# Velocity S-wave (km/s) = 2.61628 3.45082 3.06212
# Velocity P-wave (km/s) = 4.81436 6.36120 5.64105
#
# Compressibility (1/GPa) = 0.03388258
#
# Stress axis : x y z
#
# Youngs Moduli (GPa) = 74.63445 82.47811 38.75177
#
# Poissons Ratio (x) = 0.40015 0.13506
# Poissons Ratio (y) = 0.36210 0.01496
# Poissons Ratio (z) = 0.26012 0.03184
#
# Static dielectric constant tensor:
#      x y z
#    x 1.877010 0.000000 -0.045640 
#    y 0.000000 1.723590 0.000000 
#    z -0.045640 0.000000 1.821260 
# 
# From -- ./inp_files/336812.got.cif
#   From: 2010.05.17/outbox.cif.g08.bks.cpg/sg12_169_cif.got.tgz:336812.got - 2010.06.03 13:09:07.
