data_PCOD9192751
_publ_section_title
;
Structure prediction by ZEFSAII (Michael W. Deem and Ramdas Pophale) SiO2 
 PCOD9192751
Probable space group: C 2/M
;
_chemical_formula_sum "Si O2"
_cell_formula_units_Z 64
_cell_length_a 14.538165
_cell_length_b 8.558917
_cell_length_c 32.092624
_cell_angle_alpha 90.000000
_cell_angle_beta 65.001121
_cell_angle_gamma 90.000000
_cell_volume 3619.206056
_symmetry_space_group_name_H-M "C 2/M"
_symmetry_group_IT_number 12
_symmetry_cell_setting 'monoclinic'
loop_
_space_group_symop_operation_xyz
x,y,z
-x,y,-z
-x,-y,-z
x,-y,z
1/2+x,1/2+y,z
1/2-x,1/2+y,-z
1/2-x,1/2-y,-z
1/2+x,1/2-y,z
loop_
_atom_site_type_symbol
_atom_site_label
_atom_site_fract_x
_atom_site_fract_y
_atom_site_fract_z
Si Si1 0.238459 0.811309 0.871295
Si Si2 0.520227 0.688831 0.879735
Si Si3 0.278954 0.187901 0.623611
Si Si4 0.987234 0.812274 0.621441
Si Si5 0.061913 0.189772 0.697740
Si Si6 0.189088 0.313073 0.051009
Si Si7 0.052228 0.188759 0.197824
Si Si8 0.299983 0.813489 0.448427
O O1 0.129299 0.758898 0.875588
O O2 0.258674 0.763077 0.915305
O O3 0.332569 0.748066 0.826581
O O4 0.240924 0.000000 0.869398
O O5 0.517538 0.500000 0.881714
O O6 0.426082 0.752041 0.924429
O O7 0.500612 0.737223 0.835543
O O8 0.381961 0.252871 0.623135
O O9 0.179115 0.237078 0.669122
O O10 0.259039 0.248448 0.580726
O O11 0.282196 0.000000 0.622204
O O12 0.002992 0.764503 0.666818
O O13 0.084174 0.744695 0.578473
O O14 0.991456 0.000000 0.618661
O O15 0.008218 0.245494 0.750041
O O16 0.061439 0.000000 0.699065
O O17 0.188459 0.500000 0.049990
O O18 0.250000 0.250000 0.000000
O O19 0.053429 0.000000 0.198320
O O20 0.250000 0.750000 0.500000
O O21 0.297373 0.000000 0.448509
#
# Coordination Sequence:
#
# PCOD9192751 Si02
#       8
#     8   8   8   8   8   8   8   8
#     4   9  19  34  50  72 101 131 163 208 256 301
#     4   9  18  33  52  72  98 131 167 203 248 300
#     4  10  20  36  56  80 109 141 178 221 265 312
#     4  10  20  36  55  78 109 143 178 218 261 309
#     4   8  17  33  52  75 106 138 170 211 258 303
#     4  10  20  34  51  71  98 128 163 205 252 301
#     4   9  17  32  53  75 100 134 171 208 248 297
#     4  11  22  38  58  81 108 140 177 218 266 317
#
# _framework density 17.683437000000001
#
# number of rings (size 3 to 8) (size 9 to 14) (size 15 to 20)
#    0.000    2.500    0.000    3.000    0.000    3.000 
#    0.000   10.000    0.000    0.000    0.000    0.000 
#    0.000    0.000    0.000    0.000    0.000    0.000 
#
# Total GULP energy -178536.771984 kJ/mol
# GULP energy per Si atom -5579.274124 kJ/mol
# Density = 1.764319 g / cm^3
# Si number density = 17.683437 Si / 1000 Ang^3
#
#
#
# Elastic Constant Matrix: (Units=GPa)
#
#
# Indices 1 2 3 4 5 6 
#
# 1 174.3290 32.4796 85.4022 0.0000 -19.5440 0.0000
# 2 32.4796 44.3142 31.9876 0.0000 -5.1606 0.0000
# 3 85.4022 31.9876 176.7082 0.0000 -18.8664 0.0000
# 4 0.0000 0.0000 0.0000 24.1514 0.0000 -4.1025
# 5 -19.5440 -5.1606 -18.8664 0.0000 8.9665 0.0000
# 6 0.0000 0.0000 0.0000 -4.1025 0.0000 25.5937
#
#
#
# Elastic Compliance Matrix: (Units=1/GPa)
#
#
# Indices 1 2 3 4 5 6 
#
# 1 0.008931 -0.003377 -0.002365 0.000000 0.012545 0.000000
# 2 -0.003377 0.027534 -0.003155 0.000000 0.001848 0.000000
# 3 -0.002365 -0.003155 0.008550 0.000000 0.011018 0.000000
# 4 0.000000 0.000000 0.000000 0.042565 0.000000 0.006823
# 5 0.012545 0.001848 0.011018 0.000000 0.163117 0.000000
# 6 0.000000 0.000000 0.000000 0.006823 0.000000 0.040166
#
#
# Mechanical properties :
#
#
# Convention : Reuss Voigt Hill
#
# Bulk Modulus (GPa) = 36.73846 77.23224 56.98535
# Shear Modulus (GPa) = 15.73665 28.10778 21.92221
#
# Velocity S-wave (km/s) = 2.98637 3.99118 3.52476
# Velocity P-wave (km/s) = 5.71944 8.06282 6.99003
#
# Compressibility (1/GPa) = 0.02721943
#
# Stress axis : x y z
#
# Youngs Moduli (GPa) = 111.97256 36.31905 116.96421
#
# Poissons Ratio (x) = 0.12266 0.27667
# Poissons Ratio (y) = 0.37816 0.36898
# Poissons Ratio (z) = 0.26486 0.11457
#
# Static dielectric constant tensor:
#      x y z
#    x 1.583220 0.000000 0.008820 
#    y 0.000000 1.598170 0.000000 
#    z 0.008820 0.000000 1.586570 
# 
# From -- ./inp_files/374806.got.cif
#   From: 2010.05.17/outbox.cif.g08.bks.cpg/sg12_188_cif.got.tgz:374806.got - 2010.06.03 13:09:07.
