data_PCOD9192144
_publ_section_title
;
Structure prediction by ZEFSAII (Michael W. Deem and Ramdas Pophale) SiO2 
 PCOD9192144
Probable space group: C 2/M
;
_chemical_formula_sum "Si O2"
_cell_formula_units_Z 56
_cell_length_a 38.555267
_cell_length_b 7.414778
_cell_length_c 10.049304
_cell_angle_alpha 90.000000
_cell_angle_beta 55.015352
_cell_angle_gamma 90.000000
_cell_volume 2353.768945
_symmetry_space_group_name_H-M "C 2/M"
_symmetry_group_IT_number 12
_symmetry_cell_setting 'monoclinic'
loop_
_space_group_symop_operation_xyz
x,y,z
-x,y,-z
-x,-y,-z
x,-y,z
1/2+x,1/2+y,z
1/2-x,1/2+y,-z
1/2-x,1/2-y,-z
1/2+x,1/2-y,z
loop_
_atom_site_type_symbol
_atom_site_label
_atom_site_fract_x
_atom_site_fract_y
_atom_site_fract_z
Si Si1 0.546917 0.705658 0.415913
Si Si2 0.211335 0.215384 0.485180
Si Si3 0.440843 0.217847 0.026846
Si Si4 0.152412 0.794845 0.836361
Si Si5 0.967488 0.717679 0.262365
Si Si6 0.210961 0.215703 0.185205
Si Si7 0.638913 0.722120 0.148851
O O1 0.500000 0.789559 0.500000
O O2 0.543819 0.500000 0.373286
O O3 0.553462 0.705995 0.560456
O O4 0.590107 0.785176 0.262131
O O5 0.250000 0.250000 0.500000
O O6 0.171832 0.285965 0.659503
O O7 0.216413 0.286550 0.323969
O O8 0.206860 0.000000 0.479092
O O9 0.397919 0.294946 0.066076
O O10 0.447242 0.271154 0.166648
O O11 0.438650 0.000000 0.027270
O O12 0.483082 0.271016 0.855046
O O13 0.168403 0.000000 0.807303
O O14 0.160924 0.715617 0.963094
O O15 0.965940 0.500000 0.272684
O O16 0.167765 0.279314 0.208909
O O17 0.207513 0.000000 0.200814
O O18 0.250000 0.250000 0.000000
O O19 0.637582 0.500000 0.150660
#
# Coordination Sequence:
#
# PCOD9192144 Si02
#       7
#     8   8   8   8   8   8   8
#     4  10  20  33  53  80 110 146 189 232 278 330
#     4  10  22  38  60  88 115 147 188 232 282 342
#     4   9  19  35  53  75 107 146 183 228 281 328
#     4  10  20  35  57  83 109 142 187 229 274 332
#     4   9  19  35  52  73 106 146 187 228 277 330
#     4  10  21  39  61  85 115 150 187 231 284 340
#     4   9  19  35  55  80 116 151 180 228 286 333
#
# _framework density 23.791629
#
# number of rings (size 3 to 8) (size 9 to 14) (size 15 to 20)
#    0.000    2.429    0.000    2.571    2.000    4.857 
#    0.000    3.571    0.000    0.000    0.000    0.000 
#    0.000    0.000    0.000    0.000    0.000    0.000 
#
# Total GULP energy -156407.894760 kJ/mol
# GULP energy per Si atom -5585.996241 kJ/mol
# Density = 2.373748 g / cm^3
# Si number density = 23.791629 Si / 1000 Ang^3
#
#
#
# Elastic Constant Matrix: (Units=GPa)
#
#
# Indices 1 2 3 4 5 6 
#
# 1 116.9738 1.4079 67.1920 0.0000 10.7332 0.0000
# 2 1.4079 82.9089 6.4395 0.0000 5.5552 0.0000
# 3 67.1920 6.4395 181.9152 0.0000 29.8207 0.0000
# 4 0.0000 0.0000 0.0000 -71.0269 0.0000 -35.0648
# 5 10.7332 5.5552 29.8207 0.0000 35.2595 0.0000
# 6 0.0000 0.0000 0.0000 -35.0648 0.0000 1.7641
#
#
#
# Elastic Compliance Matrix: (Units=1/GPa)
#
#
# Indices 1 2 3 4 5 6 
#
# 1 0.010853 0.000123 -0.004026 0.000000 0.000082 0.000000
# 2 0.000123 0.012194 -0.000181 0.000000 -0.001806 0.000000
# 3 -0.004026 -0.000181 0.007877 0.000000 -0.005408 0.000000
# 4 0.000000 0.000000 0.000000 -0.001302 0.000000 -0.025881
# 5 0.000082 -0.001806 -0.005408 0.000000 0.033194 0.000000
# 6 0.000000 0.000000 0.000000 -0.025881 0.000000 0.052425
#
#
# Mechanical properties :
#
#
# Convention : Reuss Voigt Hill
#
# Bulk Modulus (GPa) = 43.94613 59.09740 51.52177
# Shear Modulus (GPa) = 38.16930 13.64992 25.90961
#
# Velocity S-wave (km/s) = 4.00974 2.39786 3.30361
# Velocity P-wave (km/s) = 6.32050 5.70612 6.02115
#
# Compressibility (1/GPa) = 0.02275513
#
# Stress axis : x y z
#
# Youngs Moduli (GPa) = 92.14275 82.00499 126.94923
#
# Poissons Ratio (x) = -0.01008 0.51115
# Poissons Ratio (y) = -0.01133 0.02299
# Poissons Ratio (z) = 0.37100 0.01485
#
# Static dielectric constant tensor:
#      x y z
#    x 1.887030 0.000000 0.007020 
#    y 0.000000 1.938210 0.000000 
#    z 0.007020 0.000000 1.936380 
# 
# From -- ./inp_files/110354.got.cif
#   From: 2010.05.17/outbox.cif.g08.bks.cpg/sg12_56_cif.got.tgz:110354.got - 2010.06.03 13:09:07.
