data_PCOD9192535
_publ_section_title
;
Structure prediction by ZEFSAII (Michael W. Deem and Ramdas Pophale) SiO2 
 PCOD9192535
Probable space group: C 2/M
;
_chemical_formula_sum "Si O2"
_cell_formula_units_Z 56
_cell_length_a 5.568374
_cell_length_b 22.540781
_cell_length_c 20.604374
_cell_angle_alpha 90.000000
_cell_angle_beta 106.996749
_cell_angle_gamma 90.000000
_cell_volume 2473.207926
_symmetry_space_group_name_H-M "C 2/M"
_symmetry_group_IT_number 12
_symmetry_cell_setting 'monoclinic'
loop_
_space_group_symop_operation_xyz
x,y,z
-x,y,-z
-x,-y,-z
x,-y,z
1/2+x,1/2+y,z
1/2-x,1/2+y,-z
1/2-x,1/2-y,-z
1/2+x,1/2-y,z
loop_
_atom_site_type_symbol
_atom_site_label
_atom_site_fract_x
_atom_site_fract_y
_atom_site_fract_z
Si Si1 0.063364 0.430057 0.813177
Si Si2 0.375847 0.930032 0.653168
Si Si3 0.137640 0.781581 0.285875
Si Si4 0.279051 0.682752 0.027016
Si Si5 0.423314 0.631805 0.167816
Si Si6 0.581459 0.172673 0.571029
Si Si7 0.129763 0.937847 0.441395
O O1 0.054661 0.500000 0.824107
O O2 0.839875 0.399912 0.836579
O O3 0.992610 0.418995 0.732059
O O4 0.348081 0.407099 0.843024
O O5 0.437288 0.874040 0.609984
O O6 0.074835 0.932220 0.631082
O O7 0.439163 0.000000 0.641034
O O8 0.389363 0.759771 0.268733
O O9 0.237508 0.790790 0.367033
O O10 0.032779 0.839407 0.241890
O O11 0.364350 0.680599 0.108278
O O12 0.500000 0.655419 0.000000
O O13 0.250000 0.750000 0.000000
O O14 0.000000 0.655022 0.000000
O O15 0.500000 0.209935 0.500000
O O16 0.732665 0.122812 0.544781
O O17 0.000000 0.942741 0.500000
O O18 0.268481 0.000000 0.443596
#
# Coordination Sequence:
#
# PCOD9192535 Si02
#       7
#     8   8   8   8   8   8   8
#     4  11  24  43  72 110 146 191 238 276 341 434
#     4  10  21  37  59  94 131 170 225 291 352 419
#     4  12  30  47  70  97 133 185 247 295 356 417
#     4  10  23  41  70 111 146 177 228 287 355 401
#     4  12  24  46  78 103 152 188 226 292 354 408
#     4  12  24  40  63  85 130 176 234 292 363 416
#     4  10  20  33  57  90 123 160 213 283 364 428
#
# _framework density 22.642658999999998
#
# number of rings (size 3 to 8) (size 9 to 14) (size 15 to 20)
#    0.000    1.000    2.857    3.429    6.000    1.143 
#    0.000    0.000    0.000    8.571    0.000    0.000 
#    0.000    0.000    0.000    0.000    0.000    0.000 
#
# Total GULP energy -155975.558035 kJ/mol
# GULP energy per Si atom -5570.555644 kJ/mol
# Density = 2.259112 g / cm^3
# Si number density = 22.642659 Si / 1000 Ang^3
#
#
#
# Elastic Constant Matrix: (Units=GPa)
#
#
# Indices 1 2 3 4 5 6 
#
# 1 136.6757 28.4586 18.4473 0.0000 -2.6004 0.0000
# 2 28.4586 47.6234 8.8440 0.0000 -5.3655 0.0000
# 3 18.4473 8.8440 96.2393 0.0000 -1.5049 0.0000
# 4 0.0000 0.0000 0.0000 41.0939 0.0000 6.1490
# 5 -2.6004 -5.3655 -1.5049 0.0000 21.2963 0.0000
# 6 0.0000 0.0000 0.0000 6.1490 0.0000 32.7225
#
#
#
# Elastic Compliance Matrix: (Units=1/GPa)
#
#
# Indices 1 2 3 4 5 6 
#
# 1 0.008488 -0.004884 -0.001182 0.000000 -0.000278 0.000000
# 2 -0.004884 0.024775 -0.001254 0.000000 0.005557 0.000000
# 3 -0.001182 -0.001254 0.010737 0.000000 0.000298 0.000000
# 4 0.000000 0.000000 0.000000 0.025039 0.000000 -0.004705
# 5 -0.000278 0.005557 0.000298 0.000000 0.048344 0.000000
# 6 0.000000 0.000000 0.000000 -0.004705 0.000000 0.031444
#
#
# Mechanical properties :
#
#
# Convention : Reuss Voigt Hill
#
# Bulk Modulus (GPa) = 34.05932 43.55981 38.80956
# Shear Modulus (GPa) = 28.85935 34.00843 31.43389
#
# Velocity S-wave (km/s) = 3.57397 3.87972 3.72998
# Velocity P-wave (km/s) = 5.66619 6.27291 5.97725
#
# Compressibility (1/GPa) = 0.02936054
#
# Stress axis : x y z
#
# Youngs Moduli (GPa) = 117.81594 40.36249 93.13323
#
# Poissons Ratio (x) = 0.19712 0.11013
# Poissons Ratio (y) = 0.57539 0.11676
# Poissons Ratio (z) = 0.13932 0.05060
#
# Static dielectric constant tensor:
#      x y z
#    x 2.072830 0.000000 -0.076010 
#    y 0.000000 1.834010 0.000000 
#    z -0.076010 0.000000 1.822820 
# 
# From -- ./inp_files/298106.got.cif
#   From: 2010.05.17/outbox.cif.g08.bks.cpg/sg12_150_cif.got.tgz:298106.got - 2010.06.03 13:09:07.
