data_PCOD9192064
_publ_section_title
;
Structure prediction by ZEFSAII (Michael W. Deem and Ramdas Pophale) SiO2 
 PCOD9192064
Probable space group: C 2/M
;
_chemical_formula_sum "Si O2"
_cell_formula_units_Z 58
_cell_length_a 25.085534
_cell_length_b 7.341855
_cell_length_c 25.184163
_cell_angle_alpha 90.000000
_cell_angle_beta 149.346291
_cell_angle_gamma 90.000000
_cell_volume 2364.816452
_symmetry_space_group_name_H-M "C 2/M"
_symmetry_group_IT_number 12
_symmetry_cell_setting 'monoclinic'
loop_
_space_group_symop_operation_xyz
x,y,z
-x,y,-z
-x,-y,-z
x,-y,z
1/2+x,1/2+y,z
1/2-x,1/2+y,-z
1/2-x,1/2-y,-z
1/2+x,1/2-y,z
loop_
_atom_site_type_symbol
_atom_site_label
_atom_site_fract_x
_atom_site_fract_y
_atom_site_fract_z
Si Si1 0.800104 0.782790 0.985508
Si Si2 0.983975 0.220794 0.072625
Si Si3 0.426309 0.704986 0.664257
Si Si4 0.225647 0.779957 0.284231
Si Si5 0.736127 0.221792 0.566565
Si Si6 0.500000 0.000000 0.000000
Si Si7 0.919911 0.722088 0.386078
Si Si8 0.884085 0.707650 0.240602
O O1 0.719541 0.707345 0.872565
O O2 0.800081 0.000000 0.980968
O O3 0.750000 0.750000 0.000000
O O4 0.917000 0.730623 0.067840
O O5 0.105819 0.279513 0.180085
O O6 0.944744 0.338057 0.989483
O O7 0.979239 0.000000 0.060736
O O8 0.455433 0.500000 0.704531
O O9 0.348425 0.705054 0.546790
O O10 0.351646 0.779529 0.646187
O O11 0.530553 0.796015 0.732999
O O12 0.277792 0.726159 0.384728
O O13 0.302829 0.725997 0.303581
O O14 0.222230 0.000000 0.281521
O O15 0.731503 0.000000 0.558453
O O16 0.929542 0.500000 0.395354
O O17 0.933581 0.783951 0.337111
O O18 0.000000 0.786385 0.500000
O O19 0.856847 0.500000 0.231104
#
# Coordination Sequence:
#
# PCOD9192064 Si02
#       8
#     8   8   8   8   8   2   8   8
#     4  10  24  43  66  93 130 175 224 286 345 405
#     4  10  24  45  69  99 134 173 225 285 340 408
#     4  10  20  33  52  85 116 153 195 249 310 371
#     4   9  18  35  62  89 116 159 205 259 316 378
#     4   9  18  34  57  81 114 153 201 247 306 377
#     4  12  26  44  72 102 134 172 222 282 350 418
#     4   9  17  31  58  92 120 153 205 257 308 384
#     4  10  21  37  58  85 117 161 209 253 321 389
#
# _framework density 24.526214
#
# number of rings (size 3 to 8) (size 9 to 14) (size 15 to 20)
#    0.000    2.345    0.000    1.448    4.828    3.310 
#    1.241    0.000    0.000    1.241    0.000    0.000 
#    0.000    0.000    0.000    0.000    0.000    0.000 
#
# Total GULP energy -161689.057365 kJ/mol
# GULP energy per Si atom -5575.484737 kJ/mol
# Density = 2.447039 g / cm^3
# Si number density = 24.526214 Si / 1000 Ang^3
#
#
#
# Elastic Constant Matrix: (Units=GPa)
#
#
# Indices 1 2 3 4 5 6 
#
# 1 103.9485 3.1851 3.8465 0.0000 16.2599 0.0001
# 2 3.1851 102.4602 -3.2738 0.0001 1.5194 0.0006
# 3 3.8465 -3.2738 72.7186 0.0000 16.3061 0.0001
# 4 0.0000 0.0001 0.0000 -10.0467 0.0000 11.2837
# 5 16.2599 1.5194 16.3061 0.0000 34.1857 0.0000
# 6 0.0001 0.0006 0.0001 11.2837 0.0000 -3.8794
#
#
#
# Elastic Compliance Matrix: (Units=1/GPa)
#
#
# Indices 1 2 3 4 5 6 
#
# 1 0.010424 -0.000227 0.000614 0.000000 -0.005241 0.000000
# 2 -0.000227 0.009795 0.000589 -0.000001 -0.000609 -0.000001
# 3 0.000614 0.000589 0.015472 0.000000 -0.007698 0.000000
# 4 0.000000 -0.000001 0.000000 0.043911 0.000000 0.127721
# 5 -0.005241 -0.000609 -0.007698 0.000000 0.035443 0.000000
# 6 0.000000 -0.000001 0.000000 0.127721 0.000000 0.113719
#
#
# Mechanical properties :
#
#
# Convention : Reuss Voigt Hill
#
# Bulk Modulus (GPa) = 26.56511 31.84921 29.20716
# Shear Modulus (GPa) = 20.88904 22.40988 21.64946
#
# Velocity S-wave (km/s) = 2.92156 3.02605 2.97426
# Velocity P-wave (km/s) = 4.71545 5.02227 4.87128
#
# Compressibility (1/GPa) = 0.03764335
#
# Stress axis : x y z
#
# Youngs Moduli (GPa) = 95.93108 102.09506 64.63343
#
# Poissons Ratio (x) = 0.02315 -0.03966
# Poissons Ratio (y) = 0.02175 -0.03810
# Poissons Ratio (z) = -0.05886 -0.06018
#
# Static dielectric constant tensor:
#      x y z
#    x 1.926090 0.000000 -0.015590 
#    y 0.000000 1.956260 0.000000 
#    z -0.015590 0.000000 1.982020 
# 
# From -- ./inp_files/367604.got.cif
#   From: 2010.05.17/outbox.cif.g08.bks.cpg/sg12_184_cif.got.tgz:367604.got - 2010.06.03 13:09:07.
