data_PCOD9192089
_publ_section_title
;
Structure prediction by ZEFSAII (Michael W. Deem and Ramdas Pophale) SiO2 
 PCOD9192089
Probable space group: C 2/M
;
_chemical_formula_sum "Si O2"
_cell_formula_units_Z 48
_cell_length_a 23.967011
_cell_length_b 13.560029
_cell_length_c 7.655180
_cell_angle_alpha 90.000000
_cell_angle_beta 111.601641
_cell_angle_gamma 90.000000
_cell_volume 2313.148604
_symmetry_space_group_name_H-M "C 2/M"
_symmetry_group_IT_number 12
_symmetry_cell_setting 'monoclinic'
loop_
_space_group_symop_operation_xyz
x,y,z
-x,y,-z
-x,-y,-z
x,-y,z
1/2+x,1/2+y,z
1/2-x,1/2+y,-z
1/2-x,1/2-y,-z
1/2+x,1/2-y,z
loop_
_atom_site_type_symbol
_atom_site_label
_atom_site_fract_x
_atom_site_fract_y
_atom_site_fract_z
Si Si1 0.729861 0.695615 0.757071
Si Si2 0.571206 0.805454 0.282782
Si Si3 0.149789 0.108766 0.379477
Si Si4 0.931828 0.689257 0.130883
Si Si5 0.850206 0.607651 0.333002
Si Si6 0.331593 0.326459 0.972330
O O1 0.707888 0.640630 0.559817
O O2 0.696315 0.801984 0.721239
O O3 0.798460 0.725826 0.863656
O O4 0.705054 0.640781 0.900363
O O5 0.601048 0.696610 0.340989
O O6 0.501683 0.805205 0.256919
O O7 0.609737 0.876883 0.448436
O O8 0.572846 0.834657 0.080560
O O9 0.165932 0.107428 0.194081
O O10 0.129491 0.000000 0.411625
O O11 0.894866 0.620824 0.219905
O O12 0.897931 0.794706 0.107828
O O13 0.821827 0.500000 0.297543
#
# Coordination Sequence:
#
# PCOD9192089 Si02
#       6
#     8   8   8   8   8   8
#     4   9  19  36  55  76 108 138 169 216 261 301
#     4   9  19  35  52  74 106 135 166 214 261 301
#     4  10  20  34  55  80 105 138 177 213 254 307
#     4   9  18  34  53  72 100 135 170 210 257 305
#     4  10  20  33  53  78 102 134 173 212 259 312
#     4   9  18  35  55  74 101 140 173 208 257 305
#
# _framework density 20.750935999999999
#
# number of rings (size 3 to 8) (size 9 to 14) (size 15 to 20)
#    0.000    2.667    0.000    1.000    0.000    3.333 
#    0.000   15.000    0.000   13.000    0.000    0.000 
#    0.000    0.000    0.000    0.000    0.000    0.000 
#
# Total GULP energy -133865.094722 kJ/mol
# GULP energy per Si atom -5577.712280 kJ/mol
# Density = 2.070371 g / cm^3
# Si number density = 20.750936 Si / 1000 Ang^3
#
#
#
# Elastic Constant Matrix: (Units=GPa)
#
#
# Indices 1 2 3 4 5 6 
#
# 1 55.1946 4.6940 -7.9424 0.0000 9.3629 0.0000
# 2 4.6940 81.6532 16.4843 0.0000 -13.4816 0.0000
# 3 -7.9424 16.4843 63.8610 0.0000 4.1507 0.0000
# 4 0.0000 0.0000 0.0000 2.3519 0.0000 -5.3986
# 5 9.3629 -13.4816 4.1507 0.0000 25.0830 0.0000
# 6 0.0000 0.0000 0.0000 -5.3986 0.0000 8.2143
#
#
#
# Elastic Compliance Matrix: (Units=1/GPa)
#
#
# Indices 1 2 3 4 5 6 
#
# 1 0.020837 -0.003794 0.004255 0.000000 -0.010521 0.000000
# 2 -0.003794 0.015212 -0.005077 0.000000 0.010433 0.000000
# 3 0.004255 -0.005077 0.017972 0.000000 -0.007291 0.000000
# 4 0.000000 0.000000 0.000000 -0.836071 0.000000 -0.549478
# 5 -0.010521 0.010433 -0.007291 0.000000 0.050609 0.000000
# 6 0.000000 0.000000 0.000000 -0.549478 0.000000 -0.239386
#
#
# Mechanical properties :
#
#
# Convention : Reuss Voigt Hill
#
# Bulk Modulus (GPa) = 22.32621 25.24229 23.78425
# Shear Modulus (GPa) = -5.28171 19.62805 7.17317
#
# Velocity S-wave (km/s) = -1.59713 3.07886 1.86126
# Velocity P-wave (km/s) = 2.71688 4.98297 4.01319
#
# Compressibility (1/GPa) = 0.04479040
#
# Stress axis : x y z
#
# Youngs Moduli (GPa) = 47.99065 65.73577 55.64065
#
# Poissons Ratio (x) = 0.24940 -0.23674
# Poissons Ratio (y) = 0.18208 0.28247
# Poissons Ratio (z) = -0.20419 0.33372
#
# Static dielectric constant tensor:
#      x y z
#    x 1.758790 0.000000 -0.014280 
#    y 0.000000 1.717200 0.000000 
#    z -0.014280 0.000000 1.758910 
# 
# From -- ./inp_files/102818.got.cif
#   From: 2010.05.17/outbox.cif.g08.bks.cpg/sg12_52_cif.got.tgz:102818.got - 2010.06.03 13:09:07.
