data_PCOD9192434
_publ_section_title
;
Structure prediction by ZEFSAII (Michael W. Deem and Ramdas Pophale) SiO2 
 PCOD9192434
Probable space group: C 2/M
;
_chemical_formula_sum "Si O2"
_cell_formula_units_Z 64
_cell_length_a 17.529241
_cell_length_b 14.954686
_cell_length_c 18.936167
_cell_angle_alpha 90.000000
_cell_angle_beta 38.987986
_cell_angle_gamma 90.000000
_cell_volume 3123.142570
_symmetry_space_group_name_H-M "C 2/M"
_symmetry_group_IT_number 12
_symmetry_cell_setting 'monoclinic'
loop_
_space_group_symop_operation_xyz
x,y,z
-x,y,-z
-x,-y,-z
x,-y,z
1/2+x,1/2+y,z
1/2-x,1/2+y,-z
1/2-x,1/2-y,-z
1/2+x,1/2-y,z
loop_
_atom_site_type_symbol
_atom_site_label
_atom_site_fract_x
_atom_site_fract_y
_atom_site_fract_z
Si Si1 0.887264 0.898974 0.250861
Si Si2 0.186835 0.603870 0.143026
Si Si3 0.037833 0.399869 0.101871
Si Si4 0.437345 0.709076 0.970849
Si Si5 0.078134 0.901191 0.606517
Si Si6 0.334151 0.898085 0.349863
Si Si7 0.977512 0.289949 0.356241
Si Si8 0.375102 0.900542 0.548166
O O1 0.879509 0.895852 0.341877
O O2 0.750530 0.886449 0.320991
O O3 0.977646 0.828005 0.153113
O O4 0.928350 0.000000 0.202903
O O5 0.208707 0.500000 0.143743
O O6 0.118129 0.607379 0.116374
O O7 0.095676 0.649017 0.264394
O O8 0.309242 0.660257 0.054517
O O9 0.057554 0.500000 0.058932
O O10 0.072354 0.315967 0.029658
O O11 0.896329 0.392595 0.228416
O O12 0.500000 0.685885 0.000000
O O13 0.192658 0.893228 0.470919
O O14 0.995641 0.814321 0.657035
O O15 0.023915 0.000000 0.635655
O O16 0.397467 0.818103 0.346532
O O17 0.371207 0.000000 0.347528
O O18 0.893514 0.322278 0.479897
O O19 0.500000 0.902225 0.500000
O O20 0.362321 0.000000 0.523985
#
# Coordination Sequence:
#
# PCOD9192434 Si02
#       8
#     8   8   8   8   8   8   8   8
#     4  10  21  37  56  83 118 150 185 233 292 351
#     4  10  22  40  62  87 115 152 198 246 296 354
#     4   9  20  39  64  87 113 153 203 251 290 341
#     4  12  26  40  58  85 121 161 203 242 294 349
#     4  10  20  33  55  90 122 146 181 234 296 350
#     4   9  16  30  55  89 118 142 179 236 300 354
#     4  11  19  32  58  83 114 151 189 233 284 348
#     4  10  21  34  53  82 114 149 186 232 284 349
#
# _framework density 20.492180000000001
#
# number of rings (size 3 to 8) (size 9 to 14) (size 15 to 20)
#    0.000    1.875    1.250    4.500    3.500    1.250 
#    0.000    1.875    0.000    0.375    0.000    0.000 
#    0.000    0.000    0.000    0.000    0.000    0.000 
#
# Total GULP energy -178440.318765 kJ/mol
# GULP energy per Si atom -5576.259961 kJ/mol
# Density = 2.044554 g / cm^3
# Si number density = 20.492180 Si / 1000 Ang^3
#
#
#
# Elastic Constant Matrix: (Units=GPa)
#
#
# Indices 1 2 3 4 5 6 
#
# 1 12.0092 3.6516 6.4651 0.0000 -4.2851 0.0000
# 2 3.6516 146.1562 34.9471 0.0000 -7.3400 0.0000
# 3 6.4651 34.9471 53.5914 0.0001 -14.1771 0.0000
# 4 0.0000 0.0000 0.0001 22.7773 0.0000 -2.7501
# 5 -4.2851 -7.3400 -14.1771 0.0000 12.0127 0.0000
# 6 0.0000 0.0000 0.0000 -2.7501 0.0000 7.6442
#
#
#
# Elastic Compliance Matrix: (Units=1/GPa)
#
#
# Indices 1 2 3 4 5 6 
#
# 1 0.095906 -0.000023 -0.003647 0.000000 0.029893 0.000000
# 2 -0.000023 0.008135 -0.005800 0.000000 -0.001883 0.000000
# 3 -0.003647 -0.005800 0.031405 0.000000 0.032219 0.000000
# 4 0.000000 0.000000 0.000000 0.045897 0.000000 0.016512
# 5 0.029893 -0.001883 0.032219 0.000000 0.130783 0.000000
# 6 0.000000 0.000000 0.000000 0.016512 0.000000 0.136759
#
#
# Mechanical properties :
#
#
# Convention : Reuss Voigt Hill
#
# Bulk Modulus (GPa) = 8.58320 33.54268 21.06294
# Shear Modulus (GPa) = 9.86855 19.59970 14.73412
#
# Velocity S-wave (km/s) = 2.19687 3.09600 2.68435
# Velocity P-wave (km/s) = 3.26076 5.40226 4.46189
#
# Compressibility (1/GPa) = 0.11650663
#
# Stress axis : x y z
#
# Youngs Moduli (GPa) = 10.42686 122.92778 31.84192
#
# Poissons Ratio (x) = 0.00281 0.11612
# Poissons Ratio (y) = 0.00024 0.18469
# Poissons Ratio (z) = 0.03802 0.71299
#
# Static dielectric constant tensor:
#      x y z
#    x 1.739420 0.000000 0.018530 
#    y 0.000000 1.763410 0.000000 
#    z 0.018530 0.000000 1.749010 
# 
# From -- ./inp_files/278159.got.cif
#   From: 2010.05.17/outbox.cif.g08.bks.cpg/sg12_140_cif.got.tgz:278159.got - 2010.06.03 13:09:07.
