data_PCOD9192973
_publ_section_title
;
Structure prediction by ZEFSAII (Michael W. Deem and Ramdas Pophale) SiO2 
 PCOD9192973
Probable space group: C 2/M
;
_chemical_formula_sum "Si O2"
_cell_formula_units_Z 54
_cell_length_a 8.256814
_cell_length_b 12.205760
_cell_length_c 27.888730
_cell_angle_alpha 90.000000
_cell_angle_beta 100.827306
_cell_angle_gamma 90.000000
_cell_volume 2760.609886
_symmetry_space_group_name_H-M "C 2/M"
_symmetry_group_IT_number 12
_symmetry_cell_setting 'monoclinic'
loop_
_space_group_symop_operation_xyz
x,y,z
-x,y,-z
-x,-y,-z
x,-y,z
1/2+x,1/2+y,z
1/2-x,1/2+y,-z
1/2-x,1/2-y,-z
1/2+x,1/2-y,z
loop_
_atom_site_type_symbol
_atom_site_label
_atom_site_fract_x
_atom_site_fract_y
_atom_site_fract_z
Si Si1 0.888060 0.706888 0.772776
Si Si2 0.760426 0.687065 0.450238
Si Si3 0.223964 0.624350 0.831859
Si Si4 0.550773 0.377474 0.715067
Si Si5 0.596127 0.622571 0.603866
Si Si6 0.500000 0.000000 0.500000
Si Si7 0.000000 0.792058 0.000000
Si Si8 0.164985 0.375519 0.940891
O O1 0.843484 0.787666 0.814215
O O2 0.727065 0.637887 0.750790
O O3 0.048285 0.637887 0.795506
O O4 0.933400 0.785307 0.730635
O O5 0.750000 0.750000 0.500000
O O6 0.585196 0.632705 0.429099
O O7 0.799363 0.779282 0.412821
O O8 0.900563 0.596078 0.463937
O O9 0.285537 0.500000 0.829686
O O10 0.194917 0.644882 0.886420
O O11 0.485933 0.500000 0.720510
O O12 0.578045 0.365623 0.659901
O O13 0.663427 0.500000 0.596799
O O14 0.839801 0.861430 0.977576
O O15 0.044797 0.712484 0.958193
O O16 0.103688 0.500000 0.943165
#
# Coordination Sequence:
#
# PCOD9192973 Si02
#       8
#     8   8   8   8   8   2   4   8
#     4  10  20  36  57  79 110 139 177 222 270 318
#     4  12  24  40  60  85 113 146 183 223 269 318
#     4  10  20  34  55  80 106 140 180 223 267 319
#     4  10  21  38  57  82 109 142 177 219 269 321
#     4  11  24  39  61  84 113 145 183 223 269 324
#     4  12  24  40  60  84 116 144 182 226 268 316
#     4  10  20  34  52  74 108 144 178 222 270 316
#     4  10  20  34  52  77 106 141 182 221 268 318
#
# _framework density 19.560894999999999
#
# number of rings (size 3 to 8) (size 9 to 14) (size 15 to 20)
#    0.000    1.481    2.222    3.111    1.037    0.593 
#    0.000    0.000    1.630   14.222    0.000    0.000 
#    0.000    0.000    0.000    0.000    0.000    0.000 
#
# Total GULP energy -150579.135037 kJ/mol
# GULP energy per Si atom -5577.005001 kJ/mol
# Density = 1.951637 g / cm^3
# Si number density = 19.560895 Si / 1000 Ang^3
#
#
#
# Elastic Constant Matrix: (Units=GPa)
#
#
# Indices 1 2 3 4 5 6 
#
# 1 15.3083 -1.3892 -21.0575 0.0000 -1.6957 0.0000
# 2 -1.3892 100.4472 26.2429 0.0000 -19.7446 0.0000
# 3 -21.0575 26.2429 62.0548 0.0000 -14.3438 0.0000
# 4 0.0000 0.0000 0.0000 -0.2432 0.0000 -0.1083
# 5 -1.6957 -19.7446 -14.3438 0.0000 26.6988 0.0000
# 6 0.0000 0.0000 0.0000 -0.1083 0.0000 2.7627
#
#
#
# Elastic Compliance Matrix: (Units=1/GPa)
#
#
# Indices 1 2 3 4 5 6 
#
# 1 0.162482 -0.007344 0.067790 0.000000 0.041308 0.000000
# 2 -0.007344 0.012625 -0.006600 0.000000 0.005324 0.000000
# 3 0.067790 -0.006600 0.047700 0.000000 0.025051 0.000000
# 4 0.000000 0.000000 0.000000 -4.041020 0.000000 -0.158425
# 5 0.041308 0.005324 0.025051 0.000000 0.057474 0.000000
# 6 0.000000 0.000000 0.000000 -0.158425 0.000000 0.355749
#
#
# Mechanical properties :
#
#
# Convention : Reuss Voigt Hill
#
# Bulk Modulus (GPa) = 3.02573 20.60030 11.81301
# Shear Modulus (GPa) = -1.46950 17.44462 7.98756
#
# Velocity S-wave (km/s) = -0.86768 2.98956 2.02294
# Velocity P-wave (km/s) = 0.73915 4.74034 3.39243
#
# Compressibility (1/GPa) = 0.33049917
#
# Stress axis : x y z
#
# Youngs Moduli (GPa) = 6.15452 79.20877 20.96428
#
# Poissons Ratio (x) = 0.58169 -1.42117
# Poissons Ratio (y) = 0.04520 0.13837
# Poissons Ratio (z) = -0.41722 0.52281
#
# Static dielectric constant tensor:
#      x y z
#    x 1.661780 0.000000 -0.007930 
#    y 0.000000 1.702530 0.000000 
#    z -0.007930 0.000000 1.655010 
# 
# From -- ./inp_files/355878.got.cif
#   From: 2010.05.17/outbox.cif.g08.bks.cpg/sg12_178_cif.got.tgz:355878.got - 2010.06.03 13:09:07.
