data_PCOD9192702
_publ_section_title
;
Structure prediction by ZEFSAII (Michael W. Deem and Ramdas Pophale) SiO2 
 PCOD9192702
Probable space group: C 2/M
;
_chemical_formula_sum "Si O2"
_cell_formula_units_Z 52
_cell_length_a 28.343029
_cell_length_b 10.019893
_cell_length_c 28.097333
_cell_angle_alpha 90.000000
_cell_angle_beta 21.768995
_cell_angle_gamma 90.000000
_cell_volume 2959.311570
_symmetry_space_group_name_H-M "C 2/M"
_symmetry_group_IT_number 12
_symmetry_cell_setting 'monoclinic'
loop_
_space_group_symop_operation_xyz
x,y,z
-x,y,-z
-x,-y,-z
x,-y,z
1/2+x,1/2+y,z
1/2-x,1/2+y,-z
1/2-x,1/2-y,-z
1/2+x,1/2-y,z
loop_
_atom_site_type_symbol
_atom_site_label
_atom_site_fract_x
_atom_site_fract_y
_atom_site_fract_z
Si Si1 0.106279 0.153544 0.680915
Si Si2 0.661048 0.653352 0.893025
Si Si3 0.087833 0.656799 0.612136
Si Si4 0.552013 0.843702 0.350667
Si Si5 0.000000 0.787454 0.500000
Si Si6 0.584699 0.345687 0.810117
Si Si7 0.788095 0.349455 0.240273
O O1 0.058179 0.255631 0.686284
O O2 0.260189 0.164051 0.538320
O O3 0.059906 0.180082 0.777860
O O4 0.075267 0.000000 0.697431
O O5 0.661472 0.500000 0.873217
O O6 0.795654 0.673731 0.793265
O O7 0.657170 0.760654 0.854441
O O8 0.543754 0.664323 0.038646
O O9 0.055741 0.500000 0.649470
O O10 0.017385 0.711098 0.631054
O O11 0.507107 0.792388 0.443854
O O12 0.523878 0.000000 0.376380
O O13 0.863646 0.858042 0.625114
O O14 0.632127 0.500000 0.769518
O O15 0.680243 0.237969 0.742835
O O16 0.839940 0.500000 0.193768
#
# Coordination Sequence:
#
# PCOD9192702 Si02
#       7
#     8   8   8   8   4   8   8
#     4   9  18  32  50  72  97 127 164 205 248 295
#     4   9  19  35  53  73  99 133 170 206 245 291
#     4   9  17  31  50  73  99 126 160 204 252 295
#     4   9  17  31  53  77 100 130 168 208 246 289
#     4  10  20  34  50  74 105 134 165 200 245 298
#     4  10  20  35  54  74  98 131 172 210 243 289
#     4  11  22  34  50  74 105 135 163 202 251 299
#
# _framework density 17.571653999999999
#
# number of rings (size 3 to 8) (size 9 to 14) (size 15 to 20)
#    0.000    2.462    0.000    2.308    0.000    6.154 
#    0.000    7.692    0.000    0.000    0.000    0.000 
#    0.000    0.000    0.000    0.000    0.000    0.000 
#
# Total GULP energy -144918.585587 kJ/mol
# GULP energy per Si atom -5573.791753 kJ/mol
# Density = 1.753166 g / cm^3
# Si number density = 17.571654 Si / 1000 Ang^3
#
#
#
# Elastic Constant Matrix: (Units=GPa)
#
#
# Indices 1 2 3 4 5 6 
#
# 1 130.1335 72.0294 31.5586 0.0006 22.5383 0.0001
# 2 72.0294 92.0163 36.6613 0.0012 13.5844 0.0011
# 3 31.5586 36.6613 62.3741 0.0002 11.5729 0.0001
# 4 0.0006 0.0012 0.0002 23.3963 -0.0003 17.7709
# 5 22.5383 13.5844 11.5729 -0.0003 22.1344 -0.0003
# 6 0.0001 0.0011 0.0001 17.7709 -0.0003 36.6579
#
#
#
# Elastic Compliance Matrix: (Units=1/GPa)
#
#
# Indices 1 2 3 4 5 6 
#
# 1 0.014993 -0.010518 0.000256 0.000000 -0.008946 0.000000
# 2 -0.010518 0.022048 -0.007878 -0.000001 0.001297 0.000000
# 3 0.000256 -0.007878 0.021799 0.000000 -0.006823 0.000000
# 4 0.000000 -0.000001 0.000000 0.067653 0.000001 -0.032797
# 5 -0.008946 0.001297 -0.006823 0.000001 0.057059 0.000000
# 6 0.000000 0.000000 0.000000 -0.032797 0.000000 0.043178
#
#
# Mechanical properties :
#
#
# Convention : Reuss Voigt Hill
#
# Bulk Modulus (GPa) = 44.32571 62.78027 53.55299
# Shear Modulus (GPa) = 18.48209 26.05601 22.26905
#
# Velocity S-wave (km/s) = 3.24668 3.85495 3.56382
# Velocity P-wave (km/s) = 6.27177 7.45787 6.89039
#
# Compressibility (1/GPa) = 0.02256027
#
# Stress axis : x y z
#
# Youngs Moduli (GPa) = 66.69568 45.35477 45.87277
#
# Poissons Ratio (x) = 0.47704 -0.01174
# Poissons Ratio (y) = 0.70151 0.36140
# Poissons Ratio (z) = -0.01706 0.35732
#
# Static dielectric constant tensor:
#      x y z
#    x 1.607640 0.000000 -0.014190 
#    y 0.000000 1.606740 0.000000 
#    z -0.014190 0.000000 1.599500 
# 
# From -- ./inp_files/351244.got.cif
#   From: 2010.05.17/outbox.cif.g08.bks.cpg/sg12_176_cif.got.tgz:351244.got - 2010.06.03 13:09:07.
