data_PCOD9192225
_publ_section_title
;
Structure prediction by ZEFSAII (Michael W. Deem and Ramdas Pophale) SiO2 
 PCOD9192225
Probable space group: C 2/M
;
_chemical_formula_sum "Si O2"
_cell_formula_units_Z 64
_cell_length_a 20.266202
_cell_length_b 19.721416
_cell_length_c 16.570329
_cell_angle_alpha 90.000000
_cell_angle_beta 31.607645
_cell_angle_gamma 90.000000
_cell_volume 3471.006104
_symmetry_space_group_name_H-M "C 2/M"
_symmetry_group_IT_number 12
_symmetry_cell_setting 'monoclinic'
loop_
_space_group_symop_operation_xyz
x,y,z
-x,y,-z
-x,-y,-z
x,-y,z
1/2+x,1/2+y,z
1/2-x,1/2+y,-z
1/2-x,1/2-y,-z
1/2+x,1/2-y,z
loop_
_atom_site_type_symbol
_atom_site_label
_atom_site_fract_x
_atom_site_fract_y
_atom_site_fract_z
Si Si1 0.710529 0.333010 0.868741
Si Si2 0.530416 0.137505 0.316166
Si Si3 0.286216 0.077389 0.643487
Si Si4 0.834129 0.577391 0.976838
Si Si5 0.083986 0.080501 0.140637
Si Si6 0.864817 0.702029 0.359537
Si Si7 0.440355 0.196729 0.976672
Si Si8 0.299250 0.577582 0.452191
O O1 0.850988 0.333603 0.759741
O O2 0.719426 0.373539 0.775959
O O3 0.624993 0.374519 0.021667
O O4 0.657816 0.257962 0.912046
O O5 0.429953 0.100214 0.477407
O O6 0.584928 0.087959 0.189753
O O7 0.454030 0.193304 0.344512
O O8 0.221689 0.080448 0.622800
O O9 0.282486 0.000000 0.676880
O O10 0.847480 0.500000 0.990697
O O11 0.879925 0.632931 0.992934
O O12 0.690619 0.589805 0.097670
O O13 0.943820 0.097436 0.316370
O O14 0.083880 0.000000 0.119073
O O15 0.750000 0.750000 0.500000
O O16 0.802454 0.628794 0.406142
O O17 0.948851 0.723821 0.197234
O O18 0.500000 0.178065 0.000000
O O19 0.278706 0.500000 0.499337
#
# Coordination Sequence:
#
# PCOD9192225 Si02
#       8
#     8   8   8   8   8   8   8   8
#     4  11  22  33  52  78 124 155 181 226 277 337
#     4   9  20  35  56  85 108 146 192 231 276 336
#     4  10  20  33  53  84 122 157 186 221 273 337
#     4   9  19  39  62  82 107 142 194 250 291 331
#     4   9  18  33  58  88 112 145 188 229 279 342
#     4  10  21  37  59  78 105 149 190 232 281 328
#     4  11  26  39  55  83 114 150 193 240 288 342
#     4   9  19  35  57  85 111 141 185 229 277 339
#
# _framework density 18.438457
#
# number of rings (size 3 to 8) (size 9 to 14) (size 15 to 20)
#    0.000    2.250    0.000    1.875    5.250   10.750 
#    0.000    1.875    0.000    0.000    0.000    2.625 
#    0.000    0.000    0.000    0.000    0.000    0.000 
#
# Total GULP energy -178652.348576 kJ/mol
# GULP energy per Si atom -5582.885893 kJ/mol
# Density = 1.839649 g / cm^3
# Si number density = 18.438457 Si / 1000 Ang^3
#
#
#
# Elastic Constant Matrix: (Units=GPa)
#
#
# Indices 1 2 3 4 5 6 
#
# 1 50.1854 36.8397 18.3677 0.0000 -3.7464 -0.0002
# 2 36.8397 83.3136 38.3158 -0.0004 5.0170 -0.0003
# 3 18.3677 38.3158 60.2302 -0.0002 -10.8931 -0.0007
# 4 0.0000 -0.0004 -0.0002 26.3757 0.0002 -10.1974
# 5 -3.7464 5.0170 -10.8931 0.0002 24.9936 0.0004
# 6 -0.0002 -0.0003 -0.0007 -10.1974 0.0004 7.5201
#
#
#
# Elastic Compliance Matrix: (Units=1/GPa)
#
#
# Indices 1 2 3 4 5 6 
#
# 1 0.030896 -0.014865 0.001533 -0.000001 0.008283 -0.000001
# 2 -0.014865 0.026113 -0.014579 0.000001 -0.013824 0.000001
# 3 0.001533 -0.014579 0.028204 0.000001 0.015449 0.000002
# 4 -0.000001 0.000001 0.000001 0.079696 -0.000002 0.108071
# 5 0.008283 -0.013824 0.015449 -0.000002 0.050760 -0.000005
# 6 -0.000001 0.000001 0.000002 0.108071 -0.000005 0.279525
#
#
# Mechanical properties :
#
#
# Convention : Reuss Voigt Hill
#
# Bulk Modulus (GPa) = 34.02519 42.30840 38.16679
# Shear Modulus (GPa) = 8.91563 18.45828 13.68695
#
# Velocity S-wave (km/s) = 2.20133 3.16741 2.72748
# Velocity P-wave (km/s) = 4.99545 6.03094 5.53745
#
# Compressibility (1/GPa) = 0.02938999
#
# Stress axis : x y z
#
# Youngs Moduli (GPa) = 32.36715 38.29479 35.45587
#
# Poissons Ratio (x) = 0.56925 -0.05434
# Poissons Ratio (y) = 0.48114 0.51691
# Poissons Ratio (z) = -0.04961 0.55830
#
# Static dielectric constant tensor:
#      x y z
#    x 1.632710 0.000000 -0.024020 
#    y 0.000000 1.642510 0.000000 
#    z -0.024020 0.000000 1.630160 
# 
# From -- ./inp_files/285183.got.cif
#   From: 2010.05.17/outbox.cif.g08.bks.cpg/sg12_143_cif.got.tgz:285183.got - 2010.06.03 13:09:07.
