data_PCOD9192858
_publ_section_title
;
Structure prediction by ZEFSAII (Michael W. Deem and Ramdas Pophale) SiO2 
 PCOD9192858
Probable space group: C 2/M
;
_chemical_formula_sum "Si O2"
_cell_formula_units_Z 56
_cell_length_a 20.707590
_cell_length_b 7.753457
_cell_length_c 29.722087
_cell_angle_alpha 90.000000
_cell_angle_beta 142.798112
_cell_angle_gamma 90.000000
_cell_volume 2885.297514
_symmetry_space_group_name_H-M "C 2/M"
_symmetry_group_IT_number 12
_symmetry_cell_setting 'monoclinic'
loop_
_space_group_symop_operation_xyz
x,y,z
-x,y,-z
-x,-y,-z
x,-y,z
1/2+x,1/2+y,z
1/2-x,1/2+y,-z
1/2-x,1/2-y,-z
1/2+x,1/2-y,z
loop_
_atom_site_type_symbol
_atom_site_label
_atom_site_fract_x
_atom_site_fract_y
_atom_site_fract_z
Si Si1 0.182619 0.708981 0.872196
Si Si2 0.440481 0.791689 0.109080
Si Si3 0.944743 0.500000 0.533960
Si Si4 0.658344 0.203276 0.283905
Si Si5 0.827213 0.500000 0.372842
Si Si6 0.423736 0.204454 0.997902
Si Si7 0.131597 0.807346 0.447841
Si Si8 0.474380 0.206496 0.701050
O O1 0.184112 0.500000 0.874211
O O2 0.297551 0.771454 0.919697
O O3 0.147723 0.769689 0.903230
O O4 0.086768 0.759784 0.785509
O O5 0.556079 0.760706 0.195419
O O6 0.427085 0.000000 0.099506
O O7 0.438053 0.723710 0.056767
O O8 0.884431 0.500000 0.453045
O O9 0.909163 0.670361 0.539607
O O10 0.072319 0.500000 0.603932
O O11 0.753887 0.331888 0.326938
O O12 0.615249 0.235286 0.310526
O O13 0.684763 0.000000 0.294366
O O14 0.447049 0.000000 0.013576
O O15 0.500000 0.273116 0.000000
O O16 0.250000 0.750000 0.500000
O O17 0.058816 0.796868 0.362990
O O18 0.133975 0.000000 0.467381
O O19 0.478549 0.000000 0.695291
#
# Coordination Sequence:
#
# PCOD9192858 Si02
#       8
#     8   8   4   8   4   8   8   8
#     4   9  18  34  56  80 111 150 190 248 295 336
#     4   8  16  35  57  80 111 148 194 242 294 345
#     4  11  26  44  58  92 127 155 199 242 297 363
#     4   9  19  37  63  89 117 158 197 247 300 347
#     4  11  24  42  64  86 122 161 199 243 286 362
#     4  10  20  34  51  77 115 154 190 237 296 355
#     4  12  23  39  64  91 122 158 195 247 306 352
#     4   9  18  36  60  88 122 151 194 251 303 351
#
# _framework density 19.408743000000001
#
# number of rings (size 3 to 8) (size 9 to 14) (size 15 to 20)
#    0.000    2.286    1.429    3.000    1.000    3.143 
#    7.714    1.429    0.000    0.000    0.000    0.000 
#    0.000    0.000    0.000    0.000    0.000    0.000 
#
# Total GULP energy -156291.769608 kJ/mol
# GULP energy per Si atom -5581.848915 kJ/mol
# Density = 1.936457 g / cm^3
# Si number density = 19.408743 Si / 1000 Ang^3
#
#
#
# Elastic Constant Matrix: (Units=GPa)
#
#
# Indices 1 2 3 4 5 6 
#
# 1 115.5482 33.2682 35.2161 0.0000 27.6624 0.0006
# 2 33.2682 71.7203 4.0654 0.0001 13.2278 0.0010
# 3 35.2161 4.0654 42.0209 0.0000 12.4674 0.0003
# 4 0.0000 0.0001 0.0000 40.5931 0.0000 12.7745
# 5 27.6624 13.2278 12.4674 0.0000 33.1764 -0.0001
# 6 0.0006 0.0010 0.0003 12.7745 -0.0001 23.1576
#
#
#
# Elastic Compliance Matrix: (Units=1/GPa)
#
#
# Indices 1 2 3 4 5 6 
#
# 1 0.014678 -0.005047 -0.009880 0.000000 -0.006513 0.000000
# 2 -0.005047 0.016790 0.003763 0.000000 -0.003900 -0.000001
# 3 -0.009880 0.003763 0.033444 0.000000 -0.005830 0.000000
# 4 0.000000 0.000000 0.000000 0.029810 0.000000 -0.016444
# 5 -0.006513 -0.003900 -0.005830 0.000000 0.039318 0.000001
# 6 0.000000 -0.000001 0.000000 -0.016444 0.000001 0.052253
#
#
# Mechanical properties :
#
#
# Convention : Reuss Voigt Hill
#
# Bulk Modulus (GPa) = 23.48409 41.59874 32.54142
# Shear Modulus (GPa) = 22.43988 29.83473 26.13730
#
# Velocity S-wave (km/s) = 3.40394 3.92494 3.67369
# Velocity P-wave (km/s) = 5.25120 6.48226 5.89894
#
# Compressibility (1/GPa) = 0.04258202
#
# Stress axis : x y z
#
# Youngs Moduli (GPa) = 68.12842 59.55812 29.90099
#
# Poissons Ratio (x) = 0.30061 0.29543
# Poissons Ratio (y) = 0.34386 -0.11251
# Poissons Ratio (z) = 0.67314 -0.22409
#
# Static dielectric constant tensor:
#      x y z
#    x 1.673560 0.000000 -0.019450 
#    y 0.000000 1.674610 0.000000 
#    z -0.019450 0.000000 1.675970 
# 
# From -- ./inp_files/363257.got.cif
#   From: 2010.05.17/outbox.cif.g08.bks.cpg/sg12_182_cif.got.tgz:363257.got - 2010.06.03 13:09:07.
