data_PCOD9192188
_publ_section_title
;
Structure prediction by ZEFSAII (Michael W. Deem and Ramdas Pophale) SiO2 
 PCOD9192188
Probable space group: C 2/M
;
_chemical_formula_sum "Si O2"
_cell_formula_units_Z 64
_cell_length_a 15.257000
_cell_length_b 9.128160
_cell_length_c 33.507714
_cell_angle_alpha 90.000000
_cell_angle_beta 132.381236
_cell_angle_gamma 90.000000
_cell_volume 3447.079151
_symmetry_space_group_name_H-M "C 2/M"
_symmetry_group_IT_number 12
_symmetry_cell_setting 'monoclinic'
loop_
_space_group_symop_operation_xyz
x,y,z
-x,y,-z
-x,-y,-z
x,-y,z
1/2+x,1/2+y,z
1/2-x,1/2+y,-z
1/2-x,1/2-y,-z
1/2+x,1/2-y,z
loop_
_atom_site_type_symbol
_atom_site_label
_atom_site_fract_x
_atom_site_fract_y
_atom_site_fract_z
Si Si1 0.685272 0.835645 0.444972
Si Si2 0.247215 0.324191 0.253653
Si Si3 0.384219 0.825457 0.937058
Si Si4 0.693483 0.324852 0.943968
Si Si5 0.388346 0.333219 0.440341
Si Si6 0.976388 0.825861 0.663499
Si Si7 0.917562 0.175477 0.862815
Si Si8 0.721732 0.674998 0.330779
O O1 0.750000 0.750000 0.500000
O O2 0.781418 0.843000 0.439011
O O3 0.574257 0.754396 0.391107
O O4 0.654491 0.000000 0.448301
O O5 0.233984 0.500000 0.250482
O O6 0.386025 0.290526 0.287838
O O7 0.165937 0.253735 0.194769
O O8 0.213964 0.255624 0.286212
O O9 0.270470 0.786834 0.928835
O O10 0.389780 0.734372 0.898425
O O11 0.381724 0.000000 0.927220
O O12 0.500000 0.798760 0.000000
O O13 0.702922 0.500000 0.952213
O O14 0.555628 0.287703 0.897195
O O15 0.750000 0.250000 0.000000
O O16 0.500000 0.276877 0.500000
O O17 0.416591 0.500000 0.435092
O O18 0.338478 0.234242 0.389626
O O19 0.891400 0.790899 0.675228
O O20 0.965802 0.000000 0.653755
O O21 0.903831 0.000000 0.856470
O O22 0.727232 0.500000 0.327384
#
# Coordination Sequence:
#
# PCOD9192188 Si02
#       8
#     8   8   8   8   8   8   8   8
#     4  10  20  33  53  82 115 148 185 235 291 351
#     4  11  24  42  64  85 114 160 204 240 290 358
#     4  10  20  37  62  89 121 161 200 238 287 350
#     4  10  21  37  60  89 123 160 195 239 292 345
#     4   9  19  35  54  79 112 150 188 229 285 355
#     4   9  21  41  61  81 112 154 195 240 295 352
#     4  11  24  40  59  90 125 155 197 248 293 341
#     4  10  21  39  61  86 115 147 192 249 299 344
#
# _framework density 18.566445000000002
#
# number of rings (size 3 to 8) (size 9 to 14) (size 15 to 20)
#    0.000    2.000    1.250    1.500    1.750    4.500 
#    0.000    5.000    0.000    0.000    0.000    0.000 
#    0.000    0.000    0.000    0.000    0.000    0.000 
#
# Total GULP energy -178708.241842 kJ/mol
# GULP energy per Si atom -5584.632558 kJ/mol
# Density = 1.852419 g / cm^3
# Si number density = 18.566445 Si / 1000 Ang^3
#
#
#
# Elastic Constant Matrix: (Units=GPa)
#
#
# Indices 1 2 3 4 5 6 
#
# 1 118.7392 63.6694 86.7136 0.0000 6.7171 0.0000
# 2 63.6694 76.8715 91.0644 0.0000 1.6619 0.0000
# 3 86.7136 91.0644 183.9547 0.0000 6.3020 0.0000
# 4 0.0000 0.0000 0.0000 36.9930 0.0000 -4.5866
# 5 6.7171 1.6619 6.3020 0.0000 28.9894 0.0000
# 6 0.0000 0.0000 0.0000 -4.5866 0.0000 26.9385
#
#
#
# Elastic Compliance Matrix: (Units=1/GPa)
#
#
# Indices 1 2 3 4 5 6 
#
# 1 0.015733 -0.010383 -0.002188 0.000000 -0.002575 0.000000
# 2 -0.010383 0.038381 -0.014218 0.000000 0.003297 0.000000
# 3 -0.002188 -0.014218 0.013562 0.000000 -0.001626 0.000000
# 4 0.000000 0.000000 0.000000 0.027615 0.000000 0.004702
# 5 -0.002575 0.003297 -0.001626 0.000000 0.035256 0.000000
# 6 0.000000 0.000000 0.000000 0.004702 0.000000 0.037922
#
#
# Mechanical properties :
#
#
# Convention : Reuss Voigt Hill
#
# Bulk Modulus (GPa) = 70.93982 95.82888 83.38435
# Shear Modulus (GPa) = 22.05090 27.79206 24.92148
#
# Velocity S-wave (km/s) = 3.45000 3.87317 3.66770
# Velocity P-wave (km/s) = 7.35946 8.46924 7.93378
#
# Compressibility (1/GPa) = 0.01409646
#
# Stress axis : x y z
#
# Youngs Moduli (GPa) = 63.56071 26.05438 73.73615
#
# Poissons Ratio (x) = 0.27053 0.16133
# Poissons Ratio (y) = 0.65998 1.04842
# Poissons Ratio (z) = 0.13907 0.37045
#
# Static dielectric constant tensor:
#      x y z
#    x 1.649280 0.000000 0.013170 
#    y 0.000000 1.637510 0.000000 
#    z 0.013170 0.000000 1.599060 
# 
# From -- ./inp_files/375573.got.cif
#   From: 2010.05.17/outbox.cif.g08.bks.cpg/sg12_188_cif.got.tgz:375573.got - 2010.06.03 13:09:07.
