data_PCOD9192308
_publ_section_title
;
Structure prediction by ZEFSAII (Michael W. Deem and Ramdas Pophale) SiO2 
 PCOD9192308
Probable space group: C 2/M
;
_chemical_formula_sum "Si O2"
_cell_formula_units_Z 64
_cell_length_a 28.722170
_cell_length_b 9.533059
_cell_length_c 16.928057
_cell_angle_alpha 90.000000
_cell_angle_beta 138.054413
_cell_angle_gamma 90.000000
_cell_volume 3098.197039
_symmetry_space_group_name_H-M "C 2/M"
_symmetry_group_IT_number 12
_symmetry_cell_setting 'monoclinic'
loop_
_space_group_symop_operation_xyz
x,y,z
-x,y,-z
-x,-y,-z
x,-y,z
1/2+x,1/2+y,z
1/2-x,1/2+y,-z
1/2-x,1/2-y,-z
1/2+x,1/2-y,z
loop_
_atom_site_type_symbol
_atom_site_label
_atom_site_fract_x
_atom_site_fract_y
_atom_site_fract_z
Si Si1 0.790578 0.165535 0.275675
Si Si2 0.845083 0.845303 0.612079
Si Si3 0.172972 0.832793 0.043353
Si Si4 0.582053 0.164916 0.606637
Si Si5 0.038149 0.337407 0.275553
Si Si6 0.708681 0.847246 0.335064
Si Si7 0.103368 0.661052 0.817070
Si Si8 0.031774 0.832885 0.954300
O O1 0.742846 0.250854 0.153949
O O2 0.866139 0.237004 0.376974
O O3 0.747715 0.178371 0.302939
O O4 0.796326 0.000000 0.264075
O O5 0.891167 0.742923 0.617207
O O6 0.770062 0.857934 0.477313
O O7 0.838542 0.776064 0.690304
O O8 0.875977 0.000000 0.655228
O O9 0.113533 0.807178 0.036215
O O10 0.183956 0.000000 0.051374
O O11 0.143158 0.768614 0.924094
O O12 0.500000 0.200689 0.500000
O O13 0.608506 0.180693 0.730362
O O14 0.588351 0.000000 0.592098
O O15 0.051321 0.500000 0.276890
O O16 0.978599 0.326522 0.265855
O O17 0.007817 0.258942 0.160733
O O18 0.672872 0.000000 0.285809
O O19 0.124038 0.500000 0.863294
O O20 0.021970 0.000000 0.929879
O O21 0.000000 0.798805 0.000000
#
# Coordination Sequence:
#
# PCOD9192308 Si02
#       8
#     8   8   8   8   8   8   8   8
#     4  11  24  41  62  90 124 159 197 249 306 359
#     4  10  20  35  56  81 113 155 200 242 288 346
#     4  10  21  38  61  89 120 159 204 248 299 355
#     4  10  23  43  67  94 121 154 199 247 301 363
#     4  10  20  33  54  84 115 152 194 236 292 350
#     4   9  21  39  55  80 116 154 197 242 292 351
#     4   9  20  40  62  87 120 157 198 247 298 355
#     4   9  19  35  54  81 116 153 198 245 290 344
#
# _framework density 20.657174999999999
#
# number of rings (size 3 to 8) (size 9 to 14) (size 15 to 20)
#    0.000    2.250    0.000    1.500    3.500    4.000 
#    0.000    0.000    0.000    0.000    0.000    0.000 
#    0.000    0.000    0.000    0.000    0.000    0.000 
#
# Total GULP energy -178591.884006 kJ/mol
# GULP energy per Si atom -5580.996375 kJ/mol
# Density = 2.061016 g / cm^3
# Si number density = 20.657175 Si / 1000 Ang^3
#
#
#
# Elastic Constant Matrix: (Units=GPa)
#
#
# Indices 1 2 3 4 5 6 
#
# 1 54.6098 40.8769 18.9213 0.0000 2.3989 0.0000
# 2 40.8769 108.9708 29.5117 0.0000 8.0746 0.0000
# 3 18.9213 29.5117 38.6636 0.0000 15.2876 0.0000
# 4 0.0000 0.0000 0.0000 23.7766 0.0000 9.0502
# 5 2.3989 8.0746 15.2876 0.0000 27.9153 0.0000
# 6 0.0000 0.0000 0.0000 9.0502 0.0000 51.6272
#
#
#
# Elastic Compliance Matrix: (Units=1/GPa)
#
#
# Indices 1 2 3 4 5 6 
#
# 1 0.027370 -0.008161 -0.009150 0.000000 0.005020 0.000000
# 2 -0.008161 0.014081 -0.006919 0.000000 0.000418 0.000000
# 3 -0.009150 -0.006919 0.044062 0.000000 -0.021343 0.000000
# 4 0.000000 0.000000 0.000000 0.045065 0.000000 -0.007900
# 5 0.005020 0.000418 -0.021343 0.000000 0.046959 0.000000
# 6 0.000000 0.000000 0.000000 -0.007900 0.000000 0.020754
#
#
# Mechanical properties :
#
#
# Convention : Reuss Voigt Hill
#
# Bulk Modulus (GPa) = 26.98831 42.31821 34.65326
# Shear Modulus (GPa) = 19.29732 28.19278 23.74505
#
# Velocity S-wave (km/s) = 3.05974 3.69832 3.39408
# Velocity P-wave (km/s) = 5.05726 6.22633 5.67200
#
# Compressibility (1/GPa) = 0.03705307
#
# Stress axis : x y z
#
# Youngs Moduli (GPa) = 36.53600 71.01757 22.69516
#
# Poissons Ratio (x) = 0.57957 0.20766
# Poissons Ratio (y) = 0.29817 0.15703
# Poissons Ratio (z) = 0.33431 0.49139
#
# Static dielectric constant tensor:
#      x y z
#    x 1.757930 0.000000 0.023360 
#    y 0.000000 1.728490 0.000000 
#    z 0.023360 0.000000 1.755270 
# 
# From -- ./inp_files/295757.got.cif
#   From: 2010.05.17/outbox.cif.g08.bks.cpg/sg12_148_cif.got.tgz:295757.got - 2010.06.03 13:09:07.
