data_PCOD9192474
_publ_section_title
;
Structure prediction by ZEFSAII (Michael W. Deem and Ramdas Pophale) SiO2 
 PCOD9192474
Probable space group: C 2/M
;
_chemical_formula_sum "Si O2"
_cell_formula_units_Z 56
_cell_length_a 20.904710
_cell_length_b 8.904366
_cell_length_c 30.656247
_cell_angle_alpha 90.000000
_cell_angle_beta 33.525839
_cell_angle_gamma 90.000000
_cell_volume 3151.747341
_symmetry_space_group_name_H-M "C 2/M"
_symmetry_group_IT_number 12
_symmetry_cell_setting 'monoclinic'
loop_
_space_group_symop_operation_xyz
x,y,z
-x,y,-z
-x,-y,-z
x,-y,z
1/2+x,1/2+y,z
1/2-x,1/2+y,-z
1/2-x,1/2-y,-z
1/2+x,1/2-y,z
loop_
_atom_site_type_symbol
_atom_site_label
_atom_site_fract_x
_atom_site_fract_y
_atom_site_fract_z
Si Si1 0.417243 0.680607 0.164916
Si Si2 0.574429 0.321336 0.582695
Si Si3 0.165179 0.679823 0.272679
Si Si4 0.044600 0.179651 0.755713
Si Si5 0.925701 0.679571 0.998904
Si Si6 0.318990 0.820181 0.839351
Si Si7 0.695657 0.821093 0.598018
O O1 0.427858 0.500000 0.153254
O O2 0.285836 0.721811 0.226692
O O3 0.442596 0.717304 0.200677
O O4 0.504940 0.760328 0.082169
O O5 0.572771 0.500000 0.591072
O O6 0.447263 0.261546 0.644576
O O7 0.618644 0.240583 0.601618
O O8 0.671697 0.289639 0.490867
O O9 0.150140 0.500000 0.285079
O O10 0.173819 0.716472 0.216280
O O11 0.151006 0.243033 0.666957
O O12 0.928645 0.250463 0.801489
O O13 0.040222 0.000000 0.753832
O O14 0.913651 0.500000 0.003794
O O15 0.800415 0.754747 0.074359
O O16 0.000000 0.717802 0.000000
O O17 0.320506 0.000000 0.842715
O O18 0.679561 0.000000 0.610219
#
# Coordination Sequence:
#
# PCOD9192474 Si02
#       7
#     8   8   8   8   8   8   8
#     4  10  23  42  61  83 115 155 193 233 287 344
#     4  10  20  33  56  87 116 148 192 241 283 330
#     4  10  20  36  59  86 114 149 194 236 283 342
#     4  11  23  39  60  86 117 152 192 238 285 339
#     4  11  23  38  60  90 118 147 190 241 287 334
#     4  11  22  37  62  87 115 153 190 235 286 341
#     4  10  20  35  55  83 118 154 189 232 288 342
#
# _framework density 17.767923
#
# number of rings (size 3 to 8) (size 9 to 14) (size 15 to 20)
#    0.000    1.571    2.857    2.143    0.000    5.143 
#    0.000    0.714    0.000    4.286    0.000    0.000 
#    0.000    0.000    0.000    0.000    0.000    0.000 
#
# Total GULP energy -156451.226183 kJ/mol
# GULP energy per Si atom -5587.543792 kJ/mol
# Density = 1.772748 g / cm^3
# Si number density = 17.767923 Si / 1000 Ang^3
#
#
#
# Elastic Constant Matrix: (Units=GPa)
#
#
# Indices 1 2 3 4 5 6 
#
# 1 117.9719 53.9023 68.2430 -0.0003 4.1327 0.0016
# 2 53.9023 54.3077 61.6616 -0.0035 5.0441 0.0009
# 3 68.2430 61.6616 146.9858 0.0003 -0.3375 -0.0004
# 4 -0.0003 -0.0035 0.0003 37.4598 0.0001 -1.8828
# 5 4.1327 5.0441 -0.3375 0.0001 30.6179 -0.0009
# 6 0.0016 0.0009 -0.0004 -1.8828 -0.0009 23.3675
#
#
#
# Elastic Compliance Matrix: (Units=1/GPa)
#
#
# Indices 1 2 3 4 5 6 
#
# 1 0.015668 -0.013954 -0.001420 -0.000001 0.000168 -0.000001
# 2 -0.013954 0.048710 -0.013970 0.000005 -0.006295 -0.000001
# 3 -0.001420 -0.013970 0.013329 -0.000001 0.002640 0.000001
# 4 -0.000001 0.000005 -0.000001 0.026804 -0.000001 0.002160
# 5 0.000168 -0.006295 0.002640 -0.000001 0.033704 0.000002
# 6 -0.000001 -0.000001 0.000001 0.002160 0.000002 0.042969
#
#
# Mechanical properties :
#
#
# Convention : Reuss Voigt Hill
#
# Bulk Modulus (GPa) = 52.57986 76.31988 64.44987
# Shear Modulus (GPa) = 20.30772 27.31962 23.81367
#
# Velocity S-wave (km/s) = 3.38441 3.92545 3.66493
# Velocity P-wave (km/s) = 6.70292 7.97450 7.36620
#
# Compressibility (1/GPa) = 0.01901869
#
# Stress axis : x y z
#
# Youngs Moduli (GPa) = 63.82444 20.52965 75.02316
#
# Poissons Ratio (x) = 0.28648 0.10654
# Poissons Ratio (y) = 0.89063 1.04807
# Poissons Ratio (z) = 0.09063 0.28680
#
# Static dielectric constant tensor:
#      x y z
#    x 1.580180 0.000000 -0.003770 
#    y 0.000000 1.592530 0.000000 
#    z -0.003770 0.000000 1.595060 
# 
# From -- ./inp_files/363133.got.cif
#   From: 2010.05.17/outbox.cif.g08.bks.cpg/sg12_182_cif.got.tgz:363133.got - 2010.06.03 13:09:07.
