data_PCOD9192939
_publ_section_title
;
Structure prediction by ZEFSAII (Michael W. Deem and Ramdas Pophale) SiO2 
 PCOD9192939
Probable space group: C 2/M
;
_chemical_formula_sum "Si O2"
_cell_formula_units_Z 48
_cell_length_a 24.555306
_cell_length_b 14.795907
_cell_length_c 18.749123
_cell_angle_alpha 90.000000
_cell_angle_beta 19.171519
_cell_angle_gamma 90.000000
_cell_volume 2237.006808
_symmetry_space_group_name_H-M "C 2/M"
_symmetry_group_IT_number 12
_symmetry_cell_setting 'monoclinic'
loop_
_space_group_symop_operation_xyz
x,y,z
-x,y,-z
-x,-y,-z
x,-y,z
1/2+x,1/2+y,z
1/2-x,1/2+y,-z
1/2-x,1/2-y,-z
1/2+x,1/2-y,z
loop_
_atom_site_type_symbol
_atom_site_label
_atom_site_fract_x
_atom_site_fract_y
_atom_site_fract_z
Si Si1 0.992964 0.134948 0.927955
Si Si2 0.504165 0.146896 0.076328
Si Si3 0.343069 0.607927 0.738629
Si Si4 0.151852 0.394956 0.267525
Si Si5 0.304387 0.351647 0.452108
Si Si6 0.359601 0.610698 0.881194
O O1 0.007784 0.243945 0.911677
O O2 0.135739 0.104363 0.696287
O O3 0.816938 0.110665 0.111144
O O4 0.000000 0.102179 0.000000
O O5 0.350529 0.109953 0.312532
O O6 0.500000 0.113796 0.000000
O O7 0.675490 0.126740 0.903549
O O8 0.500000 0.643066 0.500000
O O9 0.362031 0.500000 0.720089
O O10 0.337303 0.639887 0.827393
O O11 0.108628 0.500000 0.308326
O O12 0.000000 0.354024 0.500000
O O13 0.210835 0.358840 0.117703
O O14 0.250000 0.250000 0.500000
O O15 0.467412 0.354139 0.300211
O O16 0.366804 0.500000 0.875648
#
# Coordination Sequence:
#
# PCOD9192939 Si02
#       6
#     8   8   8   8   8   8
#     4   9  19  34  50  72 101 130 162 202 248 294
#     4  10  20  34  52  74 101 132 168 208 248 296
#     4  10  21  35  51  74 102 132 168 208 251 298
#     4   9  18  33  52  74 100 129 162 201 245 293
#     4   9  18  34  52  73 100 131 167 206 249 295
#     4   9  18  34  53  73 102 135 165 204 252 297
#
# _framework density 21.457243999999999
#
# number of rings (size 3 to 8) (size 9 to 14) (size 15 to 20)
#    0.000    2.667    0.000    1.000    0.000    3.333 
#    0.000    7.500    0.000    0.000    0.000    0.000 
#    0.000    0.000    0.000    0.000    0.000    0.000 
#
# Total GULP energy -133950.635215 kJ/mol
# GULP energy per Si atom -5581.276467 kJ/mol
# Density = 2.140841 g / cm^3
# Si number density = 21.457244 Si / 1000 Ang^3
#
#
#
# Elastic Constant Matrix: (Units=GPa)
#
#
# Indices 1 2 3 4 5 6 
#
# 1 197.0561 8.0049 113.2192 0.0018 43.9453 -0.0011
# 2 8.0049 75.0290 9.5124 0.0039 6.8654 -0.0025
# 3 113.2192 9.5124 238.5683 0.0043 41.8443 -0.0035
# 4 0.0018 0.0039 0.0043 -5.0488 -0.0039 -26.4637
# 5 43.9453 6.8654 41.8443 -0.0039 35.1307 0.0022
# 6 -0.0011 -0.0025 -0.0035 -26.4637 0.0022 8.2181
#
#
#
# Elastic Compliance Matrix: (Units=1/GPa)
#
#
# Indices 1 2 3 4 5 6 
#
# 1 0.008168 0.000112 -0.002635 0.000000 -0.007100 0.000001
# 2 0.000112 0.013574 -0.000132 -0.000001 -0.002636 0.000003
# 3 -0.002635 -0.000132 0.006150 -0.000001 -0.004002 0.000001
# 4 0.000000 -0.000001 -0.000001 -0.011078 0.000002 -0.035674
# 5 -0.007100 -0.002636 -0.004002 0.000002 0.042629 -0.000008
# 6 0.000001 0.000003 0.000001 -0.035674 -0.000008 0.006806
#
#
# Mechanical properties :
#
#
# Convention : Reuss Voigt Hill
#
# Bulk Modulus (GPa) = 44.28515 85.79181 65.03848
# Shear Modulus (GPa) = 63.22279 32.98780 48.10530
#
# Velocity S-wave (km/s) = 5.43401 3.92519 4.74002
# Velocity P-wave (km/s) = 7.74951 7.78539 7.76747
#
# Compressibility (1/GPa) = 0.02258093
#
# Stress axis : x y z
#
# Youngs Moduli (GPa) = 122.43453 73.66953 162.61130
#
# Poissons Ratio (x) = -0.00828 0.42854
# Poissons Ratio (y) = -0.01376 0.02151
# Poissons Ratio (z) = 0.32266 0.00974
#
# Static dielectric constant tensor:
#      x y z
#    x 1.732300 0.000000 0.064870 
#    y 0.000000 1.799020 0.000000 
#    z 0.064870 0.000000 1.773570 
# 
# From -- ./inp_files/61733.got.cif
#   From: 2010.05.17/outbox.cif.g08.bks.cpg/sg12_31_cif.got.tgz:61733.got - 2010.06.03 13:09:07.
