data_PCOD9192884
_publ_section_title
;
Structure prediction by ZEFSAII (Michael W. Deem and Ramdas Pophale) SiO2 
 PCOD9192884
Probable space group: C 2/M
;
_chemical_formula_sum "Si O2"
_cell_formula_units_Z 56
_cell_length_a 19.185812
_cell_length_b 7.451336
_cell_length_c 23.152837
_cell_angle_alpha 90.000000
_cell_angle_beta 53.154552
_cell_angle_gamma 90.000000
_cell_volume 2648.789616
_symmetry_space_group_name_H-M "C 2/M"
_symmetry_group_IT_number 12
_symmetry_cell_setting 'monoclinic'
loop_
_space_group_symop_operation_xyz
x,y,z
-x,y,-z
-x,-y,-z
x,-y,z
1/2+x,1/2+y,z
1/2-x,1/2+y,-z
1/2-x,1/2-y,-z
1/2+x,1/2-y,z
loop_
_atom_site_type_symbol
_atom_site_label
_atom_site_fract_x
_atom_site_fract_y
_atom_site_fract_z
Si Si1 0.083811 0.711487 0.992031
Si Si2 0.711654 0.216633 0.271162
Si Si3 0.594114 0.780752 0.432809
Si Si4 0.254119 0.286021 0.430585
Si Si5 0.436801 0.282528 0.862732
Si Si6 0.274218 0.709327 0.869128
Si Si7 0.373539 0.718911 0.270837
O O1 0.086904 0.500000 0.975338
O O2 0.071296 0.731114 0.066496
O O3 0.178321 0.788356 0.928208
O O4 0.000000 0.787398 0.000000
O O5 0.630966 0.273264 0.351871
O O6 0.706487 0.279637 0.208370
O O7 0.801097 0.272578 0.259123
O O8 0.712421 0.000000 0.269838
O O9 0.500000 0.718688 0.500000
O O10 0.667157 0.721229 0.441998
O O11 0.592186 0.000000 0.433581
O O12 0.254410 0.500000 0.423839
O O13 0.250000 0.250000 0.500000
O O14 0.336084 0.222106 0.351737
O O15 0.437667 0.500000 0.859245
O O16 0.353859 0.216010 0.867320
O O17 0.529659 0.219283 0.791845
O O18 0.268767 0.500000 0.888610
O O19 0.375286 0.500000 0.269197
#
# Coordination Sequence:
#
# PCOD9192884 Si02
#       7
#     8   8   8   8   8   8   8
#     4  10  21  36  52  71  97 126 154 190 237 280
#     4   9  17  31  52  72  90 122 165 197 225 273
#     4   8  15  29  48  69  94 124 158 196 234 272
#     4   9  17  30  48  69  95 125 156 193 235 278
#     4  10  20  34  52  72  95 125 159 192 229 278
#     4  10  21  34  48  71 101 126 149 189 243 282
#     4   8  16  32  50  68  93 125 159 194 232 274
#
# _framework density 21.141734
#
# number of rings (size 3 to 8) (size 9 to 14) (size 15 to 20)
#    0.000    2.857    0.000    3.000    0.000    2.571 
#    0.000    3.571    0.000    0.857    0.000    0.000 
#    0.000    0.000    0.000    0.000    0.000    0.000 
#
# Total GULP energy -156270.437720 kJ/mol
# GULP energy per Si atom -5581.087061 kJ/mol
# Density = 2.109361 g / cm^3
# Si number density = 21.141734 Si / 1000 Ang^3
#
#
#
# Elastic Constant Matrix: (Units=GPa)
#
#
# Indices 1 2 3 4 5 6 
#
# 1 165.3981 -1.6305 119.4772 -0.0001 -15.7922 0.0003
# 2 -1.6305 58.5230 -17.7545 0.0001 -9.8759 0.0004
# 3 119.4772 -17.7545 179.0218 0.0000 -15.2012 -0.0002
# 4 -0.0001 0.0001 0.0000 17.1627 0.0000 12.7575
# 5 -15.7922 -9.8759 -15.2012 0.0000 44.0479 0.0000
# 6 0.0003 0.0004 -0.0002 12.7575 0.0000 -10.6560
#
#
#
# Elastic Compliance Matrix: (Units=1/GPa)
#
#
# Indices 1 2 3 4 5 6 
#
# 1 0.011976 -0.001942 -0.008095 0.000000 0.001065 0.000000
# 2 -0.001942 0.018926 0.003579 0.000000 0.004782 0.000000
# 3 -0.008095 0.003579 0.011502 0.000000 0.001870 0.000000
# 4 0.000000 0.000000 0.000000 0.030830 0.000000 0.036910
# 5 0.001065 0.004782 0.001870 0.000000 0.024802 0.000000
# 6 0.000000 0.000000 0.000000 0.036910 0.000000 -0.049655
#
#
# Mechanical properties :
#
#
# Convention : Reuss Voigt Hill
#
# Bulk Modulus (GPa) = 33.91162 67.01416 50.46289
# Shear Modulus (GPa) = 70.29788 30.30097 50.29943
#
# Velocity S-wave (km/s) = 5.77260 3.78991 4.88295
# Velocity P-wave (km/s) = 7.77853 7.13566 7.46402
#
# Compressibility (1/GPa) = 0.02948841
#
# Stress axis : x y z
#
# Youngs Moduli (GPa) = 83.50086 52.83697 86.94066
#
# Poissons Ratio (x) = 0.10264 0.70377
# Poissons Ratio (y) = 0.16220 -0.31120
# Poissons Ratio (z) = 0.67593 -0.18913
#
# Static dielectric constant tensor:
#      x y z
#    x 1.743910 0.000000 -0.024290 
#    y 0.000000 1.806390 0.000000 
#    z -0.024290 0.000000 1.737520 
# 
# From -- ./inp_files/276648.got.cif
#   From: 2010.05.17/outbox.cif.g08.bks.cpg/sg12_139_cif.got.tgz:276648.got - 2010.06.03 13:09:07.
