data_PCOD9192151
_publ_section_title
;
Structure prediction by ZEFSAII (Michael W. Deem and Ramdas Pophale) SiO2 
 PCOD9192151
Probable space group: C 2/M
;
_chemical_formula_sum "Si O2"
_cell_formula_units_Z 48
_cell_length_a 20.366457
_cell_length_b 10.964519
_cell_length_c 17.817893
_cell_angle_alpha 90.000000
_cell_angle_beta 139.476296
_cell_angle_gamma 90.000000
_cell_volume 2585.330763
_symmetry_space_group_name_H-M "C 2/M"
_symmetry_group_IT_number 12
_symmetry_cell_setting 'monoclinic'
loop_
_space_group_symop_operation_xyz
x,y,z
-x,y,-z
-x,-y,-z
x,-y,z
1/2+x,1/2+y,z
1/2-x,1/2+y,-z
1/2-x,1/2-y,-z
1/2+x,1/2-y,z
loop_
_atom_site_type_symbol
_atom_site_label
_atom_site_fract_x
_atom_site_fract_y
_atom_site_fract_z
Si Si1 0.820571 0.719916 0.959364
Si Si2 0.133930 0.366148 0.837540
Si Si3 0.088336 0.728452 0.348301
Si Si4 0.981869 0.860697 0.857201
Si Si5 0.278417 0.636713 0.422957
Si Si6 0.637765 0.139597 0.169341
O O1 0.706342 0.767495 0.862326
O O2 0.844992 0.652245 0.903749
O O3 0.841573 0.642605 0.052314
O O4 0.898715 0.833290 0.035427
O O5 0.158524 0.500000 0.830298
O O6 0.015537 0.340147 0.726756
O O7 0.059064 0.834515 0.262708
O O8 0.174451 0.651209 0.380362
O O9 0.140600 0.775606 0.469105
O O10 0.932651 0.750892 0.863504
O O11 0.959172 0.000000 0.860106
O O12 0.316543 0.500000 0.463130
O O13 0.241415 0.657733 0.306135
O O14 0.601782 0.000000 0.155447
#
# Coordination Sequence:
#
# PCOD9192151 Si02
#       6
#     8   8   8   8   8   8
#     4  10  21  34  52  77 106 139 176 216 262 314
#     4  10  20  35  54  75 103 140 178 217 261 313
#     4   9  18  32  53  79 104 134 174 215 259 308
#     4  10  20  33  53  81 110 140 174 216 263 308
#     4   9  17  32  54  77 102 132 170 217 263 307
#     4  10  21  36  55  79 107 140 176 216 264 315
#
# _framework density 18.566289999999999
#
# number of rings (size 3 to 8) (size 9 to 14) (size 15 to 20)
#    0.000    2.333    0.000    2.500    0.000    7.333 
#    0.000    4.167    0.000    3.000    0.000    0.000 
#    0.000    0.000    0.000    0.000    0.000    0.000 
#
# Total GULP energy -133779.369445 kJ/mol
# GULP energy per Si atom -5574.140394 kJ/mol
# Density = 1.852403 g / cm^3
# Si number density = 18.566290 Si / 1000 Ang^3
#
#
#
# Elastic Constant Matrix: (Units=GPa)
#
#
# Indices 1 2 3 4 5 6 
#
# 1 31.0525 14.1533 11.0773 0.0000 2.5161 0.0000
# 2 14.1533 93.0959 14.0932 0.0000 0.5841 0.0000
# 3 11.0773 14.0932 74.6492 0.0000 4.3413 0.0000
# 4 0.0000 0.0000 0.0000 -1.1352 0.0000 -5.3156
# 5 2.5161 0.5841 4.3413 0.0000 27.7058 0.0000
# 6 0.0000 0.0000 0.0000 -5.3156 0.0000 14.4076
#
#
#
# Elastic Compliance Matrix: (Units=1/GPa)
#
#
# Indices 1 2 3 4 5 6 
#
# 1 0.036143 -0.004827 -0.004306 0.000000 -0.002506 0.000000
# 2 -0.004827 0.011703 -0.001518 0.000000 0.000430 0.000000
# 3 -0.004306 -0.001518 0.014428 0.000000 -0.001838 0.000000
# 4 0.000000 0.000000 0.000000 -0.322958 0.000000 -0.119155
# 5 -0.002506 0.000430 -0.001838 0.000000 0.036600 0.000000
# 6 0.000000 0.000000 0.000000 -0.119155 0.000000 0.025446
#
#
# Mechanical properties :
#
#
# Convention : Reuss Voigt Hill
#
# Bulk Modulus (GPa) = 24.40747 30.82725 27.61736
# Shear Modulus (GPa) = -30.54783 18.82723 -5.86030
#
# Velocity S-wave (km/s) = -4.06068 3.18788 -1.77856
# Velocity P-wave (km/s) = 2.96830 5.49454 3.26950
#
# Compressibility (1/GPa) = 0.04097106
#
# Stress axis : x y z
#
# Youngs Moduli (GPa) = 27.66796 85.45118 69.30741
#
# Poissons Ratio (x) = 0.41249 0.29846
# Poissons Ratio (y) = 0.13356 0.10521
# Poissons Ratio (z) = 0.11915 0.12972
#
# Static dielectric constant tensor:
#      x y z
#    x 1.636490 0.000000 -0.006760 
#    y 0.000000 1.639060 0.000000 
#    z -0.006760 0.000000 1.648900 
# 
# From -- ./inp_files/164318.got.cif
#   From: 2010.05.17/outbox.cif.g08.bks.cpg/sg12_83_cif.got.tgz:164318.got - 2010.06.03 13:09:07.
