data_PCOD9192534
_publ_section_title
;
Structure prediction by ZEFSAII (Michael W. Deem and Ramdas Pophale) SiO2 
 PCOD9192534
Probable space group: C 2/M
;
_chemical_formula_sum "Si O2"
_cell_formula_units_Z 56
_cell_length_a 20.839313
_cell_length_b 8.906917
_cell_length_c 30.583714
_cell_angle_alpha 90.000000
_cell_angle_beta 146.342115
_cell_angle_gamma 90.000000
_cell_volume 3146.249898
_symmetry_space_group_name_H-M "C 2/M"
_symmetry_group_IT_number 12
_symmetry_cell_setting 'monoclinic'
loop_
_space_group_symop_operation_xyz
x,y,z
-x,y,-z
-x,-y,-z
x,-y,z
1/2+x,1/2+y,z
1/2-x,1/2+y,-z
1/2-x,1/2-y,-z
1/2+x,1/2-y,z
loop_
_atom_site_type_symbol
_atom_site_label
_atom_site_fract_x
_atom_site_fract_y
_atom_site_fract_z
Si Si1 0.578490 0.178768 0.926091
Si Si2 0.550964 0.679802 0.745049
Si Si3 0.691690 0.319776 0.345937
Si Si4 0.793298 0.320886 0.092689
Si Si5 0.587045 0.820052 0.670722
Si Si6 0.663618 0.319956 0.227940
Si Si7 0.566758 0.320579 0.492719
O O1 0.627582 0.213591 0.905173
O O2 0.448812 0.239823 0.855096
O O3 0.582342 0.000000 0.933987
O O4 0.667000 0.256918 0.009608
O O5 0.560777 0.500000 0.748596
O O6 0.426093 0.716688 0.695372
O O7 0.648322 0.745282 0.832471
O O8 0.562041 0.749952 0.703569
O O9 0.709370 0.500000 0.357831
O O10 0.677758 0.277951 0.287025
O O11 0.802895 0.238616 0.428826
O O12 0.788980 0.500000 0.095432
O O13 0.717736 0.782925 0.729522
O O14 0.499846 0.755501 0.585097
O O15 0.576789 0.000000 0.666482
O O16 0.646346 0.500000 0.216391
O O17 0.500000 0.282558 0.500000
O O18 0.565276 0.500000 0.486720
#
# Coordination Sequence:
#
# PCOD9192534 Si02
#       7
#     8   8   8   8   8   8   8
#     4  10  20  33  57  90 120 152 194 244 290 337
#     4  11  23  40  61  87 121 155 193 242 294 347
#     4  10  21  38  62  87 115 154 196 240 291 347
#     4  10  20  35  57  86 121 157 194 237 289 348
#     4  11  24  41  62  85 118 159 195 236 293 356
#     4  10  20  37  60  87 116 152 197 241 288 347
#     4  11  23  38  60  90 120 150 193 247 294 339
#
# _framework density 17.798967000000001
#
# number of rings (size 3 to 8) (size 9 to 14) (size 15 to 20)
#    0.000    1.571    2.857    2.143    0.000    5.143 
#    0.000    0.714    0.000    4.286    0.000    0.000 
#    0.000    0.000    0.000    0.000    0.000    0.000 
#
# Total GULP energy -156478.094234 kJ/mol
# GULP energy per Si atom -5588.503365 kJ/mol
# Density = 1.775846 g / cm^3
# Si number density = 17.798967 Si / 1000 Ang^3
#
#
#
# Elastic Constant Matrix: (Units=GPa)
#
#
# Indices 1 2 3 4 5 6 
#
# 1 124.6389 57.7477 78.7173 0.0000 -9.2485 0.0000
# 2 57.7477 53.7112 69.1024 0.0000 -3.6264 0.0001
# 3 78.7173 69.1024 174.5044 0.0000 -2.6628 0.0000
# 4 0.0000 0.0000 0.0000 37.8196 0.0000 -1.4342
# 5 -9.2485 -3.6264 -2.6628 0.0000 27.3435 0.0000
# 6 0.0000 0.0001 0.0000 -1.4342 0.0000 28.0622
#
#
#
# Elastic Compliance Matrix: (Units=1/GPa)
#
#
# Indices 1 2 3 4 5 6 
#
# 1 0.016334 -0.016154 -0.000921 0.000000 0.003292 0.000000
# 2 -0.016154 0.054284 -0.014204 0.000000 0.000352 0.000000
# 3 -0.000921 -0.014204 0.011754 0.000000 -0.001051 0.000000
# 4 0.000000 0.000000 0.000000 0.026493 0.000000 0.001354
# 5 0.003292 0.000352 -0.001051 0.000000 0.037630 0.000000
# 6 0.000000 0.000000 0.000000 0.001354 0.000000 0.035704
#
#
# Mechanical properties :
#
#
# Convention : Reuss Voigt Hill
#
# Bulk Modulus (GPa) = 50.46771 84.88768 67.67769
# Shear Modulus (GPa) = 19.89180 28.46422 24.17801
#
# Velocity S-wave (km/s) = 3.34665 4.00335 3.68964
# Velocity P-wave (km/s) = 6.58402 8.31655 7.50048
#
# Compressibility (1/GPa) = 0.01981465
#
# Stress axis : x y z
#
# Youngs Moduli (GPa) = 61.22382 18.42176 85.07504
#
# Poissons Ratio (x) = 0.29759 0.07833
# Poissons Ratio (y) = 0.98902 1.20837
# Poissons Ratio (z) = 0.05637 0.26165
#
# Static dielectric constant tensor:
#      x y z
#    x 1.590790 0.000000 0.005030 
#    y 0.000000 1.591020 0.000000 
#    z 0.005030 0.000000 1.571700 
# 
# From -- ./inp_files/380660.got.cif
#   From: 2010.05.17/outbox.cif.g08.bks.cpg/sg12_191_cif.got.tgz:380660.got - 2010.06.03 13:09:07.
