data_PCOD9192842
_publ_section_title
;
Structure prediction by ZEFSAII (Michael W. Deem and Ramdas Pophale) SiO2 
 PCOD9192842
Probable space group: C 2/M
;
_chemical_formula_sum "Si O2"
_cell_formula_units_Z 48
_cell_length_a 28.142059
_cell_length_b 17.806892
_cell_length_c 5.390591
_cell_angle_alpha 90.000000
_cell_angle_beta 105.606591
_cell_angle_gamma 90.000000
_cell_volume 2601.752732
_symmetry_space_group_name_H-M "C 2/M"
_symmetry_group_IT_number 12
_symmetry_cell_setting 'monoclinic'
loop_
_space_group_symop_operation_xyz
x,y,z
-x,y,-z
-x,-y,-z
x,-y,z
1/2+x,1/2+y,z
1/2-x,1/2+y,-z
1/2-x,1/2-y,-z
1/2+x,1/2-y,z
loop_
_atom_site_type_symbol
_atom_site_label
_atom_site_fract_x
_atom_site_fract_y
_atom_site_fract_z
Si Si1 0.513841 0.762644 0.255661
Si Si2 0.851768 0.368612 0.105490
Si Si3 0.130593 0.281303 0.382242
Si Si4 0.459352 0.919824 0.231503
Si Si5 0.784906 0.824531 0.561494
Si Si6 0.741937 0.585653 0.975305
O O1 0.500000 0.729882 0.500000
O O2 0.571810 0.779032 0.334303
O O3 0.477565 0.836667 0.174570
O O4 0.500000 0.713655 0.000000
O O5 0.848103 0.308662 0.323544
O O6 0.902979 0.410899 0.233686
O O7 0.801547 0.414185 0.046109
O O8 0.857892 0.335123 0.836756
O O9 0.158902 0.204892 0.358467
O O10 0.500000 0.929397 0.500000
O O11 0.459117 0.000000 0.085678
O O12 0.750000 0.750000 0.500000
O O13 0.773108 0.869722 0.796462
O O14 0.775220 0.872349 0.299342
O O15 0.724067 0.500000 0.958475
#
# Coordination Sequence:
#
# PCOD9192842 Si02
#       6
#     8   8   8   8   8   8
#     4  11  20  36  52  75 111 152 190 249 273 333
#     4  12  21  37  56  83 117 159 203 249 276 345
#     4  12  22  36  59  84 111 155 208 238 294 343
#     4  10  20  34  51  75 113 163 197 231 288 336
#     4  12  23  41  65  86 121 161 204 252 310 364
#     4  12  25  42  62  92 123 158 205 258 304 359
#
# _framework density 18.449099
#
# number of rings (size 3 to 8) (size 9 to 14) (size 15 to 20)
#    0.000    0.500    8.333    2.500    0.000    0.333 
#    0.000    2.500    0.000    0.000    0.000    0.000 
#    0.000   13.333    0.000    0.000    0.000    0.000 
#
# Total GULP energy -133633.975777 kJ/mol
# GULP energy per Si atom -5568.082324 kJ/mol
# Density = 1.840711 g / cm^3
# Si number density = 18.449099 Si / 1000 Ang^3
#
#
#
# Elastic Constant Matrix: (Units=GPa)
#
#
# Indices 1 2 3 4 5 6 
#
# 1 103.7707 35.1401 19.7931 0.0000 -8.3525 0.0000
# 2 35.1401 84.2407 34.5320 0.0000 -10.5471 0.0000
# 3 19.7931 34.5320 114.0067 0.0000 -30.0938 0.0000
# 4 0.0000 0.0000 0.0000 13.7151 0.0000 32.7746
# 5 -8.3525 -10.5471 -30.0938 0.0000 37.2175 0.0000
# 6 0.0000 0.0000 0.0000 32.7746 0.0000 -11.1805
#
#
#
# Elastic Compliance Matrix: (Units=1/GPa)
#
#
# Indices 1 2 3 4 5 6 
#
# 1 0.011287 -0.004439 -0.000354 0.000000 0.000989 0.000000
# 2 -0.004439 0.015313 -0.003795 0.000000 0.000275 0.000000
# 3 -0.000354 -0.003795 0.012304 0.000000 0.008794 0.000000
# 4 0.000000 0.000000 0.000000 0.009108 0.000000 0.026700
# 5 0.000989 0.000275 0.008794 0.000000 0.034279 0.000000
# 6 0.000000 0.000000 0.000000 0.026700 0.000000 -0.011173
#
#
# Mechanical properties :
#
#
# Convention : Reuss Voigt Hill
#
# Bulk Modulus (GPa) = 46.02601 53.43871 49.73236
# Shear Modulus (GPa) = 52.33619 22.12062 37.22841
#
# Velocity S-wave (km/s) = 5.33193 3.46643 4.49698
# Velocity P-wave (km/s) = 7.93144 6.71192 7.34702
#
# Compressibility (1/GPa) = 0.02172685
#
# Stress axis : x y z
#
# Youngs Moduli (GPa) = 88.59711 65.30586 81.27754
#
# Poissons Ratio (x) = 0.28992 0.02876
# Poissons Ratio (y) = 0.39332 0.30844
# Poissons Ratio (z) = 0.03135 0.24783
#
# Static dielectric constant tensor:
#      x y z
#    x 1.645990 0.000000 -0.020490 
#    y 0.000000 1.672920 0.000000 
#    z -0.020490 0.000000 1.713340 
# 
# From -- ./inp_files/28375.got.cif
#   From: 2010.05.17/outbox.cif.g08.bks.cpg/sg12_15_cif.got.tgz:28375.got - 2010.06.03 13:09:07.
