data_PCOD9192069
_publ_section_title
;
Structure prediction by ZEFSAII (Michael W. Deem and Ramdas Pophale) SiO2 
 PCOD9192069
Probable space group: C 2/M
;
_chemical_formula_sum "Si O2"
_cell_formula_units_Z 32
_cell_length_a 5.504731
_cell_length_b 24.036721
_cell_length_c 9.889357
_cell_angle_alpha 90.000000
_cell_angle_beta 74.197642
_cell_angle_gamma 90.000000
_cell_volume 1259.063965
_symmetry_space_group_name_H-M "C 2/M"
_symmetry_group_IT_number 12
_symmetry_cell_setting 'monoclinic'
loop_
_space_group_symop_operation_xyz
x,y,z
-x,y,-z
-x,-y,-z
x,-y,z
1/2+x,1/2+y,z
1/2-x,1/2+y,-z
1/2-x,1/2-y,-z
1/2+x,1/2-y,z
loop_
_atom_site_type_symbol
_atom_site_label
_atom_site_fract_x
_atom_site_fract_y
_atom_site_fract_z
Si Si1 0.653755 0.000000 0.837673
Si Si2 0.000000 0.134316 0.000000
Si Si3 0.635228 0.500000 0.621823
Si Si4 0.500000 0.801531 0.000000
Si Si5 0.042815 0.721983 0.688909
Si Si6 0.886074 0.404119 0.717699
O O1 0.573577 0.944723 0.769427
O O2 0.953272 0.000000 0.781329
O O3 0.500000 0.000000 0.000000
O O4 0.239191 0.163838 0.037340
O O5 0.152089 0.105887 0.855540
O O6 0.500000 0.500000 0.500000
O O7 0.784184 0.442377 0.613006
O O8 0.513689 0.770804 0.141178
O O9 0.325808 0.745683 0.639265
O O10 0.005190 0.656072 0.668345
#
# Coordination Sequence:
#
# PCOD9192069 Si02
#       6
#     4   4   4   4   8   8
#     4  11  24  41  74  97 140 180 224 293 355 419
#     4  10  20  34  62  93 142 179 220 286 348 414
#     4  11  26  47  72  98 133 182 239 297 350 411
#     4  10  20  33  52  90 140 188 228 267 340 418
#     4  11  22  35  59  93 138 182 227 280 347 419
#     4  10  24  39  62 100 131 178 234 283 349 419
#
# _framework density 25.415707999999999
#
# number of rings (size 3 to 8) (size 9 to 14) (size 15 to 20)
#    0.000    1.500    0.000    5.250   17.500    5.000 
#    0.000    0.000    0.000    1.500    0.000    0.000 
#    0.000    0.000    0.000    0.000    0.000    0.000 
#
# Total GULP energy -89476.960048 kJ/mol
# GULP energy per Si atom -5592.310003 kJ/mol
# Density = 2.535786 g / cm^3
# Si number density = 25.415708 Si / 1000 Ang^3
#
#
#
# Elastic Constant Matrix: (Units=GPa)
#
#
# Indices 1 2 3 4 5 6 
#
# 1 195.8689 125.4384 43.3336 0.0000 2.4131 0.0000
# 2 125.4384 232.6576 47.4579 0.0000 8.6802 0.0000
# 3 43.3336 47.4579 96.4412 0.0000 -2.8551 0.0000
# 4 0.0000 0.0000 0.0000 -196.0344 0.0000 -271.7217
# 5 2.4131 8.6802 -2.8551 0.0000 61.7509 0.0000
# 6 0.0000 0.0000 0.0000 -271.7217 0.0000 -382.5975
#
#
#
# Elastic Compliance Matrix: (Units=1/GPa)
#
#
# Indices 1 2 3 4 5 6 
#
# 1 0.008027 -0.004001 -0.001633 0.000000 0.000173 0.000000
# 2 -0.004001 0.006810 -0.001579 0.000000 -0.000874 0.000000
# 3 -0.001633 -0.001579 0.011904 0.000000 0.000836 0.000000
# 4 0.000000 0.000000 0.000000 -0.327135 0.000000 0.232332
# 5 0.000173 -0.000874 0.000836 0.000000 0.016349 0.000000
# 6 0.000000 0.000000 0.000000 0.232332 0.000000 -0.167617
#
#
# Mechanical properties :
#
#
# Convention : Reuss Voigt Hill
#
# Bulk Modulus (GPa) = 81.19892 106.38083 93.78987
# Shear Modulus (GPa) = -11.54389 -82.79366 -47.16878
#
# Velocity S-wave (km/s) = -2.13352 -5.71371 -4.31268
# Velocity P-wave (km/s) = 5.09397 1.25757 3.49049
#
# Compressibility (1/GPa) = 0.01231544
#
# Stress axis : x y z
#
# Youngs Moduli (GPa) = 124.57986 146.83898 84.00187
#
# Poissons Ratio (x) = 0.58753 0.13714
# Poissons Ratio (y) = 0.49847 0.13266
# Poissons Ratio (z) = 0.20339 0.23190
#
# Static dielectric constant tensor:
#      x y z
#    x 2.024630 0.000000 -0.017720 
#    y 0.000000 2.044680 0.000000 
#    z -0.017720 0.000000 2.023010 
# 
# From -- ./inp_files/114956.got.cif
#   From: 2010.05.17/outbox.cif.g08.bks.cpg/sg12_58_cif.got.tgz:114956.got - 2010.06.03 13:09:07.
