data_PCOD9192289
_publ_section_title
;
Structure prediction by ZEFSAII (Michael W. Deem and Ramdas Pophale) SiO2 
 PCOD9192289
Probable space group: C 2/M
;
_chemical_formula_sum "Si O2"
_cell_formula_units_Z 32
_cell_length_a 15.288411
_cell_length_b 10.532257
_cell_length_c 16.100827
_cell_angle_alpha 90.000000
_cell_angle_beta 147.585509
_cell_angle_gamma 90.000000
_cell_volume 1389.726823
_symmetry_space_group_name_H-M "C 2/M"
_symmetry_group_IT_number 12
_symmetry_cell_setting 'monoclinic'
loop_
_space_group_symop_operation_xyz
x,y,z
-x,y,-z
-x,-y,-z
x,-y,z
1/2+x,1/2+y,z
1/2-x,1/2+y,-z
1/2-x,1/2-y,-z
1/2+x,1/2-y,z
loop_
_atom_site_type_symbol
_atom_site_label
_atom_site_fract_x
_atom_site_fract_y
_atom_site_fract_z
Si Si1 0.671605 0.275059 0.636189
Si Si2 0.168202 0.146649 0.081702
Si Si3 0.024287 0.358149 0.853013
Si Si4 0.134225 0.640886 0.439997
O O1 0.500000 0.350240 0.500000
O O2 0.710520 0.213275 0.755969
O O3 0.837185 0.343944 0.738010
O O4 0.631262 0.166651 0.535399
O O5 0.205902 0.000000 0.090852
O O6 0.000000 0.140462 0.000000
O O7 0.124650 0.242922 0.972573
O O8 0.082447 0.500000 0.923021
O O9 0.014410 0.350120 0.744850
O O10 0.201604 0.500000 0.480973
O O11 0.250000 0.750000 0.500000
#
# Coordination Sequence:
#
# PCOD9192289 Si02
#       4
#     8   8   8   8
#     4  10  20  33  54  83 109 133 171 224 268 302
#     4   9  18  32  52  77 103 136 177 215 254 306
#     4   9  19  36  56  76 104 142 177 211 256 315
#     4   9  18  33  53  76 102 136 176 213 255 308
#
# _framework density 23.026108000000001
#
# number of rings (size 3 to 8) (size 9 to 14) (size 15 to 20)
#    0.000    2.750    0.000    0.750    0.000   13.000 
#    0.000    1.250    0.000    0.000    0.000    0.000 
#    0.000    0.000    0.000    0.000    0.000    0.000 
#
# Total GULP energy -89223.358854 kJ/mol
# GULP energy per Si atom -5576.459928 kJ/mol
# Density = 2.297370 g / cm^3
# Si number density = 23.026108 Si / 1000 Ang^3
#
#
#
# Elastic Constant Matrix: (Units=GPa)
#
#
# Indices 1 2 3 4 5 6 
#
# 1 104.9246 45.1230 35.3267 0.0000 -17.3948 0.0000
# 2 45.1230 161.8668 54.7295 0.0000 -31.8327 0.0000
# 3 35.3267 54.7295 114.7738 0.0000 -11.0746 0.0000
# 4 0.0000 0.0000 0.0000 17.9962 0.0000 -4.7437
# 5 -17.3948 -31.8327 -11.0746 0.0000 46.6411 0.0000
# 6 0.0000 0.0000 0.0000 -4.7437 0.0000 20.8820
#
#
#
# Elastic Compliance Matrix: (Units=1/GPa)
#
#
# Indices 1 2 3 4 5 6 
#
# 1 0.011575 -0.001937 -0.002405 0.000000 0.002424 0.000000
# 2 -0.001937 0.008637 -0.003094 0.000000 0.004438 0.000000
# 3 -0.002405 -0.003094 0.010888 0.000000 -0.000424 0.000000
# 4 0.000000 0.000000 0.000000 0.059107 0.000000 0.013427
# 5 0.002424 0.004438 -0.000424 0.000000 0.025272 0.000000
# 6 0.000000 0.000000 0.000000 0.013427 0.000000 0.050938
#
#
# Mechanical properties :
#
#
# Convention : Reuss Voigt Hill
#
# Bulk Modulus (GPa) = 61.62493 72.43597 67.03045
# Shear Modulus (GPa) = 26.78114 33.52958 30.15536
#
# Velocity S-wave (km/s) = 3.41409 3.82010 3.62279
# Velocity P-wave (km/s) = 6.50865 7.14031 6.83178
#
# Compressibility (1/GPa) = 0.01622720
#
# Stress axis : x y z
#
# Youngs Moduli (GPa) = 86.39093 115.78530 91.84708
#
# Poissons Ratio (x) = 0.22425 0.22092
# Poissons Ratio (y) = 0.16732 0.28418
# Poissons Ratio (z) = 0.20780 0.35825
#
# Static dielectric constant tensor:
#      x y z
#    x 1.999570 0.000000 0.088480 
#    y 0.000000 1.772460 0.000000 
#    z 0.088480 0.000000 1.900940 
# 
# From -- ./inp_files/276799.got.cif
#   From: 2010.05.17/outbox.cif.g08.bks.cpg/sg12_139_cif.got.tgz:276799.got - 2010.06.03 13:09:07.
