data_PCOD9192556
_publ_section_title
;
Structure prediction by ZEFSAII (Michael W. Deem and Ramdas Pophale) SiO2 
 PCOD9192556
Probable space group: C 2/M
;
_chemical_formula_sum "Si O2"
_cell_formula_units_Z 40
_cell_length_a 22.553325
_cell_length_b 17.821600
_cell_length_c 12.098091
_cell_angle_alpha 90.000000
_cell_angle_beta 156.976762
_cell_angle_gamma 90.000000
_cell_volume 1901.808819
_symmetry_space_group_name_H-M "C 2/M"
_symmetry_group_IT_number 12
_symmetry_cell_setting 'monoclinic'
loop_
_space_group_symop_operation_xyz
x,y,z
-x,y,-z
-x,-y,-z
x,-y,z
1/2+x,1/2+y,z
1/2-x,1/2+y,-z
1/2-x,1/2-y,-z
1/2+x,1/2-y,z
loop_
_atom_site_type_symbol
_atom_site_label
_atom_site_fract_x
_atom_site_fract_y
_atom_site_fract_z
Si Si1 0.987787 0.000000 0.802896
Si Si2 0.246074 0.500000 0.559858
Si Si3 0.028919 0.770278 0.423659
Si Si4 0.324277 0.610756 0.010794
Si Si5 0.722328 0.583313 0.814743
Si Si6 0.922934 0.383307 0.590389
O O1 0.819617 0.000000 0.564737
O O2 0.040823 0.928020 0.825335
O O3 0.109683 0.000000 0.111793
O O4 0.151339 0.426280 0.433286
O O5 0.085777 0.706562 0.438215
O O6 0.000000 0.740901 0.500000
O O7 0.869798 0.802283 0.103000
O O8 0.137450 0.842736 0.623788
O O9 0.316541 0.582220 0.121880
O O10 0.173485 0.592754 0.683508
O O11 0.683596 0.500000 0.703619
O O12 0.902122 0.594671 0.114075
#
# Coordination Sequence:
#
# PCOD9192556 Si02
#       6
#     4   4   8   8   8   8
#     4   9  18  35  55  80 102 139 192 237 264 313
#     4   9  20  35  56  78 105 139 192 244 266 303
#     4  10  22  35  52  82 124 149 171 216 284 342
#     4  10  20  33  58  80 109 148 183 221 270 336
#     4  11  21  33  55  88 119 142 176 224 279 333
#     4  11  20  36  55  83 111 147 185 231 271 320
#
# _framework density 21.032609000000001
#
# number of rings (size 3 to 8) (size 9 to 14) (size 15 to 20)
#    0.000    1.800    2.000    3.000    1.400    5.200 
#    0.000    1.000    0.000    4.800    0.000    0.000 
#    0.000    0.000    0.000    0.000    0.000    0.000 
#
# Total GULP energy -111582.361142 kJ/mol
# GULP energy per Si atom -5579.118057 kJ/mol
# Density = 2.098474 g / cm^3
# Si number density = 21.032609 Si / 1000 Ang^3
#
#
#
# Elastic Constant Matrix: (Units=GPa)
#
#
# Indices 1 2 3 4 5 6 
#
# 1 68.8502 16.3500 30.7221 0.0000 38.4488 0.0000
# 2 16.3500 104.7754 30.1133 0.0000 26.3487 0.0000
# 3 30.7221 30.1133 99.2015 0.0000 21.3907 0.0000
# 4 0.0000 0.0000 0.0000 31.1361 0.0000 3.2340
# 5 38.4488 26.3487 21.3907 0.0000 33.9869 0.0000
# 6 0.0000 0.0000 0.0000 3.2340 0.0000 7.5971
#
#
#
# Elastic Compliance Matrix: (Units=1/GPa)
#
#
# Indices 1 2 3 4 5 6 
#
# 1 0.044834 0.007900 -0.004658 0.000000 -0.053913 0.000000
# 2 0.007900 0.013556 -0.002740 0.000000 -0.017722 0.000000
# 3 -0.004658 -0.002740 0.012450 0.000000 -0.000442 0.000000
# 4 0.000000 0.000000 0.000000 0.033603 0.000000 -0.014304
# 5 -0.053913 -0.017722 -0.000442 0.000000 0.104432 0.000000
# 6 0.000000 0.000000 0.000000 -0.014304 0.000000 0.137718
#
#
# Mechanical properties :
#
#
# Convention : Reuss Voigt Hill
#
# Bulk Modulus (GPa) = 13.91894 47.46642 30.69268
# Shear Modulus (GPa) = 13.53050 27.58680 20.55865
#
# Velocity S-wave (km/s) = 2.53911 3.62556 3.12984
# Velocity P-wave (km/s) = 3.90234 6.33587 5.26172
#
# Compressibility (1/GPa) = 0.07184454
#
# Stress axis : x y z
#
# Youngs Moduli (GPa) = 22.30460 73.76982 80.32032
#
# Poissons Ratio (x) = -0.58281 0.37411
# Poissons Ratio (y) = -0.17622 0.22009
# Poissons Ratio (z) = 0.10389 0.20215
#
# Static dielectric constant tensor:
#      x y z
#    x 1.737810 0.000000 -0.016940 
#    y 0.000000 1.817810 0.000000 
#    z -0.016940 0.000000 1.809850 
# 
# From -- ./inp_files/130415.got.cif
#   From: 2010.05.17/outbox.cif.g08.bks.cpg/sg12_66_cif.got.tgz:130415.got - 2010.06.03 13:09:07.
