data_PCOD9192475
_publ_section_title
;
Structure prediction by ZEFSAII (Michael W. Deem and Ramdas Pophale) SiO2 
 PCOD9192475
Probable space group: C 2/M
;
_chemical_formula_sum "Si O2"
_cell_formula_units_Z 48
_cell_length_a 25.222958
_cell_length_b 18.791515
_cell_length_c 5.312718
_cell_angle_alpha 90.000000
_cell_angle_beta 123.797352
_cell_angle_gamma 90.000000
_cell_volume 2092.574453
_symmetry_space_group_name_H-M "C 2/M"
_symmetry_group_IT_number 12
_symmetry_cell_setting 'monoclinic'
loop_
_space_group_symop_operation_xyz
x,y,z
-x,y,-z
-x,-y,-z
x,-y,z
1/2+x,1/2+y,z
1/2-x,1/2+y,-z
1/2-x,1/2-y,-z
1/2+x,1/2-y,z
loop_
_atom_site_type_symbol
_atom_site_label
_atom_site_fract_x
_atom_site_fract_y
_atom_site_fract_z
Si Si1 0.603344 0.082328 0.710068
Si Si2 0.237120 0.364794 0.979930
Si Si3 0.808994 0.761204 0.470093
Si Si4 0.070666 0.328863 0.119719
Si Si5 0.357721 0.415121 0.053444
Si Si6 0.428976 0.413116 0.740799
O O1 0.586779 0.117499 0.395549
O O2 0.583248 0.000000 0.666773
O O3 0.680905 0.086503 0.934754
O O4 0.574965 0.127515 0.868471
O O5 0.289778 0.337703 0.313254
O O6 0.283219 0.396658 0.889564
O O7 0.201079 0.294982 0.784248
O O8 0.750000 0.750000 0.500000
O O9 0.876460 0.733988 0.753783
O O10 0.000000 0.301918 0.000000
O O11 0.361722 0.500000 0.073800
O O12 0.402815 0.388173 0.401407
O O13 0.386291 0.391853 0.865482
O O14 0.428895 0.500000 0.730499
O O15 0.500000 0.390455 0.000000
#
# Coordination Sequence:
#
# PCOD9192475 Si02
#       6
#     8   8   8   8   8   8
#     4  11  23  40  65  98 134 170 208 257 324 396
#     4  10  22  38  62  91 120 159 212 260 312 367
#     4  10  21  42  66  85 117 169 213 258 311 370
#     4  11  24  42  66  95 129 173 215 265 319 380
#     4  10  20  33  56  87 116 150 194 253 309 364
#     4   9  18  33  52  75 112 158 194 228 291 368
#
# _framework density 22.93825
#
# number of rings (size 3 to 8) (size 9 to 14) (size 15 to 20)
#    0.000    1.833    1.667    2.000    2.333    4.000 
#    0.000    4.167    3.667    0.000    0.000    0.000 
#    0.000    0.000    0.000    0.000    0.000    0.000 
#
# Total GULP energy -133925.805873 kJ/mol
# GULP energy per Si atom -5580.241911 kJ/mol
# Density = 2.288604 g / cm^3
# Si number density = 22.938250 Si / 1000 Ang^3
#
#
#
# Elastic Constant Matrix: (Units=GPa)
#
#
# Indices 1 2 3 4 5 6 
#
# 1 126.5294 1.2112 21.0511 0.0000 14.9780 0.0000
# 2 1.2112 32.2744 9.7710 0.0000 2.0290 0.0000
# 3 21.0511 9.7710 85.1059 0.0000 -1.7948 0.0000
# 4 0.0000 0.0000 0.0000 5.6009 0.0000 5.2971
# 5 14.9780 2.0290 -1.7948 0.0000 48.2277 0.0000
# 6 0.0000 0.0000 0.0000 5.2971 0.0000 23.8572
#
#
#
# Elastic Compliance Matrix: (Units=1/GPa)
#
#
# Indices 1 2 3 4 5 6 
#
# 1 0.008601 0.000532 -0.002247 0.000000 -0.002777 0.000000
# 2 0.000532 0.032240 -0.003868 0.000000 -0.001666 0.000000
# 3 -0.002247 -0.003868 0.012778 0.000000 0.001336 0.000000
# 4 0.000000 0.000000 0.000000 0.226002 0.000000 -0.050180
# 5 -0.002777 -0.001666 0.001336 0.000000 0.021717 0.000000
# 6 0.000000 0.000000 0.000000 -0.050180 0.000000 0.053058
#
#
# Mechanical properties :
#
#
# Convention : Reuss Voigt Hill
#
# Bulk Modulus (GPa) = 23.55559 34.21959 28.88759
# Shear Modulus (GPa) = 13.16780 29.66224 21.41502
#
# Velocity S-wave (km/s) = 2.39854 3.59992 3.05879
# Velocity P-wave (km/s) = 4.23817 5.67712 5.00958
#
# Compressibility (1/GPa) = 0.04245277
#
# Stress axis : x y z
#
# Youngs Moduli (GPa) = 116.26814 31.01716 78.25839
#
# Poissons Ratio (x) = -0.01651 0.17585
# Poissons Ratio (y) = -0.06187 0.30272
# Poissons Ratio (z) = 0.26126 0.11998
#
# Static dielectric constant tensor:
#      x y z
#    x 2.031300 0.000000 -0.024560 
#    y 0.000000 1.894430 0.000000 
#    z -0.024560 0.000000 1.949330 
# 
# From -- ./inp_files/20937.got.cif
#   From: 2010.05.17/outbox.cif.g08.bks.cpg/sg12_11_cif.got.tgz:20937.got - 2010.06.03 13:09:07.
