data_PCOD9192269
_publ_section_title
;
Structure prediction by ZEFSAII (Michael W. Deem and Ramdas Pophale) SiO2 
 PCOD9192269
Probable space group: C 2/M
;
_chemical_formula_sum "Si O2"
_cell_formula_units_Z 64
_cell_length_a 11.131274
_cell_length_b 29.018437
_cell_length_c 19.863505
_cell_angle_alpha 90.000000
_cell_angle_beta 148.041050
_cell_angle_gamma 90.000000
_cell_volume 3396.144297
_symmetry_space_group_name_H-M "C 2/M"
_symmetry_group_IT_number 12
_symmetry_cell_setting 'monoclinic'
loop_
_space_group_symop_operation_xyz
x,y,z
-x,y,-z
-x,-y,-z
x,-y,z
1/2+x,1/2+y,z
1/2-x,1/2+y,-z
1/2-x,1/2-y,-z
1/2+x,1/2-y,z
loop_
_atom_site_type_symbol
_atom_site_label
_atom_site_fract_x
_atom_site_fract_y
_atom_site_fract_z
Si Si1 0.738569 0.781537 0.898603
Si Si2 0.416998 0.881667 0.886047
Si Si3 0.626441 0.551854 0.665471
Si Si4 0.637049 0.854141 0.742471
Si Si5 0.140726 0.553008 0.369972
Si Si6 0.642088 0.350284 0.942404
Si Si7 0.081551 0.185374 0.770624
Si Si8 0.631008 0.789842 0.491126
O O1 0.618383 0.823008 0.800418
O O2 0.606726 0.736292 0.813143
O O3 0.768146 0.800952 0.987701
O O4 0.000000 0.774941 0.000000
O O5 0.221725 0.913003 0.764249
O O6 0.305666 0.830511 0.836977
O O7 0.500000 0.894372 0.000000
O O8 0.642056 0.883061 0.947742
O O9 0.663456 0.500000 0.707244
O O10 0.362930 0.557462 0.522557
O O11 0.763146 0.557121 0.660343
O O12 0.518305 0.903603 0.690292
O O13 0.535758 0.821566 0.634098
O O14 0.907370 0.861797 0.865534
O O15 0.052560 0.500000 0.335783
O O16 0.582556 0.347099 0.835841
O O17 0.851538 0.181832 0.619990
O O18 0.500000 0.775850 0.500000
O O19 0.750000 0.750000 0.500000
#
# Coordination Sequence:
#
# PCOD9192269 Si02
#       8
#     8   8   8   8   8   8   8   8
#     4  10  20  33  54  81 112 153 200 237 293 349
#     4  10  21  35  55  86 112 154 204 241 297 363
#     4   9  18  37  61  86 115 145 193 256 309 359
#     4  11  21  38  58  84 120 158 193 250 305 357
#     4   9  19  37  63  89 112 148 195 249 310 365
#     4  10  21  35  56  80 118 161 196 246 296 361
#     4  11  21  38  56  80 118 159 205 249 291 357
#     4  12  25  43  61  89 129 165 205 254 305 358
#
# _framework density 18.844899000000002
#
# number of rings (size 3 to 8) (size 9 to 14) (size 15 to 20)
#    0.000    1.750    2.500    3.750    0.000    2.250 
#    4.500    0.625    0.000    6.000    0.000    0.000 
#    0.000    0.000    0.000    0.000    0.000    0.000 
#
# Total GULP energy -178191.595453 kJ/mol
# GULP energy per Si atom -5568.487358 kJ/mol
# Density = 1.880201 g / cm^3
# Si number density = 18.844899 Si / 1000 Ang^3
#
#
#
# Elastic Constant Matrix: (Units=GPa)
#
#
# Indices 1 2 3 4 5 6 
#
# 1 51.5728 25.9558 19.6257 0.0005 8.6536 -0.0001
# 2 25.9558 97.5661 32.3191 -0.0018 9.2498 -0.0003
# 3 19.6257 32.3191 86.6675 -0.0002 -6.9963 0.0016
# 4 0.0005 -0.0018 -0.0002 16.8230 0.0008 3.7290
# 5 8.6536 9.2498 -6.9963 0.0008 27.3892 0.0002
# 6 -0.0001 -0.0003 0.0016 3.7290 0.0002 16.4206
#
#
#
# Elastic Compliance Matrix: (Units=1/GPa)
#
#
# Indices 1 2 3 4 5 6 
#
# 1 0.024546 -0.004315 -0.004551 -0.000001 -0.007461 0.000001
# 2 -0.004315 0.013216 -0.004290 0.000002 -0.004196 0.000000
# 3 -0.004551 -0.004290 0.014705 0.000000 0.006643 -0.000002
# 4 -0.000001 0.000002 0.000000 0.062593 -0.000002 -0.014214
# 5 -0.007461 -0.004196 0.006643 -0.000002 0.041982 -0.000001
# 6 0.000001 0.000000 -0.000002 -0.014214 -0.000001 0.064127
#
#
# Mechanical properties :
#
#
# Convention : Reuss Voigt Hill
#
# Bulk Modulus (GPa) = 38.23510 43.51193 40.87351
# Shear Modulus (GPa) = 19.51602 22.65362 21.08482
#
# Velocity S-wave (km/s) = 3.22159 3.47091 3.34857
# Velocity P-wave (km/s) = 5.84564 6.26119 6.05698
#
# Compressibility (1/GPa) = 0.02615398
#
# Stress axis : x y z
#
# Youngs Moduli (GPa) = 40.74055 75.66425 68.00360
#
# Poissons Ratio (x) = 0.32649 0.30952
# Poissons Ratio (y) = 0.17579 0.29174
# Poissons Ratio (z) = 0.18543 0.32461
#
# Static dielectric constant tensor:
#      x y z
#    x 1.707180 0.000000 0.001600 
#    y 0.000000 1.654390 0.000000 
#    z 0.001600 0.000000 1.648430 
# 
# From -- ./inp_files/170574.got.cif
#   From: 2010.05.17/outbox.cif.g08.bks.cpg/sg12_86_cif.got.tgz:170574.got - 2010.06.03 13:09:07.
