data_PCOD9192786
_publ_section_title
;
Structure prediction by ZEFSAII (Michael W. Deem and Ramdas Pophale) SiO2 
 PCOD9192786
Probable space group: C 2/M
;
_chemical_formula_sum "Si O2"
_cell_formula_units_Z 56
_cell_length_a 21.717455
_cell_length_b 9.282747
_cell_length_c 13.629153
_cell_angle_alpha 90.000000
_cell_angle_beta 69.481780
_cell_angle_gamma 90.000000
_cell_volume 2573.299150
_symmetry_space_group_name_H-M "C 2/M"
_symmetry_group_IT_number 12
_symmetry_cell_setting 'monoclinic'
loop_
_space_group_symop_operation_xyz
x,y,z
-x,y,-z
-x,-y,-z
x,-y,z
1/2+x,1/2+y,z
1/2-x,1/2+y,-z
1/2-x,1/2-y,-z
1/2+x,1/2-y,z
loop_
_atom_site_type_symbol
_atom_site_label
_atom_site_fract_x
_atom_site_fract_y
_atom_site_fract_z
Si Si1 0.634445 0.171971 0.012383
Si Si2 0.275208 0.172460 0.659610
Si Si3 0.165130 0.838361 0.189217
Si Si4 0.467561 0.237178 0.667003
Si Si5 0.907862 0.663750 0.495014
Si Si6 0.651513 0.828350 0.779318
Si Si7 0.994478 0.660214 0.144228
O O1 0.666277 0.261536 0.082813
O O2 0.557112 0.218907 0.050326
O O3 0.634858 0.000000 0.034260
O O4 0.664904 0.191537 0.888294
O O5 0.300967 0.240862 0.747324
O O6 0.332015 0.206552 0.548190
O O7 0.204574 0.244688 0.685502
O O8 0.271292 0.000000 0.668583
O O9 0.088740 0.846892 0.267718
O O10 0.192513 0.000000 0.170181
O O11 0.435363 0.159357 0.591398
O O12 0.541705 0.268877 0.588876
O O13 0.478249 0.151175 0.760688
O O14 0.912882 0.500000 0.451738
O O15 0.577134 0.770910 0.808226
O O16 0.654595 0.000000 0.755873
O O17 0.980767 0.500000 0.113695
#
# Coordination Sequence:
#
# PCOD9192786 Si02
#       7
#     8   8   8   8   8   8   8
#     4   9  18  33  54  77 100 131 171 211 253 304
#     4  10  21  36  52  72 101 139 177 208 247 302
#     4  10  20  34  53  79 107 130 161 210 262 307
#     4   9  16  29  51  78 103 128 161 205 254 299
#     4   9  16  29  52  79 103 131 169 209 248 299
#     4  10  20  34  51  73 102 136 174 214 253 294
#     4   9  16  29  52  78 102 130 168 211 251 297
#
# _framework density 21.761946999999999
#
# number of rings (size 3 to 8) (size 9 to 14) (size 15 to 20)
#    0.000    2.571    0.000    3.000    0.000    7.429 
#    0.000   10.000    0.000    4.286    0.000    0.000 
#    0.000    0.000    0.000    0.000    0.000    0.000 
#
# Total GULP energy -155991.820027 kJ/mol
# GULP energy per Si atom -5571.136430 kJ/mol
# Density = 2.171242 g / cm^3
# Si number density = 21.761947 Si / 1000 Ang^3
#
#
#
# Elastic Constant Matrix: (Units=GPa)
#
#
# Indices 1 2 3 4 5 6 
#
# 1 53.9435 10.4936 33.3207 0.0000 -32.3575 0.0000
# 2 10.4936 52.6113 16.2255 0.0000 -5.8098 0.0000
# 3 33.3207 16.2255 84.0205 0.0000 -25.6344 0.0000
# 4 0.0000 0.0000 0.0000 10.8655 0.0000 -7.5050
# 5 -32.3575 -5.8098 -25.6344 0.0000 47.5369 0.0000
# 6 0.0000 0.0000 0.0000 -7.5050 0.0000 16.7663
#
#
#
# Elastic Compliance Matrix: (Units=1/GPa)
#
#
# Indices 1 2 3 4 5 6 
#
# 1 0.035624 -0.002578 -0.007574 0.000000 0.019849 0.000000
# 2 -0.002578 0.020405 -0.003223 0.000000 -0.000999 0.000000
# 3 -0.007574 -0.003223 0.016559 0.000000 0.003380 0.000000
# 4 0.000000 0.000000 0.000000 0.133226 0.000000 0.059635
# 5 0.019849 -0.000999 0.003380 0.000000 0.036248 0.000000
# 6 0.000000 0.000000 0.000000 0.059635 0.000000 0.086338
#
#
# Mechanical properties :
#
#
# Convention : Reuss Voigt Hill
#
# Bulk Modulus (GPa) = 21.81534 34.51721 28.16627
# Shear Modulus (GPa) = 13.49784 23.73612 18.61698
#
# Velocity S-wave (km/s) = 2.49318 3.30618 2.92804
# Velocity P-wave (km/s) = 4.28185 5.51998 4.93986
#
# Compressibility (1/GPa) = 0.04583931
#
# Stress axis : x y z
#
# Youngs Moduli (GPa) = 28.07077 49.00730 60.38920
#
# Poissons Ratio (x) = 0.12632 0.45739
# Poissons Ratio (y) = 0.07236 0.19463
# Poissons Ratio (z) = 0.21261 0.15795
#
# Static dielectric constant tensor:
#      x y z
#    x 1.885800 0.000000 -0.044590 
#    y 0.000000 1.732530 0.000000 
#    z -0.044590 0.000000 1.830790 
# 
# From -- ./inp_files/238438.got.cif
#   From: 2010.05.17/outbox.cif.g08.bks.cpg/sg12_120_cif.got.tgz:238438.got - 2010.06.03 13:09:07.
