data_PCOD9192940
_publ_section_title
;
Structure prediction by ZEFSAII (Michael W. Deem and Ramdas Pophale) SiO2 
 PCOD9192940
Probable space group: C 2/M
;
_chemical_formula_sum "Si O2"
_cell_formula_units_Z 60
_cell_length_a 21.913350
_cell_length_b 12.651680
_cell_length_c 14.976710
_cell_angle_alpha 90.000000
_cell_angle_beta 119.190878
_cell_angle_gamma 90.000000
_cell_volume 3624.828867
_symmetry_space_group_name_H-M "C 2/M"
_symmetry_group_IT_number 12
_symmetry_cell_setting 'monoclinic'
loop_
_space_group_symop_operation_xyz
x,y,z
-x,y,-z
-x,-y,-z
x,-y,z
1/2+x,1/2+y,z
1/2-x,1/2+y,-z
1/2-x,1/2-y,-z
1/2+x,1/2-y,z
loop_
_atom_site_type_symbol
_atom_site_label
_atom_site_fract_x
_atom_site_fract_y
_atom_site_fract_z
Si Si1 0.866697 0.251583 0.100467
Si Si2 0.274395 0.125099 0.699910
Si Si3 0.741093 0.874020 0.100467
Si Si4 0.374131 0.625869 0.500000
Si Si5 0.025307 0.374188 0.699910
Si Si6 0.000000 0.251739 0.500000
Si Si7 0.992677 0.874396 0.100467
Si Si8 0.599792 0.749089 0.300090
O O1 0.812042 0.179002 0.115129
O O2 0.910281 0.324889 0.199174
O O3 0.922579 0.179555 0.088182
O O4 0.822137 0.322137 0.000000
O O5 0.267998 0.146611 0.800826
O O6 0.200230 0.146242 0.599744
O O7 0.335178 0.193718 0.699251
O O8 0.289712 0.000000 0.699941
O O9 0.743024 0.000000 0.088182
O O10 0.384729 0.500000 0.512638
O O11 0.436046 0.679225 0.487362
O O12 0.376636 0.677352 0.599743
O O13 0.028896 0.500000 0.699251
O O14 0.022878 0.323594 0.599743
O O15 0.955115 0.334597 0.699941
O O16 0.056891 0.821722 0.199174
O O17 0.991045 0.000000 0.115129
O O18 0.000000 0.855726 0.000000
#
# Coordination Sequence:
#
# PCOD9192940 Si02
#       8
#     8   8   8   8   8   4   8   8
#     4  10  20  34  53  76 103 135 170 210 254 301
#     4  10  20  34  52  74 101 133 169 209 253 301
#     4  10  20  34  53  76 103 135 170 210 254 301
#     4  10  20  34  54  78 104 134 168 208 252 300
#     4  10  20  34  52  74 101 133 169 209 253 301
#     4  10  20  34  54  78 104 134 168 208 252 300
#     4  10  20  34  53  76 103 135 170 210 254 301
#     4  10  20  34  52  74 101 133 169 209 253 301
#
# _framework density 16.552505
#
# number of rings (size 3 to 8) (size 9 to 14) (size 15 to 20)
#    0.000    2.000    0.000    4.000    0.000    0.000 
#    0.000    4.000    0.000   17.600    0.000    0.000 
#    0.000    0.000    0.000    0.000    0.000    0.000 
#
# Total GULP energy -167509.718168 kJ/mol
# GULP energy per Si atom -5583.657272 kJ/mol
# Density = 1.651483 g / cm^3
# Si number density = 16.552505 Si / 1000 Ang^3
#
#
#
# Elastic Constant Matrix: (Units=GPa)
#
#
# Indices 1 2 3 4 5 6 
#
# 1 147.6992 109.3871 108.3578 0.0000 1.5460 0.0000
# 2 109.3871 147.5030 108.5238 0.0000 -1.2641 0.0000
# 3 108.3578 108.5238 171.1474 0.0000 0.5097 0.0000
# 4 0.0000 0.0000 0.0000 24.2260 0.0000 -1.0482
# 5 1.5460 -1.2641 0.5097 0.0000 24.0668 0.0000
# 6 0.0000 0.0000 0.0000 -1.0482 0.0000 18.9349
#
#
#
# Elastic Compliance Matrix: (Units=1/GPa)
#
#
# Indices 1 2 3 4 5 6 
#
# 1 0.017273 -0.008959 -0.005251 0.000000 -0.001469 0.000000
# 2 -0.008959 0.017372 -0.005348 0.000000 0.001601 0.000000
# 3 -0.005251 -0.005348 0.012559 0.000000 -0.000210 0.000000
# 4 0.000000 0.000000 0.000000 0.041377 0.000000 0.002291
# 5 -0.001469 0.001601 -0.000210 0.000000 0.041734 0.000000
# 6 0.000000 0.000000 0.000000 0.002291 0.000000 0.052939
#
#
# Mechanical properties :
#
#
# Convention : Reuss Voigt Hill
#
# Bulk Modulus (GPa) = 123.63282 124.32076 123.97679
# Shear Modulus (GPa) = 22.21560 22.78425 22.49992
#
# Velocity S-wave (km/s) = 3.66748 3.71412 3.69088
# Velocity P-wave (km/s) = 9.63262 9.67796 9.65532
#
# Compressibility (1/GPa) = 0.00808847
#
# Stress axis : x y z
#
# Youngs Moduli (GPa) = 57.89289 57.56397 79.62289
#
# Poissons Ratio (x) = 0.51572 0.41809
# Poissons Ratio (y) = 0.51866 0.42583
# Poissons Ratio (z) = 0.30399 0.30786
#
# Static dielectric constant tensor:
#      x y z
#    x 1.523420 0.000000 0.000450 
#    y 0.000000 1.523410 0.000000 
#    z 0.000450 0.000000 1.536160 
# 
# From -- ./inp_files/223858.got.cif
#   From: 2010.05.17/outbox.cif.g08.bks.cpg/sg12_112_cif.got.tgz:223858.got - 2010.06.03 13:09:07.
