data_PCOD9192105
_publ_section_title
;
Structure prediction by ZEFSAII (Michael W. Deem and Ramdas Pophale) SiO2 
 PCOD9192105
Probable space group: C 2/M
;
_chemical_formula_sum "Si O2"
_cell_formula_units_Z 56
_cell_length_a 12.128518
_cell_length_b 13.056262
_cell_length_c 18.221054
_cell_angle_alpha 90.000000
_cell_angle_beta 123.697748
_cell_angle_gamma 90.000000
_cell_volume 2400.550521
_symmetry_space_group_name_H-M "C 2/M"
_symmetry_group_IT_number 12
_symmetry_cell_setting 'monoclinic'
loop_
_space_group_symop_operation_xyz
x,y,z
-x,y,-z
-x,-y,-z
x,-y,z
1/2+x,1/2+y,z
1/2-x,1/2+y,-z
1/2-x,1/2-y,-z
1/2+x,1/2-y,z
loop_
_atom_site_type_symbol
_atom_site_label
_atom_site_fract_x
_atom_site_fract_y
_atom_site_fract_z
Si Si1 0.798381 0.112428 0.196851
Si Si2 0.298831 0.114279 0.541917
Si Si3 0.090383 0.171835 0.915482
Si Si4 0.196691 0.278990 0.601359
Si Si5 0.708763 0.329093 0.211275
Si Si6 0.318159 0.115293 0.102280
Si Si7 0.013941 0.111355 0.607375
O O1 0.825933 0.126955 0.121636
O O2 0.715932 0.206462 0.198481
O O3 0.940064 0.117877 0.291400
O O4 0.741398 0.000000 0.190485
O O5 0.307736 0.201223 0.607535
O O6 0.355466 0.154063 0.485743
O O7 0.141231 0.111972 0.464414
O O8 0.342243 0.000000 0.577837
O O9 0.096540 0.294352 0.902963
O O10 0.940424 0.135065 0.856979
O O11 0.170196 0.140448 0.017161
O O12 0.249235 0.344184 0.689102
O O13 0.089677 0.201623 0.595363
O O14 0.807755 0.373432 0.186473
O O15 0.356099 0.000000 0.096566
O O16 0.065598 0.000000 0.600048
#
# Coordination Sequence:
#
# PCOD9192105 Si02
#       7
#     8   8   8   8   8   8   8
#     4   9  18  32  52  80 109 138 177 218 254 301
#     4  10  20  34  54  78 103 138 181 219 260 308
#     4  10  20  36  56  78 107 140 173 211 257 310
#     4  10  20  33  53  78 108 137 173 222 263 304
#     4  10  21  35  53  79 108 139 174 213 262 313
#     4  10  22  38  56  80 107 136 173 214 257 310
#     4   9  17  32  55  79 104 139 180 218 257 302
#
# _framework density 23.327983
#
# number of rings (size 3 to 8) (size 9 to 14) (size 15 to 20)
#    0.000    2.286    0.000    2.571    0.000    4.571 
#    0.000    0.000    0.000   12.857    0.000    0.000 
#    0.000    0.000    0.000    0.000    0.000    0.000 
#
# Total GULP energy -156445.828270 kJ/mol
# GULP energy per Si atom -5587.351010 kJ/mol
# Density = 2.327489 g / cm^3
# Si number density = 23.327983 Si / 1000 Ang^3
#
#
#
# Elastic Constant Matrix: (Units=GPa)
#
#
# Indices 1 2 3 4 5 6 
#
# 1 38.0273 -9.4906 6.8674 0.0000 -2.0803 0.0000
# 2 -9.4906 97.3991 -6.5022 0.0000 -8.0340 0.0000
# 3 6.8674 -6.5022 97.4699 0.0000 -25.6743 0.0000
# 4 0.0000 0.0000 0.0000 15.7148 0.0000 2.5533
# 5 -2.0803 -8.0340 -25.6743 0.0000 30.7967 0.0000
# 6 0.0000 0.0000 0.0000 2.5533 0.0000 8.2313
#
#
#
# Elastic Compliance Matrix: (Units=1/GPa)
#
#
# Indices 1 2 3 4 5 6 
#
# 1 0.027291 0.002683 -0.001376 0.000000 0.001396 0.000000
# 2 0.002683 0.011015 0.001730 0.000000 0.004497 0.000000
# 3 -0.001376 0.001730 0.013540 0.000000 0.011646 0.000000
# 4 0.000000 0.000000 0.000000 0.067011 0.000000 -0.020786
# 5 0.001396 0.004497 0.011646 0.000000 0.043447 0.000000
# 6 0.000000 0.000000 0.000000 -0.020786 0.000000 0.127935
#
#
# Mechanical properties :
#
#
# Convention : Reuss Voigt Hill
#
# Bulk Modulus (GPa) = 17.26538 23.84950 20.55744
# Shear Modulus (GPa) = 16.47596 27.08336 21.77966
#
# Velocity S-wave (km/s) = 2.66047 3.41101 3.05885
# Velocity P-wave (km/s) = 4.10544 5.07534 4.61594
#
# Compressibility (1/GPa) = 0.05791936
#
# Stress axis : x y z
#
# Youngs Moduli (GPa) = 36.64173 90.78613 73.85727
#
# Poissons Ratio (x) = -0.24354 0.10164
# Poissons Ratio (y) = -0.09829 -0.12780
# Poissons Ratio (z) = 0.05043 -0.15710
#
# Static dielectric constant tensor:
#      x y z
#    x 1.869570 0.000000 -0.022320 
#    y 0.000000 1.918100 0.000000 
#    z -0.022320 0.000000 1.916550 
# 
# From -- ./inp_files/262992.got.cif
#   From: 2010.05.17/outbox.cif.g08.bks.cpg/sg12_132_cif.got.tgz:262992.got - 2010.06.03 13:09:07.
