data_PCOD9192059
_publ_section_title
;
Structure prediction by ZEFSAII (Michael W. Deem and Ramdas Pophale) SiO2 
 PCOD9192059
Probable space group: C 2/M
;
_chemical_formula_sum "Si O2"
_cell_formula_units_Z 56
_cell_length_a 20.909519
_cell_length_b 9.372880
_cell_length_c 14.144823
_cell_angle_alpha 90.000000
_cell_angle_beta 75.424823
_cell_angle_gamma 90.000000
_cell_volume 2682.924433
_symmetry_space_group_name_H-M "C 2/M"
_symmetry_group_IT_number 12
_symmetry_cell_setting 'monoclinic'
loop_
_space_group_symop_operation_xyz
x,y,z
-x,y,-z
-x,-y,-z
x,-y,z
1/2+x,1/2+y,z
1/2-x,1/2+y,-z
1/2-x,1/2-y,-z
1/2+x,1/2-y,z
loop_
_atom_site_type_symbol
_atom_site_label
_atom_site_fract_x
_atom_site_fract_y
_atom_site_fract_z
Si Si1 0.577669 0.168887 0.965433
Si Si2 0.137812 0.164847 0.768228
Si Si3 0.511843 0.336124 0.674589
Si Si4 0.881524 0.671924 0.720357
Si Si5 0.089394 0.661247 0.500593
Si Si6 0.788554 0.339841 0.407432
Si Si7 0.191089 0.668664 0.074023
O O1 0.615368 0.258359 0.871712
O O2 0.578774 0.000000 0.940747
O O3 0.500000 0.210415 0.000000
O O4 0.621735 0.186926 0.043239
O O5 0.072410 0.166343 0.725785
O O6 0.195265 0.250827 0.692458
O O7 0.157159 0.000000 0.775418
O O8 0.491989 0.500000 0.668383
O O9 0.449849 0.242142 0.729307
O O10 0.537332 0.266158 0.567933
O O11 0.885585 0.500000 0.725550
O O12 0.877923 0.710522 0.610360
O O13 0.823240 0.716119 0.812883
O O14 0.065458 0.500000 0.492147
O O15 0.142347 0.646228 0.563784
O O16 0.761904 0.500000 0.400730
O O17 0.750000 0.250000 0.500000
O O18 0.206452 0.500000 0.067827
O O19 0.250000 0.750000 0.000000
#
# Coordination Sequence:
#
# PCOD9192059 Si02
#       7
#     8   8   8   8   8   8   8
#     4  10  21  39  63  89 116 150 196 246 296 350
#     4  10  21  36  55  81 112 146 186 234 289 343
#     4  10  20  33  52  83 117 143 175 225 282 335
#     4  10  20  36  57  78 105 146 189 224 269 335
#     4   9  19  34  53  78 108 144 182 218 266 334
#     4  10  20  35  54  78 110 145 183 227 276 334
#     4  10  23  41  60  85 117 154 195 241 293 346
#
# _framework density 20.872747
#
# number of rings (size 3 to 8) (size 9 to 14) (size 15 to 20)
#    0.000    2.143    0.000    2.571    0.000    8.286 
#    0.000    1.429    0.000    0.000    0.000    0.000 
#    0.000    0.000    0.000    0.000    0.000    0.000 
#
# Total GULP energy -156220.642257 kJ/mol
# GULP energy per Si atom -5579.308652 kJ/mol
# Density = 2.082524 g / cm^3
# Si number density = 20.872747 Si / 1000 Ang^3
#
#
#
# Elastic Constant Matrix: (Units=GPa)
#
#
# Indices 1 2 3 4 5 6 
#
# 1 30.4680 6.6480 11.5053 0.0000 -9.1168 0.0000
# 2 6.6480 77.8746 69.1208 0.0000 -17.8316 0.0000
# 3 11.5053 69.1208 158.5441 0.0000 -28.0977 0.0000
# 4 0.0000 0.0000 0.0000 26.7873 0.0000 -7.8416
# 5 -9.1168 -17.8316 -28.0977 0.0000 35.1016 0.0000
# 6 0.0000 0.0000 0.0000 -7.8416 0.0000 18.4563
#
#
#
# Elastic Compliance Matrix: (Units=1/GPa)
#
#
# Indices 1 2 3 4 5 6 
#
# 1 0.035755 -0.000245 -0.001007 0.000000 0.008356 0.000000
# 2 -0.000245 0.021412 -0.008624 0.000000 0.003910 0.000000
# 3 -0.001007 -0.008624 0.010858 0.000000 0.004049 0.000000
# 4 0.000000 0.000000 0.000000 0.042634 0.000000 0.018114
# 5 0.008356 0.003910 0.004049 0.000000 0.035886 0.000000
# 6 0.000000 0.000000 0.000000 0.018114 0.000000 0.061878
#
#
# Mechanical properties :
#
#
# Convention : Reuss Voigt Hill
#
# Bulk Modulus (GPa) = 20.71567 49.04832 34.88199
# Shear Modulus (GPa) = 20.46933 28.04323 24.25628
#
# Velocity S-wave (km/s) = 3.13497 3.66940 3.41266
# Velocity P-wave (km/s) = 4.80107 6.44224 5.68123
#
# Compressibility (1/GPa) = 0.04827263
#
# Stress axis : x y z
#
# Youngs Moduli (GPa) = 27.96778 46.70190 92.09803
#
# Poissons Ratio (x) = 0.01146 0.09273
# Poissons Ratio (y) = 0.00686 0.79429
# Poissons Ratio (z) = 0.02816 0.40278
#
# Static dielectric constant tensor:
#      x y z
#    x 1.820190 0.000000 0.012600 
#    y 0.000000 1.690350 0.000000 
#    z 0.012600 0.000000 1.751940 
# 
# From -- ./inp_files/237408.got.cif
#   From: 2010.05.17/outbox.cif.g08.bks.cpg/sg12_119_cif.got.tgz:237408.got - 2010.06.03 13:09:07.
