data_PCOD9192850
_publ_section_title
;
Structure prediction by ZEFSAII (Michael W. Deem and Ramdas Pophale) SiO2 
 PCOD9192850
Probable space group: C 2/M
;
_chemical_formula_sum "Si O2"
_cell_formula_units_Z 56
_cell_length_a 24.071892
_cell_length_b 8.904567
_cell_length_c 15.513280
_cell_angle_alpha 90.000000
_cell_angle_beta 119.331916
_cell_angle_gamma 90.000000
_cell_volume 2898.957179
_symmetry_space_group_name_H-M "C 2/M"
_symmetry_group_IT_number 12
_symmetry_cell_setting 'monoclinic'
loop_
_space_group_symop_operation_xyz
x,y,z
-x,y,-z
-x,-y,-z
x,-y,z
1/2+x,1/2+y,z
1/2-x,1/2+y,-z
1/2-x,1/2-y,-z
1/2+x,1/2-y,z
loop_
_atom_site_type_symbol
_atom_site_label
_atom_site_fract_x
_atom_site_fract_y
_atom_site_fract_z
Si Si1 0.189303 0.682516 0.504949
Si Si2 0.443085 0.178066 0.686350
Si Si3 0.259687 0.822090 0.279537
Si Si4 0.368329 0.171461 0.799151
Si Si5 0.069214 0.834766 0.009495
Si Si6 0.289432 0.819644 0.109955
Si Si7 0.574036 0.325429 0.808096
O O1 0.193885 0.500000 0.502713
O O2 0.250000 0.750000 0.500000
O O3 0.120824 0.724978 0.413095
O O4 0.193444 0.729458 0.608603
O O5 0.423699 0.198988 0.772000
O O6 0.508515 0.263928 0.717935
O O7 0.452871 0.000000 0.679549
O O8 0.190335 0.779858 0.261727
O O9 0.265789 0.764735 0.186379
O O10 0.267336 0.000000 0.279154
O O11 0.392415 0.206222 0.913017
O O12 0.347434 0.000000 0.772771
O O13 0.099097 0.000000 0.049979
O O14 0.065820 0.817102 0.905367
O O15 0.000000 0.835898 0.000000
O O16 0.363225 0.770850 0.163189
O O17 0.283099 0.000000 0.099828
O O18 0.250000 0.750000 0.000000
O O19 0.584271 0.500000 0.793134
#
# Coordination Sequence:
#
# PCOD9192850 Si02
#       7
#     8   8   8   8   8   8   8
#     4  10  20  37  60  88 121 156 196 242 293 352
#     4  10  21  36  55  85 121 152 187 237 296 352
#     4  10  22  39  61  85 115 157 200 238 290 356
#     4  11  21  32  53  86 119 149 187 238 293 345
#     4  10  20  34  51  76 111 149 188 230 284 354
#     4  11  24  43  64  88 118 157 202 247 294 349
#     4  11  23  39  60  84 114 157 201 243 295 351
#
# _framework density 19.317291999999998
#
# number of rings (size 3 to 8) (size 9 to 14) (size 15 to 20)
#    0.000    1.571    2.857    2.143    0.000    7.143 
#    0.000    0.714    0.000    4.286    0.000    0.000 
#    0.000    0.000    0.000    0.000    0.000    0.000 
#
# Total GULP energy -156214.596864 kJ/mol
# GULP energy per Si atom -5579.092745 kJ/mol
# Density = 1.927333 g / cm^3
# Si number density = 19.317292 Si / 1000 Ang^3
#
#
#
# Elastic Constant Matrix: (Units=GPa)
#
#
# Indices 1 2 3 4 5 6 
#
# 1 64.7614 19.5924 28.4136 0.0000 8.9511 0.0000
# 2 19.5924 25.4607 36.5059 0.0000 0.4973 0.0000
# 3 28.4136 36.5059 111.9141 0.0000 12.1146 0.0000
# 4 0.0000 0.0000 0.0000 19.4428 0.0000 5.0895
# 5 8.9511 0.4973 12.1146 0.0000 31.3906 0.0000
# 6 0.0000 0.0000 0.0000 5.0895 0.0000 27.2930
#
#
#
# Elastic Compliance Matrix: (Units=1/GPa)
#
#
# Indices 1 2 3 4 5 6 
#
# 1 0.021184 -0.017711 0.001067 0.000000 -0.006172 0.000000
# 2 -0.017711 0.090818 -0.026631 0.000000 0.013889 0.000000
# 3 0.001067 -0.026631 0.018095 0.000000 -0.006866 0.000000
# 4 0.000000 0.000000 0.000000 0.054072 0.000000 -0.010083
# 5 -0.006172 0.013889 -0.006866 0.000000 0.036046 0.000000
# 6 0.000000 0.000000 0.000000 -0.010083 0.000000 0.038520
#
#
# Mechanical properties :
#
#
# Convention : Reuss Voigt Hill
#
# Bulk Modulus (GPa) = 22.96397 41.23999 32.10198
# Shear Modulus (GPa) = 13.89655 23.46691 18.68173
#
# Velocity S-wave (km/s) = 2.68504 3.48920 3.11319
# Velocity P-wave (km/s) = 4.63963 6.13415 5.43847
#
# Compressibility (1/GPa) = 0.04354647
#
# Stress axis : x y z
#
# Youngs Moduli (GPa) = 47.20462 11.01105 55.26450
#
# Poissons Ratio (x) = 0.19501 -0.05896
# Poissons Ratio (y) = 0.83603 1.47177
# Poissons Ratio (z) = -0.05036 0.29324
#
# Static dielectric constant tensor:
#      x y z
#    x 1.662480 0.000000 -0.001250 
#    y 0.000000 1.673730 0.000000 
#    z -0.001250 0.000000 1.713520 
# 
# From -- ./inp_files/238949.got.cif
#   From: 2010.05.17/outbox.cif.g08.bks.cpg/sg12_120_cif.got.tgz:238949.got - 2010.06.03 13:09:07.
