data_PCOD9192040
_publ_section_title
;
Structure prediction by ZEFSAII (Michael W. Deem and Ramdas Pophale) SiO2 
 PCOD9192040
Probable space group: C 2/M
;
_chemical_formula_sum "Si O2"
_cell_formula_units_Z 56
_cell_length_a 20.769664
_cell_length_b 7.709977
_cell_length_c 16.130830
_cell_angle_alpha 90.000000
_cell_angle_beta 82.206080
_cell_angle_gamma 90.000000
_cell_volume 2559.226431
_symmetry_space_group_name_H-M "C 2/M"
_symmetry_group_IT_number 12
_symmetry_cell_setting 'monoclinic'
loop_
_space_group_symop_operation_xyz
x,y,z
-x,y,-z
-x,-y,-z
x,-y,z
1/2+x,1/2+y,z
1/2-x,1/2+y,-z
1/2-x,1/2-y,-z
1/2+x,1/2-y,z
loop_
_atom_site_type_symbol
_atom_site_label
_atom_site_fract_x
_atom_site_fract_y
_atom_site_fract_z
Si Si1 0.032662 0.287994 0.754154
Si Si2 0.318797 0.791141 0.529125
Si Si3 0.545993 0.788235 0.566571
Si Si4 0.171694 0.302369 0.790352
Si Si5 0.181110 0.199766 0.972317
Si Si6 0.686439 0.798952 0.283801
Si Si7 0.399610 0.210826 0.855288
O O1 0.033546 0.500000 0.756720
O O2 0.021728 0.234651 0.661100
O O3 0.103802 0.228325 0.769628
O O4 0.972887 0.234244 0.821984
O O5 0.250000 0.750000 0.500000
O O6 0.380239 0.732094 0.464350
O O7 0.324157 0.723546 0.622674
O O8 0.322567 0.000000 0.532764
O O9 0.500000 0.730634 0.500000
O O10 0.545219 0.000000 0.566642
O O11 0.177225 0.500000 0.758243
O O12 0.169194 0.302571 0.890277
O O13 0.237284 0.210205 0.750166
O O14 0.184136 0.000000 0.946782
O O15 0.250000 0.250000 0.000000
O O16 0.127926 0.226215 0.052696
O O17 0.646347 0.726680 0.212675
O O18 0.665837 0.000000 0.292397
O O19 0.396684 0.000000 0.858123
#
# Coordination Sequence:
#
# PCOD9192040 Si02
#       7
#     8   8   8   8   8   8   8
#     4   9  19  34  54  83 115 152 194 236 283 334
#     4  10  20  33  52  81 113 148 190 239 288 335
#     4   9  16  30  54  82 113 149 193 239 278 324
#     4  11  22  37  59  85 117 153 190 235 286 340
#     4  12  24  40  61  87 115 146 188 233 284 342
#     4  10  20  34  55  82 112 148 193 241 289 338
#     4  10  20  37  60  84 113 148 191 238 282 334
#
# _framework density 21.881612000000001
#
# number of rings (size 3 to 8) (size 9 to 14) (size 15 to 20)
#    0.000    1.857    1.429    3.429    0.000    5.714 
#    0.000    4.286    0.000    1.286    0.000    0.000 
#    0.000    0.000    0.000    0.000    0.000    0.000 
#
# Total GULP energy -156507.775696 kJ/mol
# GULP energy per Si atom -5589.563418 kJ/mol
# Density = 2.183181 g / cm^3
# Si number density = 21.881612 Si / 1000 Ang^3
#
#
#
# Elastic Constant Matrix: (Units=GPa)
#
#
# Indices 1 2 3 4 5 6 
#
# 1 64.4638 -9.4098 -15.6064 0.0000 -8.4988 0.0000
# 2 -9.4098 45.0488 -13.1406 0.0000 -1.2708 0.0000
# 3 -15.6064 -13.1406 70.1869 0.0000 -15.6338 0.0000
# 4 0.0000 0.0000 0.0000 12.4716 0.0000 -2.4604
# 5 -8.4988 -1.2708 -15.6338 0.0000 39.1100 0.0000
# 6 0.0000 0.0000 0.0000 -2.4604 0.0000 20.8517
#
#
#
# Elastic Compliance Matrix: (Units=1/GPa)
#
#
# Indices 1 2 3 4 5 6 
#
# 1 0.019054 0.006221 0.006991 0.000000 0.007137 0.000000
# 2 0.006221 0.025787 0.007354 0.000000 0.005129 0.000000
# 3 0.006991 0.007354 0.019288 0.000000 0.009468 0.000000
# 4 0.000000 0.000000 0.000000 0.082093 0.000000 0.009687
# 5 0.007137 0.005129 0.009468 0.000000 0.031071 0.000000
# 6 0.000000 0.000000 0.000000 0.009687 0.000000 0.049101
#
#
# Mechanical properties :
#
#
# Convention : Reuss Voigt Hill
#
# Bulk Modulus (GPa) = 9.50023 11.48733 10.49378
# Shear Modulus (GPa) = 22.69111 29.01039 25.85075
#
# Velocity S-wave (km/s) = 3.22373 3.64509 3.44087
# Velocity P-wave (km/s) = 4.26705 4.79340 4.53786
#
# Compressibility (1/GPa) = 0.10526058
#
# Stress axis : x y z
#
# Youngs Moduli (GPa) = 52.48205 38.77889 51.84563
#
# Poissons Ratio (x) = -0.24123 -0.36247
# Poissons Ratio (y) = -0.32647 -0.38126
# Poissons Ratio (z) = -0.36692 -0.28517
#
# Static dielectric constant tensor:
#      x y z
#    x 1.762460 0.000000 -0.009360 
#    y 0.000000 1.842510 0.000000 
#    z -0.009360 0.000000 1.747460 
# 
# From -- ./inp_files/280203.got.cif
#   From: 2010.05.17/outbox.cif.g08.bks.cpg/sg12_141_cif.got.tgz:280203.got - 2010.06.03 13:09:07.
