data_PCOD9192567
_publ_section_title
;
Structure prediction by ZEFSAII (Michael W. Deem and Ramdas Pophale) SiO2 
 PCOD9192567
Probable space group: C 2/M
;
_chemical_formula_sum "Si O2"
_cell_formula_units_Z 48
_cell_length_a 7.589153
_cell_length_b 28.152305
_cell_length_c 11.519728
_cell_angle_alpha 90.000000
_cell_angle_beta 90.805427
_cell_angle_gamma 90.000000
_cell_volume 2460.971479
_symmetry_space_group_name_H-M "C 2/M"
_symmetry_group_IT_number 12
_symmetry_cell_setting 'monoclinic'
loop_
_space_group_symop_operation_xyz
x,y,z
-x,y,-z
-x,-y,-z
x,-y,z
1/2+x,1/2+y,z
1/2-x,1/2+y,-z
1/2-x,1/2-y,-z
1/2+x,1/2-y,z
loop_
_atom_site_type_symbol
_atom_site_label
_atom_site_fract_x
_atom_site_fract_y
_atom_site_fract_z
Si Si1 0.728528 0.947088 0.458869
Si Si2 0.187731 0.340842 0.499003
Si Si3 0.945115 0.139745 0.868241
Si Si4 0.151729 0.689789 0.748313
Si Si5 0.231724 0.800857 0.728082
Si Si6 0.424078 0.551880 0.698096
O O1 0.654551 0.893742 0.445928
O O2 0.776164 0.946650 0.596142
O O3 0.900269 0.945297 0.379217
O O4 0.650575 0.000000 0.432086
O O5 0.233399 0.336916 0.634563
O O6 0.308193 0.315593 0.405910
O O7 0.000000 0.314342 0.500000
O O8 0.759138 0.167302 0.855605
O O9 0.924389 0.092036 0.793375
O O10 0.098025 0.171290 0.809494
O O11 0.000000 0.130403 0.000000
O O12 0.202232 0.744938 0.740239
O O13 0.938729 0.686075 0.751944
O O14 0.416514 0.500000 0.753533
#
# Coordination Sequence:
#
# PCOD9192567 Si02
#       6
#     8   8   8   8   8   8
#     4   9  16  30  57  85 115 152 185 240 311 359
#     4  10  20  33  58  89 119 151 189 240 312 366
#     4  12  25  40  64  86 115 170 207 243 296 335
#     4  11  23  41  60  89 120 154 199 249 300 360
#     4  11  23  41  60  89 120 154 199 249 300 360
#     4   9  18  35  59  89 117 150 197 245 300 360
#
# _framework density 19.504491999999999
#
# number of rings (size 3 to 8) (size 9 to 14) (size 15 to 20)
#    0.000    1.667    5.000    1.500    0.000    2.667 
#    0.000    0.000    0.000    1.000    0.000    2.333 
#    0.000    0.000    0.000    0.000    0.000    0.000 
#
# Total GULP energy -133639.686654 kJ/mol
# GULP energy per Si atom -5568.320277 kJ/mol
# Density = 1.946010 g / cm^3
# Si number density = 19.504492 Si / 1000 Ang^3
#
#
#
# Elastic Constant Matrix: (Units=GPa)
#
#
# Indices 1 2 3 4 5 6 
#
# 1 70.3870 6.3654 4.4157 0.0000 1.4425 0.0000
# 2 6.3654 127.2056 17.7200 0.0000 -1.8717 0.0000
# 3 4.4157 17.7200 66.4932 0.0000 9.3830 0.0000
# 4 0.0000 0.0000 0.0000 16.4296 0.0000 0.0705
# 5 1.4425 -1.8717 9.3830 0.0000 21.3765 0.0000
# 6 0.0000 0.0000 0.0000 0.0705 0.0000 18.7680
#
#
#
# Elastic Compliance Matrix: (Units=1/GPa)
#
#
# Indices 1 2 3 4 5 6 
#
# 1 0.014322 -0.000633 -0.000680 0.000000 -0.000723 0.000000
# 2 -0.000633 0.008256 -0.002416 0.000000 0.001826 0.000000
# 3 -0.000680 -0.002416 0.016792 0.000000 -0.007536 0.000000
# 4 0.000000 0.000000 0.000000 0.060867 0.000000 -0.000229
# 5 -0.000723 0.001826 -0.007536 0.000000 0.050297 0.000000
# 6 0.000000 0.000000 0.000000 -0.000229 0.000000 0.053283
#
#
# Mechanical properties :
#
#
# Convention : Reuss Voigt Hill
#
# Bulk Modulus (GPa) = 31.33623 35.67644 33.50634
# Shear Modulus (GPa) = 22.53149 27.02048 24.77599
#
# Velocity S-wave (km/s) = 3.40250 3.72606 3.56795
# Velocity P-wave (km/s) = 5.61579 6.06980 5.84720
#
# Compressibility (1/GPa) = 0.03191194
#
# Stress axis : x y z
#
# Youngs Moduli (GPa) = 69.82329 121.11888 59.55359
#
# Poissons Ratio (x) = 0.07661 0.04053
# Poissons Ratio (y) = 0.04416 0.14388
# Poissons Ratio (z) = 0.04751 0.29262
#
# Static dielectric constant tensor:
#      x y z
#    x 1.744050 0.000000 0.033080 
#    y 0.000000 1.727630 0.000000 
#    z 0.033080 0.000000 1.691120 
# 
# From -- ./inp_files/42215.got.cif
#   From: 2010.05.17/outbox.cif.g08.bks.cpg/sg12_22_cif.got.tgz:42215.got - 2010.06.03 13:09:07.
