data_PCOD9192095
_publ_section_title
;
Structure prediction by ZEFSAII (Michael W. Deem and Ramdas Pophale) SiO2 
 PCOD9192095
Probable space group: C 2/M
;
_chemical_formula_sum "Si O2"
_cell_formula_units_Z 64
_cell_length_a 25.594535
_cell_length_b 9.074237
_cell_length_c 23.515961
_cell_angle_alpha 90.000000
_cell_angle_beta 43.429826
_cell_angle_gamma 90.000000
_cell_volume 3754.664121
_symmetry_space_group_name_H-M "C 2/M"
_symmetry_group_IT_number 12
_symmetry_cell_setting 'monoclinic'
loop_
_space_group_symop_operation_xyz
x,y,z
-x,y,-z
-x,-y,-z
x,-y,z
1/2+x,1/2+y,z
1/2-x,1/2+y,-z
1/2-x,1/2-y,-z
1/2+x,1/2-y,z
loop_
_atom_site_type_symbol
_atom_site_label
_atom_site_fract_x
_atom_site_fract_y
_atom_site_fract_z
Si Si1 0.019499 0.324400 0.726010
Si Si2 0.558068 0.676917 0.317104
Si Si3 0.824618 0.325679 0.464906
Si Si4 0.674943 0.323162 0.317070
Si Si5 0.981175 0.176641 0.150435
Si Si6 0.574588 0.831187 0.981365
Si Si7 0.903476 0.175414 0.504733
Si Si8 0.335952 0.676157 0.186587
O O1 0.009734 0.500000 0.739353
O O2 0.102790 0.296243 0.632922
O O3 0.015339 0.246287 0.790035
O O4 0.960355 0.258706 0.726930
O O5 0.558235 0.500000 0.307813
O O6 0.634792 0.718479 0.289497
O O7 0.487895 0.709801 0.415614
O O8 0.813826 0.500000 0.476923
O O9 0.750000 0.250000 0.500000
O O10 0.846197 0.260549 0.508968
O O11 0.687233 0.500000 0.306767
O O12 0.616322 0.291311 0.414659
O O13 0.754086 0.242658 0.265393
O O14 0.900680 0.211816 0.182642
O O15 0.987876 0.000000 0.147344
O O16 0.047140 0.245239 0.058821
O O17 0.636423 0.746902 0.894708
O O18 0.596860 0.000000 0.975869
O O19 0.500000 0.835319 0.000000
O O20 0.893115 0.000000 0.505081
O O21 0.332761 0.500000 0.184377
#
# Coordination Sequence:
#
# PCOD9192095 Si02
#       8
#     8   8   8   8   8   8   8   8
#     4  10  21  35  52  75 101 134 176 218 257 306
#     4   9  18  35  55  74 100 136 178 220 263 308
#     4  10  21  34  48  69 101 138 173 213 261 308
#     4  10  20  33  53  78 104 136 175 219 262 309
#     4  10  20  34  54  79 107 139 172 209 253 310
#     4   9  17  32  54  78 105 137 169 207 254 307
#     4   9  18  33  52  74  99 133 176 219 261 307
#     4  10  21  34  50  78 111 140 170 209 258 309
#
# _framework density 17.045465
#
# number of rings (size 3 to 8) (size 9 to 14) (size 15 to 20)
#    0.000    2.375    0.000    2.250    1.750    7.000 
#    0.000    0.000    0.000    4.500    0.000    0.000 
#    0.000    0.000    0.000    0.000    0.000    0.000 
#
# Total GULP energy -178505.828656 kJ/mol
# GULP energy per Si atom -5578.307145 kJ/mol
# Density = 1.700667 g / cm^3
# Si number density = 17.045465 Si / 1000 Ang^3
#
#
#
# Elastic Constant Matrix: (Units=GPa)
#
#
# Indices 1 2 3 4 5 6 
#
# 1 71.4518 37.1710 43.4290 -0.0031 25.8109 0.0039
# 2 37.1710 50.0901 43.1975 -0.0026 19.2126 0.0034
# 3 43.4290 43.1975 72.9276 -0.0008 25.4855 0.0010
# 4 -0.0031 -0.0026 -0.0008 28.8397 0.0013 1.0095
# 5 25.8109 19.2126 25.4855 0.0013 24.2270 -0.0018
# 6 0.0039 0.0034 0.0010 1.0095 -0.0018 24.2394
#
#
#
# Elastic Compliance Matrix: (Units=1/GPa)
#
#
# Indices 1 2 3 4 5 6 
#
# 1 0.028526 -0.010472 -0.004849 0.000003 -0.016986 -0.000004
# 2 -0.010472 0.046586 -0.019524 0.000003 -0.005249 -0.000004
# 3 -0.004849 -0.019524 0.033126 -0.000001 -0.014198 0.000001
# 4 0.000003 0.000003 -0.000001 0.034725 -0.000007 -0.001446
# 5 -0.016986 -0.005249 -0.014198 -0.000007 0.078471 0.000010
# 6 -0.000004 -0.000004 0.000001 -0.001446 0.000010 0.041315
#
#
# Mechanical properties :
#
#
# Convention : Reuss Voigt Hill
#
# Bulk Modulus (GPa) = 25.94107 49.11829 37.52968
# Shear Modulus (GPa) = 14.48064 20.17268 17.32666
#
# Velocity S-wave (km/s) = 2.91783 3.44388 3.19171
# Velocity P-wave (km/s) = 5.15785 6.68523 5.97059
#
# Compressibility (1/GPa) = 0.03854892
#
# Stress axis : x y z
#
# Youngs Moduli (GPa) = 35.05517 21.46584 30.18794
#
# Poissons Ratio (x) = 0.22480 0.14637
# Poissons Ratio (y) = 0.36711 0.58938
# Poissons Ratio (z) = 0.16997 0.41909
#
# Static dielectric constant tensor:
#      x y z
#    x 1.558300 0.000000 0.000310 
#    y 0.000000 1.566980 0.000000 
#    z 0.000310 0.000000 1.568140 
# 
# From -- ./inp_files/324190.got.cif
#   From: 2010.05.17/outbox.cif.g08.bks.cpg/sg12_163_cif.got.tgz:324190.got - 2010.06.03 13:09:07.
