data_PCOD9192760
_publ_section_title
;
Structure prediction by ZEFSAII (Michael W. Deem and Ramdas Pophale) SiO2 
 PCOD9192760
Probable space group: C 2/M
;
_chemical_formula_sum "Si O2"
_cell_formula_units_Z 56
_cell_length_a 18.600236
_cell_length_b 7.600948
_cell_length_c 29.936102
_cell_angle_alpha 90.000000
_cell_angle_beta 140.705644
_cell_angle_gamma 90.000000
_cell_volume 2680.366225
_symmetry_space_group_name_H-M "C 2/M"
_symmetry_group_IT_number 12
_symmetry_cell_setting 'monoclinic'
loop_
_space_group_symop_operation_xyz
x,y,z
-x,y,-z
-x,-y,-z
x,-y,z
1/2+x,1/2+y,z
1/2-x,1/2+y,-z
1/2-x,1/2-y,-z
1/2+x,1/2-y,z
loop_
_atom_site_type_symbol
_atom_site_label
_atom_site_fract_x
_atom_site_fract_y
_atom_site_fract_z
Si Si1 0.973253 0.706857 0.342295
Si Si2 0.838902 0.208441 0.502930
Si Si3 0.219197 0.787519 0.209087
Si Si4 0.296789 0.788612 0.071600
Si Si5 0.948267 0.709666 0.790568
Si Si6 0.352386 0.216292 0.650328
Si Si7 0.629610 0.715311 0.069503
O O1 0.963336 0.500000 0.328271
O O2 0.846197 0.779180 0.280557
O O3 0.041026 0.724455 0.421402
O O4 0.054181 0.775854 0.341393
O O5 0.750000 0.250000 0.500000
O O6 0.772062 0.273271 0.426954
O O7 0.850736 0.000000 0.504867
O O8 0.130763 0.739624 0.204915
O O9 0.177162 0.727657 0.140302
O O10 0.222582 0.000000 0.209434
O O11 0.424637 0.720539 0.140368
O O12 0.210889 0.724880 0.068509
O O13 0.300928 0.000000 0.077774
O O14 0.250000 0.750000 0.000000
O O15 0.959243 0.500000 0.789697
O O16 0.889545 0.776526 0.717007
O O17 0.351030 0.000000 0.648994
O O18 0.629843 0.500000 0.069398
O O19 0.500000 0.771292 0.000000
#
# Coordination Sequence:
#
# PCOD9192760 Si02
#       7
#     8   8   8   8   8   8   8
#     4   9  17  31  51  73  98 129 166 207 248 293
#     4   9  16  28  49  75 100 127 163 207 251 295
#     4  10  20  34  52  74 100 131 168 208 247 289
#     4  10  20  34  54  78 102 130 163 201 245 292
#     4  10  20  34  51  72 100 132 165 202 246 295
#     4   8  15  30  51  72  95 127 166 204 243 291
#     4   9  17  31  53  77  99 128 167 205 241 288
#
# _framework density 20.892668
#
# number of rings (size 3 to 8) (size 9 to 14) (size 15 to 20)
#    0.000    2.714    0.000    3.000    0.000    5.714 
#    0.000    5.000    0.000   12.000    0.000    0.000 
#    0.000    0.000    0.000    0.000    0.000    0.000 
#
# Total GULP energy -156227.513911 kJ/mol
# GULP energy per Si atom -5579.554068 kJ/mol
# Density = 2.084511 g / cm^3
# Si number density = 20.892668 Si / 1000 Ang^3
#
#
#
# Elastic Constant Matrix: (Units=GPa)
#
#
# Indices 1 2 3 4 5 6 
#
# 1 150.1305 -3.4860 119.2822 0.0000 -2.0303 0.0005
# 2 -3.4860 38.1413 -3.9635 0.0000 0.5203 0.0011
# 3 119.2822 -3.9635 240.3304 0.0000 -0.1417 -0.0001
# 4 0.0000 0.0000 0.0000 17.9583 0.0000 -2.0035
# 5 -2.0303 0.5203 -0.1417 0.0000 36.0726 -0.0001
# 6 0.0005 0.0011 -0.0001 -2.0035 -0.0001 18.5993
#
#
#
# Elastic Compliance Matrix: (Units=1/GPa)
#
#
# Indices 1 2 3 4 5 6 
#
# 1 0.011018 0.000431 -0.005461 0.000000 0.000592 0.000000
# 2 0.000431 0.026285 0.000219 0.000000 -0.000354 -0.000002
# 3 -0.005461 0.000219 0.006875 0.000000 -0.000284 0.000000
# 4 0.000000 0.000000 0.000000 0.056362 0.000000 0.006071
# 5 0.000592 -0.000354 -0.000284 0.000000 0.027759 0.000000
# 6 0.000000 -0.000002 0.000000 0.006071 0.000000 0.054419
#
#
# Mechanical properties :
#
#
# Convention : Reuss Voigt Hill
#
# Bulk Modulus (GPa) = 28.93756 72.47416 50.70586
# Shear Modulus (GPa) = 24.52685 35.64400 30.08542
#
# Velocity S-wave (km/s) = 3.43001 4.13492 3.79885
# Velocity P-wave (km/s) = 5.43758 7.58689 6.60031
#
# Compressibility (1/GPa) = 0.03455716
#
# Stress axis : x y z
#
# Youngs Moduli (GPa) = 90.76285 38.04407 145.45919
#
# Poissons Ratio (x) = -0.01641 0.79434
# Poissons Ratio (y) = -0.03916 -0.03188
# Poissons Ratio (z) = 0.49565 -0.00834
#
# Static dielectric constant tensor:
#      x y z
#    x 1.703150 0.000000 0.009110 
#    y 0.000000 1.804980 0.000000 
#    z 0.009110 0.000000 1.763050 
# 
# From -- ./inp_files/377727.got.cif
#   From: 2010.05.17/outbox.cif.g08.bks.cpg/sg12_189_cif.got.tgz:377727.got - 2010.06.03 13:09:07.
