data_PCOD9192712
_publ_section_title
;
Structure prediction by ZEFSAII (Michael W. Deem and Ramdas Pophale) SiO2 
 PCOD9192712
Probable space group: C 2/M
;
_chemical_formula_sum "Si O2"
_cell_formula_units_Z 48
_cell_length_a 25.784765
_cell_length_b 7.529719
_cell_length_c 19.583719
_cell_angle_alpha 90.000000
_cell_angle_beta 32.474856
_cell_angle_gamma 90.000000
_cell_volume 2041.523255
_symmetry_space_group_name_H-M "C 2/M"
_symmetry_group_IT_number 12
_symmetry_cell_setting 'monoclinic'
loop_
_space_group_symop_operation_xyz
x,y,z
-x,y,-z
-x,-y,-z
x,-y,z
1/2+x,1/2+y,z
1/2-x,1/2+y,-z
1/2-x,1/2-y,-z
1/2+x,1/2-y,z
loop_
_atom_site_type_symbol
_atom_site_label
_atom_site_fract_x
_atom_site_fract_y
_atom_site_fract_z
Si Si1 0.134678 0.285077 0.694979
Si Si2 0.427726 0.796397 0.525946
Si Si3 0.155939 0.708504 0.516409
Si Si4 0.074418 0.717032 0.084111
Si Si5 0.144425 0.289696 0.148512
Si Si6 0.723328 0.294537 0.202602
O O1 0.137980 0.500000 0.691560
O O2 0.144903 0.219446 0.605049
O O3 0.230336 0.223847 0.627247
O O4 0.027082 0.231549 0.836608
O O5 0.500000 0.709829 0.500000
O O6 0.408894 0.716186 0.472556
O O7 0.326555 0.799189 0.678737
O O8 0.461304 0.000000 0.478081
O O9 0.131760 0.500000 0.547802
O O10 0.079140 0.500000 0.080150
O O11 0.076398 0.772334 0.162059
O O12 0.172580 0.776582 0.938045
O O13 0.131037 0.500000 0.170637
O O14 0.151553 0.215142 0.216638
O O15 0.250000 0.250000 0.000000
O O16 0.735920 0.500000 0.207088
#
# Coordination Sequence:
#
# PCOD9192712 Si02
#       6
#     8   8   8   8   8   8
#     4   9  17  33  58  80 102 135 173 217 264 311
#     4  10  22  38  57  77 102 143 184 214 260 327
#     4   9  19  35  54  79 106 132 174 223 262 311
#     4   8  16  30  52  78 103 136 177 214 257 315
#     4   9  16  28  48  73 106 141 176 216 259 308
#     4  10  20  34  50  76 110 140 176 222 267 316
#
# _framework density 23.511858
#
# number of rings (size 3 to 8) (size 9 to 14) (size 15 to 20)
#    0.000    2.833    0.000    2.000    2.333    1.000 
#    0.000    5.833    0.000    5.000    0.000    0.000 
#    0.000    0.000    0.000    0.000    0.000    0.000 
#
# Total GULP energy -133916.412533 kJ/mol
# GULP energy per Si atom -5579.850522 kJ/mol
# Density = 2.345834 g / cm^3
# Si number density = 23.511858 Si / 1000 Ang^3
#
#
#
# Elastic Constant Matrix: (Units=GPa)
#
#
# Indices 1 2 3 4 5 6 
#
# 1 106.2165 -0.9982 19.3323 0.0121 -14.9671 -0.0046
# 2 -0.9982 66.9739 -2.2280 0.0495 2.8578 -0.0174
# 3 19.3323 -2.2280 83.5501 0.0307 -9.8080 -0.0109
# 4 0.0121 0.0495 0.0307 13.3473 -0.0119 -1.1868
# 5 -14.9671 2.8578 -9.8080 -0.0119 36.4564 0.0027
# 6 -0.0046 -0.0174 -0.0109 -1.1868 0.0027 11.7198
#
#
#
# Elastic Compliance Matrix: (Units=1/GPa)
#
#
# Indices 1 2 3 4 5 6 
#
# 1 0.010291 -0.000070 -0.001948 -0.000001 0.003706 0.000001
# 2 -0.000070 0.014988 0.000283 -0.000056 -0.001127 0.000017
# 3 -0.001948 0.000283 0.012733 -0.000026 0.002604 0.000008
# 4 -0.000001 -0.000056 -0.000026 0.075603 0.000021 0.007656
# 5 0.003706 -0.001127 0.002604 0.000021 0.029740 -0.000003
# 6 0.000001 0.000017 0.000008 0.007656 -0.000003 0.086101
#
#
# Mechanical properties :
#
#
# Convention : Reuss Voigt Hill
#
# Bulk Modulus (GPa) = 28.94915 32.10586 30.52750
# Shear Modulus (GPa) = 20.45508 28.34699 24.40104
#
# Velocity S-wave (km/s) = 2.95276 3.47601 3.22501
# Velocity P-wave (km/s) = 4.89534 5.45848 5.18456
#
# Compressibility (1/GPa) = 0.03454333
#
# Stress axis : x y z
#
# Youngs Moduli (GPa) = 97.17349 66.72125 78.53731
#
# Poissons Ratio (x) = 0.00464 0.15299
# Poissons Ratio (y) = 0.00676 -0.02226
# Poissons Ratio (z) = 0.18929 -0.01891
#
# Static dielectric constant tensor:
#      x y z
#    x 1.897150 0.000000 -0.028200 
#    y 0.000000 1.858500 0.000000 
#    z -0.028200 0.000000 1.925440 
# 
# From -- ./inp_files/327154.got.cif
#   From: 2010.05.17/outbox.cif.g08.bks.cpg/sg12_164_cif.got.tgz:327154.got - 2010.06.03 13:09:07.
