data_PCOD9192932
_publ_section_title
;
Structure prediction by ZEFSAII (Michael W. Deem and Ramdas Pophale) SiO2 
 PCOD9192932
Probable space group: C 2/M
;
_chemical_formula_sum "Si O2"
_cell_formula_units_Z 44
_cell_length_a 8.718414
_cell_length_b 11.769409
_cell_length_c 24.724936
_cell_angle_alpha 90.000000
_cell_angle_beta 72.565554
_cell_angle_gamma 90.000000
_cell_volume 2420.489358
_symmetry_space_group_name_H-M "C 2/M"
_symmetry_group_IT_number 12
_symmetry_cell_setting 'monoclinic'
loop_
_space_group_symop_operation_xyz
x,y,z
-x,y,-z
-x,-y,-z
x,-y,z
1/2+x,1/2+y,z
1/2-x,1/2+y,-z
1/2-x,1/2-y,-z
1/2+x,1/2-y,z
loop_
_atom_site_type_symbol
_atom_site_label
_atom_site_fract_x
_atom_site_fract_y
_atom_site_fract_z
Si Si1 0.000000 0.710589 0.500000
Si Si2 0.582496 0.625338 0.156384
Si Si3 0.717720 0.129951 0.572029
Si Si4 0.843779 0.130847 0.978330
Si Si5 0.894872 0.370184 0.296297
Si Si6 0.238361 0.707350 0.224660
O O1 0.134787 0.788746 0.457764
O O2 0.088978 0.641089 0.537412
O O3 0.639601 0.500000 0.166656
O O4 0.607885 0.637407 0.089765
O O5 0.394400 0.637257 0.190528
O O6 0.678838 0.718723 0.179957
O O7 0.638781 0.160920 0.637852
O O8 0.773866 0.000000 0.569423
O O9 0.771406 0.000000 0.993560
O O10 0.750000 0.250000 0.000000
O O11 0.000000 0.132635 0.000000
O O12 0.843373 0.500000 0.293815
O O13 0.797553 0.289516 0.266379
O O14 0.083008 0.359429 0.262078
#
# Coordination Sequence:
#
# PCOD9192932 Si02
#       6
#     4   8   8   8   8   8
#     4  10  20  34  52  74 100 132 168 206 250 298
#     4  10  20  35  54  76 104 136 171 212 257 306
#     4  10  20  34  52  74 101 132 167 207 251 299
#     4  10  21  37  56  80 109 141 178 220 265 315
#     4  10  20  34  52  75 102 132 167 208 252 300
#     4  10  20  34  53  76 102 133 170 208 254 304
#
# _framework density 18.178142000000001
#
# number of rings (size 3 to 8) (size 9 to 14) (size 15 to 20)
#    0.000    2.000    0.000    3.818    0.000    0.364 
#    0.000    4.545    0.000   17.455    0.000    0.000 
#    0.000    0.000    0.000    0.000    0.000    0.000 
#
# Total GULP energy -122667.985077 kJ/mol
# GULP energy per Si atom -5575.817503 kJ/mol
# Density = 1.813677 g / cm^3
# Si number density = 18.178142 Si / 1000 Ang^3
#
#
#
# Elastic Constant Matrix: (Units=GPa)
#
#
# Indices 1 2 3 4 5 6 
#
# 1 36.5223 14.1301 5.7741 0.0000 4.5914 0.0000
# 2 14.1301 96.4855 39.4390 0.0000 -3.7558 0.0000
# 3 5.7741 39.4390 99.4977 0.0000 2.2471 0.0000
# 4 0.0000 0.0000 0.0000 22.2317 0.0000 5.0241
# 5 4.5914 -3.7558 2.2471 0.0000 21.5101 0.0000
# 6 0.0000 0.0000 0.0000 5.0241 0.0000 3.2253
#
#
#
# Elastic Compliance Matrix: (Units=1/GPa)
#
#
# Indices 1 2 3 4 5 6 
#
# 1 0.030115 -0.004830 0.000332 0.000000 -0.007306 0.000000
# 2 -0.004830 0.013299 -0.005079 0.000000 0.003884 0.000000
# 3 0.000332 -0.005079 0.012095 0.000000 -0.002221 0.000000
# 4 0.000000 0.000000 0.000000 0.069417 0.000000 -0.108132
# 5 -0.007306 0.003884 -0.002221 0.000000 0.048960 0.000000
# 6 0.000000 0.000000 0.000000 -0.108132 0.000000 0.478489
#
#
# Mechanical properties :
#
#
# Convention : Reuss Voigt Hill
#
# Bulk Modulus (GPa) = 27.50704 39.02132 33.26418
# Shear Modulus (GPa) = 7.31372 20.93755 14.12564
#
# Velocity S-wave (km/s) = 2.00801 3.39750 2.79062
# Velocity P-wave (km/s) = 4.53221 6.07481 5.35930
#
# Compressibility (1/GPa) = 0.03635434
#
# Stress axis : x y z
#
# Youngs Moduli (GPa) = 33.20556 75.19459 82.68211
#
# Poissons Ratio (x) = 0.36323 -0.02745
# Poissons Ratio (y) = 0.16040 0.41993
# Poissons Ratio (z) = -0.01103 0.38190
#
# Static dielectric constant tensor:
#      x y z
#    x 1.589920 0.000000 -0.011540 
#    y 0.000000 1.627240 0.000000 
#    z -0.011540 0.000000 1.583750 
# 
# From -- ./inp_files/299282.got.cif
#   From: 2010.05.17/outbox.cif.g08.bks.cpg/sg12_150_cif.got.tgz:299282.got - 2010.06.03 13:09:07.
