data_PCOD9192301
_publ_section_title
;
Structure prediction by ZEFSAII (Michael W. Deem and Ramdas Pophale) SiO2 
 PCOD9192301
Probable space group: C 2/M
;
_chemical_formula_sum "Si O2"
_cell_formula_units_Z 56
_cell_length_a 22.792274
_cell_length_b 7.538769
_cell_length_c 15.377470
_cell_angle_alpha 90.000000
_cell_angle_beta 115.636626
_cell_angle_gamma 90.000000
_cell_volume 2382.131621
_symmetry_space_group_name_H-M "C 2/M"
_symmetry_group_IT_number 12
_symmetry_cell_setting 'monoclinic'
loop_
_space_group_symop_operation_xyz
x,y,z
-x,y,-z
-x,-y,-z
x,-y,z
1/2+x,1/2+y,z
1/2-x,1/2+y,-z
1/2-x,1/2-y,-z
1/2+x,1/2-y,z
loop_
_atom_site_type_symbol
_atom_site_label
_atom_site_fract_x
_atom_site_fract_y
_atom_site_fract_z
Si Si1 0.179232 0.285496 0.805508
Si Si2 0.319912 0.298858 0.681672
Si Si3 0.324403 0.791388 0.882518
Si Si4 0.678597 0.217254 0.604358
Si Si5 0.960496 0.795246 0.746871
Si Si6 0.042472 0.285471 0.445360
Si Si7 0.907681 0.292256 0.092227
O O1 0.175538 0.500000 0.800737
O O2 0.252601 0.231439 0.876857
O O3 0.168287 0.227240 0.698487
O O4 0.128886 0.219376 0.845684
O O5 0.319445 0.500000 0.646531
O O6 0.322323 0.302610 0.788320
O O7 0.249058 0.218885 0.616573
O O8 0.388338 0.211836 0.700334
O O9 0.335484 0.000000 0.871663
O O10 0.377868 0.720130 0.983908
O O11 0.616836 0.271928 0.508539
O O12 0.680712 0.000000 0.605736
O O13 0.984349 0.779000 0.663317
O O14 0.015394 0.721324 0.845153
O O15 0.952652 0.000000 0.765911
O O16 0.040605 0.500000 0.442360
O O17 0.000000 0.227268 0.500000
O O18 0.890716 0.500000 0.078566
#
# Coordination Sequence:
#
# PCOD9192301 Si02
#       7
#     8   8   8   8   8   8   8
#     4   9  17  33  56  80 110 145 177 213 264 329
#     4   9  20  39  56  74 106 147 187 222 268 327
#     4  10  20  33  54  84 111 138 179 229 272 316
#     4   8  15  31  56  78 100 138 179 212 254 319
#     4  11  24  38  54  78 108 142 184 234 274 311
#     4  10  20  36  59  84 109 139 175 215 269 336
#     4  10  21  36  54  78 110 147 183 221 272 330
#
# _framework density 23.508355000000002
#
# number of rings (size 3 to 8) (size 9 to 14) (size 15 to 20)
#    0.000    2.429    0.000    3.000    0.000    6.571 
#    0.000    5.714    0.000    0.000    0.000    0.000 
#    0.000    0.000    0.000    0.000    0.000    0.000 
#
# Total GULP energy -156416.625794 kJ/mol
# GULP energy per Si atom -5586.308064 kJ/mol
# Density = 2.345485 g / cm^3
# Si number density = 23.508355 Si / 1000 Ang^3
#
#
#
# Elastic Constant Matrix: (Units=GPa)
#
#
# Indices 1 2 3 4 5 6 
#
# 1 80.1651 -7.8811 14.2170 0.0000 14.1331 0.0000
# 2 -7.8811 60.2609 -6.4938 0.0000 -2.8773 0.0000
# 3 14.2170 -6.4938 94.6433 0.0000 33.3862 0.0000
# 4 0.0000 0.0000 0.0000 13.2977 0.0000 3.5957
# 5 14.1331 -2.8773 33.3862 0.0000 30.5247 0.0000
# 6 0.0000 0.0000 0.0000 3.5957 0.0000 7.8111
#
#
#
# Elastic Compliance Matrix: (Units=1/GPa)
#
#
# Indices 1 2 3 4 5 6 
#
# 1 0.013725 0.001520 0.000381 0.000000 -0.006628 0.000000
# 2 0.001520 0.016891 0.001005 0.000000 -0.000211 0.000000
# 3 0.000381 0.001005 0.017270 0.000000 -0.018970 0.000000
# 4 0.000000 0.000000 0.000000 0.085892 0.000000 -0.039539
# 5 -0.006628 -0.000211 -0.018970 0.000000 0.056557 0.000000
# 6 0.000000 0.000000 0.000000 -0.039539 0.000000 0.146225
#
#
# Mechanical properties :
#
#
# Convention : Reuss Voigt Hill
#
# Bulk Modulus (GPa) = 18.62348 26.08371 22.35360
# Shear Modulus (GPa) = 14.34109 26.00850 20.17480
#
# Velocity S-wave (km/s) = 2.47258 3.32979 2.93268
# Velocity P-wave (km/s) = 4.01134 5.08950 4.58224
#
# Compressibility (1/GPa) = 0.05369564
#
# Stress axis : x y z
#
# Youngs Moduli (GPa) = 72.86195 59.20144 57.90528
#
# Poissons Ratio (x) = -0.08996 -0.02203
# Poissons Ratio (y) = -0.11071 -0.05819
# Poissons Ratio (z) = -0.02772 -0.05950
#
# Static dielectric constant tensor:
#      x y z
#    x 1.924640 0.000000 0.003910 
#    y 0.000000 1.909540 0.000000 
#    z 0.003910 0.000000 1.849640 
# 
# From -- ./inp_files/238362.got.cif
#   From: 2010.05.17/outbox.cif.g08.bks.cpg/sg12_120_cif.got.tgz:238362.got - 2010.06.03 13:09:07.
