data_PCOD9192082
_publ_section_title
;
Structure prediction by ZEFSAII (Michael W. Deem and Ramdas Pophale) SiO2 
 PCOD9192082
Probable space group: C 2/M
;
_chemical_formula_sum "Si O2"
_cell_formula_units_Z 64
_cell_length_a 17.302909
_cell_length_b 21.538049
_cell_length_c 18.580207
_cell_angle_alpha 90.000000
_cell_angle_beta 148.839226
_cell_angle_gamma 90.000000
_cell_volume 3582.919991
_symmetry_space_group_name_H-M "C 2/M"
_symmetry_group_IT_number 12
_symmetry_cell_setting 'monoclinic'
loop_
_space_group_symop_operation_xyz
x,y,z
-x,y,-z
-x,-y,-z
x,-y,z
1/2+x,1/2+y,z
1/2-x,1/2+y,-z
1/2-x,1/2-y,-z
1/2+x,1/2-y,z
loop_
_atom_site_type_symbol
_atom_site_label
_atom_site_fract_x
_atom_site_fract_y
_atom_site_fract_z
Si Si1 0.227604 0.115648 0.161552
Si Si2 0.128167 0.281635 0.352955
Si Si3 0.562101 0.151926 0.437660
Si Si4 0.169565 0.255617 0.121467
Si Si5 0.148900 0.776801 0.590432
Si Si6 0.151409 0.931431 0.946415
Si Si7 0.311393 0.570015 0.713838
Si Si8 0.163703 0.200046 0.883618
O O1 0.401292 0.122326 0.322198
O O2 0.166503 0.184090 0.093647
O O3 0.156414 0.092050 0.178842
O O4 0.205392 0.075849 0.072199
O O5 0.250000 0.250000 0.500000
O O6 0.064861 0.335396 0.353914
O O7 0.222787 0.304360 0.359645
O O8 0.004699 0.227615 0.243248
O O9 0.580140 0.218181 0.492076
O O10 0.695397 0.111724 0.577130
O O11 0.257630 0.255409 0.266349
O O12 0.267523 0.292866 0.141402
O O13 0.000000 0.277349 0.000000
O O14 0.000000 0.812295 0.500000
O O15 0.191957 0.869226 0.935021
O O16 0.971501 0.930210 0.803561
O O17 0.199783 0.000000 0.958384
O O18 0.252131 0.500000 0.670370
O O19 0.250000 0.250000 0.000000
#
# Coordination Sequence:
#
# PCOD9192082 Si02
#       8
#     8   8   8   8   8   8   8   8
#     4  12  21  34  54  79 117 151 188 226 272 333
#     4  10  20  33  53  77 111 146 178 230 280 329
#     4  11  20  35  51  78 112 147 185 227 269 328
#     4  12  22  33  55  84 114 145 184 238 289 338
#     4  11  19  33  50  77 110 144 179 224 287 330
#     4  11  24  40  56  78 112 152 193 233 278 337
#     4  11  23  36  54  80 115 160 191 217 268 336
#     4  12  22  37  57  84 109 147 190 235 289 336
#
# _framework density 17.862525000000002
#
# number of rings (size 3 to 8) (size 9 to 14) (size 15 to 20)
#    0.000    0.750    5.000    4.875    0.000    2.500 
#    0.000    0.000    0.000    0.375    0.000    0.875 
#    0.000   10.000    0.000    0.000    0.000    0.000 
#
# Total GULP energy -178434.430637 kJ/mol
# GULP energy per Si atom -5576.075957 kJ/mol
# Density = 1.782187 g / cm^3
# Si number density = 17.862525 Si / 1000 Ang^3
#
#
#
# Elastic Constant Matrix: (Units=GPa)
#
#
# Indices 1 2 3 4 5 6 
#
# 1 98.9508 29.4778 9.4081 -0.0013 -5.7919 -0.0002
# 2 29.4778 88.6206 7.5353 -0.0025 -11.2530 -0.0016
# 3 9.4081 7.5353 80.5703 -0.0042 6.8590 -0.0036
# 4 -0.0013 -0.0025 -0.0042 9.3715 -0.0026 1.9413
# 5 -5.7919 -11.2530 6.8590 -0.0026 26.9098 -0.0012
# 6 -0.0002 -0.0016 -0.0036 1.9413 -0.0012 16.6186
#
#
#
# Elastic Compliance Matrix: (Units=1/GPa)
#
#
# Indices 1 2 3 4 5 6 
#
# 1 0.011332 -0.003517 -0.001101 0.000001 0.001249 0.000000
# 2 -0.003517 0.013207 -0.001257 0.000004 0.005086 0.000001
# 3 -0.001101 -0.001257 0.013005 0.000004 -0.004077 0.000002
# 4 0.000001 0.000004 0.000004 0.109352 0.000011 -0.012774
# 5 0.001249 0.005086 -0.004077 0.000011 0.040596 0.000001
# 6 0.000000 0.000001 0.000002 -0.012774 0.000001 0.061666
#
#
# Mechanical properties :
#
#
# Convention : Reuss Voigt Hill
#
# Bulk Modulus (GPa) = 38.77041 40.10932 39.43987
# Shear Modulus (GPa) = 18.55254 25.36135 21.95695
#
# Velocity S-wave (km/s) = 3.22627 3.77212 3.50982
# Velocity P-wave (km/s) = 5.96913 6.44011 6.20909
#
# Compressibility (1/GPa) = 0.02579287
#
# Stress axis : x y z
#
# Youngs Moduli (GPa) = 88.24954 75.71910 76.89492
#
# Poissons Ratio (x) = 0.26631 0.08463
# Poissons Ratio (y) = 0.31038 0.09669
# Poissons Ratio (z) = 0.09712 0.09521
#
# Static dielectric constant tensor:
#      x y z
#    x 1.793840 0.000000 0.025430 
#    y 0.000000 1.619150 0.000000 
#    z 0.025430 0.000000 1.624560 
# 
# From -- ./inp_files/279140.got.cif
#   From: 2010.05.17/outbox.cif.g08.bks.cpg/sg12_140_cif.got.tgz:279140.got - 2010.06.03 13:09:07.
