data_PCOD9192523
_publ_section_title
;
Structure prediction by ZEFSAII (Michael W. Deem and Ramdas Pophale) SiO2 
 PCOD9192523
Probable space group: C 2/M
;
_chemical_formula_sum "Si O2"
_cell_formula_units_Z 56
_cell_length_a 22.369805
_cell_length_b 7.635649
_cell_length_c 15.656607
_cell_angle_alpha 90.000000
_cell_angle_beta 92.416200
_cell_angle_gamma 90.000000
_cell_volume 2671.895840
_symmetry_space_group_name_H-M "C 2/M"
_symmetry_group_IT_number 12
_symmetry_cell_setting 'monoclinic'
loop_
_space_group_symop_operation_xyz
x,y,z
-x,y,-z
-x,-y,-z
x,-y,z
1/2+x,1/2+y,z
1/2-x,1/2+y,-z
1/2-x,1/2-y,-z
1/2+x,1/2-y,z
loop_
_atom_site_type_symbol
_atom_site_label
_atom_site_fract_x
_atom_site_fract_y
_atom_site_fract_z
Si Si1 0.817704 0.198740 0.982977
Si Si2 0.466479 0.785774 0.411431
Si Si3 0.443932 0.707863 0.052892
Si Si4 0.332992 0.788234 0.441497
Si Si5 0.705346 0.792844 0.374807
Si Si6 0.507240 0.788494 0.227366
Si Si7 0.857922 0.713261 0.799910
O O1 0.878441 0.284027 0.025794
O O2 0.820696 0.000000 0.012699
O O3 0.750000 0.250000 0.000000
O O4 0.827133 0.216030 0.882441
O O5 0.500000 0.729284 0.500000
O O6 0.397380 0.731221 0.412832
O O7 0.494528 0.728147 0.323247
O O8 0.468456 0.000000 0.411807
O O9 0.442219 0.500000 0.033721
O O10 0.460044 0.731994 0.153045
O O11 0.500000 0.780033 0.000000
O O12 0.320491 0.722357 0.537231
O O13 0.276396 0.733469 0.382006
O O14 0.333120 0.000000 0.443877
O O15 0.674731 0.724548 0.287931
O O16 0.692774 0.000000 0.375256
O O17 0.572904 0.732285 0.200632
O O18 0.507095 0.000000 0.229461
O O19 0.855670 0.500000 0.803236
#
# Coordination Sequence:
#
# PCOD9192523 Si02
#       7
#     8   8   8   8   8   8   8
#     4  11  24  41  61  84 113 147 184 230 285 342
#     4   9  17  31  52  79 111 142 177 225 277 324
#     4  10  21  40  61  81 111 149 186 228 287 347
#     4   9  17  31  51  75 104 141 184 226 270 324
#     4   9  18  32  51  74 105 144 182 223 274 329
#     4  10  20  33  57  88 111 142 190 237 275 325
#     4  10  20  35  55  81 111 143 184 229 280 335
#
# _framework density 20.958901000000001
#
# number of rings (size 3 to 8) (size 9 to 14) (size 15 to 20)
#    0.000    2.286    1.429    1.286    0.000    6.571 
#    0.000    3.571    0.000    3.429    0.000    0.000 
#    0.000    0.000    0.000    0.000    0.000    0.000 
#
# Total GULP energy -156280.353695 kJ/mol
# GULP energy per Si atom -5581.441203 kJ/mol
# Density = 2.091120 g / cm^3
# Si number density = 20.958901 Si / 1000 Ang^3
#
#
#
# Elastic Constant Matrix: (Units=GPa)
#
#
# Indices 1 2 3 4 5 6 
#
# 1 164.3387 9.2697 75.5243 0.0000 -3.9178 0.0000
# 2 9.2697 30.8489 -8.0218 0.0000 -1.8293 0.0000
# 3 75.5243 -8.0218 110.8733 0.0000 11.2827 0.0000
# 4 0.0000 0.0000 0.0000 -6.6300 0.0000 -1.1896
# 5 -3.9178 -1.8293 11.2827 0.0000 39.6567 0.0000
# 6 0.0000 0.0000 0.0000 -1.1896 0.0000 17.6812
#
#
#
# Elastic Compliance Matrix: (Units=1/GPa)
#
#
# Indices 1 2 3 4 5 6 
#
# 1 0.009755 -0.004654 -0.007268 0.000000 0.002817 0.000000
# 2 -0.004654 0.035287 0.005772 0.000000 -0.000474 0.000000
# 3 -0.007268 0.005772 0.014864 0.000000 -0.004681 0.000000
# 4 0.000000 0.000000 0.000000 -0.149031 0.000000 -0.010027
# 5 0.002817 -0.000474 -0.004681 0.000000 0.026805 0.000000
# 6 0.000000 0.000000 0.000000 -0.010027 0.000000 0.055883
#
#
# Mechanical properties :
#
#
# Convention : Reuss Voigt Hill
#
# Bulk Modulus (GPa) = 21.00624 51.06724 36.03674
# Shear Modulus (GPa) = 230.07245 25.42749 127.74997
#
# Velocity S-wave (km/s) = 10.48863 3.48689 7.81568
# Velocity P-wave (km/s) = 12.51904 6.37413 9.93368
#
# Compressibility (1/GPa) = 0.04760491
#
# Stress axis : x y z
#
# Youngs Moduli (GPa) = 102.51301 28.33880 67.27611
#
# Poissons Ratio (x) = 0.13189 0.48897
# Poissons Ratio (y) = 0.47711 -0.38829
# Poissons Ratio (z) = 0.74508 -0.16356
#
# Static dielectric constant tensor:
#      x y z
#    x 1.755460 0.000000 0.009340 
#    y 0.000000 1.823980 0.000000 
#    z 0.009340 0.000000 1.718470 
# 
# From -- ./inp_files/231050.got.cif
#   From: 2010.05.17/outbox.cif.g08.bks.cpg/sg12_116_cif.got.tgz:231050.got - 2010.06.03 13:09:07.
