data_PCOD9192519
_publ_section_title
;
Structure prediction by ZEFSAII (Michael W. Deem and Ramdas Pophale) SiO2 
 PCOD9192519
Probable space group: C 2/M
;
_chemical_formula_sum "Si O2"
_cell_formula_units_Z 64
_cell_length_a 30.607007
_cell_length_b 7.917802
_cell_length_c 16.452025
_cell_angle_alpha 90.000000
_cell_angle_beta 48.791229
_cell_angle_gamma 90.000000
_cell_volume 2999.466686
_symmetry_space_group_name_H-M "C 2/M"
_symmetry_group_IT_number 12
_symmetry_cell_setting 'monoclinic'
loop_
_space_group_symop_operation_xyz
x,y,z
-x,y,-z
-x,-y,-z
x,-y,z
1/2+x,1/2+y,z
1/2-x,1/2+y,-z
1/2-x,1/2-y,-z
1/2+x,1/2-y,z
loop_
_atom_site_type_symbol
_atom_site_label
_atom_site_fract_x
_atom_site_fract_y
_atom_site_fract_z
Si Si1 0.710879 0.203027 0.470004
Si Si2 0.817886 0.199489 0.246232
Si Si3 0.894858 0.300625 0.303241
Si Si4 0.870043 0.796273 0.871737
Si Si5 0.548002 0.706234 0.509129
Si Si6 0.841973 0.206389 0.722582
Si Si7 0.997475 0.799138 0.741987
Si Si8 0.289118 0.800343 0.113493
O O1 0.750000 0.250000 0.500000
O O2 0.752442 0.267232 0.347140
O O3 0.647816 0.270836 0.572937
O O4 0.705705 0.000000 0.469008
O O5 0.863600 0.268842 0.255466
O O6 0.828359 0.233857 0.139316
O O7 0.816932 0.000000 0.261175
O O8 0.898094 0.500000 0.310138
O O9 0.958927 0.231565 0.237610
O O10 0.864760 0.746180 0.784194
O O11 0.931989 0.734124 0.829728
O O12 0.868784 0.000000 0.875052
O O13 0.817485 0.737784 0.992287
O O14 0.500000 0.751865 0.500000
O O15 0.549367 0.500000 0.509280
O O16 0.611720 0.763594 0.401695
O O17 0.527218 0.767593 0.622596
O O18 0.776137 0.270032 0.797712
O O19 0.841045 0.000000 0.720766
O O20 0.992307 0.000000 0.737463
O O21 0.285550 0.000000 0.126940
#
# Coordination Sequence:
#
# PCOD9192519 Si02
#       8
#     8   8   8   8   8   8   8   8
#     4   8  16  30  49  73 103 140 176 214 265 322
#     4  10  20  37  57  79 110 147 191 236 275 325
#     4  10  20  35  55  81 116 151 183 225 281 340
#     4  10  20  38  59  80 110 150 195 236 273 326
#     4   9  15  29  54  85 116 145 182 233 279 323
#     4   9  18  33  55  84 115 146 185 231 280 333
#     4  10  20  33  57  87 113 148 193 232 274 330
#     4  11  23  36  55  84 114 147 188 235 288 336
#
# _framework density 21.337125
#
# number of rings (size 3 to 8) (size 9 to 14) (size 15 to 20)
#    0.000    2.375    1.250    1.500    1.750    1.500 
#    0.000    1.250    0.000    4.875    0.000    0.000 
#    0.000    0.000    0.000    0.000    0.000    0.000 
#
# Total GULP energy -178543.404065 kJ/mol
# GULP energy per Si atom -5579.481377 kJ/mol
# Density = 2.128856 g / cm^3
# Si number density = 21.337125 Si / 1000 Ang^3
#
#
#
# Elastic Constant Matrix: (Units=GPa)
#
#
# Indices 1 2 3 4 5 6 
#
# 1 69.0495 -0.5067 16.3678 0.0001 -25.0645 -0.0005
# 2 -0.5067 16.2191 1.2714 0.0005 -3.9121 -0.0013
# 3 16.3678 1.2714 75.7741 0.0000 -18.1987 -0.0001
# 4 0.0001 0.0005 0.0000 18.4101 0.0000 1.7735
# 5 -25.0645 -3.9121 -18.1987 0.0000 30.3503 0.0001
# 6 -0.0005 -0.0013 -0.0001 1.7735 0.0001 6.9197
#
#
#
# Elastic Compliance Matrix: (Units=1/GPa)
#
#
# Indices 1 2 3 4 5 6 
#
# 1 0.021078 0.004989 -0.000352 -0.000001 0.017839 0.000003
# 2 0.004989 0.064887 0.000972 -0.000003 0.013067 0.000014
# 3 -0.000352 0.000972 0.015441 0.000000 0.009093 0.000000
# 4 -0.000001 -0.000003 0.000000 0.055693 -0.000001 -0.014274
# 5 0.017839 0.013067 0.009093 -0.000001 0.054817 0.000004
# 6 0.000003 0.000014 0.000000 -0.014274 0.000004 0.148174
#
#
# Mechanical properties :
#
#
# Convention : Reuss Voigt Hill
#
# Bulk Modulus (GPa) = 8.87922 21.70086 15.29004
# Shear Modulus (GPa) = 12.93947 20.73001 16.83474
#
# Velocity S-wave (km/s) = 2.46525 3.12035 2.81194
# Velocity P-wave (km/s) = 3.50339 4.81400 4.21001
#
# Compressibility (1/GPa) = 0.11262255
#
# Stress axis : x y z
#
# Youngs Moduli (GPa) = 47.44326 15.41135 64.76360
#
# Poissons Ratio (x) = -0.07689 0.02282
# Poissons Ratio (y) = -0.23669 -0.06294
# Poissons Ratio (z) = 0.01672 -0.01498
#
# Static dielectric constant tensor:
#      x y z
#    x 1.760260 0.000000 -0.017310 
#    y 0.000000 1.770630 0.000000 
#    z -0.017310 0.000000 1.798580 
# 
# From -- ./inp_files/295508.got.cif
#   From: 2010.05.17/outbox.cif.g08.bks.cpg/sg12_148_cif.got.tgz:295508.got - 2010.06.03 13:09:07.
