data_PCOD9192465
_publ_section_title
;
Structure prediction by ZEFSAII (Michael W. Deem and Ramdas Pophale) SiO2 
 PCOD9192465
Probable space group: C 2/M
;
_chemical_formula_sum "Si O2"
_cell_formula_units_Z 58
_cell_length_a 11.481735
_cell_length_b 28.363180
_cell_length_c 16.634013
_cell_angle_alpha 90.000000
_cell_angle_beta 34.352674
_cell_angle_gamma 90.000000
_cell_volume 3056.737829
_symmetry_space_group_name_H-M "C 2/M"
_symmetry_group_IT_number 12
_symmetry_cell_setting 'monoclinic'
loop_
_space_group_symop_operation_xyz
x,y,z
-x,y,-z
-x,-y,-z
x,-y,z
1/2+x,1/2+y,z
1/2-x,1/2+y,-z
1/2-x,1/2-y,-z
1/2+x,1/2-y,z
loop_
_atom_site_type_symbol
_atom_site_label
_atom_site_fract_x
_atom_site_fract_y
_atom_site_fract_z
Si Si1 0.000000 0.000000 0.500000
Si Si2 0.073021 0.055191 0.760338
Si Si3 0.590920 0.820963 0.114860
Si Si4 0.738252 0.766137 0.883204
Si Si5 0.451458 0.945749 0.652914
Si Si6 0.108924 0.184114 0.359655
Si Si7 0.095835 0.085795 0.573568
Si Si8 0.808232 0.912031 0.056621
O O1 0.961473 0.957674 0.452817
O O2 0.292293 0.071339 0.674590
O O3 0.011240 0.078807 0.712243
O O4 0.903044 0.062353 0.925777
O O5 0.096784 0.000000 0.731423
O O6 0.645884 0.776434 0.139277
O O7 0.347396 0.826351 0.243324
O O8 0.702224 0.808786 0.966816
O O9 0.676646 0.868273 0.103212
O O10 0.866408 0.783216 0.733059
O O11 0.500000 0.751347 0.000000
O O12 0.657199 0.916442 0.552113
O O13 0.508315 0.000000 0.602811
O O14 0.321883 0.944466 0.809432
O O15 0.000000 0.206386 0.500000
O O16 0.986797 0.135623 0.411420
O O17 0.000000 0.893985 0.000000
#
# Coordination Sequence:
#
# PCOD9192465 Si02
#       8
#     2   8   8   8   8   8   8   8
#     4  12  24  36  58  82 116 176 200 236 266 354
#     4  10  20  36  57  84 114 152 198 250 289 330
#     4  10  20  38  61  82 112 150 190 231 293 358
#     4   9  20  39  62  85 107 146 193 236 289 356
#     4  10  20  36  58  81 113 155 197 241 289 342
#     4  11  23  37  58  86 119 153 188 242 296 343
#     4  12  22  38  57  83 119 157 208 232 283 345
#     4  10  20  33  56  86 114 145 189 248 299 338
#
# _framework density 18.974477
#
# number of rings (size 3 to 8) (size 9 to 14) (size 15 to 20)
#    0.000    1.655    2.069    2.897    0.000    3.310 
#    0.000    0.000    0.000    1.655    0.000    0.000 
#    0.000    0.000    0.000    0.000    0.000    0.000 
#
# Total GULP energy -161546.418675 kJ/mol
# GULP energy per Si atom -5570.566161 kJ/mol
# Density = 1.893129 g / cm^3
# Si number density = 18.974477 Si / 1000 Ang^3
#
#
#
# Elastic Constant Matrix: (Units=GPa)
#
#
# Indices 1 2 3 4 5 6 
#
# 1 95.6512 25.0471 31.1294 0.0000 21.3638 -0.0001
# 2 25.0471 43.5880 17.8536 0.0000 -6.4443 0.0000
# 3 31.1294 17.8536 80.3038 0.0000 27.8498 -0.0003
# 4 0.0000 0.0000 0.0000 17.9752 0.0000 28.6878
# 5 21.3638 -6.4443 27.8498 0.0000 35.7145 0.0001
# 6 -0.0001 0.0000 -0.0003 28.6878 0.0001 -3.4375
#
#
#
# Elastic Compliance Matrix: (Units=1/GPa)
#
#
# Indices 1 2 3 4 5 6 
#
# 1 0.015834 -0.010993 0.000382 0.000000 -0.011753 0.000000
# 2 -0.010993 0.037491 -0.011925 0.000000 0.022640 0.000000
# 3 0.000382 -0.011925 0.021631 0.000000 -0.019248 0.000000
# 4 0.000000 0.000000 0.000000 0.003885 0.000000 0.032424
# 5 -0.011753 0.022640 -0.019248 0.000000 0.054125 0.000000
# 6 0.000000 0.000000 0.000000 0.032424 0.000000 -0.020316
#
#
# Mechanical properties :
#
#
# Convention : Reuss Voigt Hill
#
# Bulk Modulus (GPa) = 33.46319 40.84480 37.15400
# Shear Modulus (GPa) = 29.81803 19.75130 24.78467
#
# Velocity S-wave (km/s) = 3.96849 3.22986 3.61807
# Velocity P-wave (km/s) = 6.21874 5.95670 6.08913
#
# Compressibility (1/GPa) = 0.02988358
#
# Stress axis : x y z
#
# Youngs Moduli (GPa) = 63.15552 26.67325 46.22920
#
# Poissons Ratio (x) = 0.29321 -0.01766
# Poissons Ratio (y) = 0.69426 0.55130
# Poissons Ratio (z) = -0.02413 0.31809
#
# Static dielectric constant tensor:
#      x y z
#    x 1.684470 0.000000 0.022950 
#    y 0.000000 1.618060 0.000000 
#    z 0.022950 0.000000 1.686670 
# 
# From -- ./inp_files/54237.got.cif
#   From: 2010.05.17/outbox.cif.g08.bks.cpg/sg12_28_cif.got.tgz:54237.got - 2010.06.03 13:09:07.
