data_PCOD9192560
_publ_section_title
;
Structure prediction by ZEFSAII (Michael W. Deem and Ramdas Pophale) SiO2 
 PCOD9192560
Probable space group: C 2/M
;
_chemical_formula_sum "Si O2"
_cell_formula_units_Z 64
_cell_length_a 27.580457
_cell_length_b 15.523263
_cell_length_c 23.955024
_cell_angle_alpha 90.000000
_cell_angle_beta 162.946956
_cell_angle_gamma 90.000000
_cell_volume 3007.664234
_symmetry_space_group_name_H-M "C 2/M"
_symmetry_group_IT_number 12
_symmetry_cell_setting 'monoclinic'
loop_
_space_group_symop_operation_xyz
x,y,z
-x,y,-z
-x,-y,-z
x,-y,z
1/2+x,1/2+y,z
1/2-x,1/2+y,-z
1/2-x,1/2-y,-z
1/2+x,1/2-y,z
loop_
_atom_site_type_symbol
_atom_site_label
_atom_site_fract_x
_atom_site_fract_y
_atom_site_fract_z
Si Si1 0.883207 0.244470 0.322086
Si Si2 0.251635 0.337556 0.576430
Si Si3 0.854462 0.857855 0.566523
Si Si4 0.263532 0.646962 0.010396
Si Si5 0.009337 0.776301 0.949802
Si Si6 0.532086 0.903366 0.657845
Si Si7 0.092711 0.592846 0.188275
Si Si8 0.766416 0.593787 0.905948
O O1 0.964248 0.328893 0.384220
O O2 0.854975 0.170657 0.244863
O O3 0.000000 0.212106 0.500000
O O4 0.700397 0.265863 0.143570
O O5 0.169591 0.244568 0.471890
O O6 0.295174 0.376300 0.564246
O O7 0.412643 0.320099 0.791997
O O8 0.124509 0.390211 0.474090
O O9 0.742414 0.901867 0.396694
O O10 0.046457 0.879210 0.774233
O O11 0.188121 0.614390 0.869937
O O12 0.250000 0.750000 0.000000
O O13 0.171532 0.608855 0.962959
O O14 0.917377 0.682902 0.855536
O O15 0.000000 0.820519 0.000000
O O16 0.536484 0.000000 0.640147
O O17 0.101377 0.500000 0.168123
O O18 0.923738 0.595347 0.038414
O O19 0.686915 0.500000 0.813897
#
# Coordination Sequence:
#
# PCOD9192560 Si02
#       8
#     8   8   8   8   8   8   8   8
#     4  11  23  42  66  88 121 160 206 258 307 368
#     4  10  20  37  58  84 113 151 202 250 297 355
#     4  10  20  33  58  84 118 158 195 243 300 352
#     4  12  21  36  60  91 129 161 198 246 298 364
#     4  10  21  38  62  87 114 155 202 248 305 363
#     4  12  25  41  62  89 122 165 210 254 308 362
#     4   9  20  36  57  87 124 159 196 242 297 361
#     4  10  21  39  62  91 125 163 201 247 306 367
#
# _framework density 21.278970999999999
#
# number of rings (size 3 to 8) (size 9 to 14) (size 15 to 20)
#    0.000    1.500    2.500    2.625    3.500    4.250 
#    0.000    1.875    0.000    1.500    0.000    0.000 
#    0.000    0.000    0.000    0.000    0.000    0.000 
#
# Total GULP energy -178856.782772 kJ/mol
# GULP energy per Si atom -5589.274462 kJ/mol
# Density = 2.123054 g / cm^3
# Si number density = 21.278971 Si / 1000 Ang^3
#
#
#
# Elastic Constant Matrix: (Units=GPa)
#
#
# Indices 1 2 3 4 5 6 
#
# 1 49.7004 -6.5770 3.6978 0.0069 -8.4005 -0.0007
# 2 -6.5770 78.5980 -10.2488 0.0223 9.3253 0.0114
# 3 3.6978 -10.2488 95.0243 0.0134 -6.6428 0.0093
# 4 0.0069 0.0223 0.0134 5.1497 0.0104 8.2041
# 5 -8.4005 9.3253 -6.6428 0.0104 27.0401 0.0035
# 6 -0.0007 0.0114 0.0093 8.2041 0.0035 10.5356
#
#
#
# Elastic Compliance Matrix: (Units=1/GPa)
#
#
# Indices 1 2 3 4 5 6 
#
# 1 0.021325 0.001011 -0.000287 0.000176 0.006206 -0.000138
# 2 0.001011 0.013434 0.001127 0.000131 -0.004042 -0.000117
# 3 -0.000287 0.001127 0.010809 0.000078 0.002177 -0.000072
# 4 0.000176 0.000131 0.000078 -0.807194 0.000259 0.628562
# 5 0.006206 -0.004042 0.002177 0.000259 0.040839 -0.000212
# 6 -0.000138 -0.000117 -0.000072 0.628562 -0.000212 -0.394545
#
#
# Mechanical properties :
#
#
# Convention : Reuss Voigt Hill
#
# Bulk Modulus (GPa) = 20.29692 21.89629 21.09660
# Shear Modulus (GPa) = -4.53469 24.30846 9.88689
#
# Velocity S-wave (km/s) = -1.46140 3.38356 2.15787
# Velocity P-wave (km/s) = 2.59068 5.05738 4.01800
#
# Compressibility (1/GPa) = 0.04926856
#
# Stress axis : x y z
#
# Youngs Moduli (GPa) = 46.89432 74.43761 92.51931
#
# Poissons Ratio (x) = -0.07523 0.02655
# Poissons Ratio (y) = -0.04739 -0.10427
# Poissons Ratio (z) = 0.01346 -0.08389
#
# Static dielectric constant tensor:
#      x y z
#    x 1.766250 0.000000 0.009490 
#    y 0.000000 1.803020 -0.000010 
#    z 0.009490 -0.000010 1.738640 
# 
# From -- ./inp_files/326157.got.cif
#   From: 2010.05.17/outbox.cif.g08.bks.cpg/sg12_164_cif.got.tgz:326157.got - 2010.06.03 13:09:07.
