data_PCOD9192790
_publ_section_title
;
Structure prediction by ZEFSAII (Michael W. Deem and Ramdas Pophale) SiO2 
 PCOD9192790
Probable space group: C 2/M
;
_chemical_formula_sum "Si O2"
_cell_formula_units_Z 56
_cell_length_a 14.868415
_cell_length_b 8.990549
_cell_length_c 20.740145
_cell_angle_alpha 90.000000
_cell_angle_beta 85.252904
_cell_angle_gamma 90.000000
_cell_volume 2762.932996
_symmetry_space_group_name_H-M "C 2/M"
_symmetry_group_IT_number 12
_symmetry_cell_setting 'monoclinic'
loop_
_space_group_symop_operation_xyz
x,y,z
-x,y,-z
-x,-y,-z
x,-y,z
1/2+x,1/2+y,z
1/2-x,1/2+y,-z
1/2-x,1/2-y,-z
1/2+x,1/2-y,z
loop_
_atom_site_type_symbol
_atom_site_label
_atom_site_fract_x
_atom_site_fract_y
_atom_site_fract_z
Si Si1 0.187363 0.177996 0.722509
Si Si2 0.783782 0.320633 0.849255
Si Si3 0.346113 0.822074 0.613160
Si Si4 0.127481 0.819677 0.948633
Si Si5 0.895633 0.168613 0.482196
Si Si6 0.560224 0.679057 0.093997
Si Si7 0.545276 0.822912 0.648825
O O1 0.231279 0.222715 0.787681
O O2 0.262496 0.212566 0.663898
O O3 0.094053 0.253295 0.707653
O O4 0.174251 0.000000 0.724651
O O5 0.790650 0.500000 0.849338
O O6 0.720815 0.269413 0.912532
O O7 0.881930 0.251864 0.853244
O O8 0.342546 0.741601 0.544510
O O9 0.440573 0.780625 0.642959
O O10 0.349417 0.000000 0.602380
O O11 0.044462 0.778578 0.906662
O O12 0.128759 0.000000 0.949993
O O13 0.103446 0.772967 0.022426
O O14 0.900531 0.263062 0.416898
O O15 0.000000 0.163504 0.500000
O O16 0.865394 0.000000 0.470657
O O17 0.565364 0.500000 0.098071
O O18 0.549991 0.000000 0.651282
#
# Coordination Sequence:
#
# PCOD9192790 Si02
#       7
#     8   8   8   8   8   8   8
#     4  10  22  37  51  71 102 139 173 204 247 302
#     4  10  20  34  51  73 103 136 169 208 252 295
#     4   9  19  36  54  73 101 134 166 205 254 302
#     4   8  16  32  53  76 103 134 166 203 253 305
#     4   9  17  31  54  81 103 126 162 208 256 302
#     4   9  17  32  54  77 101 132 169 207 249 300
#     4  10  20  35  55  76 100 131 168 210 252 297
#
# _framework density 20.268317
#
# number of rings (size 3 to 8) (size 9 to 14) (size 15 to 20)
#    0.000    2.714    0.000    2.143    0.000    5.143 
#    0.000    2.143    0.000    0.000    0.000    0.000 
#    0.000    0.000    0.000    0.000    0.000    0.000 
#
# Total GULP energy -156288.865458 kJ/mol
# GULP energy per Si atom -5581.745195 kJ/mol
# Density = 2.022219 g / cm^3
# Si number density = 20.268317 Si / 1000 Ang^3
#
#
#
# Elastic Constant Matrix: (Units=GPa)
#
#
# Indices 1 2 3 4 5 6 
#
# 1 85.5954 18.7235 15.0049 0.0000 29.1746 0.0000
# 2 18.7235 14.6345 6.8612 0.0000 8.3734 0.0000
# 3 15.0049 6.8612 21.9238 0.0000 25.3396 0.0000
# 4 0.0000 0.0000 0.0000 20.4287 0.0000 9.1809
# 5 29.1746 8.3734 25.3396 0.0000 38.2340 0.0000
# 6 0.0000 0.0000 0.0000 9.1809 0.0000 23.3479
#
#
#
# Elastic Compliance Matrix: (Units=1/GPa)
#
#
# Indices 1 2 3 4 5 6 
#
# 1 0.022132 -0.023865 0.024786 0.000000 -0.028088 0.000000
# 2 -0.023865 0.105957 -0.047240 0.000000 0.026314 0.000000
# 3 0.024786 -0.047240 0.227938 0.000000 -0.159633 0.000000
# 4 0.000000 0.000000 0.000000 0.059458 0.000000 -0.023380
# 5 -0.028088 0.026314 -0.159633 0.000000 0.147622 0.000000
# 6 0.000000 0.000000 0.000000 -0.023380 0.000000 0.052024
#
#
# Mechanical properties :
#
#
# Convention : Reuss Voigt Hill
#
# Bulk Modulus (GPa) = 3.79667 22.59256 13.19462
# Shear Modulus (GPa) = 6.28484 21.83973 14.06228
#
# Velocity S-wave (km/s) = 1.76282 3.28614 2.63688
# Velocity P-wave (km/s) = 2.45371 5.05660 3.97428
#
# Compressibility (1/GPa) = 0.26338846
#
# Stress axis : x y z
#
# Youngs Moduli (GPa) = 45.18371 9.43776 4.38716
#
# Poissons Ratio (x) = 0.22523 -0.10874
# Poissons Ratio (y) = 1.07832 0.20725
# Poissons Ratio (z) = -1.11991 0.44584
#
# Static dielectric constant tensor:
#      x y z
#    x 1.734950 0.000000 0.011280 
#    y 0.000000 1.680730 0.000000 
#    z 0.011280 0.000000 1.724670 
# 
# From -- ./inp_files/309055.got.cif
#   From: 2010.05.17/outbox.cif.g08.bks.cpg/sg12_155_cif.got.tgz:309055.got - 2010.06.03 13:09:07.
