data_PCOD9192568
_publ_section_title
;
Structure prediction by ZEFSAII (Michael W. Deem and Ramdas Pophale) SiO2 
 PCOD9192568
Probable space group: C 2/M
;
_chemical_formula_sum "Si O2"
_cell_formula_units_Z 58
_cell_length_a 23.284915
_cell_length_b 9.544733
_cell_length_c 21.276987
_cell_angle_alpha 90.000000
_cell_angle_beta 136.920395
_cell_angle_gamma 90.000000
_cell_volume 3229.818083
_symmetry_space_group_name_H-M "C 2/M"
_symmetry_group_IT_number 12
_symmetry_cell_setting 'monoclinic'
loop_
_space_group_symop_operation_xyz
x,y,z
-x,y,-z
-x,-y,-z
x,-y,z
1/2+x,1/2+y,z
1/2-x,1/2+y,-z
1/2-x,1/2-y,-z
1/2+x,1/2-y,z
loop_
_atom_site_type_symbol
_atom_site_label
_atom_site_fract_x
_atom_site_fract_y
_atom_site_fract_z
Si Si1 0.720341 0.663273 0.414963
Si Si2 0.823797 0.839557 0.266283
Si Si3 0.557934 0.165940 0.285821
Si Si4 0.485862 0.655295 0.629940
Si Si5 0.245110 0.165883 0.095607
Si Si6 0.374826 0.836088 0.086225
Si Si7 0.000000 0.500000 0.500000
Si Si8 0.136037 0.264339 0.567507
O O1 0.705599 0.500000 0.418805
O O2 0.750000 0.750000 0.500000
O O3 0.635924 0.741802 0.325138
O O4 0.792239 0.673832 0.420089
O O5 0.768509 0.736170 0.180079
O O6 0.822823 0.807643 0.339157
O O7 0.920708 0.822131 0.321665
O O8 0.799478 0.000000 0.234207
O O9 0.537077 0.224991 0.338657
O O10 0.472989 0.185738 0.177932
O O11 0.577381 0.000000 0.303966
O O12 0.483136 0.500000 0.657318
O O13 0.419804 0.662716 0.520578
O O14 0.323018 0.190982 0.109415
O O15 0.233980 0.000000 0.092617
O O16 0.165786 0.238772 0.999033
O O17 0.360997 0.000000 0.059600
O O18 0.070509 0.379374 0.539532
#
# Coordination Sequence:
#
# PCOD9192568 Si02
#       8
#     8   8   8   8   8   8   2   8
#     4  12  26  41  60  89 123 165 210 255 305 362
#     4  11  23  37  57  87 123 161 201 254 314 370
#     4  11  23  38  61  86 121 165 204 249 306 369
#     4  11  22  36  57  86 120 161 205 252 303 363
#     4  10  20  33  58  89 120 154 199 257 315 374
#     4   9  19  37  56  84 120 158 200 250 312 377
#     4  12  24  40  62  92 116 170 206 266 306 368
#     4  12  25  40  62  85 124 165 209 255 307 366
#
# _framework density 17.957667000000001
#
# number of rings (size 3 to 8) (size 9 to 14) (size 15 to 20)
#    0.000    1.103    4.828    1.655    1.931    4.414 
#    0.000    0.000    0.000    0.828    0.000    4.828 
#    0.000    0.000    0.000    0.000    0.000    0.000 
#
# Total GULP energy -161716.428448 kJ/mol
# GULP energy per Si atom -5576.428567 kJ/mol
# Density = 1.791679 g / cm^3
# Si number density = 17.957667 Si / 1000 Ang^3
#
#
#
# Elastic Constant Matrix: (Units=GPa)
#
#
# Indices 1 2 3 4 5 6 
#
# 1 66.8973 39.6750 32.3032 0.0000 6.7874 0.0000
# 2 39.6750 121.7988 67.0144 0.0000 8.4361 0.0000
# 3 32.3032 67.0144 118.9626 0.0000 -2.4916 0.0000
# 4 0.0000 0.0000 0.0000 222.7616 0.0000 -7.0436
# 5 6.7874 8.4361 -2.4916 0.0000 25.3402 0.0000
# 6 0.0000 0.0000 0.0000 -7.0436 0.0000 17.7172
#
#
#
# Elastic Compliance Matrix: (Units=1/GPa)
#
#
# Indices 1 2 3 4 5 6 
#
# 1 0.019372 -0.004485 -0.002817 0.000000 -0.003972 0.000000
# 2 -0.004485 0.013504 -0.006472 0.000000 -0.003931 0.000000
# 3 -0.002817 -0.006472 0.012904 0.000000 0.004178 0.000000
# 4 0.000000 0.000000 0.000000 0.004546 0.000000 0.001807
# 5 -0.003972 -0.003931 0.004178 0.000000 0.042246 0.000000
# 6 0.000000 0.000000 0.000000 0.001807 0.000000 0.057161
#
#
# Mechanical properties :
#
#
# Convention : Reuss Voigt Hill
#
# Bulk Modulus (GPa) = 54.84694 65.07158 59.95926
# Shear Modulus (GPa) = 27.26903 64.40821 45.83862
#
# Velocity S-wave (km/s) = 3.90104 5.99538 5.05780
# Velocity P-wave (km/s) = 7.13439 9.17828 8.22011
#
# Compressibility (1/GPa) = 0.01823256
#
# Stress axis : x y z
#
# Youngs Moduli (GPa) = 51.62219 74.05047 77.49509
#
# Poissons Ratio (x) = 0.33213 0.21828
# Poissons Ratio (y) = 0.23154 0.50153
# Poissons Ratio (z) = 0.14541 0.47923
#
# Static dielectric constant tensor:
#      x y z
#    x 1.608640 0.000000 0.001700 
#    y 0.000000 1.618710 0.000000 
#    z 0.001700 0.000000 1.607500 
# 
# From -- ./inp_files/324671.got.cif
#   From: 2010.05.17/outbox.cif.g08.bks.cpg/sg12_163_cif.got.tgz:324671.got - 2010.06.03 13:09:07.
