data_PCOD9192007
_publ_section_title
;
Structure prediction by ZEFSAII (Michael W. Deem and Ramdas Pophale) SiO2 
 PCOD9192007
Probable space group: C 2/M
;
_chemical_formula_sum "Si O2"
_cell_formula_units_Z 64
_cell_length_a 21.776201
_cell_length_b 14.689991
_cell_length_c 15.533247
_cell_angle_alpha 90.000000
_cell_angle_beta 32.962818
_cell_angle_gamma 90.000000
_cell_volume 2703.587085
_symmetry_space_group_name_H-M "C 2/M"
_symmetry_group_IT_number 12
_symmetry_cell_setting 'monoclinic'
loop_
_space_group_symop_operation_xyz
x,y,z
-x,y,-z
-x,-y,-z
x,-y,z
1/2+x,1/2+y,z
1/2-x,1/2+y,-z
1/2-x,1/2-y,-z
1/2+x,1/2-y,z
loop_
_atom_site_type_symbol
_atom_site_label
_atom_site_fract_x
_atom_site_fract_y
_atom_site_fract_z
Si Si1 0.026955 0.392150 0.598609
Si Si2 0.628289 0.602874 0.009658
Si Si3 0.090886 0.895315 0.814578
Si Si4 0.871693 0.610836 0.339619
Si Si5 0.768836 0.108206 0.648220
Si Si6 0.403204 0.893797 0.001652
Si Si7 0.787872 0.647753 0.959637
Si Si8 0.220426 0.296916 0.303917
O O1 0.024373 0.500000 0.596780
O O2 0.098589 0.361894 0.599110
O O3 0.107871 0.357022 0.428663
O O4 0.899997 0.364208 0.770016
O O5 0.642136 0.500000 0.954870
O O6 0.683412 0.597753 0.038244
O O7 0.700090 0.677989 0.871652
O O8 0.494882 0.624198 0.163134
O O9 0.192781 0.830360 0.722351
O O10 0.133147 0.000000 0.755867
O O11 0.000000 0.892022 0.000000
O O12 0.873013 0.500000 0.339641
O O13 0.759082 0.629655 0.418399
O O14 0.977962 0.650706 0.160806
O O15 0.653874 0.120762 0.839914
O O16 0.828759 0.195678 0.619639
O O17 0.801676 0.000000 0.618701
O O18 0.428195 0.000000 0.972112
O O19 0.319854 0.878415 0.019193
O O20 0.750000 0.750000 0.000000
#
# Coordination Sequence:
#
# PCOD9192007 Si02
#       8
#     8   8   8   8   8   8   8   8
#     4  10  21  38  59  84 117 151 185 234 288 336
#     4  10  20  36  58  85 118 155 196 240 285 337
#     4   8  16  31  51  78 113 149 186 231 280 330
#     4   8  16  31  51  77 108 142 181 227 283 341
#     4  10  20  33  52  79 111 147 187 233 284 343
#     4   9  17  32  53  75 103 141 184 231 280 325
#     4  11  22  36  56  83 115 147 186 232 283 343
#     4  11  21  34  57  86 117 153 192 234 288 349
#
# _framework density 23.672253999999999
#
# number of rings (size 3 to 8) (size 9 to 14) (size 15 to 20)
#    0.000    2.375    0.000    4.875    0.000    7.500 
#    0.000    1.250    0.000    3.750    0.000    2.625 
#    0.000    0.000    0.000    0.000    0.000    0.000 
#
# Total GULP energy -178285.631082 kJ/mol
# GULP energy per Si atom -5571.425971 kJ/mol
# Density = 2.361838 g / cm^3
# Si number density = 23.672254 Si / 1000 Ang^3
#
#
#
# Elastic Constant Matrix: (Units=GPa)
#
#
# Indices 1 2 3 4 5 6 
#
# 1 99.0836 -8.6000 12.2232 0.0000 -12.0572 0.0000
# 2 -8.6000 81.7563 22.7526 0.0000 -9.4580 0.0000
# 3 12.2232 22.7526 40.3274 0.0000 -20.2554 0.0000
# 4 0.0000 0.0000 0.0000 21.5667 0.0000 1.7212
# 5 -12.0572 -9.4580 -20.2554 0.0000 13.7233 0.0000
# 6 0.0000 0.0000 0.0000 1.7212 0.0000 44.8924
#
#
#
# Elastic Compliance Matrix: (Units=1/GPa)
#
#
# Indices 1 2 3 4 5 6 
#
# 1 0.012003 0.002161 0.004591 0.000000 0.018812 0.000000
# 2 0.002161 0.015133 -0.011602 0.000000 -0.004796 0.000000
# 3 0.004591 -0.011602 0.108104 0.000000 0.155599 0.000000
# 4 0.000000 0.000000 0.000000 0.046510 0.000000 -0.001783
# 5 0.018812 -0.004796 0.155599 0.000000 0.315753 0.000000
# 6 0.000000 0.000000 0.000000 -0.001783 0.000000 0.022344
#
#
# Mechanical properties :
#
#
# Convention : Reuss Voigt Hill
#
# Bulk Modulus (GPa) = 7.96552 30.43543 19.20047
# Shear Modulus (GPa) = 8.75055 29.02258 18.88656
#
# Velocity S-wave (km/s) = 1.92473 3.50525 2.82766
# Velocity P-wave (km/s) = 2.88299 5.40993 4.33468
#
# Compressibility (1/GPa) = 0.12554116
#
# Stress axis : x y z
#
# Youngs Moduli (GPa) = 83.31386 66.08193 9.25031
#
# Poissons Ratio (x) = -0.14281 -0.04247
# Poissons Ratio (y) = -0.18005 0.10732
# Poissons Ratio (z) = -0.38252 0.76667
#
# Static dielectric constant tensor:
#      x y z
#    x 2.035110 0.000000 0.067490 
#    y 0.000000 1.581420 0.000000 
#    z 0.067490 0.000000 1.962410 
# 
# From -- ./inp_files/290116.got.cif
#   From: 2010.05.17/outbox.cif.g08.bks.cpg/sg12_146_cif.got.tgz:290116.got - 2010.06.03 13:09:07.
