data_PCOD9192892
_publ_section_title
;
Structure prediction by ZEFSAII (Michael W. Deem and Ramdas Pophale) SiO2 
 PCOD9192892
Probable space group: C 2/M
;
_chemical_formula_sum "Si O2"
_cell_formula_units_Z 52
_cell_length_a 28.620683
_cell_length_b 8.415052
_cell_length_c 19.352124
_cell_angle_alpha 90.000000
_cell_angle_beta 29.040807
_cell_angle_gamma 90.000000
_cell_volume 2262.529287
_symmetry_space_group_name_H-M "C 2/M"
_symmetry_group_IT_number 12
_symmetry_cell_setting 'monoclinic'
loop_
_space_group_symop_operation_xyz
x,y,z
-x,y,-z
-x,-y,-z
x,-y,z
1/2+x,1/2+y,z
1/2-x,1/2+y,-z
1/2-x,1/2-y,-z
1/2+x,1/2-y,z
loop_
_atom_site_type_symbol
_atom_site_label
_atom_site_fract_x
_atom_site_fract_y
_atom_site_fract_z
Si Si1 0.580533 0.000000 0.954584
Si Si2 0.997204 0.330289 0.625555
Si Si3 0.711614 0.500000 0.282596
Si Si4 0.886893 0.685937 0.380387
Si Si5 0.504795 0.500000 0.411359
Si Si6 0.009246 0.185022 0.883714
Si Si7 0.793836 0.182621 0.309807
Si Si8 0.806736 0.331333 0.709487
O O1 0.563275 0.833888 0.018088
O O2 0.500000 0.000000 0.000000
O O3 0.694210 0.000000 0.790057
O O4 0.944841 0.500000 0.688510
O O5 0.050451 0.322928 0.630492
O O6 0.081778 0.334746 0.458148
O O7 0.948701 0.161482 0.676130
O O8 0.611511 0.500000 0.455670
O O9 0.712402 0.658694 0.235569
O O10 0.880459 0.500000 0.363794
O O11 0.937727 0.793748 0.258102
O O12 0.783934 0.756578 0.537811
O O13 0.500000 0.500000 0.500000
O O14 0.095161 0.225451 0.827036
O O15 0.976415 0.000000 0.936216
O O16 0.750770 0.177484 0.288955
O O17 0.794585 0.000000 0.332074
O O18 0.782361 0.500000 0.774669
#
# Coordination Sequence:
#
# PCOD9192892 Si02
#       8
#     4   8   4   8   4   8   8   8
#     4  12  26  40  52  70 102 148 195 226 249 297
#     4   8  16  29  49  77 110 139 158 195 258 323
#     4  10  20  34  52  72  98 142 180 210 256 297
#     4   9  16  31  50  72 105 137 173 214 268 321
#     4  10  20  34  56  88 114 132 165 210 262 330
#     4  11  22  34  48  71 100 133 184 231 265 300
#     4   8  15  27  45  69 100 136 167 215 267 306
#     4   8  14  28  47  68  95 129 172 208 247 305
#
# _framework density 22.983128000000001
#
# number of rings (size 3 to 8) (size 9 to 14) (size 15 to 20)
#    0.000    2.769    0.769    3.231    1.077    1.231 
#    2.769    0.000    0.000    0.000    0.000    1.077 
#    0.000    0.000    0.000    0.000    0.000    0.000 
#
# Total GULP energy -144906.855316 kJ/mol
# GULP energy per Si atom -5573.340589 kJ/mol
# Density = 2.293082 g / cm^3
# Si number density = 22.983128 Si / 1000 Ang^3
#
#
#
# Elastic Constant Matrix: (Units=GPa)
#
#
# Indices 1 2 3 4 5 6 
#
# 1 54.7003 17.4771 17.2141 0.0010 -16.3201 -0.0005
# 2 17.4771 229.9854 17.7300 -0.0016 8.8039 -0.0013
# 3 17.2141 17.7300 52.1564 -0.0001 1.3709 -0.0017
# 4 0.0010 -0.0016 -0.0001 15.8850 -0.0009 17.6517
# 5 -16.3201 8.8039 1.3709 -0.0009 14.6693 0.0011
# 6 -0.0005 -0.0013 -0.0017 17.6517 0.0011 -5.9836
#
#
#
# Elastic Compliance Matrix: (Units=1/GPa)
#
#
# Indices 1 2 3 4 5 6 
#
# 1 0.036039 -0.003483 -0.011849 -0.000002 0.043293 0.000002
# 2 -0.003483 0.004898 -0.000337 0.000001 -0.006783 0.000000
# 3 -0.011849 -0.000337 0.023598 0.000002 -0.015185 -0.000002
# 4 -0.000002 0.000001 0.000002 0.014715 -0.000006 0.043409
# 5 0.043293 -0.006783 -0.015185 -0.000006 0.121824 0.000008
# 6 0.000002 0.000000 -0.000002 0.043409 0.000008 -0.039065
#
#
# Mechanical properties :
#
#
# Convention : Reuss Voigt Hill
#
# Bulk Modulus (GPa) = 30.12248 49.07606 39.59927
# Shear Modulus (GPa) = 24.46020 23.87553 24.16786
#
# Velocity S-wave (km/s) = 3.26585 3.22658 3.24628
# Velocity P-wave (km/s) = 5.23028 5.93974 5.59627
#
# Compressibility (1/GPa) = 0.03319780
#
# Stress axis : x y z
#
# Youngs Moduli (GPa) = 27.74736 204.14803 42.37702
#
# Poissons Ratio (x) = 0.71095 0.50212
# Poissons Ratio (y) = 0.09663 0.01430
# Poissons Ratio (z) = 0.32878 0.06889
#
# Static dielectric constant tensor:
#      x y z
#    x 1.889720 0.000000 -0.043340 
#    y 0.000000 2.001540 0.000000 
#    z -0.043340 0.000000 1.899860 
# 
# From -- ./inp_files/329286.got.cif
#   From: 2010.05.17/outbox.cif.g08.bks.cpg/sg12_165_cif.got.tgz:329286.got - 2010.06.03 13:09:07.
