data_PCOD9192851
_publ_section_title
;
Structure prediction by ZEFSAII (Michael W. Deem and Ramdas Pophale) SiO2 
 PCOD9192851
Probable space group: C 2/M
;
_chemical_formula_sum "Si O2"
_cell_formula_units_Z 48
_cell_length_a 22.234539
_cell_length_b 14.853062
_cell_length_c 10.864781
_cell_angle_alpha 90.000000
_cell_angle_beta 146.635290
_cell_angle_gamma 90.000000
_cell_volume 1973.337102
_symmetry_space_group_name_H-M "C 2/M"
_symmetry_group_IT_number 12
_symmetry_cell_setting 'monoclinic'
loop_
_space_group_symop_operation_xyz
x,y,z
-x,y,-z
-x,-y,-z
x,-y,z
1/2+x,1/2+y,z
1/2-x,1/2+y,-z
1/2-x,1/2-y,-z
1/2+x,1/2-y,z
loop_
_atom_site_type_symbol
_atom_site_label
_atom_site_fract_x
_atom_site_fract_y
_atom_site_fract_z
Si Si1 0.031853 0.607921 0.357902
Si Si2 0.113402 0.100878 0.162754
Si Si3 0.291888 0.223253 0.435435
Si Si4 0.130474 0.098052 0.475754
Si Si5 0.078828 0.891640 0.744724
Si Si6 0.326221 0.891153 0.151268
O O1 0.034116 0.500000 0.334600
O O2 0.094053 0.669045 0.365093
O O3 0.106758 0.623370 0.607715
O O4 0.909356 0.637502 0.184646
O O5 0.200046 0.154395 0.232927
O O6 0.156322 0.088770 0.375915
O O7 0.094881 0.000000 0.081835
O O8 0.000000 0.148675 0.000000
O O9 0.250000 0.250000 0.500000
O O10 0.305109 0.312900 0.377280
O O11 0.002005 0.119753 0.276991
O O12 0.153472 0.000000 0.573794
O O13 0.000000 0.858405 0.500000
O O14 0.088545 0.000000 0.749775
O O15 0.202003 0.856146 0.944814
O O16 0.320787 0.000000 0.130141
#
# Coordination Sequence:
#
# PCOD9192851 Si02
#       6
#     8   8   8   8   8   8
#     4   9  17  32  56  85 116 148 180 232 300 356
#     4   9  18  32  55  85 109 137 180 235 298 346
#     4  10  20  34  51  76 113 147 188 232 282 342
#     4   9  19  35  52  73 108 149 189 231 274 329
#     4   9  17  32  54  78 108 148 189 229 276 338
#     4   8  16  31  54  85 115 141 181 234 295 358
#
# _framework density 24.324276999999999
#
# number of rings (size 3 to 8) (size 9 to 14) (size 15 to 20)
#    0.000    3.000    0.000    1.500    2.333    0.667 
#    3.000    4.167    0.000    0.500    0.000    0.000 
#    0.000    0.000    0.000    0.000    0.000    0.000 
#
# Total GULP energy -133815.725216 kJ/mol
# GULP energy per Si atom -5575.655217 kJ/mol
# Density = 2.426891 g / cm^3
# Si number density = 24.324277 Si / 1000 Ang^3
#
#
#
# Elastic Constant Matrix: (Units=GPa)
#
#
# Indices 1 2 3 4 5 6 
#
# 1 116.3889 45.8867 47.3010 0.0000 40.9045 0.0000
# 2 45.8867 103.2835 48.1411 0.0000 41.3842 0.0000
# 3 47.3010 48.1411 121.5357 0.0000 48.2695 0.0000
# 4 0.0000 0.0000 0.0000 11.7180 0.0000 19.6275
# 5 40.9045 41.3842 48.2695 0.0000 47.2104 0.0000
# 6 0.0000 0.0000 0.0000 19.6275 0.0000 27.3747
#
#
#
# Elastic Compliance Matrix: (Units=1/GPa)
#
#
# Indices 1 2 3 4 5 6 
#
# 1 0.012634 -0.001821 -0.000812 0.000000 -0.008521 0.000000
# 2 -0.001821 0.015292 -0.001097 0.000000 -0.010706 0.000000
# 3 -0.000812 -0.001097 0.014004 0.000000 -0.012653 0.000000
# 4 0.000000 0.000000 0.000000 -0.424649 0.000000 0.304472
# 5 -0.008521 -0.010706 -0.012653 0.000000 0.050886 0.000000
# 6 0.000000 0.000000 0.000000 0.304472 0.000000 -0.181775
#
#
# Mechanical properties :
#
#
# Convention : Reuss Voigt Hill
#
# Bulk Modulus (GPa) = 29.00943 69.31841 49.16392
# Shear Modulus (GPa) = -10.10797 30.58590 10.23897
#
# Velocity S-wave (km/s) = -2.04072 3.54986 2.05390
# Velocity P-wave (km/s) = 2.52969 6.73510 5.08728
#
# Compressibility (1/GPa) = 0.03447155
#
# Stress axis : x y z
#
# Youngs Moduli (GPa) = 79.15054 65.39441 71.40926
#
# Poissons Ratio (x) = 0.11906 0.05798
# Poissons Ratio (y) = 0.14410 0.07831
# Poissons Ratio (z) = 0.06427 0.07171
#
# Static dielectric constant tensor:
#      x y z
#    x 2.046890 0.000000 -0.057230 
#    y 0.000000 2.054240 0.000000 
#    z -0.057230 0.000000 1.984530 
# 
# From -- ./inp_files/240755.got.cif
#   From: 2010.05.17/outbox.cif.g08.bks.cpg/sg12_121_cif.got.tgz:240755.got - 2010.06.03 13:09:07.
