data_PCOD9192104
_publ_section_title
;
Structure prediction by ZEFSAII (Michael W. Deem and Ramdas Pophale) SiO2 
 PCOD9192104
Probable space group: C 2/M
;
_chemical_formula_sum "Si O2"
_cell_formula_units_Z 56
_cell_length_a 8.639892
_cell_length_b 28.669390
_cell_length_c 17.808298
_cell_angle_alpha 90.000000
_cell_angle_beta 132.571950
_cell_angle_gamma 90.000000
_cell_volume 3248.476233
_symmetry_space_group_name_H-M "C 2/M"
_symmetry_group_IT_number 12
_symmetry_cell_setting 'monoclinic'
loop_
_space_group_symop_operation_xyz
x,y,z
-x,y,-z
-x,-y,-z
x,-y,z
1/2+x,1/2+y,z
1/2-x,1/2+y,-z
1/2-x,1/2-y,-z
1/2+x,1/2-y,z
loop_
_atom_site_type_symbol
_atom_site_label
_atom_site_fract_x
_atom_site_fract_y
_atom_site_fract_z
Si Si1 0.585571 0.244447 0.376891
Si Si2 0.738938 0.202800 0.109400
Si Si3 0.806876 0.324993 0.380994
Si Si4 0.461679 0.210555 0.801191
Si Si5 0.283786 0.945384 0.972347
Si Si6 0.226738 0.873872 0.090981
Si Si7 0.051022 0.885022 0.193027
O O1 0.750000 0.250000 0.500000
O O2 0.616643 0.297643 0.358455
O O3 0.399470 0.212699 0.351024
O O4 0.628000 0.216400 0.312607
O O5 0.704834 0.210828 0.186988
O O6 0.873355 0.247654 0.128950
O O7 0.879436 0.157757 0.134361
O O8 0.500000 0.199479 0.000000
O O9 0.708919 0.370065 0.310031
O O10 0.000000 0.334893 0.500000
O O11 0.588276 0.162789 0.850431
O O12 0.094863 0.930337 0.854949
O O13 0.276445 0.000000 0.988112
O O14 0.500000 0.934989 0.000000
O O15 0.259254 0.914093 0.039575
O O16 0.191375 0.889967 0.164362
O O17 0.000000 0.850250 0.000000
#
# Coordination Sequence:
#
# PCOD9192104 Si02
#       7
#     8   8   8   8   8   8   8
#     4  10  20  34  51  72 102 150 196 234 272 306
#     4  12  23  32  47  73 110 150 187 224 266 322
#     4  10  20  35  52  75 109 149 193 237 265 310
#     4  12  20  33  49  71 110 151 187 230 271 317
#     4  10  22  41  61  84 110 136 172 220 276 342
#     4  10  20  33  53  78 107 143 179 218 266 324
#     4  11  20  35  54  79 108 142 183 221 275 321
#
# _framework density 17.238852000000001
#
# number of rings (size 3 to 8) (size 9 to 14) (size 15 to 20)
#    0.000    1.286    2.857    5.571    0.000    2.571 
#    0.000    0.000    0.000    0.429    0.000    0.000 
#    0.000    2.286    0.000    0.000    0.000    0.000 
#
# Total GULP energy -155883.547546 kJ/mol
# GULP energy per Si atom -5567.269555 kJ/mol
# Density = 1.719962 g / cm^3
# Si number density = 17.238852 Si / 1000 Ang^3
#
#
#
# Elastic Constant Matrix: (Units=GPa)
#
#
# Indices 1 2 3 4 5 6 
#
# 1 91.7839 34.2660 42.0227 0.0000 1.8077 0.0000
# 2 34.2660 62.7968 28.1126 0.0000 0.1255 0.0000
# 3 42.0227 28.1126 111.7968 0.0000 -5.1185 0.0000
# 4 0.0000 0.0000 0.0000 19.0076 0.0000 -0.1499
# 5 1.8077 0.1255 -5.1185 0.0000 26.5269 0.0000
# 6 0.0000 0.0000 0.0000 -0.1499 0.0000 23.3656
#
#
#
# Elastic Compliance Matrix: (Units=1/GPa)
#
#
# Indices 1 2 3 4 5 6 
#
# 1 0.015259 -0.006443 -0.004199 0.000000 -0.001819 0.000000
# 2 -0.006443 0.020689 -0.002790 0.000000 -0.000197 0.000000
# 3 -0.004199 -0.002790 0.011338 0.000000 0.002487 0.000000
# 4 0.000000 0.000000 0.000000 0.052613 0.000000 0.000338
# 5 -0.001819 -0.000197 0.002487 0.000000 0.038302 0.000000
# 6 0.000000 0.000000 0.000000 0.000338 0.000000 0.042800
#
#
# Mechanical properties :
#
#
# Convention : Reuss Voigt Hill
#
# Bulk Modulus (GPa) = 48.96265 52.79779 50.88022
# Shear Modulus (GPa) = 23.29126 24.57843 23.93485
#
# Velocity S-wave (km/s) = 3.67971 3.78002 3.73020
# Velocity P-wave (km/s) = 6.82040 7.05302 6.93768
#
# Compressibility (1/GPa) = 0.02042373
#
# Stress axis : x y z
#
# Youngs Moduli (GPa) = 65.53664 48.33408 88.19573
#
# Poissons Ratio (x) = 0.31141 0.37030
# Poissons Ratio (y) = 0.42224 0.24605
# Poissons Ratio (z) = 0.27517 0.13484
#
# Static dielectric constant tensor:
#      x y z
#    x 1.646510 0.000000 0.009890 
#    y 0.000000 1.573250 0.000000 
#    z 0.009890 0.000000 1.706090 
# 
# From -- ./inp_files/259254.got.cif
#   From: 2010.05.17/outbox.cif.g08.bks.cpg/sg12_130_cif.got.tgz:259254.got - 2010.06.03 13:09:07.
