data_PCOD9192607
_publ_section_title
;
Structure prediction by ZEFSAII (Michael W. Deem and Ramdas Pophale) SiO2 
 PCOD9192607
Probable space group: C 2/M
;
_chemical_formula_sum "Si O2"
_cell_formula_units_Z 36
_cell_length_a 24.242812
_cell_length_b 15.746697
_cell_length_c 25.512323
_cell_angle_alpha 90.000000
_cell_angle_beta 168.726143
_cell_angle_gamma 90.000000
_cell_volume 1903.997244
_symmetry_space_group_name_H-M "C 2/M"
_symmetry_group_IT_number 12
_symmetry_cell_setting 'monoclinic'
loop_
_space_group_symop_operation_xyz
x,y,z
-x,y,-z
-x,-y,-z
x,-y,z
1/2+x,1/2+y,z
1/2-x,1/2+y,-z
1/2-x,1/2-y,-z
1/2+x,1/2-y,z
loop_
_atom_site_type_symbol
_atom_site_label
_atom_site_fract_x
_atom_site_fract_y
_atom_site_fract_z
Si Si1 0.264501 0.904718 0.545555
Si Si2 0.650915 0.657780 0.928541
Si Si3 0.296059 0.183070 0.860288
Si Si4 0.180459 0.000000 0.721106
Si Si5 0.710323 0.765477 0.338771
O O1 0.256233 0.832460 0.582257
O O2 0.011707 0.888827 0.269751
O O3 0.255095 0.000000 0.558419
O O4 0.560608 0.890975 0.790940
O O5 0.434925 0.680982 0.773466
O O6 0.750000 0.750000 0.000000
O O7 0.156779 0.088720 0.729006
O O8 0.024545 0.244304 0.608516
O O9 0.500000 0.192409 0.000000
O O10 0.494395 0.196062 0.095218
O O11 0.000000 0.000000 0.500000
O O12 0.500000 0.000000 0.000000
#
# Coordination Sequence:
#
# PCOD9192607 Si02
#       5
#     8   8   8   4   8
#     4  11  22  35  57  82 109 138 184 224 263 328
#     4  10  20  38  54  76 110 142 174 223 283 317
#     4  11  22  34  51  73 107 142 189 223 256 301
#     4  10  20  34  46  64 102 144 176 224 264 274
#     4  11  21  35  55  75 107 148 179 216 271 321
#
# _framework density 18.907589999999999
#
# number of rings (size 3 to 8) (size 9 to 14) (size 15 to 20)
#    0.000    1.333    0.000   10.667    3.111    0.000 
#    0.000    0.000    0.000    0.000    0.000    0.000 
#    0.000   62.222    0.000    0.000    0.000    0.000 
#
# Total GULP energy -100478.017584 kJ/mol
# GULP energy per Si atom -5582.112088 kJ/mol
# Density = 1.886456 g / cm^3
# Si number density = 18.907590 Si / 1000 Ang^3
#
#
#
# Elastic Constant Matrix: (Units=GPa)
#
#
# Indices 1 2 3 4 5 6 
#
# 1 62.7500 1.9520 15.5875 0.0456 14.1801 0.1005
# 2 1.9520 21.6544 -3.4241 0.0556 5.9478 0.0991
# 3 15.5875 -3.4241 112.0823 -0.2796 8.2581 -0.1371
# 4 0.0456 0.0556 -0.2796 26.3444 0.0120 -3.4393
# 5 14.1801 5.9478 8.2581 0.0120 44.5187 -0.0243
# 6 0.1005 0.0991 -0.1371 -3.4393 -0.0243 14.3334
#
#
#
# Elastic Compliance Matrix: (Units=1/GPa)
#
#
# Indices 1 2 3 4 5 6 
#
# 1 0.017638 -0.000501 -0.002088 -0.000071 -0.005164 -0.000166
# 2 -0.000501 0.048385 0.002040 -0.000123 -0.006683 -0.000352
# 3 -0.002088 0.002040 0.009374 0.000114 -0.001346 0.000115
# 4 -0.000071 -0.000123 0.000114 0.039188 0.000012 0.009406
# 5 -0.005164 -0.006683 -0.001346 0.000012 0.025250 0.000115
# 6 -0.000166 -0.000352 0.000115 0.009406 0.000115 0.072029
#
#
# Mechanical properties :
#
#
# Convention : Reuss Voigt Hill
#
# Bulk Modulus (GPa) = 13.45921 24.96863 19.21392
# Shear Modulus (GPa) = 21.03226 29.19737 25.11482
#
# Velocity S-wave (km/s) = 3.33884 3.93391 3.64853
# Velocity P-wave (km/s) = 4.69017 5.81967 5.28518
#
# Compressibility (1/GPa) = 0.07429855
#
# Stress axis : x y z
#
# Youngs Moduli (GPa) = 56.69650 20.66739 106.67419
#
# Poissons Ratio (x) = 0.01035 0.22275
# Poissons Ratio (y) = 0.02840 -0.21756
# Poissons Ratio (z) = 0.11839 -0.04215
#
# Static dielectric constant tensor:
#      x y z
#    x 1.701480 -0.000020 0.054090 
#    y -0.000020 1.696270 -0.000130 
#    z 0.054090 -0.000130 1.673040 
# 
# From -- ./inp_files/24146.got.cif
#   From: 2010.05.17/outbox.cif.g08.bks.cpg/sg12_13_cif.got.tgz:24146.got - 2010.06.03 13:09:07.
