data_PCOD9192578
_publ_section_title
;
Structure prediction by ZEFSAII (Michael W. Deem and Ramdas Pophale) SiO2 
 PCOD9192578
Probable space group: C 2/M
;
_chemical_formula_sum "Si O2"
_cell_formula_units_Z 40
_cell_length_a 7.209467
_cell_length_b 20.068164
_cell_length_c 12.141553
_cell_angle_alpha 90.000000
_cell_angle_beta 110.263496
_cell_angle_gamma 90.000000
_cell_volume 1647.929789
_symmetry_space_group_name_H-M "C 2/M"
_symmetry_group_IT_number 12
_symmetry_cell_setting 'monoclinic'
loop_
_space_group_symop_operation_xyz
x,y,z
-x,y,-z
-x,-y,-z
x,-y,z
1/2+x,1/2+y,z
1/2-x,1/2+y,-z
1/2-x,1/2-y,-z
1/2+x,1/2-y,z
loop_
_atom_site_type_symbol
_atom_site_label
_atom_site_fract_x
_atom_site_fract_y
_atom_site_fract_z
Si Si1 0.237553 0.077833 0.028250
Si Si2 0.170348 0.872834 0.776625
Si Si3 0.299555 0.141647 0.262273
Si Si4 0.934673 0.000000 0.362154
Si Si5 0.128361 0.500000 0.634644
Si Si6 0.336828 0.273162 0.401759
O O1 0.266427 0.105957 0.911535
O O2 0.307968 0.000000 0.054928
O O3 0.308856 0.132016 0.132422
O O4 0.000000 0.073309 0.000000
O O5 0.180798 0.935989 0.699935
O O6 0.252553 0.813854 0.717834
O O7 0.936679 0.856789 0.753837
O O8 0.388031 0.204004 0.347429
O O9 0.399306 0.072267 0.318541
O O10 0.000000 0.000000 0.500000
O O11 0.136370 0.000000 0.334772
O O12 0.000000 0.500000 0.500000
O O13 0.500000 0.319197 0.500000
O O14 0.250000 0.250000 0.500000
#
# Coordination Sequence:
#
# PCOD9192578 Si02
#       6
#     8   8   8   4   4   8
#     4   9  16  33  60  90 118 147 195 253 300 351
#     4  10  20  36  59  89 117 154 200 248 298 347
#     4  10  20  36  60  87 120 158 196 245 294 358
#     4  10  20  33  59  87 117 150 198 250 292 344
#     4  10  20  35  57  91 119 150 198 239 298 358
#     4  12  24  40  58  85 126 161 198 246 298 358
#
# _framework density 24.272881000000002
#
# number of rings (size 3 to 8) (size 9 to 14) (size 15 to 20)
#    0.000    1.800    4.000    1.200    2.800    0.800 
#    0.000    0.000    0.000    0.000    0.000    2.800 
#    0.000    0.000    0.000    0.000    0.000    0.000 
#
# Total GULP energy -111427.011412 kJ/mol
# GULP energy per Si atom -5571.350571 kJ/mol
# Density = 2.421763 g / cm^3
# Si number density = 24.272881 Si / 1000 Ang^3
#
#
#
# Elastic Constant Matrix: (Units=GPa)
#
#
# Indices 1 2 3 4 5 6 
#
# 1 62.9569 13.8376 18.9695 0.0000 -12.0827 0.0000
# 2 13.8376 158.3719 104.0691 0.0000 -15.2401 0.0000
# 3 18.9695 104.0691 234.0133 0.0000 -24.9836 0.0000
# 4 0.0000 0.0000 0.0000 55.2142 0.0000 1.3769
# 5 -12.0827 -15.2401 -24.9836 0.0000 39.6130 0.0000
# 6 0.0000 0.0000 0.0000 1.3769 0.0000 11.8268
#
#
#
# Elastic Compliance Matrix: (Units=1/GPa)
#
#
# Indices 1 2 3 4 5 6 
#
# 1 0.017089 -0.000655 -0.000605 0.000000 0.004579 0.000000
# 2 -0.000655 0.008983 -0.003854 0.000000 0.000826 0.000000
# 3 -0.000605 -0.003854 0.006281 0.000000 0.002294 0.000000
# 4 0.000000 0.000000 0.000000 0.018164 0.000000 -0.002115
# 5 0.004579 0.000826 0.002294 0.000000 0.028405 0.000000
# 6 0.000000 0.000000 0.000000 -0.002115 0.000000 0.084800
#
#
# Mechanical properties :
#
#
# Convention : Reuss Voigt Hill
#
# Bulk Modulus (GPa) = 45.19622 81.01050 63.10336
# Shear Modulus (GPa) = 27.57472 42.56189 35.06830
#
# Velocity S-wave (km/s) = 3.37416 4.19199 3.80511
# Velocity P-wave (km/s) = 5.81725 7.54174 6.73492
#
# Compressibility (1/GPa) = 0.02212574
#
# Stress axis : x y z
#
# Youngs Moduli (GPa) = 58.51745 111.31756 159.20850
#
# Poissons Ratio (x) = 0.07289 0.09635
# Poissons Ratio (y) = 0.03832 0.61355
# Poissons Ratio (z) = 0.03542 0.42899
#
# Static dielectric constant tensor:
#      x y z
#    x 2.283180 0.000000 0.015290 
#    y 0.000000 1.794200 0.000000 
#    z 0.015290 0.000000 1.878160 
# 
# From -- ./inp_files/120331.got.cif
#   From: 2010.05.17/outbox.cif.g08.bks.cpg/sg12_61_cif.got.tgz:120331.got - 2010.06.03 13:09:07.
