data_PCOD9192491
_publ_section_title
;
Structure prediction by ZEFSAII (Michael W. Deem and Ramdas Pophale) SiO2 
 PCOD9192491
Probable space group: C 2/M
;
_chemical_formula_sum "Si O2"
_cell_formula_units_Z 56
_cell_length_a 9.081147
_cell_length_b 18.710317
_cell_length_c 26.970351
_cell_angle_alpha 90.000000
_cell_angle_beta 141.180495
_cell_angle_gamma 90.000000
_cell_volume 2872.667100
_symmetry_space_group_name_H-M "C 2/M"
_symmetry_group_IT_number 12
_symmetry_cell_setting 'monoclinic'
loop_
_space_group_symop_operation_xyz
x,y,z
-x,y,-z
-x,-y,-z
x,-y,z
1/2+x,1/2+y,z
1/2-x,1/2+y,-z
1/2-x,1/2-y,-z
1/2+x,1/2-y,z
loop_
_atom_site_type_symbol
_atom_site_label
_atom_site_fract_x
_atom_site_fract_y
_atom_site_fract_z
Si Si1 0.798132 0.419929 0.791409
Si Si2 0.323717 0.583689 0.353996
Si Si3 0.751544 0.859272 0.961757
Si Si4 0.495866 0.804865 0.683311
Si Si5 0.754285 0.195572 0.548248
Si Si6 0.995379 0.804134 0.765568
Si Si7 0.722656 0.698842 0.931683
O O1 0.720886 0.500000 0.782838
O O2 0.802353 0.412644 0.733078
O O3 0.606713 0.364332 0.760446
O O4 0.047342 0.406434 0.884058
O O5 0.367625 0.500000 0.376364
O O6 0.149772 0.623061 0.346704
O O7 0.559583 0.632076 0.412896
O O8 0.648254 0.778503 0.928471
O O9 0.816830 0.861065 0.037077
O O10 0.000000 0.867621 0.000000
O O11 0.340365 0.744621 0.616290
O O12 0.722399 0.811460 0.707796
O O13 0.549413 0.770563 0.751670
O O14 0.500000 0.168735 0.500000
O O15 0.750000 0.250000 0.500000
O O16 0.117245 0.812764 0.850582
O O17 0.000000 0.702851 0.000000
#
# Coordination Sequence:
#
# PCOD9192491 Si02
#       7
#     8   8   8   8   8   8   8
#     4  11  24  43  61  87 134 178 220 273 333 396
#     4  11  25  45  68 102 137 175 219 271 328 392
#     4  10  21  36  57  87 123 165 214 273 335 378
#     4  12  23  41  70  98 131 173 216 273 321 402
#     4  12  23  43  72 103 131 170 217 265 324 397
#     4  12  22  38  65  94 125 171 227 268 332 381
#     4  10  20  33  56  90 120 152 215 284 319 379
#
# _framework density 19.49408
#
# number of rings (size 3 to 8) (size 9 to 14) (size 15 to 20)
#    0.000    0.857    5.714    1.714    6.000    1.143 
#    0.000    2.857    0.000    0.000    0.000    0.000 
#    0.000    0.000    0.000    0.000    0.000    0.000 
#
# Total GULP energy -156258.209438 kJ/mol
# GULP energy per Si atom -5580.650337 kJ/mol
# Density = 1.944971 g / cm^3
# Si number density = 19.494080 Si / 1000 Ang^3
#
#
#
# Elastic Constant Matrix: (Units=GPa)
#
#
# Indices 1 2 3 4 5 6 
#
# 1 89.6136 30.4274 7.5353 0.0002 15.5389 0.0001
# 2 30.4274 115.5301 18.0135 0.0001 8.4049 0.0001
# 3 7.5353 18.0135 56.7731 0.0009 2.2536 0.0004
# 4 0.0002 0.0001 0.0009 20.2372 0.0002 1.9457
# 5 15.5389 8.4049 2.2536 0.0002 30.5262 0.0001
# 6 0.0001 0.0001 0.0004 1.9457 0.0001 24.9398
#
#
#
# Elastic Compliance Matrix: (Units=1/GPa)
#
#
# Indices 1 2 3 4 5 6 
#
# 1 0.013235 -0.002967 -0.000582 0.000000 -0.005877 0.000000
# 2 -0.002967 0.009936 -0.002718 0.000000 -0.001024 0.000000
# 3 -0.000582 -0.002718 0.018567 -0.000001 -0.000326 0.000000
# 4 0.000000 0.000000 -0.000001 0.049787 0.000000 -0.003884
# 5 -0.005877 -0.001024 -0.000326 0.000000 0.036056 0.000000
# 6 0.000000 0.000000 0.000000 -0.003884 0.000000 0.040400
#
#
# Mechanical properties :
#
#
# Convention : Reuss Voigt Hill
#
# Bulk Modulus (GPa) = 34.24366 41.54101 37.89234
# Shear Modulus (GPa) = 26.28143 28.87002 27.57572
#
# Velocity S-wave (km/s) = 3.67573 3.85250 3.76516
# Velocity P-wave (km/s) = 5.96817 6.41443 6.19532
#
# Compressibility (1/GPa) = 0.02920249
#
# Stress axis : x y z
#
# Youngs Moduli (GPa) = 75.55999 100.64842 53.86036
#
# Poissons Ratio (x) = 0.29866 0.03134
# Poissons Ratio (y) = 0.22421 0.14639
# Poissons Ratio (z) = 0.04396 0.27356
#
# Static dielectric constant tensor:
#      x y z
#    x 1.771450 0.000000 -0.057500 
#    y 0.000000 1.683080 0.000000 
#    z -0.057500 0.000000 1.746520 
# 
# From -- ./inp_files/257161.got.cif
#   From: 2010.05.17/outbox.cif.g08.bks.cpg/sg12_129_cif.got.tgz:257161.got - 2010.06.03 13:09:07.
