data_PCOD9192734
_publ_section_title
;
Structure prediction by ZEFSAII (Michael W. Deem and Ramdas Pophale) SiO2 
 PCOD9192734
Probable space group: C 2/M
;
_chemical_formula_sum "Si O2"
_cell_formula_units_Z 64
_cell_length_a 16.467607
_cell_length_b 7.315851
_cell_length_c 19.890195
_cell_angle_alpha 90.000000
_cell_angle_beta 80.212627
_cell_angle_gamma 90.000000
_cell_volume 2361.385798
_symmetry_space_group_name_H-M "C 2/M"
_symmetry_group_IT_number 12
_symmetry_cell_setting 'monoclinic'
loop_
_space_group_symop_operation_xyz
x,y,z
-x,y,-z
-x,-y,-z
x,-y,z
1/2+x,1/2+y,z
1/2-x,1/2+y,-z
1/2-x,1/2-y,-z
1/2+x,1/2-y,z
loop_
_atom_site_type_symbol
_atom_site_label
_atom_site_fract_x
_atom_site_fract_y
_atom_site_fract_z
Si Si1 0.526423 0.276494 0.790491
Si Si2 0.646220 0.276481 0.663347
Si Si3 0.061438 0.206421 0.544525
Si Si4 0.657795 0.282468 0.041656
Si Si5 0.418743 0.710378 0.079720
Si Si6 0.738477 0.721550 0.162346
Si Si7 0.119373 0.779705 0.288387
Si Si8 0.818169 0.290111 0.581405
O O1 0.524233 0.500000 0.793908
O O2 0.610256 0.220725 0.740138
O O3 0.526112 0.211671 0.867635
O O4 0.453898 0.221399 0.750491
O O5 0.647612 0.500000 0.663079
O O6 0.582632 0.217626 0.613976
O O7 0.734953 0.212861 0.625744
O O8 0.145902 0.198192 0.489696
O O9 0.000000 0.297193 0.500000
O O10 0.030048 0.000000 0.560951
O O11 0.643679 0.500000 0.046433
O O12 0.669782 0.221079 0.116413
O O13 0.750000 0.250000 0.000000
O O14 0.595710 0.210419 0.992988
O O15 0.443725 0.500000 0.067686
O O16 0.326911 0.710052 0.125827
O O17 0.742561 0.500000 0.160095
O O18 0.703712 0.779715 0.239184
O O19 0.118138 0.717609 0.365123
O O20 0.117835 0.000000 0.289806
O O21 0.804080 0.500000 0.565324
#
# Coordination Sequence:
#
# PCOD9192734 Si02
#       8
#     8   8   8   8   8   8   8   8
#     4   9  17  31  50  71  95 126 166 205 240 285
#     4   9  18  32  51  75 100 127 162 202 239 279
#     4  10  20  36  58  79 101 133 166 193 231 288
#     4   8  14  25  42  67  96 124 158 199 242 288
#     4   9  16  28  49  72  94 126 165 202 243 291
#     4   9  17  29  46  70  99 128 161 203 246 288
#     4  10  20  34  51  70  96 132 168 201 243 295
#     4  11  22  35  53  77 103 128 159 204 247 281
#
# _framework density 27.102727999999999
#
# number of rings (size 3 to 8) (size 9 to 14) (size 15 to 20)
#    0.000    2.625    0.000    2.250    0.000    3.750 
#    0.000    1.875    0.000    7.500    0.000    0.000 
#    0.000   11.000    0.000    0.000    0.000    0.000 
#
# Total GULP energy -179018.619830 kJ/mol
# GULP energy per Si atom -5594.331870 kJ/mol
# Density = 2.704104 g / cm^3
# Si number density = 27.102728 Si / 1000 Ang^3
#
#
#
# Elastic Constant Matrix: (Units=GPa)
#
#
# Indices 1 2 3 4 5 6 
#
# 1 96.4484 -2.6504 18.4111 0.0000 10.3012 0.0000
# 2 -2.6504 119.2817 -2.3098 0.0000 -2.0350 0.0000
# 3 18.4111 -2.3098 176.1945 0.0000 8.9647 0.0000
# 4 0.0000 0.0000 0.0000 -3.2986 0.0000 -1.8153
# 5 10.3012 -2.0350 8.9647 0.0000 58.7984 0.0000
# 6 0.0000 0.0000 0.0000 -1.8153 0.0000 -1.7575
#
#
#
# Elastic Compliance Matrix: (Units=1/GPa)
#
#
# Indices 1 2 3 4 5 6 
#
# 1 0.010754 0.000190 -0.001034 0.000000 -0.001720 0.000000
# 2 0.000190 0.008393 0.000078 0.000000 0.000245 0.000000
# 3 -0.001034 0.000078 0.005820 0.000000 -0.000704 0.000000
# 4 0.000000 0.000000 0.000000 -0.702469 0.000000 0.725581
# 5 -0.001720 0.000245 -0.000704 0.000000 0.017424 0.000000
# 6 0.000000 0.000000 0.000000 0.725581 0.000000 -1.318457
#
#
# Mechanical properties :
#
#
# Convention : Reuss Voigt Hill
#
# Bulk Modulus (GPa) = 42.67045 46.53625 44.60335
# Shear Modulus (GPa) = -2.53912 35.98005 16.72047
#
# Velocity S-wave (km/s) = -0.96896 3.64750 2.48650
# Velocity P-wave (km/s) = 3.81134 5.91157 4.97358
#
# Compressibility (1/GPa) = 0.02343542
#
# Stress axis : x y z
#
# Youngs Moduli (GPa) = 92.98447 119.14094 171.80992
#
# Poissons Ratio (x) = -0.02259 0.17761
# Poissons Ratio (y) = -0.01763 -0.01336
# Poissons Ratio (z) = 0.09612 -0.00926
#
# Static dielectric constant tensor:
#      x y z
#    x 2.098280 0.000000 -0.104210 
#    y 0.000000 1.752310 0.000000 
#    z -0.104210 0.000000 1.874790 
# 
# From -- ./inp_files/314212.got.cif
#   From: 2010.05.17/outbox.cif.g08.bks.cpg/sg12_158_cif.got.tgz:314212.got - 2010.06.03 13:09:07.
