data_PCOD9192605
_publ_section_title
;
Structure prediction by ZEFSAII (Michael W. Deem and Ramdas Pophale) SiO2 
 PCOD9192605
Probable space group: C 2/M
;
_chemical_formula_sum "Si O2"
_cell_formula_units_Z 64
_cell_length_a 15.895282
_cell_length_b 23.656890
_cell_length_c 9.274364
_cell_angle_alpha 90.000000
_cell_angle_beta 129.392599
_cell_angle_gamma 90.000000
_cell_volume 2695.168241
_symmetry_space_group_name_H-M "C 2/M"
_symmetry_group_IT_number 12
_symmetry_cell_setting 'monoclinic'
loop_
_space_group_symop_operation_xyz
x,y,z
-x,y,-z
-x,-y,-z
x,-y,z
1/2+x,1/2+y,z
1/2-x,1/2+y,-z
1/2-x,1/2-y,-z
1/2+x,1/2-y,z
loop_
_atom_site_type_symbol
_atom_site_label
_atom_site_fract_x
_atom_site_fract_y
_atom_site_fract_z
Si Si1 0.747835 0.108963 0.517330
Si Si2 0.290037 0.675979 0.276716
Si Si3 0.185752 0.300678 0.692831
Si Si4 0.564531 0.201466 0.858984
Si Si5 0.974376 0.585579 0.813713
Si Si6 0.893410 0.562986 0.307225
Si Si7 0.643980 0.433966 0.100579
Si Si8 0.404974 0.326047 0.105249
O O1 0.785341 0.133533 0.405120
O O2 0.702356 0.157902 0.576384
O O3 0.643557 0.069781 0.372938
O O4 0.838135 0.077240 0.710100
O O5 0.325143 0.737092 0.373665
O O6 0.172091 0.684828 0.070467
O O7 0.372937 0.662517 0.236239
O O8 0.097418 0.308117 0.725995
O O9 0.296785 0.304681 0.905181
O O10 0.478947 0.154223 0.811964
O O11 0.527702 0.267088 0.834245
O O12 0.070108 0.564559 0.816752
O O13 0.000000 0.566736 0.000000
O O14 0.889329 0.500000 0.363789
O O15 0.767482 0.579674 0.177002
O O16 0.000000 0.590016 0.500000
O O17 0.617713 0.500000 0.044136
O O18 0.570837 0.385637 0.945600
#
# Coordination Sequence:
#
# PCOD9192605 Si02
#       8
#     8   8   8   8   8   8   8   8
#     4  11  19  27  42  65  93 121 148 193 226 269
#     4   9  15  28  44  64  88 113 148 185 237 272
#     4   8  16  27  45  62  82 119 150 182 224 283
#     4   9  17  30  44  65  87 118 155 186 229 281
#     4  12  22  29  43  64  96 126 159 192 230 268
#     4  10  20  34  46  57  83 124 168 195 215 260
#     4  10  20  34  50  66  84 120 166 200 230 267
#     4   8  16  31  50  63  85 116 153 194 231 275
#
# _framework density 23.746196999999999
#
# number of rings (size 3 to 8) (size 9 to 14) (size 15 to 20)
#    0.000    2.375    2.500    4.125    0.000    0.250 
#    0.000    0.625    0.000    0.000    0.000    0.000 
#    0.000    0.500    0.000    3.625    0.000    2.250 
#
# Total GULP energy -178527.930505 kJ/mol
# GULP energy per Si atom -5578.997828 kJ/mol
# Density = 2.369215 g / cm^3
# Si number density = 23.746197 Si / 1000 Ang^3
#
#
#
# Elastic Constant Matrix: (Units=GPa)
#
#
# Indices 1 2 3 4 5 6 
#
# 1 71.3454 12.0223 26.2914 0.0000 -14.8798 0.0000
# 2 12.0223 147.4889 26.0820 0.0000 -7.4744 0.0000
# 3 26.2914 26.0820 81.1633 0.0000 -27.1612 0.0000
# 4 0.0000 0.0000 0.0000 18.6251 0.0000 -7.9404
# 5 -14.8798 -7.4744 -27.1612 0.0000 34.4365 0.0000
# 6 0.0000 0.0000 0.0000 -7.9404 0.0000 0.1764
#
#
#
# Elastic Compliance Matrix: (Units=1/GPa)
#
#
# Indices 1 2 3 4 5 6 
#
# 1 0.016323 -0.000455 -0.003823 0.000000 0.003939 0.000000
# 2 -0.000455 0.007205 -0.002324 0.000000 -0.000466 0.000000
# 3 -0.003823 -0.002324 0.018456 0.000000 0.012400 0.000000
# 4 0.000000 0.000000 0.000000 -0.002952 0.000000 -0.132864
# 5 0.003939 -0.000466 0.012400 0.000000 0.040420 0.000000
# 6 0.000000 0.000000 0.000000 -0.132864 0.000000 -0.311649
#
#
# Mechanical properties :
#
#
# Convention : Reuss Voigt Hill
#
# Bulk Modulus (GPa) = 34.74625 47.64323 41.19474
# Shear Modulus (GPa) = -23.87774 26.35442 1.23834
#
# Velocity S-wave (km/s) = -3.17446 3.33504 0.72293
# Velocity P-wave (km/s) = 1.10807 5.91076 4.25234
#
# Compressibility (1/GPa) = 0.02878008
#
# Stress axis : x y z
#
# Youngs Moduli (GPa) = 61.26172 138.80079 54.18353
#
# Poissons Ratio (x) = 0.06313 0.20716
# Poissons Ratio (y) = 0.02786 0.12590
# Poissons Ratio (z) = 0.23423 0.32253
#
# Static dielectric constant tensor:
#      x y z
#    x 1.932050 0.000000 0.018990 
#    y 0.000000 2.041540 0.000000 
#    z 0.018990 0.000000 1.903410 
# 
# From -- ./inp_files/90437.got.cif
#   From: 2010.05.17/outbox.cif.g08.bks.cpg/sg12_46_cif.got.tgz:90437.got - 2010.06.03 13:09:07.
