data_PCOD9192943
_publ_section_title
;
Structure prediction by ZEFSAII (Michael W. Deem and Ramdas Pophale) SiO2 
 PCOD9192943
Probable space group: C 2/M
;
_chemical_formula_sum "Si O2"
_cell_formula_units_Z 64
_cell_length_a 21.162534
_cell_length_b 9.550249
_cell_length_c 18.714018
_cell_angle_alpha 90.000000
_cell_angle_beta 53.870561
_cell_angle_gamma 90.000000
_cell_volume 3054.868519
_symmetry_space_group_name_H-M "C 2/M"
_symmetry_group_IT_number 12
_symmetry_cell_setting 'monoclinic'
loop_
_space_group_symop_operation_xyz
x,y,z
-x,y,-z
-x,-y,-z
x,-y,z
1/2+x,1/2+y,z
1/2-x,1/2+y,-z
1/2-x,1/2-y,-z
1/2+x,1/2-y,z
loop_
_atom_site_type_symbol
_atom_site_label
_atom_site_fract_x
_atom_site_fract_y
_atom_site_fract_z
Si Si1 0.820204 0.841734 0.984606
Si Si2 0.804510 0.160200 0.735724
Si Si3 0.687660 0.658633 0.733766
Si Si4 0.062944 0.659157 0.016041
Si Si5 0.072654 0.841354 0.226981
Si Si6 0.800434 0.658562 0.520979
Si Si7 0.582861 0.340026 0.477349
Si Si8 0.544408 0.158725 0.771570
O O1 0.864189 0.759908 0.018544
O O2 0.882063 0.851755 0.878387
O O3 0.795931 0.000000 0.019746
O O4 0.750000 0.750000 0.000000
O O5 0.732088 0.260211 0.767421
O O6 0.863359 0.208509 0.758444
O O7 0.856554 0.155373 0.629088
O O8 0.779836 0.000000 0.768696
O O9 0.664215 0.500000 0.768357
O O10 0.749173 0.650364 0.627466
O O11 0.616116 0.749715 0.752183
O O12 0.086874 0.500000 0.980133
O O13 0.016052 0.650315 0.121887
O O14 0.000000 0.710017 0.000000
O O15 0.000417 0.738706 0.262075
O O16 0.048280 0.000000 0.263780
O O17 0.812968 0.500000 0.486806
O O18 0.750000 0.750000 0.500000
O O19 0.879945 0.738374 0.488938
O O20 0.500000 0.294444 0.500000
O O21 0.574257 0.500000 0.509957
O O22 0.567650 0.000000 0.737851
#
# Coordination Sequence:
#
# PCOD9192943 Si02
#       8
#     8   8   8   8   8   8   8   8
#     4  10  20  34  52  74 102 134 170 212 256 304
#     4   9  18  34  54  74 100 134 170 206 246 298
#     4  10  21  36  53  75 105 137 169 209 256 303
#     4   9  19  36  55  75 102 135 171 212 257 305
#     4   9  19  35  53  74 102 136 171 209 254 303
#     4  10  21  36  54  76 103 136 172 211 254 300
#     4   9  18  33  53  77 104 133 166 205 250 301
#     4  10  20  34  54  78 103 134 172 212 254 303
#
# _framework density 20.950164999999998
#
# number of rings (size 3 to 8) (size 9 to 14) (size 15 to 20)
#    0.000    2.500    0.000    1.500    0.000    5.500 
#    0.000    7.500    0.000    0.000    0.000    0.000 
#    0.000    0.000    0.000    0.000    0.000    0.000 
#
# Total GULP energy -178686.838068 kJ/mol
# GULP energy per Si atom -5583.963690 kJ/mol
# Density = 2.090248 g / cm^3
# Si number density = 20.950165 Si / 1000 Ang^3
#
#
#
# Elastic Constant Matrix: (Units=GPa)
#
#
# Indices 1 2 3 4 5 6 
#
# 1 225.1809 150.8077 -3.8857 0.0000 6.9102 0.0000
# 2 150.8077 181.7500 2.7316 0.0000 -6.8838 0.0000
# 3 -3.8857 2.7316 31.9567 0.0000 1.4229 0.0000
# 4 0.0000 0.0000 0.0000 13.0430 0.0000 1.6153
# 5 6.9102 -6.8838 1.4229 0.0000 29.0280 0.0000
# 6 0.0000 0.0000 0.0000 1.6153 0.0000 40.7787
#
#
#
# Elastic Compliance Matrix: (Units=1/GPa)
#
#
# Indices 1 2 3 4 5 6 
#
# 1 0.010747 -0.009135 0.002303 0.000000 -0.004838 0.000000
# 2 -0.009135 0.013326 -0.002493 0.000000 0.005457 0.000000
# 3 0.002303 -0.002493 0.031906 0.000000 -0.002703 0.000000
# 4 0.000000 0.000000 0.000000 0.077047 0.000000 -0.003052
# 5 -0.004838 0.005457 -0.002703 0.000000 0.037028 0.000000
# 6 0.000000 0.000000 0.000000 -0.003052 0.000000 0.024643
#
#
# Mechanical properties :
#
#
# Convention : Reuss Voigt Hill
#
# Bulk Modulus (GPa) = 26.78883 82.02165 54.40524
# Shear Modulus (GPa) = 22.14436 35.85222 28.99829
#
# Velocity S-wave (km/s) = 3.25468 4.14129 3.72446
# Velocity P-wave (km/s) = 5.19024 7.88053 6.67239
#
# Compressibility (1/GPa) = 0.03732898
#
# Stress axis : x y z
#
# Youngs Moduli (GPa) = 93.04758 75.03945 31.34219
#
# Poissons Ratio (x) = 0.68551 -0.07218
# Poissons Ratio (y) = 0.85002 0.07813
# Poissons Ratio (z) = -0.21429 0.18707
#
# Static dielectric constant tensor:
#      x y z
#    x 1.714310 0.000000 0.001210 
#    y 0.000000 1.760410 0.000000 
#    z 0.001210 0.000000 1.786490 
# 
# From -- ./inp_files/319963.got.cif
#   From: 2010.05.17/outbox.cif.g08.bks.cpg/sg12_160_cif.got.tgz:319963.got - 2010.06.03 13:09:07.
