data_PCOD9192237
_publ_section_title
;
Structure prediction by ZEFSAII (Michael W. Deem and Ramdas Pophale) SiO2 
 PCOD9192237
Probable space group: C 2/M
;
_chemical_formula_sum "Si O2"
_cell_formula_units_Z 58
_cell_length_a 30.885631
_cell_length_b 7.697544
_cell_length_c 26.022443
_cell_angle_alpha 90.000000
_cell_angle_beta 152.733015
_cell_angle_gamma 90.000000
_cell_volume 2834.343670
_symmetry_space_group_name_H-M "C 2/M"
_symmetry_group_IT_number 12
_symmetry_cell_setting 'monoclinic'
loop_
_space_group_symop_operation_xyz
x,y,z
-x,y,-z
-x,-y,-z
x,-y,z
1/2+x,1/2+y,z
1/2-x,1/2+y,-z
1/2-x,1/2-y,-z
1/2+x,1/2-y,z
loop_
_atom_site_type_symbol
_atom_site_label
_atom_site_fract_x
_atom_site_fract_y
_atom_site_fract_z
Si Si1 0.459074 0.199966 0.784913
Si Si2 0.751540 0.796091 0.591119
Si Si3 0.548774 0.209521 0.336377
Si Si4 0.467063 0.707433 0.357271
Si Si5 0.573130 0.308254 0.002214
Si Si6 0.000000 0.500000 0.000000
Si Si7 0.669349 0.710546 0.611423
Si Si8 0.782165 0.788891 0.221388
O O1 0.345792 0.204696 0.671813
O O2 0.480396 0.271400 0.750668
O O3 0.505419 0.296306 0.881387
O O4 0.491309 0.000000 0.821868
O O5 0.654505 0.728699 0.463093
O O6 0.736620 0.773117 0.636521
O O7 0.760829 0.000000 0.589343
O O8 0.480722 0.256614 0.311503
O O9 0.554187 0.000000 0.339783
O O10 0.467340 0.500000 0.365005
O O11 0.563053 0.772311 0.486091
O O12 0.370797 0.772431 0.280958
O O13 0.564980 0.500000 0.016981
O O14 0.546867 0.153133 0.012830
O O15 0.681031 0.280809 0.098251
O O16 0.670234 0.500000 0.610586
O O17 0.700531 0.762530 0.700968
O O18 0.779732 0.000000 0.217103
#
# Coordination Sequence:
#
# PCOD9192237 Si02
#       8
#     8   8   8   8   8   2   8   8
#     4  11  22  40  60  83 119 163 206 257 311 365
#     4  10  20  33  53  87 121 155 201 251 308 374
#     4   9  20  37  58  84 120 159 200 256 314 366
#     4   9  18  34  59  88 118 157 203 251 306 364
#     4  12  27  44  67  95 123 165 210 249 305 365
#     4  12  26  52  68  90 130 164 202 260 302 358
#     4   9  18  32  55  85 118 159 201 240 299 371
#     4  10  20  38  59  85 124 163 203 256 305 360
#
# _framework density 20.463291000000002
#
# number of rings (size 3 to 8) (size 9 to 14) (size 15 to 20)
#    0.000    1.931    1.379    1.862    1.931    4.414 
#    0.000    0.690    0.000    4.138    0.000    0.000 
#    0.000    0.000    0.000    0.000    0.000    0.000 
#
# Total GULP energy -161765.135693 kJ/mol
# GULP energy per Si atom -5578.108127 kJ/mol
# Density = 2.041672 g / cm^3
# Si number density = 20.463291 Si / 1000 Ang^3
#
#
#
# Elastic Constant Matrix: (Units=GPa)
#
#
# Indices 1 2 3 4 5 6 
#
# 1 55.5508 3.3246 15.9288 0.0000 -2.9274 0.0000
# 2 3.3246 81.0069 6.4823 0.0000 -2.9919 0.0000
# 3 15.9288 6.4823 23.0424 0.0000 0.7671 0.0000
# 4 0.0000 0.0000 0.0000 15.5432 0.0000 -3.3514
# 5 -2.9274 -2.9919 0.7671 0.0000 -18.4593 0.0000
# 6 0.0000 0.0000 0.0000 -3.3514 0.0000 10.0579
#
#
#
# Elastic Compliance Matrix: (Units=1/GPa)
#
#
# Indices 1 2 3 4 5 6 
#
# 1 0.022132 0.000154 -0.015205 0.000000 -0.004167 0.000000
# 2 0.000154 0.012542 -0.003562 0.000000 -0.002205 0.000000
# 3 -0.015205 -0.003562 0.054736 0.000000 0.005263 0.000000
# 4 0.000000 0.000000 0.000000 0.069317 0.000000 0.023097
# 5 -0.004167 -0.002205 0.005263 0.000000 -0.052936 0.000000
# 6 0.000000 0.000000 0.000000 0.023097 0.000000 0.107121
#
#
# Mechanical properties :
#
#
# Convention : Reuss Voigt Hill
#
# Bulk Modulus (GPa) = 19.16203 23.45239 21.30721
# Shear Modulus (GPa) = 18.68948 10.35267 14.52107
#
# Velocity S-wave (km/s) = 3.02539 2.25169 2.66675
# Velocity P-wave (km/s) = 4.64634 4.27151 4.46286
#
# Compressibility (1/GPa) = 0.05218653
#
# Stress axis : x y z
#
# Youngs Moduli (GPa) = 45.18244 79.73310 18.26967
#
# Poissons Ratio (x) = -0.01231 0.27778
# Poissons Ratio (y) = -0.00698 0.06507
# Poissons Ratio (z) = 0.68698 0.28398
#
# Static dielectric constant tensor:
#      x y z
#    x 1.708000 0.000000 -0.008370 
#    y 0.000000 1.754820 0.000000 
#    z -0.008370 0.000000 1.713410 
# 
# From -- ./inp_files/351428.got.cif
#   From: 2010.05.17/outbox.cif.g08.bks.cpg/sg12_176_cif.got.tgz:351428.got - 2010.06.03 13:09:07.
