data_PCOD9192598
_publ_section_title
;
Structure prediction by ZEFSAII (Michael W. Deem and Ramdas Pophale) SiO2 
 PCOD9192598
Probable space group: C 2/M
;
_chemical_formula_sum "Si O2"
_cell_formula_units_Z 52
_cell_length_a 14.297144
_cell_length_b 17.720964
_cell_length_c 15.281252
_cell_angle_alpha 90.000000
_cell_angle_beta 40.983040
_cell_angle_gamma 90.000000
_cell_volume 2539.162876
_symmetry_space_group_name_H-M "C 2/M"
_symmetry_group_IT_number 12
_symmetry_cell_setting 'monoclinic'
loop_
_space_group_symop_operation_xyz
x,y,z
-x,y,-z
-x,-y,-z
x,-y,z
1/2+x,1/2+y,z
1/2-x,1/2+y,-z
1/2-x,1/2-y,-z
1/2+x,1/2-y,z
loop_
_atom_site_type_symbol
_atom_site_label
_atom_site_fract_x
_atom_site_fract_y
_atom_site_fract_z
Si Si1 0.100425 0.205596 0.594080
Si Si2 0.869591 0.287918 0.858304
Si Si3 0.774188 0.160692 0.219637
Si Si4 0.261249 0.000000 0.714825
Si Si5 0.262047 0.084017 0.394069
Si Si6 0.427923 0.000000 0.413494
Si Si7 0.074156 0.321405 0.855982
Si Si8 0.000000 0.292792 0.500000
O O1 0.250000 0.250000 0.500000
O O2 0.141171 0.121857 0.538882
O O3 0.024329 0.241392 0.565136
O O4 0.989015 0.225591 0.747462
O O5 0.796494 0.325935 0.825895
O O6 0.954322 0.337454 0.867866
O O7 0.750000 0.250000 0.000000
O O8 0.826549 0.075573 0.197368
O O9 0.873362 0.234002 0.167897
O O10 0.642543 0.161663 0.381347
O O11 0.319294 0.000000 0.573044
O O12 0.410503 0.000000 0.666008
O O13 0.389879 0.070359 0.375722
O O14 0.296681 0.134560 0.284250
O O15 0.225352 0.000000 0.390793
O O16 0.000000 0.344064 0.000000
#
# Coordination Sequence:
#
# PCOD9192598 Si02
#       8
#     8   8   8   4   8   4   8   4
#     4  11  21  37  66  94 126 164 215 276 325 388
#     4  11  23  40  65  94 131 171 225 269 325 400
#     4  11  23  38  65  98 127 172 217 273 331 396
#     4  11  22  36  61  98 138 162 212 277 340 397
#     4  10  23  40  64  96 126 166 220 278 336 380
#     4   9  22  36  61  95 136 164 206 281 340 392
#     4  12  23  41  65  91 130 177 228 272 331 403
#     4  10  20  33  63  94 118 158 214 260 335 385
#
# _framework density 20.479189999999999
#
# number of rings (size 3 to 8) (size 9 to 14) (size 15 to 20)
#    0.462    0.769    4.615    1.846    6.462    0.308 
#    0.000    0.769    1.692    0.000    0.000    0.000 
#    0.000    0.000    0.000    0.000    0.000    0.000 
#
# Total GULP energy -144789.200928 kJ/mol
# GULP energy per Si atom -5568.815420 kJ/mol
# Density = 2.043258 g / cm^3
# Si number density = 20.479190 Si / 1000 Ang^3
#
#
#
# Elastic Constant Matrix: (Units=GPa)
#
#
# Indices 1 2 3 4 5 6 
#
# 1 70.0301 25.4701 17.6996 -0.0002 26.1866 0.0001
# 2 25.4701 99.0436 22.4006 0.0000 15.5982 0.0000
# 3 17.6996 22.4006 124.2895 -0.0001 20.5515 0.0001
# 4 -0.0002 0.0000 -0.0001 12.8433 0.0001 2.5703
# 5 26.1866 15.5982 20.5515 0.0001 34.5624 -0.0001
# 6 0.0001 0.0000 0.0001 2.5703 -0.0001 16.7413
#
#
#
# Elastic Compliance Matrix: (Units=1/GPa)
#
#
# Indices 1 2 3 4 5 6 
#
# 1 0.020763 -0.003076 -0.000034 0.000000 -0.014323 0.000000
# 2 -0.003076 0.011509 -0.001290 0.000000 -0.002097 0.000000
# 3 -0.000034 -0.001290 0.009075 0.000000 -0.004788 0.000000
# 4 0.000000 0.000000 0.000000 0.080330 -0.000001 -0.012333
# 5 -0.014323 -0.002097 -0.004788 -0.000001 0.043578 0.000001
# 6 0.000000 0.000000 0.000000 -0.012333 0.000001 0.061626
#
#
# Mechanical properties :
#
#
# Convention : Reuss Voigt Hill
#
# Bulk Modulus (GPa) = 30.72424 47.16709 38.94567
# Shear Modulus (GPa) = 20.28158 28.01560 24.14859
#
# Velocity S-wave (km/s) = 3.15040 3.70267 3.43764
# Velocity P-wave (km/s) = 5.31682 6.43128 5.90042
#
# Compressibility (1/GPa) = 0.03254759
#
# Stress axis : x y z
#
# Youngs Moduli (GPa) = 48.16341 86.88482 110.19597
#
# Poissons Ratio (x) = 0.26726 0.00376
# Poissons Ratio (y) = 0.14815 0.14211
# Poissons Ratio (z) = 0.00164 0.11204
#
# Static dielectric constant tensor:
#      x y z
#    x 1.811200 0.000000 -0.087480 
#    y 0.000000 1.790490 0.000000 
#    z -0.087480 0.000000 1.816150 
# 
# From -- ./inp_files/216748.got.cif
#   From: 2010.05.17/outbox.cif.g08.bks.cpg/sg12_109_cif.got.tgz:216748.got - 2010.06.03 13:09:07.
