data_PCOD9192394
_publ_section_title
;
Structure prediction by ZEFSAII (Michael W. Deem and Ramdas Pophale) SiO2 
 PCOD9192394
Probable space group: C 2/M
;
_chemical_formula_sum "Si O2"
_cell_formula_units_Z 56
_cell_length_a 28.952145
_cell_length_b 11.501442
_cell_length_c 24.179688
_cell_angle_alpha 90.000000
_cell_angle_beta 158.711836
_cell_angle_gamma 90.000000
_cell_volume 2923.214253
_symmetry_space_group_name_H-M "C 2/M"
_symmetry_group_IT_number 12
_symmetry_cell_setting 'monoclinic'
loop_
_space_group_symop_operation_xyz
x,y,z
-x,y,-z
-x,-y,-z
x,-y,z
1/2+x,1/2+y,z
1/2-x,1/2+y,-z
1/2-x,1/2-y,-z
1/2+x,1/2-y,z
loop_
_atom_site_type_symbol
_atom_site_label
_atom_site_fract_x
_atom_site_fract_y
_atom_site_fract_z
Si Si1 0.680807 0.634973 0.571887
Si Si2 0.669397 0.633719 0.426763
Si Si3 0.537917 0.133078 0.105714
Si Si4 0.124091 0.377710 0.808650
Si Si5 0.302966 0.861543 0.914422
Si Si6 0.461571 0.766433 0.394925
Si Si7 0.396668 0.712063 0.117481
O O1 0.683743 0.500000 0.594189
O O2 0.656252 0.634290 0.478818
O O3 0.822877 0.687619 0.735213
O O4 0.577794 0.699565 0.494534
O O5 0.714109 0.500000 0.462220
O O6 0.750000 0.750000 0.500000
O O7 0.527776 0.654996 0.245066
O O8 0.553362 0.000000 0.144789
O O9 0.500000 0.127186 0.000000
O O10 0.417619 0.183396 0.003599
O O11 0.074939 0.500000 0.776124
O O12 0.079595 0.362598 0.696016
O O13 0.082055 0.269262 0.798807
O O14 0.276988 0.373380 0.983648
O O15 0.165527 0.812894 0.744395
O O16 0.297107 0.000000 0.905657
O O17 0.345516 0.816120 0.021761
O O18 0.500000 0.801458 0.500000
#
# Coordination Sequence:
#
# PCOD9192394 Si02
#       7
#     8   8   8   8   8   8   8
#     4  10  20  35  54  80 117 153 193 245 307 360
#     4  11  23  39  60  88 123 161 202 252 309 371
#     4   9  17  30  48  72 106 149 190 233 292 356
#     4  10  21  37  58  82 112 153 200 250 306 368
#     4  10  20  33  55  85 114 150 200 250 301 365
#     4  11  22  36  55  84 118 155 202 251 310 372
#     4  10  20  37  58  84 112 151 196 249 304 365
#
# _framework density 19.156994999999998
#
# number of rings (size 3 to 8) (size 9 to 14) (size 15 to 20)
#    0.000    1.857    1.429    3.000    0.000    4.857 
#    0.000    0.000    0.000    0.000    0.000    0.000 
#    0.000   12.000    0.000    0.000    0.000    0.000 
#
# Total GULP energy -155947.398127 kJ/mol
# GULP energy per Si atom -5569.549933 kJ/mol
# Density = 1.911339 g / cm^3
# Si number density = 19.156995 Si / 1000 Ang^3
#
#
#
# Elastic Constant Matrix: (Units=GPa)
#
#
# Indices 1 2 3 4 5 6 
#
# 1 80.2091 23.0310 29.6610 0.0000 3.7943 0.0000
# 2 23.0310 83.4012 27.7490 0.0000 7.3811 0.0000
# 3 29.6610 27.7490 106.0034 0.0000 10.4227 0.0000
# 4 0.0000 0.0000 0.0000 -2.1288 0.0000 -2.4954
# 5 3.7943 7.3811 10.4227 0.0000 47.4087 0.0000
# 6 0.0000 0.0000 0.0000 -2.4954 0.0000 -12.6231
#
#
#
# Elastic Compliance Matrix: (Units=1/GPa)
#
#
# Indices 1 2 3 4 5 6 
#
# 1 0.014525 -0.002913 -0.003303 0.000000 0.000017 0.000000
# 2 -0.002913 0.013800 -0.002666 0.000000 -0.001329 0.000000
# 3 -0.003303 -0.002666 0.011232 0.000000 -0.001790 0.000000
# 4 0.000000 0.000000 0.000000 -0.611431 0.000000 0.120870
# 5 0.000017 -0.001329 -0.001790 0.000000 0.021692 0.000000
# 6 0.000000 0.000000 0.000000 0.120870 0.000000 -0.103114
#
#
# Mechanical properties :
#
#
# Convention : Reuss Voigt Hill
#
# Bulk Modulus (GPa) = 45.89281 47.83285 46.86283
# Shear Modulus (GPa) = -7.95839 19.14287 5.59224
#
# Velocity S-wave (km/s) = -2.04042 3.16454 1.71041
# Velocity P-wave (km/s) = 4.29617 6.19480 5.33069
#
# Compressibility (1/GPa) = 0.02178991
#
# Stress axis : x y z
#
# Youngs Moduli (GPa) = 68.84839 72.46596 89.03178
#
# Poissons Ratio (x) = 0.21113 0.29409
# Poissons Ratio (y) = 0.20059 0.23740
# Poissons Ratio (z) = 0.22742 0.19323
#
# Static dielectric constant tensor:
#      x y z
#    x 1.730110 0.000000 0.013880 
#    y 0.000000 1.665200 0.000000 
#    z 0.013880 0.000000 1.694070 
# 
# From -- ./inp_files/353998.got.cif
#   From: 2010.05.17/outbox.cif.g08.bks.cpg/sg12_177_cif.got.tgz:353998.got - 2010.06.03 13:09:07.
