data_PCOD9192046
_publ_section_title
;
Structure prediction by ZEFSAII (Michael W. Deem and Ramdas Pophale) SiO2 
 PCOD9192046
Probable space group: C 2/M
;
_chemical_formula_sum "Si O2"
_cell_formula_units_Z 58
_cell_length_a 23.320270
_cell_length_b 7.463993
_cell_length_c 16.554134
_cell_angle_alpha 90.000000
_cell_angle_beta 113.594904
_cell_angle_gamma 90.000000
_cell_volume 2640.557050
_symmetry_space_group_name_H-M "C 2/M"
_symmetry_group_IT_number 12
_symmetry_cell_setting 'monoclinic'
loop_
_space_group_symop_operation_xyz
x,y,z
-x,y,-z
-x,-y,-z
x,-y,z
1/2+x,1/2+y,z
1/2-x,1/2+y,-z
1/2-x,1/2-y,-z
1/2+x,1/2-y,z
loop_
_atom_site_type_symbol
_atom_site_label
_atom_site_fract_x
_atom_site_fract_y
_atom_site_fract_z
Si Si1 0.318202 0.281970 0.616231
Si Si2 0.816355 0.294332 0.426478
Si Si3 0.555837 0.707046 0.588080
Si Si4 0.562264 0.717471 0.214315
Si Si5 0.822770 0.211942 0.038936
Si Si6 0.500000 0.000000 0.000000
Si Si7 0.089124 0.213381 0.047268
Si Si8 0.568884 0.720235 0.779640
O O1 0.315472 0.500000 0.611712
O O2 0.254376 0.221405 0.625118
O O3 0.321398 0.215646 0.526387
O O4 0.381221 0.228439 0.695994
O O5 0.816667 0.500000 0.399657
O O6 0.877494 0.210861 0.420331
O O7 0.500000 0.784892 0.500000
O O8 0.537292 0.500000 0.590651
O O9 0.565471 0.780750 0.684149
O O10 0.560676 0.500000 0.209807
O O11 0.583301 0.774979 0.136451
O O12 0.495918 0.773159 0.213311
O O13 0.870128 0.282539 0.135001
O O14 0.829467 0.000000 0.049950
O O15 0.750000 0.250000 0.000000
O O16 0.847504 0.255584 0.963175
O O17 0.539453 0.840100 0.976615
O O18 0.076189 0.000000 0.033479
O O19 0.570367 0.500000 0.780307
#
# Coordination Sequence:
#
# PCOD9192046 Si02
#       8
#     8   8   8   8   8   2   8   8
#     4   9  18  34  57  81 109 151 194 235 289 356
#     4  10  20  33  52  81 116 150 188 237 296 353
#     4  10  20  35  57  81 109 152 201 237 281 353
#     4   9  17  35  61  85 113 147 196 250 297 357
#     4  10  22  40  62  86 122 164 207 256 310 374
#     4  12  22  36  64  90 124 152 196 254 302 382
#     4  10  22  39  62  92 121 160 203 254 314 367
#     4   9  18  33  56  85 110 147 197 247 297 351
#
# _framework density 21.965062
#
# number of rings (size 3 to 8) (size 9 to 14) (size 15 to 20)
#    0.000    2.345    0.000    2.276    0.966    6.345 
#    1.241    2.069    1.517    0.000    0.000    0.000 
#    0.000    0.000    0.000    0.000    0.000    0.000 
#
# Total GULP energy -161452.022921 kJ/mol
# GULP energy per Si atom -5567.311135 kJ/mol
# Density = 2.191507 g / cm^3
# Si number density = 21.965062 Si / 1000 Ang^3
#
#
#
# Elastic Constant Matrix: (Units=GPa)
#
#
# Indices 1 2 3 4 5 6 
#
# 1 206.9680 0.1069 97.1521 0.0000 4.9099 0.0000
# 2 0.1069 58.4010 -6.3927 0.0000 -3.7185 0.0000
# 3 97.1521 -6.3927 140.5377 0.0000 7.8869 0.0000
# 4 0.0000 0.0000 0.0000 6.2829 0.0000 5.0435
# 5 4.9099 -3.7185 7.8869 0.0000 35.3742 0.0000
# 6 0.0000 0.0000 0.0000 5.0435 0.0000 8.6347
#
#
#
# Elastic Compliance Matrix: (Units=1/GPa)
#
#
# Indices 1 2 3 4 5 6 
#
# 1 0.007171 -0.000555 -0.004986 0.000000 0.000058 0.000000
# 2 -0.000555 0.017348 0.001080 0.000000 0.001660 0.000000
# 3 -0.004986 0.001080 0.010700 0.000000 -0.001580 0.000000
# 4 0.000000 0.000000 0.000000 0.299666 0.000000 -0.175034
# 5 0.000058 0.001660 -0.001580 0.000000 0.028788 0.000000
# 6 0.000000 0.000000 0.000000 -0.175034 0.000000 0.218048
#
#
# Mechanical properties :
#
#
# Convention : Reuss Voigt Hill
#
# Bulk Modulus (GPa) = 38.02794 65.29327 51.66061
# Shear Modulus (GPa) = 8.34156 31.06106 19.70131
#
# Velocity S-wave (km/s) = 1.95087 3.76455 2.99814
# Velocity P-wave (km/s) = 4.73551 6.97755 5.96286
#
# Compressibility (1/GPa) = 0.02629645
#
# Stress axis : x y z
#
# Youngs Moduli (GPa) = 139.45309 57.64384 93.45940
#
# Poissons Ratio (x) = 0.03200 0.46596
# Poissons Ratio (y) = 0.07742 -0.10091
# Poissons Ratio (z) = 0.69526 -0.06224
#
# Static dielectric constant tensor:
#      x y z
#    x 2.394380 0.000000 0.193760 
#    y 0.000000 1.836850 0.000000 
#    z 0.193760 0.000000 1.912700 
# 
# From -- ./inp_files/281580.got.cif
#   From: 2010.05.17/outbox.cif.g08.bks.cpg/sg12_141_cif.got.tgz:281580.got - 2010.06.03 13:09:07.
