data_PCOD9192882
_publ_section_title
;
Structure prediction by ZEFSAII (Michael W. Deem and Ramdas Pophale) SiO2 
 PCOD9192882
Probable space group: C 2/M
;
_chemical_formula_sum "Si O2"
_cell_formula_units_Z 60
_cell_length_a 15.280005
_cell_length_b 26.267148
_cell_length_c 9.153058
_cell_angle_alpha 90.000000
_cell_angle_beta 51.640342
_cell_angle_gamma 90.000000
_cell_volume 2880.653628
_symmetry_space_group_name_H-M "C 2/M"
_symmetry_group_IT_number 12
_symmetry_cell_setting 'monoclinic'
loop_
_space_group_symop_operation_xyz
x,y,z
-x,y,-z
-x,-y,-z
x,-y,z
1/2+x,1/2+y,z
1/2-x,1/2+y,-z
1/2-x,1/2-y,-z
1/2+x,1/2-y,z
loop_
_atom_site_type_symbol
_atom_site_label
_atom_site_fract_x
_atom_site_fract_y
_atom_site_fract_z
Si Si1 0.515590 0.272255 0.653708
Si Si2 0.626448 0.172504 0.599366
Si Si3 0.733172 0.146879 0.216416
Si Si4 0.876040 0.247305 0.054461
Si Si5 0.500000 0.125267 0.000000
Si Si6 0.218091 0.640561 0.884778
Si Si7 0.858591 0.127920 0.481848
Si Si8 0.619973 0.558090 0.798348
O O1 0.500000 0.264721 0.500000
O O2 0.610277 0.233051 0.609200
O O3 0.403289 0.258867 0.854792
O O4 0.548987 0.329961 0.647354
O O5 0.625473 0.152612 0.433264
O O6 0.743721 0.151410 0.535904
O O7 0.534195 0.153271 0.811185
O O8 0.800939 0.097862 0.200845
O O9 0.803491 0.198776 0.173778
O O10 0.718850 0.141624 0.057962
O O11 0.816608 0.301844 0.131991
O O12 0.000000 0.245072 0.000000
O O13 0.380496 0.103578 0.074652
O O14 0.331041 0.625485 0.682889
O O15 0.885001 0.077593 0.363989
O O16 0.659583 0.500000 0.764509
O O17 0.500000 0.561103 0.000000
#
# Coordination Sequence:
#
# PCOD9192882 Si02
#       8
#     8   8   8   8   4   8   8   8
#     4  12  21  30  49  79 119 152 190 225 266 330
#     4  10  20  35  50  75 113 158 193 225 267 327
#     4  11  22  34  58  86 112 155 191 237 281 326
#     4  12  20  33  52  79 124 158 192 221 269 338
#     4  10  20  34  52  72 115 156 199 224 266 320
#     4  11  20  36  52  82 122 154 191 227 275 340
#     4  10  21  36  55  79 109 152 186 230 279 332
#     4  10  22  43  65  85 109 141 187 234 284 337
#
# _framework density 20.828607000000002
#
# number of rings (size 3 to 8) (size 9 to 14) (size 15 to 20)
#    0.000    1.200    2.000    6.800    0.000    0.000 
#    0.000    0.667    0.000    2.000    0.000   55.067 
#    0.000    0.000    0.000    0.000    0.000    0.000 
#
# Total GULP energy -167435.974727 kJ/mol
# GULP energy per Si atom -5581.199158 kJ/mol
# Density = 2.078120 g / cm^3
# Si number density = 20.828607 Si / 1000 Ang^3
#
#
#
# Elastic Constant Matrix: (Units=GPa)
#
#
# Indices 1 2 3 4 5 6 
#
# 1 44.3534 18.3796 16.9824 0.0000 10.7011 0.0000
# 2 18.3796 84.9448 42.5547 0.0000 -1.3948 0.0000
# 3 16.9824 42.5547 152.6949 0.0000 23.7638 0.0000
# 4 0.0000 0.0000 0.0000 17.8734 0.0000 -0.6248
# 5 10.7011 -1.3948 23.7638 0.0000 32.8394 0.0000
# 6 0.0000 0.0000 0.0000 -0.6248 0.0000 14.4005
#
#
#
# Elastic Compliance Matrix: (Units=1/GPa)
#
#
# Indices 1 2 3 4 5 6 
#
# 1 0.027258 -0.006101 0.000103 0.000000 -0.009216 0.000000
# 2 -0.006101 0.015474 -0.004559 0.000000 0.005944 0.000000
# 3 0.000103 -0.004559 0.008839 0.000000 -0.006623 0.000000
# 4 0.000000 0.000000 0.000000 0.056034 0.000000 0.002431
# 5 -0.009216 0.005944 -0.006623 0.000000 0.038500 0.000000
# 6 0.000000 0.000000 0.000000 0.002431 0.000000 0.069547
#
#
# Mechanical properties :
#
#
# Convention : Reuss Voigt Hill
#
# Bulk Modulus (GPa) = 32.83280 48.64741 40.74011
# Shear Modulus (GPa) = 20.24956 26.62775 23.43865
#
# Velocity S-wave (km/s) = 3.12139 3.57938 3.35820
# Velocity P-wave (km/s) = 5.36548 6.36313 5.88548
#
# Compressibility (1/GPa) = 0.03045735
#
# Stress axis : x y z
#
# Youngs Moduli (GPa) = 36.68591 64.62476 113.13603
#
# Poissons Ratio (x) = 0.39426 -0.01164
# Poissons Ratio (y) = 0.22381 0.51579
# Poissons Ratio (z) = -0.00378 0.29463
#
# Static dielectric constant tensor:
#      x y z
#    x 1.844380 0.000000 0.039750 
#    y 0.000000 1.697150 0.000000 
#    z 0.039750 0.000000 1.840290 
# 
# From -- ./inp_files/79854.got.cif
#   From: 2010.05.17/outbox.cif.g08.bks.cpg/sg12_40_cif.got.tgz:79854.got - 2010.06.03 13:09:07.
