data_PCOD9192399
_publ_section_title
;
Structure prediction by ZEFSAII (Michael W. Deem and Ramdas Pophale) SiO2 
 PCOD9192399
Probable space group: C 2/M
;
_chemical_formula_sum "Si O2"
_cell_formula_units_Z 58
_cell_length_a 24.714788
_cell_length_b 7.739573
_cell_length_c 22.012369
_cell_angle_alpha 90.000000
_cell_angle_beta 142.279892
_cell_angle_gamma 90.000000
_cell_volume 2576.045157
_symmetry_space_group_name_H-M "C 2/M"
_symmetry_group_IT_number 12
_symmetry_cell_setting 'monoclinic'
loop_
_space_group_symop_operation_xyz
x,y,z
-x,y,-z
-x,-y,-z
x,-y,z
1/2+x,1/2+y,z
1/2-x,1/2+y,-z
1/2-x,1/2-y,-z
1/2+x,1/2-y,z
loop_
_atom_site_type_symbol
_atom_site_label
_atom_site_fract_x
_atom_site_fract_y
_atom_site_fract_z
Si Si1 0.682859 0.787279 0.581075
Si Si2 0.735603 0.195517 0.128544
Si Si3 0.620604 0.295836 0.273648
Si Si4 0.433148 0.791396 0.637574
Si Si5 0.374149 0.199592 0.163537
Si Si6 0.430872 0.701582 0.081964
Si Si7 0.000000 0.500000 0.500000
Si Si8 0.108765 0.199870 0.644756
O O1 0.784156 0.730368 0.662077
O O2 0.627350 0.738594 0.472208
O O3 0.644689 0.706831 0.607890
O O4 0.675248 0.000000 0.581641
O O5 0.789276 0.202526 0.112746
O O6 0.808695 0.261265 0.240654
O O7 0.717542 0.000000 0.130293
O O8 0.640939 0.281535 0.034675
O O9 0.625856 0.500000 0.266681
O O10 0.606163 0.267824 0.332749
O O11 0.530698 0.230165 0.161746
O O12 0.535155 0.732429 0.725325
O O13 0.435329 0.000000 0.641457
O O14 0.392353 0.211315 0.108255
O O15 0.360593 0.000000 0.167826
O O16 0.438989 0.500000 0.104520
O O17 0.966187 0.346328 0.422464
O O18 0.084508 0.000000 0.638003
#
# Coordination Sequence:
#
# PCOD9192399 Si02
#       8
#     8   8   8   8   8   8   2   8
#     4  10  20  38  60  85 123 163 203 255 307 360
#     4  11  24  40  58  84 118 152 203 256 300 366
#     4   9  19  35  57  87 119 157 202 251 306 363
#     4   9  19  32  54  86 118 157 199 239 305 373
#     4  10  20  33  55  85 118 155 198 243 307 371
#     4  10  20  36  58  84 117 158 202 250 308 365
#     4  12  26  48  72  86 134 160 202 260 304 352
#     4  11  27  44  66  96 122 164 210 248 307 367
#
# _framework density 22.515132000000001
#
# number of rings (size 3 to 8) (size 9 to 14) (size 15 to 20)
#    0.000    1.931    0.690    2.276    3.862    2.207 
#    0.000    0.690    0.000    4.138    0.000    0.000 
#    0.000    0.000    0.000    0.000    0.000    0.000 
#
# Total GULP energy -161783.293027 kJ/mol
# GULP energy per Si atom -5578.734242 kJ/mol
# Density = 2.246389 g / cm^3
# Si number density = 22.515132 Si / 1000 Ang^3
#
#
#
# Elastic Constant Matrix: (Units=GPa)
#
#
# Indices 1 2 3 4 5 6 
#
# 1 39.2710 6.1147 18.1086 0.0000 19.5569 0.0000
# 2 6.1147 71.7149 37.7943 0.0000 5.2456 0.0000
# 3 18.1086 37.7943 155.7720 0.0000 22.0698 0.0000
# 4 0.0000 0.0000 0.0000 20.1889 0.0000 -8.5370
# 5 19.5569 5.2456 22.0698 0.0000 25.2153 0.0000
# 6 0.0000 0.0000 0.0000 -8.5370 0.0000 14.5817
#
#
#
# Elastic Compliance Matrix: (Units=1/GPa)
#
#
# Indices 1 2 3 4 5 6 
#
# 1 0.041591 -0.001200 -0.000010 0.000000 -0.032000 0.000000
# 2 -0.001200 0.016023 -0.003890 0.000000 0.001002 0.000000
# 3 -0.000010 -0.003890 0.008275 0.000000 -0.006426 0.000000
# 4 0.000000 0.000000 0.000000 0.065829 0.000000 0.038540
# 5 -0.032000 0.001002 -0.006426 0.000000 0.069893 0.000000
# 6 0.000000 0.000000 0.000000 0.038540 0.000000 0.091143
#
#
# Mechanical properties :
#
#
# Convention : Reuss Voigt Hill
#
# Bulk Modulus (GPa) = 17.95699 43.42146 30.68923
# Shear Modulus (GPa) = 15.55119 25.64653 20.59886
#
# Velocity S-wave (km/s) = 2.63097 3.37869 3.02800
# Velocity P-wave (km/s) = 4.14996 5.87776 5.08774
#
# Compressibility (1/GPa) = 0.05568863
#
# Stress axis : x y z
#
# Youngs Moduli (GPa) = 24.04340 62.40929 120.84513
#
# Poissons Ratio (x) = 0.07491 0.00122
# Poissons Ratio (y) = 0.02886 0.47011
# Poissons Ratio (z) = 0.00024 0.24278
#
# Static dielectric constant tensor:
#      x y z
#    x 1.832450 0.000000 0.032940 
#    y 0.000000 2.000060 0.000000 
#    z 0.032940 0.000000 1.901220 
# 
# From -- ./inp_files/324670.got.cif
#   From: 2010.05.17/outbox.cif.g08.bks.cpg/sg12_163_cif.got.tgz:324670.got - 2010.06.03 13:09:07.
