data_PCOD9192762
_publ_section_title
;
Structure prediction by ZEFSAII (Michael W. Deem and Ramdas Pophale) SiO2 
 PCOD9192762
Probable space group: C 2/M
;
_chemical_formula_sum "Si O2"
_cell_formula_units_Z 64
_cell_length_a 25.856613
_cell_length_b 8.898295
_cell_length_c 19.731624
_cell_angle_alpha 90.000000
_cell_angle_beta 117.699364
_cell_angle_gamma 90.000000
_cell_volume 4019.575477
_symmetry_space_group_name_H-M "C 2/M"
_symmetry_group_IT_number 12
_symmetry_cell_setting 'monoclinic'
loop_
_space_group_symop_operation_xyz
x,y,z
-x,y,-z
-x,-y,-z
x,-y,z
1/2+x,1/2+y,z
1/2-x,1/2+y,-z
1/2-x,1/2-y,-z
1/2+x,1/2-y,z
loop_
_atom_site_type_symbol
_atom_site_label
_atom_site_fract_x
_atom_site_fract_y
_atom_site_fract_z
Si Si1 0.660204 0.819667 0.079505
Si Si2 0.394134 0.318958 0.331277
Si Si3 0.497289 0.319651 0.195948
Si Si4 0.793704 0.180842 0.165023
Si Si5 0.949724 0.180894 0.916434
Si Si6 0.513083 0.178249 0.345431
Si Si7 0.629909 0.819979 0.905431
Si Si8 0.936224 0.173360 0.497443
O O1 0.726739 0.773951 0.135092
O O2 0.611732 0.746646 0.097555
O O3 0.656458 0.000000 0.083577
O O4 0.645741 0.781478 0.992515
O O5 0.404248 0.500000 0.334509
O O6 0.335937 0.284832 0.254068
O O7 0.449347 0.239407 0.329862
O O8 0.393618 0.277902 0.410581
O O9 0.494292 0.500000 0.198664
O O10 0.530966 0.277337 0.147621
O O11 0.525740 0.253125 0.280925
O O12 0.431800 0.254834 0.150684
O O13 0.821462 0.258861 0.116301
O O14 0.795044 0.000000 0.155478
O O15 0.947133 0.000000 0.918224
O O16 0.000000 0.231053 0.000000
O O17 0.557440 0.228791 0.431597
O O18 0.511176 0.000000 0.338448
O O19 0.625354 0.000000 0.896733
O O20 0.000000 0.176884 0.500000
O O21 0.924444 0.000000 0.508628
#
# Coordination Sequence:
#
# PCOD9192762 Si02
#       8
#     8   8   8   8   8   8   8   8
#     4  10  22  36  51  73 101 132 168 208 252 294
#     4   9  17  30  48  68  97 135 169 196 233 291
#     4  11  21  34  52  71  96 131 168 206 249 300
#     4  10  20  34  51  72 101 139 171 198 240 295
#     4  10  21  37  55  73  92 125 172 212 252 297
#     4  11  20  29  45  72 102 127 160 202 248 296
#     4  11  21  32  48  74 102 131 167 207 248 288
#     4   8  15  28  45  66  94 131 166 194 234 291
#
# _framework density 15.922079
#
# number of rings (size 3 to 8) (size 9 to 14) (size 15 to 20)
#    0.000    2.000    2.500    3.000    0.000    4.500 
#    0.000    0.000    0.000    0.000    0.000    0.875 
#    0.000    0.000    0.000    0.000    0.000    0.000 
#
# Total GULP energy -178537.180225 kJ/mol
# GULP energy per Si atom -5579.286882 kJ/mol
# Density = 1.588584 g / cm^3
# Si number density = 15.922079 Si / 1000 Ang^3
#
#
#
# Elastic Constant Matrix: (Units=GPa)
#
#
# Indices 1 2 3 4 5 6 
#
# 1 94.3640 29.4944 47.9387 0.0000 -15.4647 0.0000
# 2 29.4944 40.1496 46.7190 0.0000 -7.3225 0.0000
# 3 47.9387 46.7190 124.1086 0.0000 -17.3821 0.0000
# 4 0.0000 0.0000 0.0000 16.1097 0.0000 -1.9778
# 5 -15.4647 -7.3225 -17.3821 0.0000 13.1012 0.0000
# 6 0.0000 0.0000 0.0000 -1.9778 0.0000 23.0403
#
#
#
# Elastic Compliance Matrix: (Units=1/GPa)
#
#
# Indices 1 2 3 4 5 6 
#
# 1 0.015754 -0.007566 -0.001504 0.000000 0.012371 0.000000
# 2 -0.007566 0.048067 -0.015549 0.000000 -0.002696 0.000000
# 3 -0.001504 -0.015549 0.015999 0.000000 0.010760 0.000000
# 4 0.000000 0.000000 0.000000 0.062736 0.000000 0.005385
# 5 0.012371 -0.002696 0.010760 0.000000 0.103701 0.000000
# 6 0.000000 0.000000 0.000000 0.005385 0.000000 0.043865
#
#
# Mechanical properties :
#
#
# Convention : Reuss Voigt Hill
#
# Bulk Modulus (GPa) = 32.70106 56.32516 44.51311
# Shear Modulus (GPa) = 14.30397 19.41490 16.85944
#
# Velocity S-wave (km/s) = 3.00054 3.49574 3.25756
# Velocity P-wave (km/s) = 5.70851 7.19346 6.49357
#
# Compressibility (1/GPa) = 0.03058005
#
# Stress axis : x y z
#
# Youngs Moduli (GPa) = 63.47679 20.80440 62.50489
#
# Poissons Ratio (x) = 0.15741 0.09402
# Poissons Ratio (y) = 0.48029 0.97189
# Poissons Ratio (z) = 0.09548 0.32349
#
# Static dielectric constant tensor:
#      x y z
#    x 1.496410 0.000000 0.009810 
#    y 0.000000 1.531700 0.000000 
#    z 0.009810 0.000000 1.558920 
# 
# From -- ./inp_files/287763.got.cif
#   From: 2010.05.17/outbox.cif.g08.bks.cpg/sg12_144_cif.got.tgz:287763.got - 2010.06.03 13:09:07.
