data_PCOD9192856
_publ_section_title
;
Structure prediction by ZEFSAII (Michael W. Deem and Ramdas Pophale) SiO2 
 PCOD9192856
Probable space group: C 2/M
;
_chemical_formula_sum "Si O2"
_cell_formula_units_Z 48
_cell_length_a 22.708879
_cell_length_b 13.763892
_cell_length_c 8.114785
_cell_angle_alpha 90.000000
_cell_angle_beta 80.490971
_cell_angle_gamma 90.000000
_cell_volume 2501.527059
_symmetry_space_group_name_H-M "C 2/M"
_symmetry_group_IT_number 12
_symmetry_cell_setting 'monoclinic'
loop_
_space_group_symop_operation_xyz
x,y,z
-x,y,-z
-x,-y,-z
x,-y,z
1/2+x,1/2+y,z
1/2-x,1/2+y,-z
1/2-x,1/2-y,-z
1/2+x,1/2-y,z
loop_
_atom_site_type_symbol
_atom_site_label
_atom_site_fract_x
_atom_site_fract_y
_atom_site_fract_z
Si Si1 0.127918 0.111919 0.561411
Si Si2 0.747821 0.885278 0.859816
Si Si3 0.232351 0.614686 0.495230
Si Si4 0.825862 0.299860 0.804390
Si Si5 0.552695 0.759842 0.368960
Si Si6 0.481083 0.394707 0.195192
O O1 0.196925 0.134686 0.552603
O O2 0.093113 0.188263 0.463924
O O3 0.089840 0.114914 0.747009
O O4 0.125102 0.000000 0.499583
O O5 0.717709 0.864560 0.694252
O O6 0.804519 0.812191 0.842451
O O7 0.763430 0.000000 0.854915
O O8 0.705343 0.858879 0.032877
O O9 0.222841 0.500000 0.475324
O O10 0.199625 0.667834 0.361730
O O11 0.896932 0.315297 0.757926
O O12 0.500000 0.811155 0.500000
O O13 0.515463 0.689620 0.269479
O O14 0.497150 0.500000 0.263260
O O15 0.500000 0.395026 0.000000
#
# Coordination Sequence:
#
# PCOD9192856 Si02
#       6
#     8   8   8   8   8   8
#     4   9  17  31  51  76 111 147 181 225 283 349
#     4  10  22  37  56  86 117 149 188 237 293 342
#     4  10  20  37  60  86 117 151 186 237 295 346
#     4  11  22  37  59  87 119 152 194 237 286 347
#     4  10  20  34  51  77 110 151 191 227 279 333
#     4   9  18  31  48  75 110 149 188 225 275 345
#
# _framework density 19.188279999999999
#
# number of rings (size 3 to 8) (size 9 to 14) (size 15 to 20)
#    0.000    2.167    1.667    1.500    0.000    5.333 
#    3.000    1.667    0.000    2.000    0.000    2.333 
#    0.000    0.000    0.000    0.000    0.000    0.000 
#
# Total GULP energy -133737.598555 kJ/mol
# GULP energy per Si atom -5572.399940 kJ/mol
# Density = 1.914461 g / cm^3
# Si number density = 19.188280 Si / 1000 Ang^3
#
#
#
# Elastic Constant Matrix: (Units=GPa)
#
#
# Indices 1 2 3 4 5 6 
#
# 1 73.6666 9.8176 36.6785 0.0000 -18.9612 0.0000
# 2 9.8176 62.1008 26.0243 0.0000 0.3853 0.0000
# 3 36.6785 26.0243 119.4324 0.0000 -22.8079 0.0000
# 4 0.0000 0.0000 0.0000 24.7226 0.0000 2.2971
# 5 -18.9612 0.3853 -22.8079 0.0000 27.9754 0.0000
# 6 0.0000 0.0000 0.0000 2.2971 0.0000 20.6632
#
#
#
# Elastic Compliance Matrix: (Units=1/GPa)
#
#
# Indices 1 2 3 4 5 6 
#
# 1 0.017864 -0.001468 -0.003376 0.000000 0.009376 0.000000
# 2 -0.001468 0.018231 -0.004453 0.000000 -0.004876 0.000000
# 3 -0.003376 -0.004453 0.011791 0.000000 0.007386 0.000000
# 4 0.000000 0.000000 0.000000 0.040871 0.000000 -0.004544
# 5 0.009376 -0.004876 0.007386 0.000000 0.048189 0.000000
# 6 0.000000 0.000000 0.000000 -0.004544 0.000000 0.048900
#
#
# Mechanical properties :
#
#
# Convention : Reuss Voigt Hill
#
# Bulk Modulus (GPa) = 34.13805 44.47120 39.30463
# Shear Modulus (GPa) = 23.34217 26.85087 25.09652
#
# Velocity S-wave (km/s) = 3.49159 3.74483 3.62043
# Velocity P-wave (km/s) = 5.83821 6.47494 6.16480
#
# Compressibility (1/GPa) = 0.02929283
#
# Stress axis : x y z
#
# Youngs Moduli (GPa) = 55.97696 54.85077 84.81397
#
# Poissons Ratio (x) = 0.08050 0.28633
# Poissons Ratio (y) = 0.08215 0.37769
# Poissons Ratio (z) = 0.18898 0.24426
#
# Static dielectric constant tensor:
#      x y z
#    x 1.651500 0.000000 -0.036410 
#    y 0.000000 1.716550 0.000000 
#    z -0.036410 0.000000 1.720930 
# 
# From -- ./inp_files/85704.got.cif
#   From: 2010.05.17/outbox.cif.g08.bks.cpg/sg12_43_cif.got.tgz:85704.got - 2010.06.03 13:09:07.
