data_PCOD9192022
_publ_section_title
;
Structure prediction by ZEFSAII (Michael W. Deem and Ramdas Pophale) SiO2 
 PCOD9192022
Probable space group: C 2/M
;
_chemical_formula_sum "Si O2"
_cell_formula_units_Z 64
_cell_length_a 34.604061
_cell_length_b 8.392236
_cell_length_c 19.651947
_cell_angle_alpha 90.000000
_cell_angle_beta 145.909786
_cell_angle_gamma 90.000000
_cell_volume 3198.777733
_symmetry_space_group_name_H-M "C 2/M"
_symmetry_group_IT_number 12
_symmetry_cell_setting 'monoclinic'
loop_
_space_group_symop_operation_xyz
x,y,z
-x,y,-z
-x,-y,-z
x,-y,z
1/2+x,1/2+y,z
1/2-x,1/2+y,-z
1/2-x,1/2-y,-z
1/2+x,1/2-y,z
loop_
_atom_site_type_symbol
_atom_site_label
_atom_site_fract_x
_atom_site_fract_y
_atom_site_fract_z
Si Si1 0.780671 0.310742 0.651328
Si Si2 0.517423 0.187971 0.263194
Si Si3 0.735527 0.689466 0.224742
Si Si4 0.006186 0.686266 0.402184
Si Si5 0.645236 0.314229 0.820633
Si Si6 0.138631 0.192946 0.959986
Si Si7 0.862305 0.189899 0.335678
Si Si8 0.646535 0.310675 0.371283
O O1 0.777714 0.500000 0.656303
O O2 0.790943 0.231498 0.739179
O O3 0.707804 0.256318 0.511727
O O4 0.837853 0.267942 0.678618
O O5 0.536390 0.210906 0.370363
O O6 0.440005 0.253508 0.143620
O O7 0.573309 0.268999 0.296660
O O8 0.517040 0.000000 0.249025
O O9 0.743970 0.500000 0.231315
O O10 0.808689 0.770232 0.316508
O O11 0.684686 0.745052 0.090456
O O12 0.986469 0.500000 0.379722
O O13 0.064847 0.730615 0.541063
O O14 0.937793 0.792937 0.305761
O O15 0.664349 0.500000 0.850070
O O16 0.663210 0.245234 0.921119
O O17 0.668373 0.247754 0.781285
O O18 0.139553 0.000000 0.958438
O O19 0.871932 0.000000 0.344844
O O20 0.653312 0.500000 0.373330
#
# Coordination Sequence:
#
# PCOD9192022 Si02
#       8
#     8   8   8   8   8   8   8   8
#     4  10  21  37  58  84 114 145 174 212 263 315
#     4  10  20  34  55  82 109 140 179 221 265 315
#     4  11  23  38  56  78 106 141 181 224 268 316
#     4  10  20  33  52  80 112 142 175 220 271 321
#     4   9  19  36  55  76 105 141 181 223 269 321
#     4   9  20  39  58  75 102 142 183 224 270 316
#     4  11  22  34  52  78 107 142 181 222 270 323
#     4  10  20  35  58  86 114 143 174 211 259 316
#
# _framework density 20.007639999999999
#
# number of rings (size 3 to 8) (size 9 to 14) (size 15 to 20)
#    0.000    2.000    0.000    3.375    0.000    9.000 
#    0.000    0.625    0.000    3.750    0.000    0.000 
#    0.000    0.000    0.000    0.000    0.000    0.000 
#
# Total GULP energy -178711.379399 kJ/mol
# GULP energy per Si atom -5584.730606 kJ/mol
# Density = 1.996210 g / cm^3
# Si number density = 20.007640 Si / 1000 Ang^3
#
#
#
# Elastic Constant Matrix: (Units=GPa)
#
#
# Indices 1 2 3 4 5 6 
#
# 1 65.5101 -0.1666 8.3987 0.0000 -18.6620 0.0000
# 2 -0.1666 23.0436 2.8726 0.0000 -6.4557 0.0000
# 3 8.3987 2.8726 67.1029 0.0000 -24.5743 0.0000
# 4 0.0000 0.0000 0.0000 20.5506 0.0000 -2.7002
# 5 -18.6620 -6.4557 -24.5743 0.0000 28.5382 0.0000
# 6 0.0000 0.0000 0.0000 -2.7002 0.0000 26.7235
#
#
#
# Elastic Compliance Matrix: (Units=1/GPa)
#
#
# Indices 1 2 3 4 5 6 
#
# 1 0.019633 0.004432 0.003537 0.000000 0.016888 0.000000
# 2 0.004432 0.047672 0.003528 0.000000 0.016720 0.000000
# 3 0.003537 0.003528 0.022564 0.000000 0.022541 0.000000
# 4 0.000000 0.000000 0.000000 0.049315 0.000000 0.004983
# 5 0.016888 0.016720 0.022541 0.000000 0.069276 0.000000
# 6 0.000000 0.000000 0.000000 0.004983 0.000000 0.037924
#
#
# Mechanical properties :
#
#
# Convention : Reuss Voigt Hill
#
# Bulk Modulus (GPa) = 8.86024 19.76289 14.31157
# Shear Modulus (GPa) = 19.15623 24.79924 21.97774
#
# Velocity S-wave (km/s) = 3.09762 3.52446 3.31791
# Velocity P-wave (km/s) = 4.15111 5.14407 4.67404
#
# Compressibility (1/GPa) = 0.11286376
#
# Stress axis : x y z
#
# Youngs Moduli (GPa) = 50.93367 20.97646 44.31919
#
# Poissons Ratio (x) = -0.09297 -0.15678
# Poissons Ratio (y) = -0.22574 -0.15634
# Poissons Ratio (z) = -0.18018 -0.07400
#
# Static dielectric constant tensor:
#      x y z
#    x 1.703520 0.000000 -0.029640 
#    y 0.000000 1.686830 0.000000 
#    z -0.029640 0.000000 1.704520 
# 
# From -- ./inp_files/295719.got.cif
#   From: 2010.05.17/outbox.cif.g08.bks.cpg/sg12_148_cif.got.tgz:295719.got - 2010.06.03 13:09:07.
