data_PCOD9192389
_publ_section_title
;
Structure prediction by ZEFSAII (Michael W. Deem and Ramdas Pophale) SiO2 
 PCOD9192389
Probable space group: C 2/M
;
_chemical_formula_sum "Si O2"
_cell_formula_units_Z 56
_cell_length_a 19.942075
_cell_length_b 8.907349
_cell_length_c 17.394953
_cell_angle_alpha 90.000000
_cell_angle_beta 83.393489
_cell_angle_gamma 90.000000
_cell_volume 3069.365517
_symmetry_space_group_name_H-M "C 2/M"
_symmetry_group_IT_number 12
_symmetry_cell_setting 'monoclinic'
loop_
_space_group_symop_operation_xyz
x,y,z
-x,y,-z
-x,-y,-z
x,-y,z
1/2+x,1/2+y,z
1/2-x,1/2+y,-z
1/2-x,1/2-y,-z
1/2+x,1/2-y,z
loop_
_atom_site_type_symbol
_atom_site_label
_atom_site_fract_x
_atom_site_fract_y
_atom_site_fract_z
Si Si1 0.470306 0.681027 0.324569
Si Si2 0.921942 0.672387 0.481808
Si Si3 0.193667 0.679357 0.063113
Si Si4 0.383008 0.317481 0.194027
Si Si5 0.229842 0.318974 0.233440
Si Si6 0.079613 0.820579 0.982602
Si Si7 0.879955 0.179787 0.640796
O O1 0.467661 0.500000 0.328529
O O2 0.425000 0.746165 0.399543
O O3 0.439784 0.730842 0.247182
O O4 0.548179 0.724733 0.329355
O O5 0.900326 0.500000 0.477408
O O6 0.881406 0.755978 0.554152
O O7 0.000000 0.673872 0.500000
O O8 0.198024 0.500000 0.057208
O O9 0.207166 0.721287 0.149743
O O10 0.250000 0.750000 0.000000
O O11 0.122249 0.737954 0.041942
O O12 0.384674 0.500000 0.191866
O O13 0.308200 0.273965 0.230767
O O14 0.396189 0.268925 0.104974
O O15 0.225752 0.500000 0.241243
O O16 0.180994 0.244262 0.301472
O O17 0.092272 0.000000 0.987253
O O18 0.000000 0.796246 0.000000
O O19 0.877660 0.000000 0.638735
#
# Coordination Sequence:
#
# PCOD9192389 Si02
#       7
#     8   8   8   8   8   8   8
#     4   9  18  33  56  81 107 139 178 225 270 315
#     4   9  17  32  54  79 110 143 175 214 268 325
#     4  11  22  38  59  81 111 149 191 233 278 332
#     4   9  18  36  55  77 109 145 180 221 275 324
#     4  10  21  37  55  76 109 147 181 221 272 328
#     4  10  21  37  60  84 112 148 189 232 280 337
#     4  10  20  33  55  85 110 135 179 227 266 319
#
# _framework density 18.244813000000001
#
# number of rings (size 3 to 8) (size 9 to 14) (size 15 to 20)
#    0.000    2.286    1.429    1.286    2.000    3.714 
#    0.000    2.143    0.000    0.000    0.000    0.000 
#    0.000    0.000    0.000    0.000    0.000    0.000 
#
# Total GULP energy -156245.834383 kJ/mol
# GULP energy per Si atom -5580.208371 kJ/mol
# Density = 1.820329 g / cm^3
# Si number density = 18.244813 Si / 1000 Ang^3
#
#
#
# Elastic Constant Matrix: (Units=GPa)
#
#
# Indices 1 2 3 4 5 6 
#
# 1 46.9900 10.2929 5.7380 0.0000 -11.7088 0.0000
# 2 10.2929 20.0642 5.3264 0.0000 -10.3892 0.0000
# 3 5.7380 5.3264 40.8063 0.0000 -21.8971 0.0000
# 4 0.0000 0.0000 0.0000 29.6652 0.0000 -3.3238
# 5 -11.7088 -10.3892 -21.8971 0.0000 35.5737 0.0000
# 6 0.0000 0.0000 0.0000 -3.3238 0.0000 17.1647
#
#
#
# Elastic Compliance Matrix: (Units=1/GPa)
#
#
# Indices 1 2 3 4 5 6 
#
# 1 0.024800 -0.009950 0.000944 0.000000 0.005838 0.000000
# 2 -0.009950 0.062856 0.001923 0.000000 0.016265 0.000000
# 3 0.000944 0.001923 0.036719 0.000000 0.023474 0.000000
# 4 0.000000 0.000000 0.000000 0.034457 0.000000 0.006672
# 5 0.005838 0.016265 0.023474 0.000000 0.049232 0.000000
# 6 0.000000 0.000000 0.000000 0.006672 0.000000 0.059551
#
#
# Mechanical properties :
#
#
# Convention : Reuss Voigt Hill
#
# Bulk Modulus (GPa) = 9.07371 16.73060 12.90215
# Shear Modulus (GPa) = 15.69774 22.24761 18.97267
#
# Velocity S-wave (km/s) = 2.93643 3.49577 3.22824
# Velocity P-wave (km/s) = 4.05967 5.04815 4.58065
#
# Compressibility (1/GPa) = 0.11020849
#
# Stress axis : x y z
#
# Youngs Moduli (GPa) = 40.32249 15.90935 27.23409
#
# Poissons Ratio (x) = 0.15830 -0.02572
# Poissons Ratio (y) = 0.40122 -0.05236
# Poissons Ratio (z) = -0.03807 -0.03059
#
# Static dielectric constant tensor:
#      x y z
#    x 1.623770 0.000000 0.008490 
#    y 0.000000 1.619540 0.000000 
#    z 0.008490 0.000000 1.606230 
# 
# From -- ./inp_files/280239.got.cif
#   From: 2010.05.17/outbox.cif.g08.bks.cpg/sg12_141_cif.got.tgz:280239.got - 2010.06.03 13:09:07.
