data_PCOD9192382
_publ_section_title
;
Structure prediction by ZEFSAII (Michael W. Deem and Ramdas Pophale) SiO2 
 PCOD9192382
Probable space group: C 2/M
;
_chemical_formula_sum "Si O2"
_cell_formula_units_Z 64
_cell_length_a 29.818643
_cell_length_b 9.290985
_cell_length_c 13.016953
_cell_angle_alpha 90.000000
_cell_angle_beta 78.423208
_cell_angle_gamma 90.000000
_cell_volume 3532.912224
_symmetry_space_group_name_H-M "C 2/M"
_symmetry_group_IT_number 12
_symmetry_cell_setting 'monoclinic'
loop_
_space_group_symop_operation_xyz
x,y,z
-x,y,-z
-x,-y,-z
x,-y,z
1/2+x,1/2+y,z
1/2-x,1/2+y,-z
1/2-x,1/2-y,-z
1/2+x,1/2-y,z
loop_
_atom_site_type_symbol
_atom_site_label
_atom_site_fract_x
_atom_site_fract_y
_atom_site_fract_z
Si Si1 0.709135 0.169513 0.962413
Si Si2 0.202792 0.830451 0.539138
Si Si3 0.926687 0.167357 0.092524
Si Si4 0.893322 0.824541 0.494165
Si Si5 0.566698 0.673473 0.302651
Si Si6 0.536151 0.325544 0.712555
Si Si7 0.678745 0.662478 0.788150
Si Si8 0.893809 0.671532 0.912104
O O1 0.704418 0.225715 0.848438
O O2 0.716847 0.000000 0.961908
O O3 0.750000 0.250000 0.000000
O O4 0.659522 0.200028 0.036153
O O5 0.250000 0.750000 0.500000
O O6 0.159210 0.777245 0.493635
O O7 0.187996 0.815795 0.664560
O O8 0.209171 0.000000 0.514986
O O9 0.957885 0.222545 0.172106
O O10 0.875341 0.170204 0.163662
O O11 0.937890 0.000000 0.063158
O O12 0.923860 0.259106 0.990263
O O13 0.915567 0.785222 0.592608
O O14 0.924280 0.775231 0.383654
O O15 0.893032 0.000000 0.489404
O O16 0.571777 0.500000 0.289791
O O17 0.513189 0.708061 0.311526
O O18 0.593610 0.753209 0.200138
O O19 0.540083 0.500000 0.715832
O O20 0.693559 0.500000 0.809293
O O21 0.900453 0.500000 0.905080
#
# Coordination Sequence:
#
# PCOD9192382 Si02
#       8
#     8   8   8   8   8   8   8   8
#     4  10  21  36  56  79 102 136 180 224 270 323
#     4  10  20  34  53  79 109 141 178 220 273 324
#     4   9  16  31  57  80 101 135 180 226 266 310
#     4   9  17  33  55  80 110 141 177 225 274 316
#     4  10  20  33  55  84 111 142 181 222 266 322
#     4   9  16  30  56  86 108 134 179 230 273 313
#     4   9  17  32  53  75 103 139 176 219 268 317
#     4  10  22  38  52  73 111 147 176 217 272 325
#
# _framework density 18.115366999999999
#
# number of rings (size 3 to 8) (size 9 to 14) (size 15 to 20)
#    0.000    2.500    1.250    1.125    0.000    5.000 
#    0.000    6.250    0.000    3.000    0.000    0.000 
#    0.000    0.000    0.000    0.000    0.000    0.000 
#
# Total GULP energy -178493.729352 kJ/mol
# GULP energy per Si atom -5577.929042 kJ/mol
# Density = 1.807414 g / cm^3
# Si number density = 18.115367 Si / 1000 Ang^3
#
#
#
# Elastic Constant Matrix: (Units=GPa)
#
#
# Indices 1 2 3 4 5 6 
#
# 1 97.5746 41.8312 37.4977 0.0000 28.4920 0.0000
# 2 41.8312 31.8325 33.4773 0.0000 5.8312 0.0000
# 3 37.4977 33.4773 67.6008 0.0000 18.9989 0.0000
# 4 0.0000 0.0000 0.0000 17.1769 0.0000 -4.9501
# 5 28.4920 5.8312 18.9989 0.0000 30.9416 0.0000
# 6 0.0000 0.0000 0.0000 -4.9501 0.0000 18.2409
#
#
#
# Elastic Compliance Matrix: (Units=1/GPa)
#
#
# Indices 1 2 3 4 5 6 
#
# 1 0.052157 -0.091100 0.030041 0.000000 -0.049305 0.000000
# 2 -0.091100 0.226901 -0.088698 0.000000 0.095590 0.000000
# 3 0.030041 -0.088698 0.054544 0.000000 -0.044438 0.000000
# 4 0.000000 0.000000 0.000000 0.063157 0.000000 0.017139
# 5 -0.049305 0.095590 -0.044438 0.000000 0.086991 0.000000
# 6 0.000000 0.000000 0.000000 0.017139 0.000000 0.059473
#
#
# Mechanical properties :
#
#
# Convention : Reuss Voigt Hill
#
# Bulk Modulus (GPa) = 29.33839 46.95781 38.14810
# Shear Modulus (GPa) = 5.85412 18.88533 12.36972
#
# Velocity S-wave (km/s) = 1.79961 3.23228 2.61594
# Velocity P-wave (km/s) = 4.53306 6.31728 5.49803
#
# Compressibility (1/GPa) = 0.03408503
#
# Stress axis : x y z
#
# Youngs Moduli (GPa) = 19.17301 4.40722 18.33397
#
# Poissons Ratio (x) = 0.40150 -0.55077
# Poissons Ratio (y) = 1.74667 1.62619
# Poissons Ratio (z) = -0.57597 0.39091
#
# Static dielectric constant tensor:
#      x y z
#    x 1.627230 0.000000 0.006190 
#    y 0.000000 1.605910 0.000000 
#    z 0.006190 0.000000 1.611020 
# 
# From -- ./inp_files/187583.got.cif
#   From: 2010.05.17/outbox.cif.g08.bks.cpg/sg12_94_cif.got.tgz:187583.got - 2010.06.03 13:09:07.
