data_PCOD9192990
_publ_section_title
;
Structure prediction by ZEFSAII (Michael W. Deem and Ramdas Pophale) SiO2 
 PCOD9192990
Probable space group: C 2/M
;
_chemical_formula_sum "Si O2"
_cell_formula_units_Z 56
_cell_length_a 26.366675
_cell_length_b 7.705372
_cell_length_c 13.928426
_cell_angle_alpha 90.000000
_cell_angle_beta 61.205135
_cell_angle_gamma 90.000000
_cell_volume 2479.867835
_symmetry_space_group_name_H-M "C 2/M"
_symmetry_group_IT_number 12
_symmetry_cell_setting 'monoclinic'
loop_
_space_group_symop_operation_xyz
x,y,z
-x,y,-z
-x,-y,-z
x,-y,z
1/2+x,1/2+y,z
1/2-x,1/2+y,-z
1/2-x,1/2-y,-z
1/2+x,1/2-y,z
loop_
_atom_site_type_symbol
_atom_site_label
_atom_site_fract_x
_atom_site_fract_y
_atom_site_fract_z
Si Si1 0.103498 0.706048 0.628075
Si Si2 0.195331 0.708030 0.941731
Si Si3 0.169581 0.285742 0.377456
Si Si4 0.783142 0.205890 0.370853
Si Si5 0.172850 0.698248 0.169357
Si Si6 0.412960 0.303800 0.070454
Si Si7 0.004489 0.696578 0.842465
O O1 0.095804 0.500000 0.624056
O O2 0.130198 0.771281 0.503305
O O3 0.152477 0.729888 0.665746
O O4 0.041695 0.774146 0.721019
O O5 0.203933 0.500000 0.940660
O O6 0.257479 0.796994 0.879302
O O7 0.151605 0.748154 0.895991
O O8 0.166364 0.771728 0.068559
O O9 0.170065 0.500000 0.377294
O O10 0.236047 0.227680 0.337017
O O11 0.149689 0.225849 0.290379
O O12 0.750000 0.250000 0.500000
O O13 0.787262 0.000000 0.354519
O O14 0.152095 0.500000 0.183549
O O15 0.413525 0.500000 0.105917
O O16 0.448115 0.192254 0.114810
O O17 0.450691 0.293294 0.938340
O O18 0.985696 0.500000 0.837503
#
# Coordination Sequence:
#
# PCOD9192990 Si02
#       7
#     8   8   8   8   8   8   8
#     4   9  18  31  48  71 100 130 160 199 248 300
#     4  10  20  34  52  75 102 132 168 212 256 293
#     4   8  15  29  47  70  98 130 163 198 240 292
#     4   9  16  26  41  63  95 131 166 198 233 283
#     4   9  18  33  53  76 102 133 169 206 249 300
#     4  11  22  36  54  74  99 133 171 207 250 301
#     4  10  20  35  54  78 104 128 163 208 255 302
#
# _framework density 22.581848000000001
#
# number of rings (size 3 to 8) (size 9 to 14) (size 15 to 20)
#    0.000    2.571    0.000    4.286    2.000    1.714 
#    0.000    2.857    0.000    0.857    0.000    6.000 
#    0.000    0.000    0.000    0.000    0.000    0.000 
#
# Total GULP energy -156162.313965 kJ/mol
# GULP energy per Si atom -5577.225499 kJ/mol
# Density = 2.253045 g / cm^3
# Si number density = 22.581848 Si / 1000 Ang^3
#
#
#
# Elastic Constant Matrix: (Units=GPa)
#
#
# Indices 1 2 3 4 5 6 
#
# 1 37.7637 -6.3231 -3.7126 0.0000 2.1726 0.0000
# 2 -6.3231 59.8908 -3.6271 0.0000 -3.7293 0.0000
# 3 -3.7126 -3.6271 108.2410 0.0000 -0.0350 0.0000
# 4 0.0000 0.0000 0.0000 11.4833 0.0000 -6.0758
# 5 2.1726 -3.7293 -0.0350 0.0000 38.2103 0.0000
# 6 0.0000 0.0000 0.0000 -6.0758 0.0000 10.0049
#
#
#
# Elastic Compliance Matrix: (Units=1/GPa)
#
#
# Indices 1 2 3 4 5 6 
#
# 1 0.027131 0.002848 0.001026 0.000000 -0.001264 0.000000
# 2 0.002848 0.017133 0.000672 0.000000 0.001511 0.000000
# 3 0.001026 0.000672 0.009296 0.000000 0.000016 0.000000
# 4 0.000000 0.000000 0.000000 0.128312 0.000000 0.077922
# 5 -0.001264 0.001511 0.000016 0.000000 0.026390 0.000000
# 6 0.000000 0.000000 0.000000 0.077922 0.000000 0.147272
#
#
# Mechanical properties :
#
#
# Convention : Reuss Voigt Hill
#
# Bulk Modulus (GPa) = 15.96142 19.84109 17.90126
# Shear Modulus (GPa) = 13.61191 26.57692 20.09441
#
# Velocity S-wave (km/s) = 2.45782 3.43434 2.98627
# Velocity P-wave (km/s) = 3.89077 4.95294 4.45364
#
# Compressibility (1/GPa) = 0.06265106
#
# Stress axis : x y z
#
# Youngs Moduli (GPa) = 36.85847 58.36857 107.56904
#
# Poissons Ratio (x) = -0.16622 -0.11032
# Poissons Ratio (y) = -0.10497 -0.07232
# Poissons Ratio (z) = -0.03780 -0.03924
#
# Static dielectric constant tensor:
#      x y z
#    x 1.805350 0.000000 0.015360 
#    y 0.000000 1.816720 0.000000 
#    z 0.015360 0.000000 1.931850 
# 
# From -- ./inp_files/243632.got.cif
#   From: 2010.05.17/outbox.cif.g08.bks.cpg/sg12_122_cif.got.tgz:243632.got - 2010.06.03 13:09:07.
