data_PCOD9192297
_publ_section_title
;
Structure prediction by ZEFSAII (Michael W. Deem and Ramdas Pophale) SiO2 
 PCOD9192297
Probable space group: C 2/M
;
_chemical_formula_sum "Si O2"
_cell_formula_units_Z 64
_cell_length_a 20.033214
_cell_length_b 26.566785
_cell_length_c 14.405682
_cell_angle_alpha 90.000000
_cell_angle_beta 153.535494
_cell_angle_gamma 90.000000
_cell_volume 3416.731590
_symmetry_space_group_name_H-M "C 2/M"
_symmetry_group_IT_number 12
_symmetry_cell_setting 'monoclinic'
loop_
_space_group_symop_operation_xyz
x,y,z
-x,y,-z
-x,-y,-z
x,-y,z
1/2+x,1/2+y,z
1/2-x,1/2+y,-z
1/2-x,1/2-y,-z
1/2+x,1/2-y,z
loop_
_atom_site_type_symbol
_atom_site_label
_atom_site_fract_x
_atom_site_fract_y
_atom_site_fract_z
Si Si1 0.846840 0.440307 0.857893
Si Si2 0.822491 0.324516 0.525227
Si Si3 0.481949 0.559908 0.588014
Si Si4 0.171314 0.664858 0.681954
Si Si5 0.588427 0.289610 0.376836
Si Si6 0.172340 0.215198 0.684914
Si Si7 0.615499 0.138224 0.946533
Si Si8 0.827632 0.136102 0.050160
O O1 0.854157 0.500000 0.881178
O O2 0.694089 0.430317 0.612012
O O3 0.835667 0.412302 0.941514
O O4 0.000000 0.423484 0.000000
O O5 0.804167 0.342834 0.397156
O O6 0.670419 0.314671 0.391406
O O7 0.907360 0.270369 0.628199
O O8 0.937467 0.358345 0.725285
O O9 0.500000 0.572747 0.500000
O O10 0.512712 0.500000 0.634744
O O11 0.579476 0.592686 0.780751
O O12 0.195876 0.725104 0.728159
O O13 0.000000 0.654785 0.500000
O O14 0.283555 0.633812 0.887514
O O15 0.680028 0.298244 0.585693
O O16 0.426300 0.313656 0.186231
O O17 0.000000 0.203869 0.500000
O O18 0.294856 0.182714 0.890530
O O19 0.672840 0.140250 0.913018
#
# Coordination Sequence:
#
# PCOD9192297 Si02
#       8
#     8   8   8   8   8   8   8   8
#     4  10  23  40  59  86 121 152 182 234 307 370
#     4  10  23  39  53  79 119 157 198 247 284 339
#     4  10  21  39  60  88 121 146 182 242 304 359
#     4  10  21  38  54  78 114 158 203 243 279 334
#     4  10  22  37  55  82 116 153 198 243 294 342
#     4  10  20  33  54  83 117 149 193 242 288 346
#     4  12  22  32  57  85 113 150 191 235 289 353
#     4  12  22  34  61  84 111 153 197 234 290 353
#
# _framework density 18.731349999999999
#
# number of rings (size 3 to 8) (size 9 to 14) (size 15 to 20)
#    0.000    1.500    3.750    1.500    3.500    1.500 
#    0.000    3.750    0.000    1.125    0.000    0.875 
#    0.000    0.000    0.000    0.000    0.000    0.000 
#
# Total GULP energy -178598.913534 kJ/mol
# GULP energy per Si atom -5581.216048 kJ/mol
# Density = 1.868872 g / cm^3
# Si number density = 18.731350 Si / 1000 Ang^3
#
#
#
# Elastic Constant Matrix: (Units=GPa)
#
#
# Indices 1 2 3 4 5 6 
#
# 1 78.9704 14.4151 28.9699 0.0000 -14.5309 0.0000
# 2 14.4151 28.7147 25.3765 0.0000 -6.3011 0.0000
# 3 28.9699 25.3765 95.7907 0.0000 -22.9163 0.0000
# 4 0.0000 0.0000 0.0000 23.0255 0.0000 1.6869
# 5 -14.5309 -6.3011 -22.9163 0.0000 30.5923 0.0000
# 6 0.0000 0.0000 0.0000 1.6869 0.0000 17.2824
#
#
#
# Elastic Compliance Matrix: (Units=1/GPa)
#
#
# Indices 1 2 3 4 5 6 
#
# 1 0.015178 -0.004604 -0.002282 0.000000 0.004552 0.000000
# 2 -0.004604 0.046872 -0.011255 0.000000 -0.000964 0.000000
# 3 -0.002282 -0.011255 0.016201 0.000000 0.008734 0.000000
# 4 0.000000 0.000000 0.000000 0.043743 0.000000 -0.004270
# 5 0.004552 -0.000964 0.008734 0.000000 0.041194 0.000000
# 6 0.000000 0.000000 0.000000 -0.004270 0.000000 0.058279
#
#
# Mechanical properties :
#
#
# Convention : Reuss Voigt Hill
#
# Bulk Modulus (GPa) = 23.82756 37.88876 30.85816
# Shear Modulus (GPa) = 18.40003 23.16097 20.78050
#
# Velocity S-wave (km/s) = 3.13759 3.52018 3.33437
# Velocity P-wave (km/s) = 5.08667 6.06577 5.59767
#
# Compressibility (1/GPa) = 0.04196820
#
# Stress axis : x y z
#
# Youngs Moduli (GPa) = 65.88488 21.33460 61.72630
#
# Poissons Ratio (x) = 0.09823 0.14083
# Poissons Ratio (y) = 0.30336 0.69475
# Poissons Ratio (z) = 0.15032 0.24013
#
# Static dielectric constant tensor:
#      x y z
#    x 1.679770 0.000000 0.007310 
#    y 0.000000 1.650500 0.000000 
#    z 0.007310 0.000000 1.648810 
# 
# From -- ./inp_files/161245.got.cif
#   From: 2010.05.17/outbox.cif.g08.bks.cpg/sg12_81_cif.got.tgz:161245.got - 2010.06.03 13:09:07.
