data_PCOD9192354
_publ_section_title
;
Structure prediction by ZEFSAII (Michael W. Deem and Ramdas Pophale) SiO2 
 PCOD9192354
Probable space group: C 2/M
;
_chemical_formula_sum "Si O2"
_cell_formula_units_Z 40
_cell_length_a 14.780745
_cell_length_b 20.752922
_cell_length_c 5.607179
_cell_angle_alpha 90.000000
_cell_angle_beta 111.078971
_cell_angle_gamma 90.000000
_cell_volume 1604.876013
_symmetry_space_group_name_H-M "C 2/M"
_symmetry_group_IT_number 12
_symmetry_cell_setting 'monoclinic'
loop_
_space_group_symop_operation_xyz
x,y,z
-x,y,-z
-x,-y,-z
x,-y,z
1/2+x,1/2+y,z
1/2-x,1/2+y,-z
1/2-x,1/2-y,-z
1/2+x,1/2-y,z
loop_
_atom_site_type_symbol
_atom_site_label
_atom_site_fract_x
_atom_site_fract_y
_atom_site_fract_z
Si Si1 0.144014 0.368846 0.275315
Si Si2 0.880988 0.572984 0.245875
Si Si3 0.846511 0.093860 0.960101
Si Si4 0.394480 0.277265 0.789724
Si Si5 0.871679 0.105009 0.487542
O O1 0.095941 0.396144 0.472810
O O2 0.151114 0.291767 0.295177
O O3 0.253902 0.395758 0.373360
O O4 0.097676 0.388182 0.977138
O O5 0.916717 0.500000 0.257006
O O6 0.599624 0.580372 0.742680
O O7 0.763018 0.429921 0.136557
O O8 0.896698 0.072919 0.762822
O O9 0.659258 0.327853 0.084162
O O10 0.400862 0.320536 0.557583
O O11 0.500000 0.267051 0.000000
#
# Coordination Sequence:
#
# PCOD9192354 Si02
#       5
#     8   8   8   8   8
#     4  10  20  33  55  79 106 133 173 218 261 302
#     4  10  20  35  56  78 101 135 181 223 252 292
#     4   8  18  31  51  76 103 131 168 212 260 306
#     4  10  21  33  52  81 113 138 164 206 267 323
#     4   8  17  31  49  74 102 132 163 211 256 303
#
# _framework density 24.924045
#
# number of rings (size 3 to 8) (size 9 to 14) (size 15 to 20)
#    1.200    1.600    0.000    1.200    2.800    2.400 
#    0.000    0.000    0.000    4.200    0.000    2.800 
#    0.000    0.000    0.000    0.000    0.000    0.000 
#
# Total GULP energy -111593.529012 kJ/mol
# GULP energy per Si atom -5579.676451 kJ/mol
# Density = 2.486732 g / cm^3
# Si number density = 24.924045 Si / 1000 Ang^3
#
#
#
# Elastic Constant Matrix: (Units=GPa)
#
#
# Indices 1 2 3 4 5 6 
#
# 1 82.6533 0.5581 34.1941 0.0000 -16.5538 0.0000
# 2 0.5581 137.5897 40.4376 0.0000 -29.0030 0.0000
# 3 34.1941 40.4376 255.2990 0.0000 -39.4993 0.0000
# 4 0.0000 0.0000 0.0000 414.7814 0.0000 -125.6037
# 5 -16.5538 -29.0030 -39.4993 0.0000 35.9870 0.0000
# 6 0.0000 0.0000 0.0000 -125.6037 0.0000 32.5967
#
#
#
# Elastic Compliance Matrix: (Units=1/GPa)
#
#
# Indices 1 2 3 4 5 6 
#
# 1 0.013842 0.001633 -0.001113 0.000000 0.006462 0.000000
# 2 0.001633 0.008975 -0.000488 0.000000 0.007449 0.000000
# 3 -0.001113 -0.000488 0.004822 0.000000 0.004388 0.000000
# 4 0.000000 0.000000 0.000000 -0.014450 0.000000 -0.055681
# 5 0.006462 0.007449 0.004388 0.000000 0.041580 0.000000
# 6 0.000000 0.000000 0.000000 -0.055681 0.000000 -0.183876
#
#
# Mechanical properties :
#
#
# Convention : Reuss Voigt Hill
#
# Bulk Modulus (GPa) = 36.09565 69.54684 52.82125
# Shear Modulus (GPa) = -41.68855 123.36317 40.83731
#
# Velocity S-wave (km/s) = -4.09421 7.04295 4.05219
# Velocity P-wave (km/s) = 2.79935 9.70060 6.56754
#
# Compressibility (1/GPa) = 0.02770417
#
# Stress axis : x y z
#
# Youngs Moduli (GPa) = 72.24226 111.42164 207.37593
#
# Poissons Ratio (x) = -0.18196 0.23079
# Poissons Ratio (y) = -0.11798 0.10116
# Poissons Ratio (z) = 0.08040 0.05435
#
# Static dielectric constant tensor:
#      x y z
#    x 1.997530 0.000000 0.005120 
#    y 0.000000 1.917930 0.000000 
#    z 0.005120 0.000000 2.023810 
# 
# From -- ./inp_files/15917.got.cif
#   From: 2010.05.17/outbox.cif.g08.bks.cpg/sg12_8_cif.got.tgz:15917.got - 2010.06.03 13:09:07.
