data_PCOD9192152
_publ_section_title
;
Structure prediction by ZEFSAII (Michael W. Deem and Ramdas Pophale) SiO2 
 PCOD9192152
Probable space group: C 2/M
;
_chemical_formula_sum "Si O2"
_cell_formula_units_Z 64
_cell_length_a 22.033221
_cell_length_b 17.028778
_cell_length_c 7.907035
_cell_angle_alpha 90.000000
_cell_angle_beta 90.775386
_cell_angle_gamma 90.000000
_cell_volume 2966.438611
_symmetry_space_group_name_H-M "C 2/M"
_symmetry_group_IT_number 12
_symmetry_cell_setting 'monoclinic'
loop_
_space_group_symop_operation_xyz
x,y,z
-x,y,-z
-x,-y,-z
x,-y,z
1/2+x,1/2+y,z
1/2-x,1/2+y,-z
1/2-x,1/2-y,-z
1/2+x,1/2-y,z
loop_
_atom_site_type_symbol
_atom_site_label
_atom_site_fract_x
_atom_site_fract_y
_atom_site_fract_z
Si Si1 0.096267 0.410567 0.816103
Si Si2 0.657786 0.404525 0.211348
Si Si3 0.386189 0.409818 0.424088
Si Si4 0.284309 0.832168 0.311921
Si Si5 0.146972 0.411563 0.193090
Si Si6 0.026412 0.592770 0.314687
Si Si7 0.264030 0.654809 0.309436
Si Si8 0.436557 0.596043 0.082876
O O1 0.091704 0.500000 0.749305
O O2 0.151256 0.370174 0.722615
O O3 0.028945 0.375287 0.799094
O O4 0.116276 0.414074 0.009790
O O5 0.661370 0.500000 0.217251
O O6 0.624449 0.377547 0.386164
O O7 0.726054 0.370960 0.217100
O O8 0.618265 0.381510 0.046248
O O9 0.405032 0.500000 0.449834
O O10 0.319752 0.404136 0.334433
O O11 0.428575 0.375473 0.276777
O O12 0.288112 0.740663 0.268840
O O13 0.268544 0.840897 0.509085
O O14 0.161163 0.500000 0.255289
O O15 0.093853 0.373069 0.303457
O O16 0.210769 0.369054 0.183194
O O17 0.035078 0.500000 0.270214
O O18 0.000000 0.597934 0.500000
O O19 0.435709 0.500000 0.090128
O O20 0.500000 0.619313 0.000000
#
# Coordination Sequence:
#
# PCOD9192152 Si02
#       8
#     8   8   8   8   8   8   8   8
#     4  10  20  33  53  81 110 140 176 221 270 320
#     4   9  18  33  54  79 107 137 174 221 267 316
#     4   9  18  33  54  79 107 137 174 221 267 316
#     4  10  21  36  54  76 106 142 179 219 266 318
#     4  10  20  33  53  81 110 140 176 221 270 320
#     4   9  17  31  53  79 107 139 176 219 264 315
#     4  10  21  36  54  76 106 142 179 219 266 318
#     4   9  18  32  53  80 106 133 171 220 270 320
#
# _framework density 21.574691000000001
#
# number of rings (size 3 to 8) (size 9 to 14) (size 15 to 20)
#    0.000    2.500    0.000    1.875    1.750    5.000 
#    0.000    2.500    2.750    0.000    0.000    0.000 
#    0.000    0.000    0.000    0.000    0.000    0.000 
#
# Total GULP energy -178465.919732 kJ/mol
# GULP energy per Si atom -5577.059992 kJ/mol
# Density = 2.152559 g / cm^3
# Si number density = 21.574691 Si / 1000 Ang^3
#
#
#
# Elastic Constant Matrix: (Units=GPa)
#
#
# Indices 1 2 3 4 5 6 
#
# 1 30.7087 0.4503 0.3915 0.0000 -12.2823 0.0000
# 2 0.4503 15.6056 4.4336 0.0000 -6.3176 0.0000
# 3 0.3915 4.4336 52.2542 0.0000 -8.4817 0.0000
# 4 0.0000 0.0000 0.0000 2.5006 0.0000 -9.0477
# 5 -12.2823 -6.3176 -8.4817 0.0000 39.8865 0.0000
# 6 0.0000 0.0000 0.0000 -9.0477 0.0000 -8.6055
#
#
#
# Elastic Compliance Matrix: (Units=1/GPa)
#
#
# Indices 1 2 3 4 5 6 
#
# 1 0.037452 0.003531 0.001432 0.000000 0.012396 0.000000
# 2 0.003531 0.069702 -0.004114 0.000000 0.011253 0.000000
# 3 0.001432 -0.004114 0.020136 0.000000 0.004071 0.000000
# 4 0.000000 0.000000 0.000000 0.083241 0.000000 -0.087519
# 5 0.012396 0.011253 0.004071 0.000000 0.031536 0.000000
# 6 0.000000 0.000000 0.000000 -0.087519 0.000000 -0.024189
#
#
# Mechanical properties :
#
#
# Convention : Reuss Voigt Hill
#
# Bulk Modulus (GPa) = 7.75266 12.12438 9.93852
# Shear Modulus (GPa) = 19.29181 12.97586 16.13384
#
# Velocity S-wave (km/s) = 2.99354 2.45509 2.73758
# Velocity P-wave (km/s) = 3.94330 3.69710 3.82218
#
# Compressibility (1/GPa) = 0.12898796
#
# Stress axis : x y z
#
# Youngs Moduli (GPa) = 26.70077 14.34685 49.66134
#
# Poissons Ratio (x) = -0.05066 -0.07111
# Poissons Ratio (y) = -0.09428 0.20431
# Poissons Ratio (z) = -0.03823 0.05902
#
# Static dielectric constant tensor:
#      x y z
#    x 1.793690 0.000000 -0.010610 
#    y 0.000000 1.763770 0.000000 
#    z -0.010610 0.000000 1.837300 
# 
# From -- ./inp_files/87988.got.cif
#   From: 2010.05.17/outbox.cif.g08.bks.cpg/sg12_44_cif.got.tgz:87988.got - 2010.06.03 13:09:07.
