data_PCOD9192982
_publ_section_title
;
Structure prediction by ZEFSAII (Michael W. Deem and Ramdas Pophale) SiO2 
 PCOD9192982
Probable space group: C 2/M
;
_chemical_formula_sum "Si O2"
_cell_formula_units_Z 56
_cell_length_a 5.217908
_cell_length_b 31.930084
_cell_length_c 16.496428
_cell_angle_alpha 90.000000
_cell_angle_beta 88.481972
_cell_angle_gamma 90.000000
_cell_volume 2747.476252
_symmetry_space_group_name_H-M "C 2/M"
_symmetry_group_IT_number 12
_symmetry_cell_setting 'monoclinic'
loop_
_space_group_symop_operation_xyz
x,y,z
-x,y,-z
-x,-y,-z
x,-y,z
1/2+x,1/2+y,z
1/2-x,1/2+y,-z
1/2-x,1/2-y,-z
1/2+x,1/2-y,z
loop_
_atom_site_type_symbol
_atom_site_label
_atom_site_fract_x
_atom_site_fract_y
_atom_site_fract_z
Si Si1 0.222776 0.954435 0.200813
Si Si2 0.582409 0.222475 0.134594
Si Si3 0.460143 0.175357 0.701063
Si Si4 0.733290 0.952682 0.092609
Si Si5 0.696418 0.764231 0.592089
Si Si6 0.307695 0.359373 0.070441
Si Si7 0.029911 0.870384 0.248803
O O1 0.506154 0.948245 0.161300
O O2 0.016019 0.954469 0.129346
O O3 0.120134 0.917943 0.258159
O O4 0.215891 0.000000 0.239646
O O5 0.327513 0.248123 0.115919
O O6 0.597852 0.210769 0.230439
O O7 0.603203 0.177329 0.089637
O O8 0.537113 0.194318 0.613564
O O9 0.222843 0.143920 0.701901
O O10 0.719735 0.155508 0.732543
O O11 0.724100 0.907246 0.049519
O O12 0.700093 0.000000 0.056507
O O13 0.750000 0.750000 0.500000
O O14 0.480455 0.731889 0.626876
O O15 0.454448 0.363633 0.155236
O O16 0.500000 0.344869 0.000000
#
# Coordination Sequence:
#
# PCOD9192982 Si02
#       7
#     8   8   8   8   8   8   8
#     4   9  16  30  50  72 100 131 167 214 267 322
#     4  11  22  36  52  70  94 131 177 217 257 307
#     4  11  20  35  55  75 103 136 176 215 253 313
#     4   9  18  33  53  74  96 125 165 219 287 349
#     4  10  20  34  54  81 110 140 167 200 249 303
#     4  10  22  38  54  73 100 133 178 237 285 324
#     4  10  20  34  52  75 100 137 179 218 269 320
#
# _framework density 20.382342999999999
#
# number of rings (size 3 to 8) (size 9 to 14) (size 15 to 20)
#    0.000    2.000    0.000    6.000    0.000    2.000 
#    0.000   17.143    0.000    7.714    0.000    0.000 
#    0.000    0.000    0.000   51.429    0.000   53.714 
#
# Total GULP energy -156045.386543 kJ/mol
# GULP energy per Si atom -5573.049519 kJ/mol
# Density = 2.033595 g / cm^3
# Si number density = 20.382343 Si / 1000 Ang^3
#
#
#
# Elastic Constant Matrix: (Units=GPa)
#
#
# Indices 1 2 3 4 5 6 
#
# 1 122.8747 35.1488 20.5534 0.0000 -30.8341 0.0000
# 2 35.1488 102.7260 37.8609 0.0000 -16.1948 0.0000
# 3 20.5534 37.8609 67.9299 0.0000 -18.8451 0.0000
# 4 0.0000 0.0000 0.0000 -11.3211 0.0000 -64.5424
# 5 -30.8341 -16.1948 -18.8451 0.0000 28.9642 0.0000
# 6 0.0000 0.0000 0.0000 -64.5424 0.0000 -61.1318
#
#
#
# Elastic Compliance Matrix: (Units=1/GPa)
#
#
# Indices 1 2 3 4 5 6 
#
# 1 0.011607 -0.002555 0.001152 0.000000 0.011677 0.000000
# 2 -0.002555 0.013022 -0.006369 0.000000 0.000417 0.000000
# 3 0.001152 -0.006369 0.021079 0.000000 0.011380 0.000000
# 4 0.000000 0.000000 0.000000 0.017599 0.000000 -0.018581
# 5 0.011677 0.000417 0.011380 0.000000 0.054593 0.000000
# 6 0.000000 0.000000 0.000000 -0.018581 0.000000 0.003259
#
#
# Mechanical properties :
#
#
# Convention : Reuss Voigt Hill
#
# Bulk Modulus (GPa) = 33.15293 53.40630 43.27961
# Shear Modulus (GPa) = 34.06953 4.63343 19.35148
#
# Velocity S-wave (km/s) = 4.09286 1.50937 3.08461
# Velocity P-wave (km/s) = 6.21580 5.41264 5.82807
#
# Compressibility (1/GPa) = 0.03016325
#
# Stress axis : x y z
#
# Youngs Moduli (GPa) = 86.15664 76.79317 47.43965
#
# Poissons Ratio (x) = 0.19620 -0.05463
# Poissons Ratio (y) = 0.22012 0.30215
# Poissons Ratio (z) = -0.09921 0.48910
#
# Static dielectric constant tensor:
#      x y z
#    x 1.808120 0.000000 0.044390 
#    y 0.000000 1.819250 0.000000 
#    z 0.044390 0.000000 1.752080 
# 
# From -- ./inp_files/253861.got.cif
#   From: 2010.05.17/outbox.cif.g08.bks.cpg/sg12_127_cif.got.tgz:253861.got - 2010.06.03 13:09:07.
