data_PCOD9192209
_publ_section_title
;
Structure prediction by ZEFSAII (Michael W. Deem and Ramdas Pophale) SiO2 
 PCOD9192209
Probable space group: C 2/M
;
_chemical_formula_sum "Si O2"
_cell_formula_units_Z 48
_cell_length_a 16.560618
_cell_length_b 24.240554
_cell_length_c 11.113000
_cell_angle_alpha 90.000000
_cell_angle_beta 30.930754
_cell_angle_gamma 90.000000
_cell_volume 2293.057758
_symmetry_space_group_name_H-M "C 2/M"
_symmetry_group_IT_number 12
_symmetry_cell_setting 'monoclinic'
loop_
_space_group_symop_operation_xyz
x,y,z
-x,y,-z
-x,-y,-z
x,-y,z
1/2+x,1/2+y,z
1/2-x,1/2+y,-z
1/2-x,1/2-y,-z
1/2+x,1/2-y,z
loop_
_atom_site_type_symbol
_atom_site_label
_atom_site_fract_x
_atom_site_fract_y
_atom_site_fract_z
Si Si1 0.175531 0.821584 0.586799
Si Si2 0.363214 0.559769 0.272345
Si Si3 0.821068 0.827884 0.689851
Si Si4 0.982248 0.436760 0.390011
Si Si5 0.628734 0.935193 0.943592
Si Si6 0.497197 0.216231 0.866118
O O1 0.129495 0.884972 0.659736
O O2 0.178184 0.804082 0.445037
O O3 0.358143 0.812093 0.390987
O O4 0.050468 0.779949 0.804077
O O5 0.366540 0.500000 0.333160
O O6 0.200845 0.562110 0.407477
O O7 0.500000 0.560751 0.000000
O O8 0.766999 0.891615 0.748463
O O9 0.000000 0.823282 0.500000
O O10 0.681895 0.796869 0.942028
O O11 0.041244 0.500000 0.328874
O O12 0.000000 0.409819 0.500000
O O13 0.061077 0.419393 0.162627
O O14 0.671776 0.000000 0.889782
O O15 0.500000 0.929521 0.000000
O O16 0.500000 0.193893 0.000000
#
# Coordination Sequence:
#
# PCOD9192209 Si02
#       6
#     8   8   8   8   8   8
#     4  10  20  37  61  80 107 153 198 242 285 342
#     4  10  20  33  53  83 115 147 188 235 285 345
#     4  11  23  36  55  87 120 147 185 242 301 353
#     4   9  18  33  53  79 115 157 194 232 281 336
#     4  10  20  37  61  85 116 161 204 237 279 347
#     4   9  19  38  61  82 105 143 198 245 287 345
#
# _framework density 20.932748
#
# number of rings (size 3 to 8) (size 9 to 14) (size 15 to 20)
#    0.000    2.167    0.000    4.000    0.000    4.333 
#    0.000    1.667    0.000   13.500    0.000    0.000 
#    0.000    0.000    0.000    0.000    0.000    0.000 
#
# Total GULP energy -133603.347118 kJ/mol
# GULP energy per Si atom -5566.806130 kJ/mol
# Density = 2.088510 g / cm^3
# Si number density = 20.932748 Si / 1000 Ang^3
#
#
#
# Elastic Constant Matrix: (Units=GPa)
#
#
# Indices 1 2 3 4 5 6 
#
# 1 47.9477 8.6387 37.5554 -0.0021 0.8831 -0.0004
# 2 8.6387 140.7533 50.5771 -0.0003 -11.9966 -0.0002
# 3 37.5554 50.5771 124.3510 -0.0019 -17.5744 -0.0005
# 4 -0.0021 -0.0003 -0.0019 20.6127 0.0017 -3.1439
# 5 0.8831 -11.9966 -17.5744 0.0017 42.1768 0.0001
# 6 -0.0004 -0.0002 -0.0005 -3.1439 0.0001 1.0288
#
#
#
# Elastic Compliance Matrix: (Units=1/GPa)
#
#
# Indices 1 2 3 4 5 6 
#
# 1 0.028288 0.001391 -0.009708 0.000006 -0.004242 0.000026
# 2 0.001391 0.008430 -0.003734 0.000000 0.000813 -0.000001
# 3 -0.009708 -0.003734 0.013145 0.000000 0.004619 0.000002
# 4 0.000006 0.000000 0.000000 0.090866 -0.000005 0.277674
# 5 -0.004242 0.000813 0.004619 -0.000005 0.025954 -0.000016
# 6 0.000026 -0.000001 0.000002 0.277674 -0.000016 1.820534
#
#
# Mechanical properties :
#
#
# Convention : Reuss Voigt Hill
#
# Bulk Modulus (GPa) = 38.81965 56.28827 47.55396
# Shear Modulus (GPa) = 2.47536 27.18238 14.82887
#
# Velocity S-wave (km/s) = 1.08862 3.60746 2.66448
# Velocity P-wave (km/s) = 4.49058 6.65583 5.67739
#
# Compressibility (1/GPa) = 0.02576015
#
# Stress axis : x y z
#
# Youngs Moduli (GPa) = 35.35089 118.61973 76.07272
#
# Poissons Ratio (x) = -0.16498 0.73855
# Poissons Ratio (y) = -0.04917 0.28406
# Poissons Ratio (z) = 0.34320 0.44293
#
# Static dielectric constant tensor:
#      x y z
#    x 1.810810 0.000000 0.002710 
#    y 0.000000 1.804370 0.000000 
#    z 0.002710 0.000000 1.831560 
# 
# From -- ./inp_files/160686.got.cif
#   From: 2010.05.17/outbox.cif.g08.bks.cpg/sg12_81_cif.got.tgz:160686.got - 2010.06.03 13:09:07.
