data_PCOD9192418
_publ_section_title
;
Structure prediction by ZEFSAII (Michael W. Deem and Ramdas Pophale) SiO2 
 PCOD9192418
Probable space group: C 2/M
;
_chemical_formula_sum "Si O2"
_cell_formula_units_Z 64
_cell_length_a 20.831879
_cell_length_b 8.824476
_cell_length_c 22.178063
_cell_angle_alpha 90.000000
_cell_angle_beta 62.112582
_cell_angle_gamma 90.000000
_cell_volume 3603.533581
_symmetry_space_group_name_H-M "C 2/M"
_symmetry_group_IT_number 12
_symmetry_cell_setting 'monoclinic'
loop_
_space_group_symop_operation_xyz
x,y,z
-x,y,-z
-x,-y,-z
x,-y,z
1/2+x,1/2+y,z
1/2-x,1/2+y,-z
1/2-x,1/2-y,-z
1/2+x,1/2-y,z
loop_
_atom_site_type_symbol
_atom_site_label
_atom_site_fract_x
_atom_site_fract_y
_atom_site_fract_z
Si Si1 0.914466 0.181239 0.537463
Si Si2 0.802097 0.681014 0.676190
Si Si3 0.579138 0.820014 0.818716
Si Si4 0.330510 0.180465 0.461097
Si Si5 0.348822 0.320056 0.326580
Si Si6 0.771975 0.681012 0.176575
Si Si7 0.791792 0.181582 0.038431
Si Si8 0.461936 0.681451 0.953433
O O1 0.872025 0.247579 0.613732
O O2 0.877609 0.253266 0.494784
O O3 0.000000 0.215436 0.500000
O O4 0.905007 0.000000 0.540350
O O5 0.808985 0.500000 0.677531
O O6 0.732125 0.713424 0.663929
O O7 0.782281 0.750233 0.749811
O O8 0.596665 0.733633 0.749326
O O9 0.646744 0.784527 0.833958
O O10 0.505546 0.765524 0.881985
O O11 0.579254 0.000000 0.808501
O O12 0.250000 0.250000 0.500000
O O13 0.360812 0.231650 0.383103
O O14 0.326398 0.000000 0.467808
O O15 0.353617 0.500000 0.334434
O O16 0.763850 0.500000 0.177802
O O17 0.764382 0.751350 0.113873
O O18 0.784705 0.000000 0.042574
O O19 0.750000 0.250000 0.000000
O O20 0.877224 0.219171 0.994262
O O21 0.469216 0.500000 0.941861
O O22 0.500000 0.721027 0.000000
#
# Coordination Sequence:
#
# PCOD9192418 Si02
#       8
#     8   8   8   8   8   8   8   8
#     4  11  24  41  61  87 121 159 198 243 295 351
#     4  10  20  35  59  87 116 153 195 240 289 346
#     4  10  20  33  55  87 119 150 189 241 292 342
#     4  12  23  37  60  88 119 153 194 243 292 346
#     4  10  20  35  57  86 119 154 193 240 293 348
#     4  10  20  35  57  85 117 151 191 238 289 346
#     4  11  23  39  59  84 117 154 194 239 289 346
#     4  10  20  36  58  83 113 149 189 234 285 341
#
# _framework density 17.760345999999998
#
# number of rings (size 3 to 8) (size 9 to 14) (size 15 to 20)
#    0.000    1.500    2.500    3.375    0.000    4.250 
#    0.000    1.250    0.000    7.500    0.000    0.000 
#    0.000    0.000    0.000    0.000    0.000    0.000 
#
# Total GULP energy -178826.115660 kJ/mol
# GULP energy per Si atom -5588.316114 kJ/mol
# Density = 1.771992 g / cm^3
# Si number density = 17.760346 Si / 1000 Ang^3
#
#
#
# Elastic Constant Matrix: (Units=GPa)
#
#
# Indices 1 2 3 4 5 6 
#
# 1 105.1742 63.0095 76.2800 0.0000 4.9191 -0.0002
# 2 63.0095 80.3496 74.0427 0.0001 -1.6448 -0.0005
# 3 76.2800 74.0427 166.9630 0.0000 1.2005 -0.0001
# 4 0.0000 0.0001 0.0000 38.2417 0.0000 1.2509
# 5 4.9191 -1.6448 1.2005 0.0000 27.2878 0.0000
# 6 -0.0002 -0.0005 -0.0001 1.2509 0.0000 25.8936
#
#
#
# Elastic Compliance Matrix: (Units=1/GPa)
#
#
# Indices 1 2 3 4 5 6 
#
# 1 0.019530 -0.012183 -0.003490 0.000000 -0.004101 0.000000
# 2 -0.012183 0.028723 -0.007202 0.000000 0.004244 0.000000
# 3 -0.003490 -0.007202 0.010780 0.000000 -0.000279 0.000000
# 4 0.000000 0.000000 0.000000 0.026191 0.000000 -0.001265
# 5 -0.004101 0.004244 -0.000279 0.000000 0.037654 0.000000
# 6 0.000000 0.000000 0.000000 -0.001265 0.000000 0.038681
#
#
# Mechanical properties :
#
#
# Convention : Reuss Voigt Hill
#
# Bulk Modulus (GPa) = 75.28990 86.57237 80.93113
# Shear Modulus (GPa) = 23.61415 27.56160 25.58788
#
# Velocity S-wave (km/s) = 3.65032 3.94364 3.79981
# Velocity P-wave (km/s) = 7.76213 8.34188 8.05722
#
# Compressibility (1/GPa) = 0.01328199
#
# Stress axis : x y z
#
# Youngs Moduli (GPa) = 51.20310 34.81505 92.76356
#
# Poissons Ratio (x) = 0.42414 0.32379
# Poissons Ratio (y) = 0.62380 0.66812
# Poissons Ratio (z) = 0.17872 0.25075
#
# Static dielectric constant tensor:
#      x y z
#    x 1.583190 0.000000 -0.003270 
#    y 0.000000 1.588160 0.000000 
#    z -0.003270 0.000000 1.595080 
# 
# From -- ./inp_files/319882.got.cif
#   From: 2010.05.17/outbox.cif.g08.bks.cpg/sg12_160_cif.got.tgz:319882.got - 2010.06.03 13:09:07.
