data_PCOD9192291
_publ_section_title
;
Structure prediction by ZEFSAII (Michael W. Deem and Ramdas Pophale) SiO2 
 PCOD9192291
Probable space group: C 2/M
;
_chemical_formula_sum "Si O2"
_cell_formula_units_Z 40
_cell_length_a 27.501038
_cell_length_b 7.472366
_cell_length_c 10.839751
_cell_angle_alpha 90.000000
_cell_angle_beta 129.954140
_cell_angle_gamma 90.000000
_cell_volume 1707.544141
_symmetry_space_group_name_H-M "C 2/M"
_symmetry_group_IT_number 12
_symmetry_cell_setting 'monoclinic'
loop_
_space_group_symop_operation_xyz
x,y,z
-x,y,-z
-x,-y,-z
x,-y,z
1/2+x,1/2+y,z
1/2-x,1/2+y,-z
1/2-x,1/2-y,-z
1/2+x,1/2-y,z
loop_
_atom_site_type_symbol
_atom_site_label
_atom_site_fract_x
_atom_site_fract_y
_atom_site_fract_z
Si Si1 0.007835 0.796509 0.149703
Si Si2 0.781692 0.218001 0.724433
Si Si3 0.649745 0.205560 0.418427
Si Si4 0.547516 0.280459 0.683686
Si Si5 0.682936 0.713286 0.951744
O O1 0.082233 0.799674 0.305093
O O2 0.972842 0.719705 0.212338
O O3 0.982770 0.000000 0.096601
O O4 0.000000 0.714265 0.000000
O O5 0.707839 0.275387 0.596513
O O6 0.819872 0.285259 0.668670
O O7 0.781654 0.000000 0.717620
O O8 0.813535 0.278710 0.902077
O O9 0.637424 0.000000 0.431901
O O10 0.500000 0.219412 0.500000
O O11 0.544107 0.500000 0.678399
O O12 0.620012 0.223135 0.780397
O O13 0.676778 0.500000 0.949421
O O14 0.750000 0.750000 0.000000
#
# Coordination Sequence:
#
# PCOD9192291 Si02
#       5
#     8   8   8   8   8
#     4  10  20  35  57  80 107 147 188 226 281 339
#     4   9  19  36  54  77 112 149 184 225 278 335
#     4  10  20  33  54  83 111 141 182 233 281 327
#     4   9  19  35  55  81 110 144 188 231 269 327
#     4  10  21  37  58  81 110 146 187 231 278 332
#
# _framework density 23.425456000000001
#
# number of rings (size 3 to 8) (size 9 to 14) (size 15 to 20)
#    0.000    2.400    0.000    1.800    2.800    5.200 
#    0.000    1.000    0.000    1.200    0.000    0.000 
#    0.000    0.000    0.000    0.000    0.000    0.000 
#
# Total GULP energy -111737.042317 kJ/mol
# GULP energy per Si atom -5586.852116 kJ/mol
# Density = 2.337214 g / cm^3
# Si number density = 23.425456 Si / 1000 Ang^3
#
#
#
# Elastic Constant Matrix: (Units=GPa)
#
#
# Indices 1 2 3 4 5 6 
#
# 1 95.9431 -6.5676 64.0651 0.0000 18.2134 0.0000
# 2 -6.5676 67.3431 4.6299 0.0000 -2.5657 0.0000
# 3 64.0651 4.6299 172.5314 0.0000 14.7577 0.0000
# 4 0.0000 0.0000 0.0000 -68.3747 0.0000 68.2046
# 5 18.2134 -2.5657 14.7577 0.0000 39.2845 0.0000
# 6 0.0000 0.0000 0.0000 68.2046 0.0000 -32.8254
#
#
#
# Elastic Compliance Matrix: (Units=1/GPa)
#
#
# Indices 1 2 3 4 5 6 
#
# 1 0.014904 0.001623 -0.005162 0.000000 -0.004865 0.000000
# 2 0.001623 0.015105 -0.001062 0.000000 0.000633 0.000000
# 3 -0.005162 -0.001062 0.007793 0.000000 -0.000604 0.000000
# 4 0.000000 0.000000 0.000000 0.013635 0.000000 0.028331
# 5 -0.004865 0.000633 -0.000604 0.000000 0.027979 0.000000
# 6 0.000000 0.000000 0.000000 0.028331 0.000000 0.028401
#
#
# Mechanical properties :
#
#
# Convention : Reuss Voigt Hill
#
# Bulk Modulus (GPa) = 34.96487 51.11916 43.04202
# Shear Modulus (GPa) = 39.50937 5.86289 22.68613
#
# Velocity S-wave (km/s) = 4.11128 1.58374 3.11535
# Velocity P-wave (km/s) = 6.12334 5.02133 5.59951
#
# Compressibility (1/GPa) = 0.02860013
#
# Stress axis : x y z
#
# Youngs Moduli (GPa) = 67.09537 66.20432 128.32266
#
# Poissons Ratio (x) = -0.10745 0.66236
# Poissons Ratio (y) = -0.10890 0.13630
# Poissons Ratio (z) = 0.34633 0.07032
#
# Static dielectric constant tensor:
#      x y z
#    x 1.930180 0.000000 0.039230 
#    y 0.000000 2.019500 0.000000 
#    z 0.039230 0.000000 1.893570 
# 
# From -- ./inp_files/151713.got.cif
#   From: 2010.05.17/outbox.cif.g08.bks.cpg/sg12_76_cif.got.tgz:151713.got - 2010.06.03 13:09:07.
