data_PCOD9192909
_publ_section_title
;
Structure prediction by ZEFSAII (Michael W. Deem and Ramdas Pophale) SiO2 
 PCOD9192909
Probable space group: C 2/M
;
_chemical_formula_sum "Si O2"
_cell_formula_units_Z 64
_cell_length_a 15.203706
_cell_length_b 7.563338
_cell_length_c 22.521958
_cell_angle_alpha 90.000000
_cell_angle_beta 81.453151
_cell_angle_gamma 90.000000
_cell_volume 2561.056466
_symmetry_space_group_name_H-M "C 2/M"
_symmetry_group_IT_number 12
_symmetry_cell_setting 'monoclinic'
loop_
_space_group_symop_operation_xyz
x,y,z
-x,y,-z
-x,-y,-z
x,-y,z
1/2+x,1/2+y,z
1/2-x,1/2+y,-z
1/2-x,1/2-y,-z
1/2+x,1/2-y,z
loop_
_atom_site_type_symbol
_atom_site_label
_atom_site_fract_x
_atom_site_fract_y
_atom_site_fract_z
Si Si1 0.921562 0.710957 0.586238
Si Si2 0.103490 0.210818 0.207098
Si Si3 0.766208 0.711676 0.366271
Si Si4 0.614981 0.215906 0.543849
Si Si5 0.917061 0.712586 0.260918
Si Si6 0.206427 0.708634 0.824676
Si Si7 0.868304 0.787813 0.048173
Si Si8 0.062359 0.215647 0.078958
O O1 0.927251 0.500000 0.582677
O O2 0.836809 0.750323 0.635224
O O3 0.894980 0.777406 0.522757
O O4 0.022959 0.769290 0.586468
O O5 0.201711 0.280531 0.211142
O O6 0.080117 0.280219 0.143357
O O7 0.019787 0.240363 0.257710
O O8 0.112428 0.000000 0.201374
O O9 0.772507 0.500000 0.365394
O O10 0.800363 0.777370 0.427252
O O11 0.841371 0.776470 0.313488
O O12 0.617637 0.000000 0.541902
O O13 0.917436 0.500000 0.263945
O O14 0.880128 0.779165 0.200729
O O15 0.204433 0.500000 0.813081
O O16 0.202395 0.729747 0.895804
O O17 0.964205 0.733415 0.065935
O O18 0.866200 0.000000 0.047501
O O19 0.869298 0.726328 0.979855
O O20 0.064190 0.000000 0.079912
#
# Coordination Sequence:
#
# PCOD9192909 Si02
#       8
#     8   8   8   8   8   8   8   8
#     4   9  17  32  54  79 104 130 166 208 246 290
#     4  10  20  36  56  73  95 132 171 205 248 300
#     4  10  20  34  52  73 102 138 169 202 250 298
#     4   8  16  32  53  76 105 137 164 199 249 298
#     4  10  22  38  51  70 103 136 168 209 250 289
#     4  10  21  35  51  74 103 130 161 208 257 292
#     4   9  16  30  53  76  98 127 162 199 245 304
#     4   8  15  29  51  76  98 124 160 203 246 295
#
# _framework density 24.989688000000001
#
# number of rings (size 3 to 8) (size 9 to 14) (size 15 to 20)
#    0.000    2.750    1.250    1.875    0.000    2.500 
#    0.000    3.750    0.000    0.000    0.000    0.000 
#    0.000    0.000    0.000    0.000    0.000    0.000 
#
# Total GULP energy -178671.696168 kJ/mol
# GULP energy per Si atom -5583.490505 kJ/mol
# Density = 2.493281 g / cm^3
# Si number density = 24.989688 Si / 1000 Ang^3
#
#
#
# Elastic Constant Matrix: (Units=GPa)
#
#
# Indices 1 2 3 4 5 6 
#
# 1 114.8785 0.4393 20.3929 0.0000 -36.7431 0.0000
# 2 0.4393 51.9253 -10.0412 0.0000 3.7623 0.0000
# 3 20.3929 -10.0412 63.3221 0.0000 -29.3072 0.0000
# 4 0.0000 0.0000 0.0000 7.1232 0.0000 -9.1681
# 5 -36.7431 3.7623 -29.3072 0.0000 42.6122 0.0000
# 6 0.0000 0.0000 0.0000 -9.1681 0.0000 7.4645
#
#
#
# Elastic Compliance Matrix: (Units=1/GPa)
#
#
# Indices 1 2 3 4 5 6 
#
# 1 0.012123 -0.000685 0.001252 0.000000 0.011375 0.000000
# 2 -0.000685 0.019917 0.003362 0.000000 -0.000037 0.000000
# 3 0.001252 0.003362 0.023889 0.000000 0.017212 0.000000
# 4 0.000000 0.000000 0.000000 -0.241701 0.000000 -0.296865
# 5 0.011375 -0.000037 0.017212 0.000000 0.045117 0.000000
# 6 0.000000 0.000000 0.000000 -0.296865 0.000000 -0.230652
#
#
# Mechanical properties :
#
#
# Convention : Reuss Voigt Hill
#
# Bulk Modulus (GPa) = 15.67728 27.96757 21.82242
# Shear Modulus (GPa) = -13.97031 26.06230 6.04600
#
# Velocity S-wave (km/s) = -2.36697 3.23293 1.55713
# Velocity P-wave (km/s) = 1.08764 5.01515 3.46185
#
# Compressibility (1/GPa) = 0.06378656
#
# Stress axis : x y z
#
# Youngs Moduli (GPa) = 82.48447 50.20841 41.86114
#
# Poissons Ratio (x) = 0.03438 -0.05240
# Poissons Ratio (y) = 0.05648 -0.14073
# Poissons Ratio (z) = -0.10325 -0.16879
#
# Static dielectric constant tensor:
#      x y z
#    x 1.996380 0.000000 -0.009130 
#    y 0.000000 1.930390 0.000000 
#    z -0.009130 0.000000 2.037990 
# 
# From -- ./inp_files/359774.got.cif
#   From: 2010.05.17/outbox.cif.g08.bks.cpg/sg12_180_cif.got.tgz:359774.got - 2010.06.03 13:09:07.
