data_PCOD9192698
_publ_section_title
;
Structure prediction by ZEFSAII (Michael W. Deem and Ramdas Pophale) SiO2 
 PCOD9192698
Probable space group: C 2/M
;
_chemical_formula_sum "Si O2"
_cell_formula_units_Z 48
_cell_length_a 15.582714
_cell_length_b 7.576920
_cell_length_c 20.065057
_cell_angle_alpha 90.000000
_cell_angle_beta 102.525955
_cell_angle_gamma 90.000000
_cell_volume 2312.672044
_symmetry_space_group_name_H-M "C 2/M"
_symmetry_group_IT_number 12
_symmetry_cell_setting 'monoclinic'
loop_
_space_group_symop_operation_xyz
x,y,z
-x,y,-z
-x,-y,-z
x,-y,z
1/2+x,1/2+y,z
1/2-x,1/2+y,-z
1/2-x,1/2-y,-z
1/2+x,1/2-y,z
loop_
_atom_site_type_symbol
_atom_site_label
_atom_site_fract_x
_atom_site_fract_y
_atom_site_fract_z
Si Si1 0.938440 0.212290 0.585045
Si Si2 0.301609 0.209641 0.672748
Si Si3 0.128255 0.215797 0.568682
Si Si4 0.489250 0.287548 0.074195
Si Si5 0.827229 0.711549 0.826148
Si Si6 0.701982 0.712030 0.922171
O O1 0.888316 0.265105 0.643039
O O2 0.885095 0.272822 0.510216
O O3 0.039504 0.269475 0.592800
O O4 0.939619 0.000000 0.583281
O O5 0.217064 0.279834 0.618253
O O6 0.311540 0.281226 0.749090
O O7 0.287577 0.000000 0.676420
O O8 0.129868 0.000000 0.568178
O O9 0.483213 0.500000 0.069499
O O10 0.574629 0.244655 0.131372
O O11 0.397815 0.221711 0.089591
O O12 0.500000 0.222205 0.000000
O O13 0.816175 0.500000 0.821920
O O14 0.759175 0.781128 0.870116
O O15 0.698380 0.500000 0.914836
O O16 0.750000 0.750000 0.000000
#
# Coordination Sequence:
#
# PCOD9192698 Si02
#       6
#     8   8   8   8   8   8
#     4   9  17  32  55  80 101 134 180 216 251 301
#     4  10  20  34  50  73 108 141 170 211 259 306
#     4   8  16  32  54  77 104 137 175 213 253 307
#     4  10  20  35  56  80 102 126 166 219 263 299
#     4  10  22  36  51  75 105 140 175 205 255 319
#     4  10  20  35  55  77 101 131 167 209 257 308
#
# _framework density 20.755213000000001
#
# number of rings (size 3 to 8) (size 9 to 14) (size 15 to 20)
#    0.000    2.500    1.667    1.500    0.000    3.000 
#    0.000    5.833    0.000    0.000    0.000    0.000 
#    0.000    0.000    0.000    0.000    0.000    0.000 
#
# Total GULP energy -134003.018037 kJ/mol
# GULP energy per Si atom -5583.459085 kJ/mol
# Density = 2.070797 g / cm^3
# Si number density = 20.755213 Si / 1000 Ang^3
#
#
#
# Elastic Constant Matrix: (Units=GPa)
#
#
# Indices 1 2 3 4 5 6 
#
# 1 115.3857 2.2372 62.1837 0.0000 -33.1162 0.0000
# 2 2.2372 44.1454 1.1278 0.0000 0.1906 0.0000
# 3 62.1837 1.1278 130.8479 0.0000 -34.7781 0.0000
# 4 0.0000 0.0000 0.0000 -8.2172 0.0000 -18.1175
# 5 -33.1162 0.1906 -34.7781 0.0000 25.7280 0.0000
# 6 0.0000 0.0000 0.0000 -18.1175 0.0000 7.8210
#
#
#
# Elastic Compliance Matrix: (Units=1/GPa)
#
#
# Indices 1 2 3 4 5 6 
#
# 1 0.014486 -0.000721 -0.002998 0.000000 0.014599 0.000000
# 2 -0.000721 0.022701 -0.000225 0.000000 -0.001400 0.000000
# 3 -0.002998 -0.000225 0.012555 0.000000 0.013114 0.000000
# 4 0.000000 0.000000 0.000000 -0.019926 0.000000 -0.046158
# 5 0.014599 -0.001400 0.013114 0.000000 0.075396 0.000000
# 6 0.000000 0.000000 0.000000 -0.046158 0.000000 0.020935
#
#
# Mechanical properties :
#
#
# Convention : Reuss Voigt Hill
#
# Bulk Modulus (GPa) = 23.89272 46.83072 35.36172
# Shear Modulus (GPa) = 33.78694 20.05505 26.92100
#
# Velocity S-wave (km/s) = 4.03907 3.11185 3.60540
# Velocity P-wave (km/s) = 5.76965 5.96019 5.86569
#
# Compressibility (1/GPa) = 0.04185376
#
# Stress axis : x y z
#
# Youngs Moduli (GPa) = 69.03158 44.05140 79.65200
#
# Poissons Ratio (x) = 0.03174 0.23879
# Poissons Ratio (y) = 0.04974 0.01796
# Poissons Ratio (z) = 0.20695 0.00993
#
# Static dielectric constant tensor:
#      x y z
#    x 1.718010 0.000000 -0.014210 
#    y 0.000000 1.793730 0.000000 
#    z -0.014210 0.000000 1.718470 
# 
# From -- ./inp_files/267702.got.cif
#   From: 2010.05.17/outbox.cif.g08.bks.cpg/sg12_134_cif.got.tgz:267702.got - 2010.06.03 13:09:07.
