data_PCOD9192106
_publ_section_title
;
Structure prediction by ZEFSAII (Michael W. Deem and Ramdas Pophale) SiO2 
 PCOD9192106
Probable space group: C 2/M
;
_chemical_formula_sum "Si O2"
_cell_formula_units_Z 64
_cell_length_a 29.018745
_cell_length_b 8.769683
_cell_length_c 14.582879
_cell_angle_alpha 90.000000
_cell_angle_beta 93.616666
_cell_angle_gamma 90.000000
_cell_volume 3703.735803
_symmetry_space_group_name_H-M "C 2/M"
_symmetry_group_IT_number 12
_symmetry_cell_setting 'monoclinic'
loop_
_space_group_symop_operation_xyz
x,y,z
-x,y,-z
-x,-y,-z
x,-y,z
1/2+x,1/2+y,z
1/2-x,1/2+y,-z
1/2-x,1/2-y,-z
1/2+x,1/2-y,z
loop_
_atom_site_type_symbol
_atom_site_label
_atom_site_fract_x
_atom_site_fract_y
_atom_site_fract_z
Si Si1 0.520050 0.681648 0.803489
Si Si2 0.902335 0.182248 0.047546
Si Si3 0.070463 0.318678 0.286458
Si Si4 0.908901 0.318727 0.333201
Si Si5 0.330416 0.818869 0.184241
Si Si6 0.759817 0.317420 0.900574
Si Si7 0.863493 0.316553 0.862040
Si Si8 0.053249 0.817980 0.483135
O O1 0.511986 0.500000 0.799588
O O2 0.548632 0.719656 0.899067
O O3 0.472831 0.769969 0.781842
O O4 0.553858 0.729484 0.724316
O O5 0.602847 0.500000 0.949894
O O6 0.862824 0.256668 0.106330
O O7 0.894689 0.241978 0.944826
O O8 0.069309 0.500000 0.301504
O O9 0.116157 0.277944 0.234793
O O10 0.065093 0.235310 0.382534
O O11 0.917972 0.500000 0.327423
O O12 0.859245 0.289322 0.280557
O O13 0.915020 0.262636 0.437112
O O14 0.281048 0.740384 0.169838
O O15 0.325227 0.000000 0.172079
O O16 0.758647 0.500000 0.906293
O O17 0.810577 0.270290 0.872725
O O18 0.750000 0.250000 0.000000
O O19 0.866139 0.500000 0.872425
O O20 0.000000 0.776962 0.500000
O O21 0.057418 0.000000 0.491277
#
# Coordination Sequence:
#
# PCOD9192106 Si02
#       8
#     8   8   8   8   8   8   8   8
#     4  10  20  34  51  78 112 144 183 227 267 317
#     4  10  20  33  53  78 108 148 186 221 268 323
#     4  11  23  38  56  78 107 148 188 224 272 325
#     4  10  20  34  56  83 110 143 180 222 271 326
#     4  10  20  34  54  83 114 141 178 227 273 321
#     4  11  21  35  57  83 110 144 184 228 276 322
#     4  10  23  39  54  77 111 146 185 230 271 321
#     4  11  22  36  57  84 112 141 177 228 276 319
#
# _framework density 17.279848999999999
#
# number of rings (size 3 to 8) (size 9 to 14) (size 15 to 20)
#    0.000    1.625    2.500    2.625    0.000    5.500 
#    0.000    2.500    0.000    0.750    0.000    0.000 
#    0.000    0.000    0.000    0.000    0.000    0.000 
#
# Total GULP energy -178729.666888 kJ/mol
# GULP energy per Si atom -5585.302090 kJ/mol
# Density = 1.724052 g / cm^3
# Si number density = 17.279849 Si / 1000 Ang^3
#
#
#
# Elastic Constant Matrix: (Units=GPa)
#
#
# Indices 1 2 3 4 5 6 
#
# 1 80.3017 21.6435 44.9122 0.0000 -2.1519 0.0000
# 2 21.6435 33.2439 28.6911 0.0000 1.4029 0.0000
# 3 44.9122 28.6911 97.6470 0.0000 0.6665 0.0000
# 4 0.0000 0.0000 0.0000 27.7297 0.0000 6.7714
# 5 -2.1519 1.4029 0.6665 0.0000 22.5554 0.0000
# 6 0.0000 0.0000 0.0000 6.7714 0.0000 24.1722
#
#
#
# Elastic Compliance Matrix: (Units=1/GPa)
#
#
# Indices 1 2 3 4 5 6 
#
# 1 0.017730 -0.006146 -0.006364 0.000000 0.002262 0.000000
# 2 -0.006146 0.042536 -0.009651 0.000000 -0.002947 0.000000
# 3 -0.006364 -0.009651 0.016007 0.000000 -0.000480 0.000000
# 4 0.000000 0.000000 0.000000 0.038710 0.000000 -0.010844
# 5 0.002262 -0.002947 -0.000480 0.000000 0.044749 0.000000
# 6 0.000000 0.000000 0.000000 -0.010844 0.000000 0.044408
#
#
# Mechanical properties :
#
#
# Convention : Reuss Voigt Hill
#
# Bulk Modulus (GPa) = 31.29884 44.63182 37.96533
# Shear Modulus (GPa) = 19.29670 22.62117 20.95894
#
# Velocity S-wave (km/s) = 3.34536 3.62208 3.48647
# Velocity P-wave (km/s) = 5.75101 6.58616 6.18270
#
# Compressibility (1/GPa) = 0.03195006
#
# Stress axis : x y z
#
# Youngs Moduli (GPa) = 56.40289 23.50968 62.47163
#
# Poissons Ratio (x) = 0.14448 0.39759
# Poissons Ratio (y) = 0.34663 0.60293
# Poissons Ratio (z) = 0.35897 0.22690
#
# Static dielectric constant tensor:
#      x y z
#    x 1.588350 0.000000 0.010420 
#    y 0.000000 1.575320 0.000000 
#    z 0.010420 0.000000 1.580640 
# 
# From -- ./inp_files/238686.got.cif
#   From: 2010.05.17/outbox.cif.g08.bks.cpg/sg12_120_cif.got.tgz:238686.got - 2010.06.03 13:09:07.
