data_PCOD9192993
_publ_section_title
;
Structure prediction by ZEFSAII (Michael W. Deem and Ramdas Pophale) SiO2 
 PCOD9192993
Probable space group: C 2/M
;
_chemical_formula_sum "Si O2"
_cell_formula_units_Z 56
_cell_length_a 14.783258
_cell_length_b 9.095761
_cell_length_c 29.278039
_cell_angle_alpha 90.000000
_cell_angle_beta 50.797468
_cell_angle_gamma 90.000000
_cell_volume 3050.746503
_symmetry_space_group_name_H-M "C 2/M"
_symmetry_group_IT_number 12
_symmetry_cell_setting 'monoclinic'
loop_
_space_group_symop_operation_xyz
x,y,z
-x,y,-z
-x,-y,-z
x,-y,z
1/2+x,1/2+y,z
1/2-x,1/2+y,-z
1/2-x,1/2-y,-z
1/2+x,1/2-y,z
loop_
_atom_site_type_symbol
_atom_site_label
_atom_site_fract_x
_atom_site_fract_y
_atom_site_fract_z
Si Si1 0.151313 0.677982 0.500189
Si Si2 0.286616 0.322253 0.271688
Si Si3 0.965496 0.324484 0.819131
Si Si4 0.688532 0.666056 0.061021
Si Si5 0.883568 0.678310 0.592987
Si Si6 0.246739 0.325604 0.181550
Si Si7 0.098679 0.334328 0.936112
O O1 0.159790 0.500000 0.500347
O O2 0.250000 0.750000 0.500000
O O3 0.159586 0.720793 0.443921
O O4 0.018902 0.721713 0.556420
O O5 0.298690 0.500000 0.270381
O O6 0.412848 0.248157 0.233282
O O7 0.201686 0.272982 0.339491
O O8 0.235541 0.285195 0.238018
O O9 0.975760 0.500000 0.820557
O O10 0.915738 0.254669 0.881811
O O11 0.869025 0.292268 0.810757
O O12 0.653509 0.500000 0.059318
O O13 0.788153 0.656050 0.067880
O O14 0.750000 0.750000 0.000000
O O15 0.884322 0.500000 0.592974
O O16 0.264890 0.500000 0.172893
O O17 0.357188 0.249125 0.122384
O O18 0.058791 0.500000 0.936824
O O19 0.000000 0.264466 0.000000
#
# Coordination Sequence:
#
# PCOD9192993 Si02
#       7
#     8   8   8   8   8   8   8
#     4   9  17  33  57  83 111 149 185 221 265 311
#     4  10  20  36  57  79 105 144 185 222 265 322
#     4  10  21  37  53  75 107 139 174 222 274 326
#     4  10  20  34  52  75 102 133 170 217 272 329
#     4   8  17  34  54  78 112 148 184 217 262 327
#     4   9  20  36  52  73 101 134 173 217 266 319
#     4   9  19  34  51  72  97 127 163 210 268 322
#
# _framework density 18.356162000000001
#
# number of rings (size 3 to 8) (size 9 to 14) (size 15 to 20)
#    0.000    2.714    0.000    1.714    2.000    3.143 
#    0.000    4.286    0.000    0.000    0.000    0.000 
#    0.000    0.000    0.000    0.000    0.000    0.000 
#
# Total GULP energy -156135.207997 kJ/mol
# GULP energy per Si atom -5576.257428 kJ/mol
# Density = 1.831438 g / cm^3
# Si number density = 18.356162 Si / 1000 Ang^3
#
#
#
# Elastic Constant Matrix: (Units=GPa)
#
#
# Indices 1 2 3 4 5 6 
#
# 1 110.7025 45.9781 82.8687 0.0000 0.3614 0.0000
# 2 45.9781 42.3238 58.4755 0.0000 1.6004 -0.0001
# 3 82.8687 58.4755 214.1111 0.0000 0.8196 0.0000
# 4 0.0000 0.0000 0.0000 23.2227 0.0000 -5.4638
# 5 0.3614 1.6004 0.8196 0.0000 18.8672 0.0000
# 6 0.0000 -0.0001 0.0000 -5.4638 0.0000 21.5631
#
#
#
# Elastic Compliance Matrix: (Units=1/GPa)
#
#
# Indices 1 2 3 4 5 6 
#
# 1 0.017279 -0.015363 -0.002496 0.000000 0.001081 0.000000
# 2 -0.015363 0.051751 -0.008173 0.000000 -0.003740 0.000000
# 3 -0.002496 -0.008173 0.007867 0.000000 0.000399 0.000000
# 4 0.000000 0.000000 0.000000 0.045791 0.000000 0.011603
# 5 0.001081 -0.003740 0.000399 0.000000 0.053281 0.000000
# 6 0.000000 0.000000 0.000000 0.011603 0.000000 0.049315
#
#
# Mechanical properties :
#
#
# Convention : Reuss Voigt Hill
#
# Bulk Modulus (GPa) = 40.27033 82.42025 61.34529
# Shear Modulus (GPa) = 17.50539 24.71827 21.11183
#
# Velocity S-wave (km/s) = 3.09148 3.67358 3.39502
# Velocity P-wave (km/s) = 5.89312 7.93673 6.99001
#
# Compressibility (1/GPa) = 0.02483218
#
# Stress axis : x y z
#
# Youngs Moduli (GPa) = 57.87422 19.32341 127.11241
#
# Poissons Ratio (x) = 0.29687 0.31725
# Poissons Ratio (y) = 0.88914 1.03890
# Poissons Ratio (z) = 0.14444 0.15793
#
# Static dielectric constant tensor:
#      x y z
#    x 1.641770 0.000000 0.009690 
#    y 0.000000 1.638470 0.000000 
#    z 0.009690 0.000000 1.619970 
# 
# From -- ./inp_files/374933.got.cif
#   From: 2010.05.17/outbox.cif.g08.bks.cpg/sg12_188_cif.got.tgz:374933.got - 2010.06.03 13:09:07.
