data_PCOD9192961
_publ_section_title
;
Structure prediction by ZEFSAII (Michael W. Deem and Ramdas Pophale) SiO2 
 PCOD9192961
Probable space group: C 2/M
;
_chemical_formula_sum "Si O2"
_cell_formula_units_Z 34
_cell_length_a 25.842709
_cell_length_b 7.777284
_cell_length_c 6.933230
_cell_angle_alpha 90.000000
_cell_angle_beta 66.498321
_cell_angle_gamma 90.000000
_cell_volume 1277.891129
_symmetry_space_group_name_H-M "C 2/M"
_symmetry_group_IT_number 12
_symmetry_cell_setting 'monoclinic'
loop_
_space_group_symop_operation_xyz
x,y,z
-x,y,-z
-x,-y,-z
x,-y,z
1/2+x,1/2+y,z
1/2-x,1/2+y,-z
1/2-x,1/2-y,-z
1/2+x,1/2-y,z
loop_
_atom_site_type_symbol
_atom_site_label
_atom_site_fract_x
_atom_site_fract_y
_atom_site_fract_z
Si Si1 0.182246 0.296776 0.775374
Si Si2 0.800173 0.702146 0.691825
Si Si3 0.438585 0.702365 0.129719
Si Si4 0.500000 0.000000 0.500000
Si Si5 0.417475 0.304670 0.618911
O O1 0.191019 0.500000 0.766039
O O2 0.192051 0.231141 0.540596
O O3 0.233521 0.223177 0.824516
O O4 0.116118 0.264830 0.904780
O O5 0.813420 0.500000 0.675512
O O6 0.849907 0.787250 0.740527
O O7 0.441645 0.500000 0.086051
O O8 0.426574 0.724390 0.374349
O O9 0.500000 0.780862 0.000000
O O10 0.543964 0.847087 0.358832
O O11 0.434664 0.500000 0.643761
#
# Coordination Sequence:
#
# PCOD9192961 Si02
#       5
#     8   8   8   2   8
#     4   9  16  24  41  69 100 132 158 191 248 308
#     4   9  15  27  44  67  99 130 159 201 250 299
#     4   9  18  32  49  73 106 136 164 201 253 313
#     4  12  22  36  50  74 100 136 180 214 248 294
#     4  10  20  34  52  74 104 134 169 214 252 296
#
# _framework density 26.606337
#
# number of rings (size 3 to 8) (size 9 to 14) (size 15 to 20)
#    0.000    2.588    1.176    1.765    1.647    6.118 
#    0.000    0.000    0.000    0.000    0.000    1.647 
#    0.000    0.000    0.000    0.000    0.000    0.000 
#
# Total GULP energy -94853.891532 kJ/mol
# GULP energy per Si atom -5579.640678 kJ/mol
# Density = 2.654578 g / cm^3
# Si number density = 26.606337 Si / 1000 Ang^3
#
#
#
# Elastic Constant Matrix: (Units=GPa)
#
#
# Indices 1 2 3 4 5 6 
#
# 1 198.1368 49.4895 70.3336 0.0000 -32.5319 0.0000
# 2 49.4895 119.4332 -3.0097 0.0000 -17.8587 0.0000
# 3 70.3336 -3.0097 118.5107 0.0000 -30.6651 0.0000
# 4 0.0000 0.0000 0.0000 -9.7498 0.0000 -24.2658
# 5 -32.5319 -17.8587 -30.6651 0.0000 66.4391 0.0000
# 6 0.0000 0.0000 0.0000 -24.2658 0.0000 40.7054
#
#
#
# Elastic Compliance Matrix: (Units=1/GPa)
#
#
# Indices 1 2 3 4 5 6 
#
# 1 0.007482 -0.003081 -0.004299 0.000000 0.000851 0.000000
# 2 -0.003081 0.010086 0.002721 0.000000 0.002458 0.000000
# 3 -0.004299 0.002721 0.012154 0.000000 0.004237 0.000000
# 4 0.000000 0.000000 0.000000 -0.041296 0.000000 -0.024618
# 5 0.000851 0.002458 0.004237 0.000000 0.018084 0.000000
# 6 0.000000 0.000000 0.000000 -0.024618 0.000000 0.009891
#
#
# Mechanical properties :
#
#
# Convention : Reuss Voigt Hill
#
# Bulk Modulus (GPa) = 49.00862 74.41195 61.71029
# Shear Modulus (GPa) = 153.74160 40.76343 97.25251
#
# Velocity S-wave (km/s) = 7.60981 3.91844 6.05242
# Velocity P-wave (km/s) = 9.78122 6.96425 8.49038
#
# Compressibility (1/GPa) = 0.02040457
#
# Stress axis : x y z
#
# Youngs Moduli (GPa) = 133.64732 99.14859 82.27408
#
# Poissons Ratio (x) = 0.30552 0.35366
# Poissons Ratio (y) = 0.41183 -0.22387
# Poissons Ratio (z) = 0.57449 -0.26978
#
# Static dielectric constant tensor:
#      x y z
#    x 2.086290 0.000000 0.016870 
#    y 0.000000 1.969720 0.000000 
#    z 0.016870 0.000000 2.229530 
# 
# From -- ./inp_files/92471.got.cif
#   From: 2010.05.17/outbox.cif.g08.bks.cpg/sg12_47_cif.got.tgz:92471.got - 2010.06.03 13:09:07.
