data_PCOD9192637
_publ_section_title
;
Structure prediction by ZEFSAII (Michael W. Deem and Ramdas Pophale) SiO2 
 PCOD9192637
Probable space group: C 2/M
;
_chemical_formula_sum "Si O2"
_cell_formula_units_Z 48
_cell_length_a 13.758118
_cell_length_b 33.804277
_cell_length_c 9.446995
_cell_angle_alpha 90.000000
_cell_angle_beta 148.609447
_cell_angle_gamma 90.000000
_cell_volume 2288.509852
_symmetry_space_group_name_H-M "C 2/M"
_symmetry_group_IT_number 12
_symmetry_cell_setting 'monoclinic'
loop_
_space_group_symop_operation_xyz
x,y,z
-x,y,-z
-x,-y,-z
x,-y,z
1/2+x,1/2+y,z
1/2-x,1/2+y,-z
1/2-x,1/2-y,-z
1/2+x,1/2-y,z
loop_
_atom_site_type_symbol
_atom_site_label
_atom_site_fract_x
_atom_site_fract_y
_atom_site_fract_z
Si Si1 0.203690 0.779713 0.608684
Si Si2 0.101624 0.302483 0.422631
Si Si3 0.179469 0.184284 0.886146
Si Si4 0.435552 0.455666 0.753852
Si Si5 0.155611 0.393464 0.502944
Si Si6 0.760305 0.096855 0.962756
O O1 0.199501 0.732811 0.629569
O O2 0.364343 0.789230 0.697280
O O3 0.205447 0.805228 0.752683
O O4 0.999280 0.790520 0.287409
O O5 0.183375 0.346499 0.526149
O O6 0.886154 0.306269 0.200986
O O7 0.145178 0.138099 0.873914
O O8 0.373438 0.500000 0.640436
O O9 0.282004 0.421172 0.563328
O O10 0.500000 0.457186 0.000000
O O11 0.602774 0.440371 0.861878
O O12 0.207922 0.401203 0.731334
O O13 0.939079 0.404014 0.208436
#
# Coordination Sequence:
#
# PCOD9192637 Si02
#       6
#     8   8   8   8   8   8
#     4  10  21  33  49  72  96 130 172 207 241 281
#     4  10  20  34  49  69  99 131 167 206 241 285
#     4  10  20  34  50  70  99 132 166 204 245 286
#     4   9  17  30  49  74 102 129 159 197 244 299
#     4   9  18  31  48  71  99 132 162 195 245 294
#     4   9  18  31  48  71  99 129 161 199 243 293
#
# _framework density 20.974347999999999
#
# number of rings (size 3 to 8) (size 9 to 14) (size 15 to 20)
#    0.000    2.500    0.000    2.000    0.000    7.333 
#    0.000    8.333    0.000    0.000    0.000    9.333 
#    0.000   26.667    0.000    0.000    0.000    0.000 
#
# Total GULP energy -133840.373108 kJ/mol
# GULP energy per Si atom -5576.682213 kJ/mol
# Density = 2.092661 g / cm^3
# Si number density = 20.974348 Si / 1000 Ang^3
#
#
#
# Elastic Constant Matrix: (Units=GPa)
#
#
# Indices 1 2 3 4 5 6 
#
# 1 43.2748 20.6020 5.2042 0.0000 11.5528 0.0000
# 2 20.6020 141.0719 41.7636 0.0000 25.4465 0.0000
# 3 5.2042 41.7636 35.3511 0.0000 16.8828 0.0000
# 4 0.0000 0.0000 0.0000 11.7357 0.0000 -3.0673
# 5 11.5528 25.4465 16.8828 0.0000 21.1977 0.0000
# 6 0.0000 0.0000 0.0000 -3.0673 0.0000 7.0776
#
#
#
# Elastic Compliance Matrix: (Units=1/GPa)
#
#
# Indices 1 2 3 4 5 6 
#
# 1 0.028588 -0.003407 0.008560 0.000000 -0.018309 0.000000
# 2 -0.003407 0.011588 -0.011994 0.000000 -0.002502 0.000000
# 3 0.008560 -0.011994 0.058984 0.000000 -0.037245 0.000000
# 4 0.000000 0.000000 0.000000 0.096095 0.000000 0.041646
# 5 -0.018309 -0.002502 -0.037245 0.000000 0.089820 0.000000
# 6 0.000000 0.000000 0.000000 0.041646 0.000000 0.159339
#
#
# Mechanical properties :
#
#
# Convention : Reuss Voigt Hill
#
# Bulk Modulus (GPa) = 11.69880 39.42641 25.56260
# Shear Modulus (GPa) = 10.27560 18.14405 14.20983
#
# Velocity S-wave (km/s) = 2.21580 2.94438 2.60568
# Velocity P-wave (km/s) = 3.48369 5.51338 4.61159
#
# Compressibility (1/GPa) = 0.08547888
#
# Stress axis : x y z
#
# Youngs Moduli (GPa) = 34.97947 86.29590 16.95369
#
# Poissons Ratio (x) = 0.29397 -0.14512
# Poissons Ratio (y) = 0.11916 0.20334
# Poissons Ratio (z) = -0.29941 1.03501
#
# Static dielectric constant tensor:
#      x y z
#    x 1.741630 0.000000 -0.009610 
#    y 0.000000 1.738810 0.000000 
#    z -0.009610 0.000000 1.848060 
# 
# From -- ./inp_files/150324.got.cif
#   From: 2010.05.17/outbox.cif.g08.bks.cpg/sg12_76_cif.got.tgz:150324.got - 2010.06.03 13:09:07.
