data_PCOD9192099
_publ_section_title
;
Structure prediction by ZEFSAII (Michael W. Deem and Ramdas Pophale) SiO2 
 PCOD9192099
Probable space group: C 2/M
;
_chemical_formula_sum "Si O2"
_cell_formula_units_Z 48
_cell_length_a 8.196706
_cell_length_b 13.416411
_cell_length_c 19.606592
_cell_angle_alpha 90.000000
_cell_angle_beta 67.863215
_cell_angle_gamma 90.000000
_cell_volume 1997.208217
_symmetry_space_group_name_H-M "C 2/M"
_symmetry_group_IT_number 12
_symmetry_cell_setting 'monoclinic'
loop_
_space_group_symop_operation_xyz
x,y,z
-x,y,-z
-x,-y,-z
x,-y,z
1/2+x,1/2+y,z
1/2-x,1/2+y,-z
1/2-x,1/2-y,-z
1/2+x,1/2-y,z
loop_
_atom_site_type_symbol
_atom_site_label
_atom_site_fract_x
_atom_site_fract_y
_atom_site_fract_z
Si Si1 0.433351 0.381024 0.395781
Si Si2 0.362238 0.113571 0.457831
Si Si3 0.662298 0.784399 0.333439
Si Si4 0.068806 0.843515 0.062645
Si Si5 0.090263 0.614005 0.065757
Si Si6 0.239069 0.892243 0.810229
O O1 0.441571 0.500000 0.393017
O O2 0.323783 0.351444 0.481397
O O3 0.623082 0.329595 0.359490
O O4 0.311104 0.341997 0.352792
O O5 0.500000 0.114051 0.500000
O O6 0.472782 0.169448 0.383543
O O7 0.335335 0.000000 0.440790
O O8 0.702106 0.804994 0.248688
O O9 0.014411 0.726824 0.076683
O O10 0.969197 0.890427 0.141617
O O11 0.272121 0.871230 0.019505
O O12 0.000000 0.880273 0.000000
O O13 0.018184 0.500000 0.072581
O O14 0.178083 0.615129 0.127517
O O15 0.288665 0.000000 0.772093
#
# Coordination Sequence:
#
# PCOD9192099 Si02
#       6
#     8   8   8   8   8   8
#     4  10  22  40  60  86 119 156 200 247 291 346
#     4   8  15  32  58  85 114 152 199 243 288 344
#     4  11  21  36  61  86 117 157 193 240 297 350
#     4   9  18  33  53  74 102 139 176 221 276 333
#     4   9  18  33  52  76 104 134 178 226 272 334
#     4  10  20  33  53  78 105 140 182 229 282 341
#
# _framework density 24.033549000000001
#
# number of rings (size 3 to 8) (size 9 to 14) (size 15 to 20)
#    0.000    2.500    0.000    3.500    2.333    2.333 
#    0.000    3.333    0.000    6.500    0.000    0.000 
#    0.000    0.000    0.000    0.000    0.000    0.000 
#
# Total GULP energy -133811.162860 kJ/mol
# GULP energy per Si atom -5575.465119 kJ/mol
# Density = 2.397885 g / cm^3
# Si number density = 24.033549 Si / 1000 Ang^3
#
#
#
# Elastic Constant Matrix: (Units=GPa)
#
#
# Indices 1 2 3 4 5 6 
#
# 1 37.8117 16.6530 7.5315 0.0000 2.9606 0.0000
# 2 16.6530 147.4906 35.9994 0.0000 -7.3576 0.0000
# 3 7.5315 35.9994 121.5101 0.0000 -3.0934 0.0000
# 4 0.0000 0.0000 0.0000 24.9113 0.0000 -3.5584
# 5 2.9606 -7.3576 -3.0934 0.0000 15.0090 0.0000
# 6 0.0000 0.0000 0.0000 -3.5584 0.0000 24.3988
#
#
#
# Elastic Compliance Matrix: (Units=1/GPa)
#
#
# Indices 1 2 3 4 5 6 
#
# 1 0.028718 -0.003381 -0.000970 0.000000 -0.007522 0.000000
# 2 -0.003381 0.007858 -0.002014 0.000000 0.004104 0.000000
# 3 -0.000970 -0.002014 0.008913 0.000000 0.001041 0.000000
# 4 0.000000 0.000000 0.000000 0.040997 0.000000 0.005979
# 5 -0.007522 0.004104 0.001041 0.000000 0.070337 0.000000
# 6 0.000000 0.000000 0.000000 0.005979 0.000000 0.041858
#
#
# Mechanical properties :
#
#
# Convention : Reuss Voigt Hill
#
# Bulk Modulus (GPa) = 30.52558 47.46447 38.99502
# Shear Modulus (GPa) = 22.48907 29.30571 25.89739
#
# Velocity S-wave (km/s) = 3.06230 3.49573 3.28617
# Velocity P-wave (km/s) = 5.02318 6.00713 5.53706
#
# Compressibility (1/GPa) = 0.03275942
#
# Stress axis : x y z
#
# Youngs Moduli (GPa) = 34.82129 127.25622 112.19467
#
# Poissons Ratio (x) = 0.43026 0.10881
# Poissons Ratio (y) = 0.11773 0.22597
# Poissons Ratio (z) = 0.03377 0.25630
#
# Static dielectric constant tensor:
#      x y z
#    x 2.051620 0.000000 -0.027940 
#    y 0.000000 2.019480 0.000000 
#    z -0.027940 0.000000 1.862290 
# 
# From -- ./inp_files/304069.got.cif
#   From: 2010.05.17/outbox.cif.g08.bks.cpg/sg12_153_cif.got.tgz:304069.got - 2010.06.03 13:09:07.
