data_PCOD9192826
_publ_section_title
;
Structure prediction by ZEFSAII (Michael W. Deem and Ramdas Pophale) SiO2 
 PCOD9192826
Probable space group: C 2/M
;
_chemical_formula_sum "Si O2"
_cell_formula_units_Z 64
_cell_length_a 14.875022
_cell_length_b 8.580200
_cell_length_c 26.833492
_cell_angle_alpha 90.000000
_cell_angle_beta 86.906346
_cell_angle_gamma 90.000000
_cell_volume 3419.785311
_symmetry_space_group_name_H-M "C 2/M"
_symmetry_group_IT_number 12
_symmetry_cell_setting 'monoclinic'
loop_
_space_group_symop_operation_xyz
x,y,z
-x,y,-z
-x,-y,-z
x,-y,z
1/2+x,1/2+y,z
1/2-x,1/2+y,-z
1/2-x,1/2-y,-z
1/2+x,1/2-y,z
loop_
_atom_site_type_symbol
_atom_site_label
_atom_site_fract_x
_atom_site_fract_y
_atom_site_fract_z
Si Si1 0.768537 0.688385 0.189841
Si Si2 0.741434 0.688366 0.077639
Si Si3 0.381182 0.687609 0.363549
Si Si4 0.877199 0.312821 0.728465
Si Si5 0.103189 0.688237 0.004171
Si Si6 0.080772 0.312627 0.743020
Si Si7 0.271006 0.186811 0.553917
Si Si8 0.413581 0.686512 0.620893
O O1 0.766741 0.500000 0.189241
O O2 0.750354 0.742528 0.134262
O O3 0.694670 0.747272 0.230947
O O4 0.864673 0.737758 0.209899
O O5 0.737992 0.500000 0.077237
O O6 0.829685 0.735244 0.042913
O O7 0.653259 0.751108 0.052105
O O8 0.377849 0.500000 0.360567
O O9 0.370508 0.753501 0.308397
O O10 0.306279 0.739633 0.404877
O O11 0.481412 0.732459 0.378732
O O12 0.872922 0.500000 0.727886
O O13 0.867062 0.252053 0.672386
O O14 0.977253 0.261322 0.742892
O O15 0.102005 0.500000 0.005906
O O16 0.000000 0.741159 0.000000
O O17 0.080536 0.500000 0.741679
O O18 0.250000 0.250000 0.500000
O O19 0.364092 0.247593 0.574133
O O20 0.271305 0.000000 0.552814
O O21 0.408224 0.500000 0.621345
#
# Coordination Sequence:
#
# PCOD9192826 Si02
#       8
#     8   8   8   8   8   8   8   8
#     4  10  20  34  51  74 107 143 172 207 257 308
#     4   9  19  34  51  75 106 136 171 214 259 308
#     4   9  20  37  56  76 103 137 172 210 255 306
#     4  10  20  34  53  79 106 135 173 214 253 301
#     4   9  18  34  56  77  99 133 175 217 261 308
#     4   9  19  34  53  76 103 135 171 208 251 304
#     4  11  23  38  55  79 107 136 172 215 261 310
#     4  10  20  37  58  78 103 138 174 212 259 310
#
# _framework density 18.714625999999999
#
# number of rings (size 3 to 8) (size 9 to 14) (size 15 to 20)
#    0.000    2.375    0.000    1.875    0.000    6.750 
#    0.000    5.000    0.000    0.000    0.000    0.000 
#    0.000    0.000    0.000    0.000    0.000    0.000 
#
# Total GULP energy -178613.654847 kJ/mol
# GULP energy per Si atom -5581.676714 kJ/mol
# Density = 1.867203 g / cm^3
# Si number density = 18.714626 Si / 1000 Ang^3
#
#
#
# Elastic Constant Matrix: (Units=GPa)
#
#
# Indices 1 2 3 4 5 6 
#
# 1 90.6707 13.7263 44.3141 0.0000 24.9300 0.0000
# 2 13.7263 13.1505 15.0854 0.0000 7.3309 0.0000
# 3 44.3141 15.0854 101.9687 0.0000 35.9432 0.0000
# 4 0.0000 0.0000 0.0000 28.6566 0.0000 3.1612
# 5 24.9300 7.3309 35.9432 0.0000 25.5646 0.0000
# 6 0.0000 0.0000 0.0000 3.1612 0.0000 20.1880
#
#
#
# Elastic Compliance Matrix: (Units=1/GPa)
#
#
# Indices 1 2 3 4 5 6 
#
# 1 0.016231 -0.008750 -0.002110 0.000000 -0.010352 0.000000
# 2 -0.008750 0.099018 -0.007623 0.000000 -0.009143 0.000000
# 3 -0.002110 -0.007623 0.020531 0.000000 -0.024622 0.000000
# 4 0.000000 0.000000 0.000000 0.035509 0.000000 -0.005560
# 5 -0.010352 -0.009143 -0.024622 0.000000 0.086451 0.000000
# 6 0.000000 0.000000 0.000000 -0.005560 0.000000 0.050405
#
#
# Mechanical properties :
#
#
# Convention : Reuss Voigt Hill
#
# Bulk Modulus (GPa) = 10.12017 39.11571 24.61794
# Shear Modulus (GPa) = 13.22575 23.72613 18.47594
#
# Velocity S-wave (km/s) = 2.66128 3.56446 3.14546
# Velocity P-wave (km/s) = 3.85520 6.15524 5.13564
#
# Compressibility (1/GPa) = 0.09881259
#
# Stress axis : x y z
#
# Youngs Moduli (GPa) = 61.60936 10.09918 48.70728
#
# Poissons Ratio (x) = 0.08837 0.10279
# Poissons Ratio (y) = 0.53910 0.37130
# Poissons Ratio (z) = 0.13002 0.07699
#
# Static dielectric constant tensor:
#      x y z
#    x 1.661900 0.000000 0.009960 
#    y 0.000000 1.634530 0.000000 
#    z 0.009960 0.000000 1.620880 
# 
# From -- ./inp_files/338836.got.cif
#   From: 2010.05.17/outbox.cif.g08.bks.cpg/sg12_170_cif.got.tgz:338836.got - 2010.06.03 13:09:07.
