data_PCOD9192683
_publ_section_title
;
Structure prediction by ZEFSAII (Michael W. Deem and Ramdas Pophale) SiO2 
 PCOD9192683
Probable space group: C 2/M
;
_chemical_formula_sum "Si O2"
_cell_formula_units_Z 48
_cell_length_a 14.481794
_cell_length_b 7.657966
_cell_length_c 27.825279
_cell_angle_alpha 90.000000
_cell_angle_beta 122.933437
_cell_angle_gamma 90.000000
_cell_volume 2589.965411
_symmetry_space_group_name_H-M "C 2/M"
_symmetry_group_IT_number 12
_symmetry_cell_setting 'monoclinic'
loop_
_space_group_symop_operation_xyz
x,y,z
-x,y,-z
-x,-y,-z
x,-y,z
1/2+x,1/2+y,z
1/2-x,1/2+y,-z
1/2-x,1/2-y,-z
1/2+x,1/2-y,z
loop_
_atom_site_type_symbol
_atom_site_label
_atom_site_fract_x
_atom_site_fract_y
_atom_site_fract_z
Si Si1 0.449422 0.706991 0.844782
Si Si2 0.500619 0.211157 0.246321
Si Si3 0.820687 0.000000 0.431540
Si Si4 0.603772 0.800785 0.376336
Si Si5 0.536887 0.500000 0.430957
Si Si6 0.744024 0.794382 0.843881
Si Si7 0.193607 0.791991 0.933833
O O1 0.453262 0.500000 0.855958
O O2 0.437720 0.731340 0.784479
O O3 0.346861 0.782360 0.844652
O O4 0.568585 0.778305 0.894292
O O5 0.555069 0.262964 0.311785
O O6 0.375319 0.277388 0.204945
O O7 0.500225 0.000000 0.245500
O O8 0.735106 0.163661 0.407463
O O9 0.888302 0.000000 0.500105
O O10 0.910109 0.000000 0.413918
O O11 0.568428 0.668586 0.407824
O O12 0.561243 0.000000 0.373705
O O13 0.756174 0.776158 0.904506
O O14 0.738997 0.000000 0.831024
O O15 0.189519 0.000000 0.927681
O O16 0.250000 0.750000 0.000000
#
# Coordination Sequence:
#
# PCOD9192683 Si02
#       7
#     8   8   4   8   4   8   8
#     4   9  19  33  52  74 100 131 172 212 257 325
#     4   9  18  34  52  76 109 133 169 225 272 320
#     4   9  22  40  57  91 123 147 217 242 280 374
#     4   9  21  38  57  88 121 152 201 249 288 354
#     4  11  20  40  63  83 119 171 189 248 308 334
#     4   9  18  34  53  73  98 135 168 209 269 320
#     4  10  20  34  50  71  98 130 169 214 258 312
#
# _framework density 18.533065000000001
#
# number of rings (size 3 to 8) (size 9 to 14) (size 15 to 20)
#    0.500    2.167    0.000    1.000    1.167    3.333 
#    1.500    4.167    0.000    0.000    0.000    0.000 
#    0.000    0.000    0.000    0.000    0.000    0.000 
#
# Total GULP energy -133693.513457 kJ/mol
# GULP energy per Si atom -5570.563061 kJ/mol
# Density = 1.849088 g / cm^3
# Si number density = 18.533065 Si / 1000 Ang^3
#
#
#
# Elastic Constant Matrix: (Units=GPa)
#
#
# Indices 1 2 3 4 5 6 
#
# 1 179.1478 28.9054 69.8420 0.0000 -16.1927 0.0000
# 2 28.9054 44.4063 6.7222 0.0000 2.6631 0.0000
# 3 69.8420 6.7222 121.1108 0.0000 -13.6052 0.0000
# 4 0.0000 0.0000 0.0000 16.9794 0.0000 -7.7018
# 5 -16.1927 2.6631 -13.6052 0.0000 8.0984 0.0000
# 6 0.0000 0.0000 0.0000 -7.7018 0.0000 16.6288
#
#
#
# Elastic Compliance Matrix: (Units=1/GPa)
#
#
# Indices 1 2 3 4 5 6 
#
# 1 0.009272 -0.006445 -0.003289 0.000000 0.015133 0.000000
# 2 -0.006445 0.028146 -0.000410 0.000000 -0.022832 0.000000
# 3 -0.003289 -0.000410 0.011652 0.000000 0.013133 0.000000
# 4 0.000000 0.000000 0.000000 0.074559 0.000000 0.034532
# 5 0.015133 -0.022832 0.013133 0.000000 0.183312 0.000000
# 6 0.000000 0.000000 0.000000 0.034532 0.000000 0.076131
#
#
# Mechanical properties :
#
#
# Convention : Reuss Voigt Hill
#
# Bulk Modulus (GPa) = 34.74575 61.73379 48.23977
# Shear Modulus (GPa) = 12.10788 24.28766 18.19777
#
# Velocity S-wave (km/s) = 2.55877 3.62402 3.13694
# Velocity P-wave (km/s) = 5.24580 7.13398 6.26148
#
# Compressibility (1/GPa) = 0.02878050
#
# Stress axis : x y z
#
# Youngs Moduli (GPa) = 107.85057 35.52891 85.82318
#
# Poissons Ratio (x) = 0.22899 0.28230
# Poissons Ratio (y) = 0.69511 0.03522
# Poissons Ratio (z) = 0.35475 0.01458
#
# Static dielectric constant tensor:
#      x y z
#    x 1.648940 0.000000 0.033670 
#    y 0.000000 1.649180 0.000000 
#    z 0.033670 0.000000 1.602800 
# 
# From -- ./inp_files/357373.got.cif
#   From: 2010.05.17/outbox.cif.g08.bks.cpg/sg12_179_cif.got.tgz:357373.got - 2010.06.03 13:09:07.
