data_PCOD9192919
_publ_section_title
;
Structure prediction by ZEFSAII (Michael W. Deem and Ramdas Pophale) SiO2 
 PCOD9192919
Probable space group: C 2/M
;
_chemical_formula_sum "Si O2"
_cell_formula_units_Z 56
_cell_length_a 15.050665
_cell_length_b 7.605628
_cell_length_c 30.630048
_cell_angle_alpha 90.000000
_cell_angle_beta 52.908419
_cell_angle_gamma 90.000000
_cell_volume 2796.810853
_symmetry_space_group_name_H-M "C 2/M"
_symmetry_group_IT_number 12
_symmetry_cell_setting 'monoclinic'
loop_
_space_group_symop_operation_xyz
x,y,z
-x,y,-z
-x,-y,-z
x,-y,z
1/2+x,1/2+y,z
1/2-x,1/2+y,-z
1/2-x,1/2-y,-z
1/2+x,1/2-y,z
loop_
_atom_site_type_symbol
_atom_site_label
_atom_site_fract_x
_atom_site_fract_y
_atom_site_fract_z
Si Si1 0.029509 0.208824 0.354651
Si Si2 0.301574 0.711451 0.937427
Si Si3 0.549680 0.707122 0.855628
Si Si4 0.398470 0.212955 0.061217
Si Si5 0.282776 0.286697 0.267722
Si Si6 0.921135 0.212691 0.562483
Si Si7 0.332432 0.290809 0.350696
O O1 0.154111 0.234473 0.299185
O O2 0.037542 0.277989 0.402144
O O3 0.931188 0.279435 0.352530
O O4 0.009797 0.000000 0.364274
O O5 0.307014 0.500000 0.932985
O O6 0.424975 0.783079 0.893336
O O7 0.215013 0.774448 0.927137
O O8 0.250000 0.750000 0.000000
O O9 0.539657 0.500000 0.848622
O O10 0.591286 0.725816 0.892579
O O11 0.635897 0.778210 0.794542
O O12 0.400879 0.000000 0.060802
O O13 0.500000 0.271226 0.000000
O O14 0.283504 0.500000 0.268141
O O15 0.324842 0.223553 0.302943
O O16 0.791983 0.262020 0.594068
O O17 0.000000 0.273968 0.500000
O O18 0.925077 0.000000 0.562320
O O19 0.350845 0.500000 0.341729
#
# Coordination Sequence:
#
# PCOD9192919 Si02
#       7
#     8   8   8   8   8   8   8
#     4   9  18  33  53  75  99 134 174 208 251 300
#     4  10  20  34  52  73  99 129 160 197 244 296
#     4  10  21  35  52  74  99 130 164 202 251 305
#     4  10  20  34  52  75 100 127 161 200 243 295
#     4   9  19  35  51  71  99 128 165 210 254 297
#     4   9  18  32  49  74 109 141 170 208 252 297
#     4   9  18  33  53  74  99 133 172 213 250 295
#
# _framework density 20.022807
#
# number of rings (size 3 to 8) (size 9 to 14) (size 15 to 20)
#    0.000    2.571    1.429    0.000    0.000    4.000 
#    0.000    2.857    0.000    0.000    0.000    0.000 
#    0.000    0.000    0.000    0.000    0.000    0.000 
#
# Total GULP energy -156200.082620 kJ/mol
# GULP energy per Si atom -5578.574379 kJ/mol
# Density = 1.997723 g / cm^3
# Si number density = 20.022807 Si / 1000 Ang^3
#
#
#
# Elastic Constant Matrix: (Units=GPa)
#
#
# Indices 1 2 3 4 5 6 
#
# 1 207.2680 -1.8289 101.4355 -0.0001 -15.2175 -0.0004
# 2 -1.8289 36.9792 -10.5699 -0.0005 2.1434 -0.0007
# 3 101.4355 -10.5699 181.5647 0.0000 -10.3444 0.0000
# 4 -0.0001 -0.0005 0.0000 10.3933 -0.0001 -16.1485
# 5 -15.2175 2.1434 -10.3444 -0.0001 13.3352 0.0001
# 6 -0.0004 -0.0007 0.0000 -16.1485 0.0001 -7.5836
#
#
#
# Elastic Compliance Matrix: (Units=1/GPa)
#
#
# Indices 1 2 3 4 5 6 
#
# 1 0.007000 -0.001010 -0.003667 0.000000 0.005306 0.000000
# 2 -0.001010 0.027787 0.001948 -0.000001 -0.004108 -0.000001
# 3 -0.003667 0.001948 0.007756 0.000000 0.001519 0.000000
# 4 0.000000 -0.000001 0.000000 0.022332 0.000000 -0.047552
# 5 0.005306 -0.004108 0.001519 0.000000 0.082883 0.000000
# 6 0.000000 -0.000001 0.000000 -0.047552 0.000000 -0.030605
#
#
# Mechanical properties :
#
#
# Convention : Reuss Voigt Hill
#
# Bulk Modulus (GPa) = 26.96494 67.09835 47.03164
# Shear Modulus (GPa) = 37.04461 25.68066 31.36263
#
# Velocity S-wave (km/s) = 4.30597 3.58518 3.96200
# Velocity P-wave (km/s) = 6.18208 7.12192 6.66858
#
# Compressibility (1/GPa) = 0.03708520
#
# Stress axis : x y z
#
# Youngs Moduli (GPa) = 142.85702 35.98797 128.92625
#
# Poissons Ratio (x) = 0.03633 0.47280
# Poissons Ratio (y) = 0.14422 -0.25110
# Poissons Ratio (z) = 0.52389 -0.07009
#
# Static dielectric constant tensor:
#      x y z
#    x 1.696260 0.000000 -0.000590 
#    y 0.000000 1.768080 0.000000 
#    z -0.000590 0.000000 1.685610 
# 
# From -- ./inp_files/308937.got.cif
#   From: 2010.05.17/outbox.cif.g08.bks.cpg/sg12_155_cif.got.tgz:308937.got - 2010.06.03 13:09:07.
