data_PCOD9192717
_publ_section_title
;
Structure prediction by ZEFSAII (Michael W. Deem and Ramdas Pophale) SiO2 
 PCOD9192717
Probable space group: C 2/M
;
_chemical_formula_sum "Si O2"
_cell_formula_units_Z 52
_cell_length_a 22.479914
_cell_length_b 25.332827
_cell_length_c 9.385553
_cell_angle_alpha 90.000000
_cell_angle_beta 35.586138
_cell_angle_gamma 90.000000
_cell_volume 3110.327392
_symmetry_space_group_name_H-M "C 2/M"
_symmetry_group_IT_number 12
_symmetry_cell_setting 'monoclinic'
loop_
_space_group_symop_operation_xyz
x,y,z
-x,y,-z
-x,-y,-z
x,-y,z
1/2+x,1/2+y,z
1/2-x,1/2+y,-z
1/2-x,1/2-y,-z
1/2+x,1/2-y,z
loop_
_atom_site_type_symbol
_atom_site_label
_atom_site_fract_x
_atom_site_fract_y
_atom_site_fract_z
Si Si1 0.146503 0.340849 0.882519
Si Si2 0.000000 0.589691 0.000000
Si Si3 0.362712 0.292046 0.422687
Si Si4 0.494710 0.000000 0.248950
Si Si5 0.778204 0.289431 0.814224
Si Si6 0.408242 0.279465 0.003337
Si Si7 0.654439 0.000000 0.192485
Si Si8 0.620600 0.889077 0.238177
O O1 0.094381 0.371656 0.853449
O O2 0.267426 0.330940 0.630391
O O3 0.092863 0.284055 0.015582
O O4 0.129226 0.373669 0.057768
O O5 0.986135 0.550755 0.162142
O O6 0.335335 0.242771 0.577957
O O7 0.367750 0.282334 0.244034
O O8 0.480233 0.304675 0.229748
O O9 0.595150 0.000000 0.154242
O O10 0.409489 0.000000 0.536004
O O11 0.670999 0.304896 0.951231
O O12 0.843159 0.338793 0.741744
O O13 0.750000 0.250000 0.000000
O O14 0.693307 0.939896 0.121373
O O15 0.500000 0.901540 0.500000
#
# Coordination Sequence:
#
# PCOD9192717 Si02
#       8
#     8   4   8   4   8   8   4   8
#     4  11  20  33  52  80 103 146 184 217 270 327
#     4  11  20  32  56  78 108 140 182 221 268 324
#     4  10  21  36  52  75 112 143 183 223 272 322
#     4  10  20  34  50  78 106 141 179 223 268 332
#     4  11  21  33  53  82 107 142 189 218 270 330
#     4  10  21  37  51  75 113 145 179 230 264 325
#     4  11  20  38  50  76 115 144 179 222 283 327
#     4  12  21  34  54  78 115 148 175 225 275 327
#
# _framework density 16.718495999999998
#
# number of rings (size 3 to 8) (size 9 to 14) (size 15 to 20)
#    0.000    1.231    6.154    3.692    0.000    3.692 
#    0.000    0.000    0.000    0.000    0.000    4.308 
#    0.000   13.538    0.000    0.000    0.000    0.000 
#
# Total GULP energy -144748.046056 kJ/mol
# GULP energy per Si atom -5567.232541 kJ/mol
# Density = 1.668044 g / cm^3
# Si number density = 16.718496 Si / 1000 Ang^3
#
#
#
# Elastic Constant Matrix: (Units=GPa)
#
#
# Indices 1 2 3 4 5 6 
#
# 1 99.2823 22.7207 39.1286 0.0000 -0.7084 0.0000
# 2 22.7207 73.8634 24.0498 0.0000 0.9604 0.0000
# 3 39.1286 24.0498 81.8953 0.0000 -7.7066 0.0000
# 4 0.0000 0.0000 0.0000 20.3709 0.0000 0.6469
# 5 -0.7084 0.9604 -7.7066 0.0000 19.3175 0.0000
# 6 0.0000 0.0000 0.0000 0.6469 0.0000 26.8637
#
#
#
# Elastic Compliance Matrix: (Units=1/GPa)
#
#
# Indices 1 2 3 4 5 6 
#
# 1 0.012759 -0.002064 -0.005648 0.000000 -0.001683 0.000000
# 2 -0.002064 0.015430 -0.003766 0.000000 -0.002345 0.000000
# 3 -0.005648 -0.003766 0.016638 0.000000 0.006618 0.000000
# 4 0.000000 0.000000 0.000000 0.049127 0.000000 -0.001183
# 5 -0.001683 -0.002345 0.006618 0.000000 0.054461 0.000000
# 6 0.000000 0.000000 0.000000 -0.001183 0.000000 0.037253
#
#
# Mechanical properties :
#
#
# Convention : Reuss Voigt Hill
#
# Bulk Modulus (GPa) = 45.72280 47.42658 46.57469
# Shear Modulus (GPa) = 23.15729 24.58655 23.87192
#
# Velocity S-wave (km/s) = 3.72577 3.83903 3.78282
# Velocity P-wave (km/s) = 6.77617 6.93398 6.85553
#
# Compressibility (1/GPa) = 0.02187093
#
# Stress axis : x y z
#
# Youngs Moduli (GPa) = 78.37842 64.80889 60.10313
#
# Poissons Ratio (x) = 0.13374 0.33948
# Poissons Ratio (y) = 0.16175 0.22635
# Poissons Ratio (z) = 0.44270 0.24407
#
# Static dielectric constant tensor:
#      x y z
#    x 1.591610 0.000000 -0.016170 
#    y 0.000000 1.614570 0.000000 
#    z -0.016170 0.000000 1.577710 
# 
# From -- ./inp_files/91072.got.cif
#   From: 2010.05.17/outbox.cif.g08.bks.cpg/sg12_46_cif.got.tgz:91072.got - 2010.06.03 13:09:07.
