data_PCOD9192232
_publ_section_title
;
Structure prediction by ZEFSAII (Michael W. Deem and Ramdas Pophale) SiO2 
 PCOD9192232
Probable space group: C 2/M
;
_chemical_formula_sum "Si O2"
_cell_formula_units_Z 44
_cell_length_a 8.424730
_cell_length_b 14.349152
_cell_length_c 16.119581
_cell_angle_alpha 90.000000
_cell_angle_beta 62.170643
_cell_angle_gamma 90.000000
_cell_volume 1723.281300
_symmetry_space_group_name_H-M "C 2/M"
_symmetry_group_IT_number 12
_symmetry_cell_setting 'monoclinic'
loop_
_space_group_symop_operation_xyz
x,y,z
-x,y,-z
-x,-y,-z
x,-y,z
1/2+x,1/2+y,z
1/2-x,1/2+y,-z
1/2-x,1/2-y,-z
1/2+x,1/2-y,z
loop_
_atom_site_type_symbol
_atom_site_label
_atom_site_fract_x
_atom_site_fract_y
_atom_site_fract_z
Si Si1 0.176329 0.112343 0.289412
Si Si2 0.500000 0.874315 0.500000
Si Si3 0.201760 0.113871 0.694223
Si Si4 0.342917 0.613739 0.102925
Si Si5 0.986964 0.386544 0.096852
Si Si6 0.287453 0.345237 0.541259
O O1 0.298755 0.139244 0.182509
O O2 0.268276 0.151037 0.349727
O O3 0.971698 0.136981 0.319248
O O4 0.179249 0.000000 0.297769
O O5 0.620430 0.840844 0.390285
O O6 0.666996 0.910712 0.513394
O O7 0.155450 0.140301 0.800299
O O8 0.229813 0.000000 0.686288
O O9 0.347448 0.500000 0.102907
O O10 0.154540 0.645062 0.110160
O O11 0.500000 0.641088 0.000000
O O12 0.993839 0.500000 0.094842
O O13 0.000000 0.354780 0.000000
O O14 0.500000 0.364552 0.500000
O O15 0.250000 0.250000 0.500000
#
# Coordination Sequence:
#
# PCOD9192232 Si02
#       6
#     8   4   8   8   8   8
#     4  10  21  37  59  91 126 158 203 257 305 360
#     4  12  23  38  60  82 115 156 204 252 302 368
#     4  10  20  33  53  85 123 160 197 248 309 359
#     4   9  16  27  44  70 110 159 202 236 288 360
#     4   9  16  28  49  81 122 160 193 240 302 360
#     4  12  25  44  64  86 117 160 208 255 307 368
#
# _framework density 25.532685000000001
#
# number of rings (size 3 to 8) (size 9 to 14) (size 15 to 20)
#    0.000    1.818    2.727    2.455    0.000    7.636 
#    0.000    0.000    0.000    0.000    0.000    2.545 
#    0.000    0.000    0.000    0.000    0.000    0.182 
#
# Total GULP energy -122790.578512 kJ/mol
# GULP energy per Si atom -5581.389932 kJ/mol
# Density = 2.547457 g / cm^3
# Si number density = 25.532685 Si / 1000 Ang^3
#
#
#
# Elastic Constant Matrix: (Units=GPa)
#
#
# Indices 1 2 3 4 5 6 
#
# 1 209.9626 23.9085 92.9151 0.0000 10.1779 0.0000
# 2 23.9085 103.2790 14.6618 0.0000 2.9766 0.0000
# 3 92.9151 14.6618 235.3650 0.0000 6.3702 0.0000
# 4 0.0000 0.0000 0.0000 13.1613 0.0000 6.2403
# 5 10.1779 2.9766 6.3702 0.0000 64.8149 0.0000
# 6 0.0000 0.0000 0.0000 6.2403 0.0000 4.7169
#
#
#
# Elastic Compliance Matrix: (Units=1/GPa)
#
#
# Indices 1 2 3 4 5 6 
#
# 1 0.005908 -0.001029 -0.002250 0.000000 -0.000659 0.000000
# 2 -0.001029 0.009958 -0.000207 0.000000 -0.000275 0.000000
# 3 -0.002250 -0.000207 0.005154 0.000000 -0.000144 0.000000
# 4 0.000000 0.000000 0.000000 0.203850 0.000000 -0.269685
# 5 -0.000659 -0.000275 -0.000144 0.000000 0.015559 0.000000
# 6 0.000000 0.000000 0.000000 -0.269685 0.000000 0.568784
#
#
# Mechanical properties :
#
#
# Convention : Reuss Voigt Hill
#
# Bulk Modulus (GPa) = 71.18667 90.17527 80.68097
# Shear Modulus (GPa) = 6.09112 44.34670 25.21891
#
# Velocity S-wave (km/s) = 1.54622 4.17209 3.14620
# Velocity P-wave (km/s) = 5.57932 7.65524 6.69819
#
# Compressibility (1/GPa) = 0.01404757
#
# Stress axis : x y z
#
# Youngs Moduli (GPa) = 169.27068 100.42162 194.03144
#
# Poissons Ratio (x) = 0.10335 0.43662
# Poissons Ratio (y) = 0.17420 0.04009
# Poissons Ratio (z) = 0.38090 0.02075
#
# Static dielectric constant tensor:
#      x y z
#    x 1.941490 0.000000 -0.027830 
#    y 0.000000 2.261040 0.000000 
#    z -0.027830 0.000000 1.997170 
# 
# From -- ./inp_files/196825.got.cif
#   From: 2010.05.17/outbox.cif.g08.bks.cpg/sg12_99_cif.got.tgz:196825.got - 2010.06.03 13:09:07.
