data_PCOD9192058
_publ_section_title
;
Structure prediction by ZEFSAII (Michael W. Deem and Ramdas Pophale) SiO2 
 PCOD9192058
Probable space group: C 2/M
;
_chemical_formula_sum "Si O2"
_cell_formula_units_Z 56
_cell_length_a 12.588441
_cell_length_b 16.353163
_cell_length_c 15.095583
_cell_angle_alpha 90.000000
_cell_angle_beta 120.068949
_cell_angle_gamma 90.000000
_cell_volume 2689.379435
_symmetry_space_group_name_H-M "C 2/M"
_symmetry_group_IT_number 12
_symmetry_cell_setting 'monoclinic'
loop_
_space_group_symop_operation_xyz
x,y,z
-x,y,-z
-x,-y,-z
x,-y,z
1/2+x,1/2+y,z
1/2-x,1/2+y,-z
1/2-x,1/2-y,-z
1/2+x,1/2-y,z
loop_
_atom_site_type_symbol
_atom_site_label
_atom_site_fract_x
_atom_site_fract_y
_atom_site_fract_z
Si Si1 0.760384 0.402848 0.669519
Si Si2 0.654084 0.823491 0.472811
Si Si3 0.332665 0.595058 0.666409
Si Si4 0.882799 0.597452 0.898777
Si Si5 0.322265 0.296703 0.106140
Si Si6 0.549267 0.706015 0.666226
Si Si7 0.017410 0.910256 0.111857
O O1 0.731974 0.500000 0.665026
O O2 0.817670 0.382229 0.598755
O O3 0.860858 0.380336 0.787191
O O4 0.640094 0.347778 0.642136
O O5 0.750000 0.750000 0.500000
O O6 0.703499 0.868864 0.580491
O O7 0.523368 0.779449 0.410708
O O8 0.341014 0.500000 0.643514
O O9 0.444599 0.645193 0.665232
O O10 0.355058 0.599427 0.781842
O O11 0.889417 0.500000 0.904733
O O12 0.763467 0.628948 0.898807
O O13 0.000000 0.631790 0.000000
O O14 0.369156 0.258730 0.218071
O O15 0.440373 0.334160 0.110578
O O16 0.250000 0.250000 0.000000
O O17 0.971248 0.000000 0.124470
O O18 0.000000 0.912091 0.000000
#
# Coordination Sequence:
#
# PCOD9192058 Si02
#       7
#     8   8   8   8   8   8   8
#     4  10  20  37  63  88 111 155 210 242 280 353
#     4  10  21  35  54  84 122 148 183 244 305 340
#     4   9  17  33  57  82 108 144 191 237 282 335
#     4   9  19  35  56  82 113 148 189 244 289 330
#     4  10  20  33  52  83 115 150 185 227 284 348
#     4   9  20  37  54  85 122 151 187 244 299 335
#     4   9  18  35  58  81 107 143 188 234 275 328
#
# _framework density 20.822648000000001
#
# number of rings (size 3 to 8) (size 9 to 14) (size 15 to 20)
#    0.000    2.571    0.000    1.286    2.000    6.286 
#   12.857    3.571    0.000    0.000    0.000   21.000 
#    0.000    0.000    0.000    0.000    0.000    0.000 
#
# Total GULP energy -155996.050598 kJ/mol
# GULP energy per Si atom -5571.287521 kJ/mol
# Density = 2.077525 g / cm^3
# Si number density = 20.822648 Si / 1000 Ang^3
#
#
#
# Elastic Constant Matrix: (Units=GPa)
#
#
# Indices 1 2 3 4 5 6 
#
# 1 40.3971 21.2078 48.2555 0.0000 9.1683 0.0000
# 2 21.2078 54.0818 66.1167 0.0000 6.6591 0.0000
# 3 48.2555 66.1167 184.4886 0.0000 17.7076 0.0000
# 4 0.0000 0.0000 0.0000 32.6145 0.0000 12.0335
# 5 9.1683 6.6591 17.7076 0.0000 29.0824 0.0000
# 6 0.0000 0.0000 0.0000 12.0335 0.0000 21.5670
#
#
#
# Elastic Compliance Matrix: (Units=1/GPa)
#
#
# Indices 1 2 3 4 5 6 
#
# 1 0.037689 -0.004791 -0.007547 0.000000 -0.006189 0.000000
# 2 -0.004791 0.033522 -0.010800 0.000000 0.000411 0.000000
# 3 -0.007547 -0.010800 0.011469 0.000000 -0.002131 0.000000
# 4 0.000000 0.000000 0.000000 0.038610 0.000000 -0.021543
# 5 -0.006189 0.000411 -0.002131 0.000000 0.037540 0.000000
# 6 0.000000 0.000000 0.000000 -0.021543 0.000000 0.058387
#
#
# Mechanical properties :
#
#
# Convention : Reuss Voigt Hill
#
# Bulk Modulus (GPa) = 27.46881 61.12528 44.29704
# Shear Modulus (GPa) = 18.14040 26.21194 22.17617
#
# Velocity S-wave (km/s) = 2.95479 3.55183 3.26698
# Velocity P-wave (km/s) = 4.98613 6.79997 5.96243
#
# Compressibility (1/GPa) = 0.03640492
#
# Stress axis : x y z
#
# Youngs Moduli (GPa) = 26.53265 29.83146 87.18857
#
# Poissons Ratio (x) = 0.14292 0.65802
# Poissons Ratio (y) = 0.12712 0.94161
# Poissons Ratio (z) = 0.20025 0.32217
#
# Static dielectric constant tensor:
#      x y z
#    x 1.758230 0.000000 -0.003290 
#    y 0.000000 1.741010 0.000000 
#    z -0.003290 0.000000 1.852050 
# 
# From -- ./inp_files/206749.got.cif
#   From: 2010.05.17/outbox.cif.g08.bks.cpg/sg12_104_cif.got.tgz:206749.got - 2010.06.03 13:09:07.
