data_PCOD9192189
_publ_section_title
;
Structure prediction by ZEFSAII (Michael W. Deem and Ramdas Pophale) SiO2 
 PCOD9192189
Probable space group: C 2/M
;
_chemical_formula_sum "Si O2"
_cell_formula_units_Z 64
_cell_length_a 15.753728
_cell_length_b 8.956889
_cell_length_c 29.120099
_cell_angle_alpha 90.000000
_cell_angle_beta 122.920225
_cell_angle_gamma 90.000000
_cell_volume 3449.188049
_symmetry_space_group_name_H-M "C 2/M"
_symmetry_group_IT_number 12
_symmetry_cell_setting 'monoclinic'
loop_
_space_group_symop_operation_xyz
x,y,z
-x,y,-z
-x,-y,-z
x,-y,z
1/2+x,1/2+y,z
1/2-x,1/2+y,-z
1/2-x,1/2-y,-z
1/2+x,1/2-y,z
loop_
_atom_site_type_symbol
_atom_site_label
_atom_site_fract_x
_atom_site_fract_y
_atom_site_fract_z
Si Si1 0.836543 0.820251 0.057264
Si Si2 0.964000 0.824922 0.440003
Si Si3 0.297713 0.178898 0.328743
Si Si4 0.116455 0.320230 0.744797
Si Si5 0.669227 0.673830 0.443282
Si Si6 0.604482 0.680807 0.324310
Si Si7 0.758378 0.820889 0.135461
Si Si8 0.038101 0.178396 0.063309
O O1 0.811474 0.780923 0.102472
O O2 0.947327 0.776178 0.070999
O O3 0.830966 0.000000 0.051392
O O4 0.750000 0.750000 0.000000
O O5 0.870840 0.743400 0.389245
O O6 0.000000 0.765769 0.500000
O O7 0.059459 0.813572 0.434279
O O8 0.938338 0.000000 0.438399
O O9 0.334862 0.227459 0.289634
O O10 0.182564 0.217936 0.306844
O O11 0.305230 0.000000 0.332778
O O12 0.116268 0.500000 0.746758
O O13 0.180911 0.253650 0.805261
O O14 0.002929 0.257765 0.712847
O O15 0.696908 0.500000 0.448651
O O16 0.750000 0.750000 0.500000
O O17 0.656652 0.729896 0.387632
O O18 0.591148 0.500000 0.322546
O O19 0.643185 0.762854 0.101408
O O20 0.760107 0.000000 0.140231
O O21 0.055110 0.000000 0.073603
O O22 0.000000 0.203982 0.000000
#
# Coordination Sequence:
#
# PCOD9192189 Si02
#       8
#     8   8   8   8   8   8   8   8
#     4  10  21  37  60  90 123 159 197 240 293 346
#     4  10  20  34  54  84 119 151 188 238 295 352
#     4  10  22  39  61  86 113 151 197 245 296 349
#     4  11  24  42  62  86 117 156 202 248 294 349
#     4  10  20  33  53  82 115 151 187 234 291 351
#     4  10  21  40  62  84 114 153 196 244 298 351
#     4  11  24  40  61  90 123 160 200 244 292 348
#     4  10  20  37  62  90 123 161 197 241 294 345
#
# _framework density 18.555091000000001
#
# number of rings (size 3 to 8) (size 9 to 14) (size 15 to 20)
#    0.000    1.750    2.500    1.500    0.000    4.500 
#    0.000    5.000    0.000    0.000    0.000    0.000 
#    0.000    0.000    0.000    0.000    0.000    0.000 
#
# Total GULP energy -178723.353799 kJ/mol
# GULP energy per Si atom -5585.104806 kJ/mol
# Density = 1.851286 g / cm^3
# Si number density = 18.555091 Si / 1000 Ang^3
#
#
#
# Elastic Constant Matrix: (Units=GPa)
#
#
# Indices 1 2 3 4 5 6 
#
# 1 162.8713 52.6958 98.5638 0.0000 0.1775 0.0000
# 2 52.6958 29.9440 49.0255 0.0000 4.4813 0.0000
# 3 98.5638 49.0255 144.3354 0.0000 2.8084 0.0000
# 4 0.0000 0.0000 0.0000 36.8947 0.0000 4.6690
# 5 0.1775 4.4813 2.8084 0.0000 27.5100 0.0000
# 6 0.0000 0.0000 0.0000 4.6690 0.0000 25.2648
#
#
#
# Elastic Compliance Matrix: (Units=1/GPa)
#
#
# Indices 1 2 3 4 5 6 
#
# 1 0.015148 -0.022938 -0.002629 0.000000 0.003907 0.000000
# 2 -0.022938 0.112623 -0.022280 0.000000 -0.015924 0.000000
# 3 -0.002629 -0.022280 0.016253 0.000000 0.001987 0.000000
# 4 0.000000 0.000000 0.000000 0.027753 0.000000 -0.005129
# 5 0.003907 -0.015924 0.001987 0.000000 0.038716 0.000000
# 6 0.000000 0.000000 0.000000 -0.005129 0.000000 0.040529
#
#
# Mechanical properties :
#
#
# Convention : Reuss Voigt Hill
#
# Bulk Modulus (GPa) = 20.69135 81.96897 51.33016
# Shear Modulus (GPa) = 13.78070 27.05828 20.41949
#
# Velocity S-wave (km/s) = 2.72819 3.82287 3.32095
# Velocity P-wave (km/s) = 4.59343 7.98484 6.51373
#
# Compressibility (1/GPa) = 0.04832938
#
# Stress axis : x y z
#
# Youngs Moduli (GPa) = 66.01565 8.87917 61.52742
#
# Poissons Ratio (x) = 0.20367 0.16177
# Poissons Ratio (y) = 1.51424 1.37086
# Poissons Ratio (z) = 0.17357 0.19783
#
# Static dielectric constant tensor:
#      x y z
#    x 1.650350 0.000000 -0.021030 
#    y 0.000000 1.629730 0.000000 
#    z -0.021030 0.000000 1.604000 
# 
# From -- ./inp_files/375525.got.cif
#   From: 2010.05.17/outbox.cif.g08.bks.cpg/sg12_188_cif.got.tgz:375525.got - 2010.06.03 13:09:07.
