data_PCOD9192753
_publ_section_title
;
Structure prediction by ZEFSAII (Michael W. Deem and Ramdas Pophale) SiO2 
 PCOD9192753
Probable space group: C 2/M
;
_chemical_formula_sum "Si O2"
_cell_formula_units_Z 40
_cell_length_a 28.924473
_cell_length_b 7.428233
_cell_length_c 19.335700
_cell_angle_alpha 90.000000
_cell_angle_beta 26.659287
_cell_angle_gamma 90.000000
_cell_volume 1864.024127
_symmetry_space_group_name_H-M "C 2/M"
_symmetry_group_IT_number 12
_symmetry_cell_setting 'monoclinic'
loop_
_space_group_symop_operation_xyz
x,y,z
-x,y,-z
-x,-y,-z
x,-y,z
1/2+x,1/2+y,z
1/2-x,1/2+y,-z
1/2-x,1/2-y,-z
1/2+x,1/2-y,z
loop_
_atom_site_type_symbol
_atom_site_label
_atom_site_fract_x
_atom_site_fract_y
_atom_site_fract_z
Si Si1 0.255396 0.220243 0.281560
Si Si2 0.037187 0.792629 0.522652
Si Si3 0.368472 0.786094 0.859543
Si Si4 0.579446 0.779957 0.056150
Si Si5 0.586405 0.211236 0.823594
O O1 0.140205 0.283389 0.420062
O O2 0.310661 0.285029 0.278187
O O3 0.256756 0.000000 0.283748
O O4 0.328511 0.270220 0.119235
O O5 0.000000 0.709847 0.500000
O O6 0.943842 0.790205 0.700902
O O7 0.065387 0.000000 0.468627
O O8 0.397727 0.719348 0.896962
O O9 0.383717 0.000000 0.838894
O O10 0.250000 0.750000 0.000000
O O11 0.471915 0.716134 0.165863
O O12 0.577482 0.000000 0.058786
O O13 0.604882 0.000000 0.785240
O O14 0.500000 0.221339 0.000000
#
# Coordination Sequence:
#
# PCOD9192753 Si02
#       5
#     8   8   8   8   8
#     4   8  13  24  45  70  94 123 159 196 233 277
#     4  10  20  34  51  71  98 130 163 200 242 287
#     4  11  22  35  51  71  97 127 161 201 245 292
#     4   8  14  26  45  69  95 123 156 196 239 279
#     4   7  10  19  39  67  94 119 153 194 231 272
#
# _framework density 21.458950000000002
#
# number of rings (size 3 to 8) (size 9 to 14) (size 15 to 20)
#    0.000    3.200    0.000    4.200    0.000    3.600 
#    0.000    1.000    0.000    0.000    0.000    1.400 
#    0.000   13.600    0.000    0.000    0.000    0.000 
#
# Total GULP energy -111519.572291 kJ/mol
# GULP energy per Si atom -5575.978615 kJ/mol
# Density = 2.141011 g / cm^3
# Si number density = 21.458950 Si / 1000 Ang^3
#
#
#
# Elastic Constant Matrix: (Units=GPa)
#
#
# Indices 1 2 3 4 5 6 
#
# 1 248.3860 2.1473 93.7224 0.0041 -30.1996 0.0009
# 2 2.1473 68.3747 -11.1293 0.0014 -4.3509 0.0056
# 3 93.7224 -11.1293 96.4487 -0.0019 -28.6553 -0.0007
# 4 0.0041 0.0014 -0.0019 1.4009 -0.0011 -6.5129
# 5 -30.1996 -4.3509 -28.6553 -0.0011 39.6604 0.0001
# 6 0.0009 0.0056 -0.0007 -6.5129 0.0001 -26.5318
#
#
#
# Elastic Compliance Matrix: (Units=1/GPa)
#
#
# Indices 1 2 3 4 5 6 
#
# 1 0.006461 -0.001227 -0.006364 -0.000012 0.000187 0.000003
# 2 -0.001227 0.015569 0.004098 0.000005 0.003735 0.000002
# 3 -0.006364 0.004098 0.020016 0.000024 0.010065 -0.000006
# 4 -0.000012 0.000005 0.000024 0.333376 0.000018 -0.081835
# 5 0.000187 0.003735 0.010065 0.000018 0.033038 -0.000004
# 6 0.000003 0.000002 -0.000006 -0.081835 -0.000004 -0.017602
#
#
# Mechanical properties :
#
#
# Convention : Reuss Voigt Hill
#
# Bulk Modulus (GPa) = 28.52285 64.74336 46.63310
# Shear Modulus (GPa) = 12.20913 24.80382 18.50648
#
# Velocity S-wave (km/s) = 2.38786 3.40350 2.93987
# Velocity P-wave (km/s) = 4.57419 6.75880 5.77081
#
# Compressibility (1/GPa) = 0.03505961
#
# Stress axis : x y z
#
# Youngs Moduli (GPa) = 154.78327 64.23199 49.96049
#
# Poissons Ratio (x) = 0.07881 0.31795
# Poissons Ratio (y) = 0.18990 -0.20475
# Poissons Ratio (z) = 0.98506 -0.26324
#
# Static dielectric constant tensor:
#      x y z
#    x 1.817950 0.000000 -0.026890 
#    y 0.000000 1.844190 0.000000 
#    z -0.026890 0.000000 1.746750 
# 
# From -- ./inp_files/211905.got.cif
#   From: 2010.05.17/outbox.cif.g08.bks.cpg/sg12_106_cif.got.tgz:211905.got - 2010.06.03 13:09:07.
