data_PCOD9192684
_publ_section_title
;
Structure prediction by ZEFSAII (Michael W. Deem and Ramdas Pophale) SiO2 
 PCOD9192684
Probable space group: C 2/M
;
_chemical_formula_sum "Si O2"
_cell_formula_units_Z 48
_cell_length_a 14.546746
_cell_length_b 7.620825
_cell_length_c 21.482841
_cell_angle_alpha 90.000000
_cell_angle_beta 69.598028
_cell_angle_gamma 90.000000
_cell_volume 2232.154603
_symmetry_space_group_name_H-M "C 2/M"
_symmetry_group_IT_number 12
_symmetry_cell_setting 'monoclinic'
loop_
_space_group_symop_operation_xyz
x,y,z
-x,y,-z
-x,-y,-z
x,-y,z
1/2+x,1/2+y,z
1/2-x,1/2+y,-z
1/2-x,1/2-y,-z
1/2+x,1/2-y,z
loop_
_atom_site_type_symbol
_atom_site_label
_atom_site_fract_x
_atom_site_fract_y
_atom_site_fract_z
Si Si1 0.865192 0.208856 0.484662
Si Si2 0.691051 0.709459 0.108077
Si Si3 0.605489 0.287982 0.997838
Si Si4 0.607238 0.702352 0.255963
Si Si5 0.901296 0.297114 0.340777
Si Si6 0.822293 0.784259 0.627844
O O1 0.750000 0.250000 0.500000
O O2 0.917544 0.282544 0.411418
O O3 0.881313 0.270976 0.551692
O O4 0.881230 0.000000 0.479269
O O5 0.673961 0.500000 0.112953
O O6 0.805856 0.740135 0.069086
O O7 0.651992 0.781495 0.182716
O O8 0.635646 0.777820 0.059488
O O9 0.602125 0.500000 0.001245
O O10 0.500000 0.224511 0.000000
O O11 0.640520 0.500000 0.250076
O O12 0.489604 0.706466 0.284199
O O13 0.639827 0.779424 0.314673
O O14 0.903190 0.500000 0.322622
O O15 0.791571 0.230763 0.353186
O O16 0.825507 0.000000 0.625539
#
# Coordination Sequence:
#
# PCOD9192684 Si02
#       6
#     8   8   8   8   8   8
#     4   9  16  30  51  72  95 128 169 211 254 296
#     4   9  19  34  52  76 103 130 165 204 238 286
#     4   9  18  34  55  77 103 133 161 195 244 293
#     4  10  20  35  52  72 100 133 167 203 245 294
#     4  10  20  34  50  72 100 131 168 208 253 299
#     4   8  17  33  51  69  95 131 166 203 252 302
#
# _framework density 21.503886999999999
#
# number of rings (size 3 to 8) (size 9 to 14) (size 15 to 20)
#    0.000    2.833    0.000    2.000    0.000    3.000 
#    0.000    8.333    0.000    0.000    0.000    0.000 
#    0.000    0.000    0.000    0.000    0.000    0.000 
#
# Total GULP energy -133899.844660 kJ/mol
# GULP energy per Si atom -5579.160194 kJ/mol
# Density = 2.145494 g / cm^3
# Si number density = 21.503887 Si / 1000 Ang^3
#
#
#
# Elastic Constant Matrix: (Units=GPa)
#
#
# Indices 1 2 3 4 5 6 
#
# 1 93.3703 -8.5768 60.0245 0.0000 -9.2373 0.0000
# 2 -8.5768 41.0394 -1.1008 0.0000 5.9358 0.0000
# 3 60.0245 -1.1008 170.5123 0.0000 -19.2858 0.0000
# 4 0.0000 0.0000 0.0000 15.3672 0.0000 -8.4381
# 5 -9.2373 5.9358 -19.2858 0.0000 14.3227 0.0000
# 6 0.0000 0.0000 0.0000 -8.4381 0.0000 11.5641
#
#
#
# Elastic Compliance Matrix: (Units=1/GPa)
#
#
# Indices 1 2 3 4 5 6 
#
# 1 0.014193 0.002604 -0.004797 0.000000 0.001616 0.000000
# 2 0.002604 0.026621 -0.002127 0.000000 -0.012217 0.000000
# 3 -0.004797 -0.002127 0.008599 0.000000 0.009366 0.000000
# 4 0.000000 0.000000 0.000000 0.108577 0.000000 0.079226
# 5 0.001616 -0.012217 0.009366 0.000000 0.088536 0.000000
# 6 0.000000 0.000000 0.000000 0.079226 0.000000 0.144284
#
#
# Mechanical properties :
#
#
# Convention : Reuss Voigt Hill
#
# Bulk Modulus (GPa) = 24.52559 45.06842 34.79701
# Shear Modulus (GPa) = 12.10537 25.22246 18.66392
#
# Velocity S-wave (km/s) = 2.37521 3.42852 2.94927
# Velocity P-wave (km/s) = 4.35340 6.05613 5.27394
#
# Compressibility (1/GPa) = 0.04077373
#
# Stress axis : x y z
#
# Youngs Moduli (GPa) = 70.45907 37.56444 116.29450
#
# Poissons Ratio (x) = -0.09781 0.55782
# Poissons Ratio (y) = -0.18346 0.24730
# Poissons Ratio (z) = 0.33796 0.07988
#
# Static dielectric constant tensor:
#      x y z
#    x 1.784430 0.000000 0.026480 
#    y 0.000000 1.825570 0.000000 
#    z 0.026480 0.000000 1.781020 
# 
# From -- ./inp_files/308304.got.cif
#   From: 2010.05.17/outbox.cif.g08.bks.cpg/sg12_155_cif.got.tgz:308304.got - 2010.06.03 13:09:07.
