data_PCOD9192972
_publ_section_title
;
Structure prediction by ZEFSAII (Michael W. Deem and Ramdas Pophale) SiO2 
 PCOD9192972
Probable space group: C 2/M
;
_chemical_formula_sum "Si O2"
_cell_formula_units_Z 40
_cell_length_a 10.594399
_cell_length_b 13.257064
_cell_length_c 27.528742
_cell_angle_alpha 90.000000
_cell_angle_beta 154.219308
_cell_angle_gamma 90.000000
_cell_volume 1681.617002
_symmetry_space_group_name_H-M "C 2/M"
_symmetry_group_IT_number 12
_symmetry_cell_setting 'monoclinic'
loop_
_space_group_symop_operation_xyz
x,y,z
-x,y,-z
-x,-y,-z
x,-y,z
1/2+x,1/2+y,z
1/2-x,1/2+y,-z
1/2-x,1/2-y,-z
1/2+x,1/2-y,z
loop_
_atom_site_type_symbol
_atom_site_label
_atom_site_fract_x
_atom_site_fract_y
_atom_site_fract_z
Si Si1 0.459672 0.324297 0.117799
Si Si2 0.921037 0.323520 0.350046
Si Si3 0.222979 0.888014 0.439908
Si Si4 0.255859 0.500000 0.989002
Si Si5 0.078377 0.500000 0.820636
Si Si6 0.402909 0.780894 0.194228
O O1 0.244069 0.404767 0.020523
O O2 0.339056 0.248274 0.116121
O O3 0.734283 0.374312 0.242465
O O4 0.623153 0.271952 0.130060
O O5 0.042696 0.216212 0.372230
O O6 0.159011 0.380542 0.463424
O O7 0.663080 0.293152 0.298080
O O8 0.500000 0.885113 0.500000
O O9 0.085933 0.000000 0.385580
O O10 0.582284 0.500000 0.079418
O O11 0.063636 0.500000 0.874198
O O12 0.973990 0.394300 0.763438
#
# Coordination Sequence:
#
# PCOD9192972 Si02
#       6
#     8   8   8   4   4   8
#     4   9  19  34  55  78 104 138 177 216 259 310
#     4   9  20  32  53  76 106 132 181 212 260 299
#     4  10  20  34  52  74 107 141 173 215 265 312
#     4   9  18  34  55  80 109 140 172 211 265 319
#     4   9  18  34  55  80 109 140 172 211 265 319
#     4   9  19  34  55  78 104 138 177 216 259 310
#
# _framework density 23.786629000000001
#
# number of rings (size 3 to 8) (size 9 to 14) (size 15 to 20)
#    1.200    1.600    0.000    1.200    2.800    0.800 
#    0.000    1.000    0.000    4.800    0.000    0.000 
#    0.000    0.000    0.000    0.000    0.000    0.000 
#
# Total GULP energy -111441.032595 kJ/mol
# GULP energy per Si atom -5572.051630 kJ/mol
# Density = 2.373249 g / cm^3
# Si number density = 23.786629 Si / 1000 Ang^3
#
#
#
# Elastic Constant Matrix: (Units=GPa)
#
#
# Indices 1 2 3 4 5 6 
#
# 1 117.1124 26.4773 -6.2650 -0.0002 -8.0568 0.0001
# 2 26.4773 91.4612 13.8468 -0.0005 0.5072 0.0003
# 3 -6.2650 13.8468 56.9952 -0.0014 -18.7891 0.0007
# 4 -0.0002 -0.0005 -0.0014 23.8724 0.0006 -2.6689
# 5 -8.0568 0.5072 -18.7891 0.0006 34.5650 -0.0001
# 6 0.0001 0.0003 0.0007 -2.6689 -0.0001 10.5637
#
#
#
# Elastic Compliance Matrix: (Units=1/GPa)
#
#
# Indices 1 2 3 4 5 6 
#
# 1 0.009745 -0.003332 0.003223 0.000000 0.004072 0.000000
# 2 -0.003332 0.012608 -0.004564 0.000000 -0.003443 0.000000
# 3 0.003223 -0.004564 0.023487 0.000001 0.013586 -0.000001
# 4 0.000000 0.000000 0.000001 0.043107 0.000000 0.010891
# 5 0.004072 -0.003443 0.013586 0.000000 0.037316 0.000000
# 6 0.000000 0.000000 -0.000001 0.010891 0.000000 0.097416
#
#
# Mechanical properties :
#
#
# Convention : Reuss Voigt Hill
#
# Bulk Modulus (GPa) = 27.40153 37.07634 32.23893
# Shear Modulus (GPa) = 20.39249 29.23420 24.81335
#
# Velocity S-wave (km/s) = 2.93116 3.50954 3.23331
# Velocity P-wave (km/s) = 4.79587 5.66069 5.24613
#
# Compressibility (1/GPa) = 0.03649432
#
# Stress axis : x y z
#
# Youngs Moduli (GPa) = 102.62124 79.31386 42.57660
#
# Poissons Ratio (x) = 0.26423 -0.13722
# Poissons Ratio (y) = 0.34188 0.19433
# Poissons Ratio (z) = -0.33075 0.36200
#
# Static dielectric constant tensor:
#      x y z
#    x 1.903400 0.000000 0.008010 
#    y 0.000000 1.938070 0.000000 
#    z 0.008010 0.000000 1.975590 
# 
# From -- ./inp_files/356040.got.cif
#   From: 2010.05.17/outbox.cif.g08.bks.cpg/sg12_179_cif.got.tgz:356040.got - 2010.06.03 13:09:07.
