data_PCOD9192380
_publ_section_title
;
Structure prediction by ZEFSAII (Michael W. Deem and Ramdas Pophale) SiO2 
 PCOD9192380
Probable space group: C 2/M
;
_chemical_formula_sum "Si O2"
_cell_formula_units_Z 48
_cell_length_a 15.153805
_cell_length_b 31.506562
_cell_length_c 7.578169
_cell_angle_alpha 90.000000
_cell_angle_beta 142.009817
_cell_angle_gamma 90.000000
_cell_volume 2227.069219
_symmetry_space_group_name_H-M "C 2/M"
_symmetry_group_IT_number 12
_symmetry_cell_setting 'monoclinic'
loop_
_space_group_symop_operation_xyz
x,y,z
-x,y,-z
-x,-y,-z
x,-y,z
1/2+x,1/2+y,z
1/2-x,1/2+y,-z
1/2-x,1/2-y,-z
1/2+x,1/2-y,z
loop_
_atom_site_type_symbol
_atom_site_label
_atom_site_fract_x
_atom_site_fract_y
_atom_site_fract_z
Si Si1 0.856252 0.954657 0.390726
Si Si2 0.829873 0.547871 0.242418
Si Si3 0.791878 0.863651 0.823718
Si Si4 0.399827 0.788815 0.566477
Si Si5 0.603214 0.636484 0.407961
Si Si6 0.291228 0.209867 0.805238
O O1 0.864883 0.912889 0.517071
O O2 0.000000 0.955193 0.500000
O O3 0.846544 0.000000 0.470678
O O4 0.729358 0.951084 0.050130
O O5 0.795266 0.500000 0.257071
O O6 0.759919 0.587998 0.230593
O O7 0.000000 0.552463 0.500000
O O8 0.661480 0.830527 0.627614
O O9 0.852599 0.855276 0.723708
O O10 0.933529 0.855934 0.165577
O O11 0.350039 0.789294 0.694955
O O12 0.320983 0.748273 0.358895
O O13 0.571332 0.786300 0.852140
O O14 0.704383 0.666054 0.684926
#
# Coordination Sequence:
#
# PCOD9192380 Si02
#       6
#     8   8   8   8   8   8
#     4  10  20  37  57  78 106 145 186 219 264 325
#     4  10  22  39  57  77 107 147 184 219 268 329
#     4  10  20  34  54  83 112 140 179 227 272 311
#     4   9  17  30  50  76 109 143 178 218 264 321
#     4  10  20  33  55  84 111 139 179 229 270 311
#     4   9  17  30  50  77 108 143 178 217 267 319
#
# _framework density 21.552989
#
# number of rings (size 3 to 8) (size 9 to 14) (size 15 to 20)
#    0.000    2.333    1.667    1.000    2.333    4.667 
#    0.000    1.667    0.000    5.000    0.000    0.000 
#    0.000    0.000    0.000    0.000    0.000    0.000 
#
# Total GULP energy -133964.703112 kJ/mol
# GULP energy per Si atom -5581.862630 kJ/mol
# Density = 2.150393 g / cm^3
# Si number density = 21.552989 Si / 1000 Ang^3
#
#
#
# Elastic Constant Matrix: (Units=GPa)
#
#
# Indices 1 2 3 4 5 6 
#
# 1 48.7362 10.9362 16.9211 0.0000 5.5934 0.0000
# 2 10.9362 147.6480 72.4239 0.0000 18.5562 0.0000
# 3 16.9211 72.4239 185.1129 0.0000 44.8855 0.0000
# 4 0.0000 0.0000 0.0000 -4.6848 0.0000 209.7690
# 5 5.5934 18.5562 44.8855 0.0000 16.5273 0.0000
# 6 0.0000 0.0000 0.0000 209.7690 0.0000-1030.2708
#
#
#
# Elastic Compliance Matrix: (Units=1/GPa)
#
#
# Indices 1 2 3 4 5 6 
#
# 1 0.021433 -0.000729 -0.000333 0.000000 -0.005531 0.000000
# 2 -0.000729 0.008418 -0.002914 0.000000 -0.001292 0.000000
# 3 -0.000333 -0.002914 0.016844 0.000000 -0.042363 0.000000
# 4 0.000000 0.000000 0.000000 0.026298 0.000000 0.005354
# 5 -0.005531 -0.001292 -0.042363 0.000000 0.178879 0.000000
# 6 0.000000 0.000000 0.000000 0.005354 0.000000 0.000120
#
#
# Mechanical properties :
#
#
# Convention : Reuss Voigt Hill
#
# Bulk Modulus (GPa) = 25.81015 64.67327 45.24171
# Shear Modulus (GPa) = 18.32458 -184.93792 -83.30667
#
# Velocity S-wave (km/s) = 2.91900 -9.27321 -6.22382
# Velocity P-wave (km/s) = 4.83342 9.19700 5.53276
#
# Compressibility (1/GPa) = 0.03874444
#
# Stress axis : x y z
#
# Youngs Moduli (GPa) = 46.65801 118.78618 59.36677
#
# Poissons Ratio (x) = 0.08661 0.01975
# Poissons Ratio (y) = 0.03402 0.17298
# Poissons Ratio (z) = 0.01552 0.34611
#
# Static dielectric constant tensor:
#      x y z
#    x 1.869890 0.000000 0.008660 
#    y 0.000000 1.787120 0.000000 
#    z 0.008660 0.000000 1.768850 
# 
# From -- ./inp_files/80847.got.cif
#   From: 2010.05.17/outbox.cif.g08.bks.cpg/sg12_41_cif.got.tgz:80847.got - 2010.06.03 13:09:07.
