data_PCOD9192118
_publ_section_title
;
Structure prediction by ZEFSAII (Michael W. Deem and Ramdas Pophale) SiO2 
 PCOD9192118
Probable space group: C 2/M
;
_chemical_formula_sum "Si O2"
_cell_formula_units_Z 40
_cell_length_a 21.923180
_cell_length_b 24.234513
_cell_length_c 5.111936
_cell_angle_alpha 90.000000
_cell_angle_beta 53.164151
_cell_angle_gamma 90.000000
_cell_volume 2173.735434
_symmetry_space_group_name_H-M "C 2/M"
_symmetry_group_IT_number 12
_symmetry_cell_setting 'monoclinic'
loop_
_space_group_symop_operation_xyz
x,y,z
-x,y,-z
-x,-y,-z
x,-y,z
1/2+x,1/2+y,z
1/2-x,1/2+y,-z
1/2-x,1/2-y,-z
1/2+x,1/2-y,z
loop_
_atom_site_type_symbol
_atom_site_label
_atom_site_fract_x
_atom_site_fract_y
_atom_site_fract_z
Si Si1 0.260555 0.310925 0.584810
Si Si2 0.051780 0.435461 0.623380
Si Si3 0.416737 0.628272 0.149102
Si Si4 0.632439 0.564235 0.231796
Si Si5 0.789320 0.373926 0.791024
O O1 0.250000 0.250000 0.500000
O O2 0.349729 0.327348 0.360780
O O3 0.221789 0.351127 0.472109
O O4 0.225894 0.325620 0.957073
O O5 0.071950 0.500000 0.616545
O O6 0.128466 0.400942 0.392436
O O7 0.000000 0.432147 0.500000
O O8 0.000000 0.416875 0.000000
O O9 0.401205 0.580221 0.400734
O O10 0.500000 0.650887 0.000000
O O11 0.407284 0.601923 0.886987
O O12 0.623356 0.500000 0.197239
O O13 0.721404 0.581852 0.008842
#
# Coordination Sequence:
#
# PCOD9192118 Si02
#       5
#     8   8   8   8   8
#     4  10  21  38  58  77 101 141 183 224 272 313
#     4  10  20  34  54  81 114 147 176 217 274 326
#     4  10  21  35  52  77 108 137 172 217 261 310
#     4  10  20  33  53  79 107 142 174 205 255 318
#     4  10  20  36  56  78 107 139 181 224 261 322
#
# _framework density 18.401502000000001
#
# number of rings (size 3 to 8) (size 9 to 14) (size 15 to 20)
#    0.000    2.000    0.000    3.600    0.000    2.400 
#    0.000    9.000    0.000    2.400    0.000    0.000 
#    0.000    0.000    0.000    0.000    0.000    0.000 
#
# Total GULP energy -111671.373971 kJ/mol
# GULP energy per Si atom -5583.568699 kJ/mol
# Density = 1.835962 g / cm^3
# Si number density = 18.401502 Si / 1000 Ang^3
#
#
#
# Elastic Constant Matrix: (Units=GPa)
#
#
# Indices 1 2 3 4 5 6 
#
# 1 97.3892 23.6406 42.9911 0.0000 -21.8994 0.0000
# 2 23.6406 53.8527 12.5417 0.0000 -23.7616 0.0000
# 3 42.9911 12.5417 66.4799 0.0000 -3.6722 0.0000
# 4 0.0000 0.0000 0.0000 5.2873 0.0000 -5.0161
# 5 -21.8994 -23.7616 -3.6722 0.0000 43.3914 0.0000
# 6 0.0000 0.0000 0.0000 -5.0161 0.0000 -1.5950
#
#
#
# Elastic Compliance Matrix: (Units=1/GPa)
#
#
# Indices 1 2 3 4 5 6 
#
# 1 0.016640 -0.002167 -0.010000 0.000000 0.006365 0.000000
# 2 -0.002167 0.025816 -0.002761 0.000000 0.012809 0.000000
# 3 -0.010000 -0.002761 0.021769 0.000000 -0.004717 0.000000
# 4 0.000000 0.000000 0.000000 0.047478 0.000000 -0.149312
# 5 0.006365 0.012809 -0.004717 0.000000 0.032874 0.000000
# 6 0.000000 0.000000 0.000000 -0.149312 0.000000 -0.157385
#
#
# Mechanical properties :
#
#
# Convention : Reuss Voigt Hill
#
# Bulk Modulus (GPa) = 29.09715 41.78539 35.44127
# Shear Modulus (GPa) = 175.40824 18.65330 97.03077
#
# Velocity S-wave (km/s) = 9.77393 3.18729 7.26941
# Velocity P-wave (km/s) = 11.96744 6.02512 9.47422
#
# Compressibility (1/GPa) = 0.03436762
#
# Stress axis : x y z
#
# Youngs Moduli (GPa) = 60.09661 38.73631 45.93609
#
# Poissons Ratio (x) = 0.08395 0.45937
# Poissons Ratio (y) = 0.13025 0.12683
# Poissons Ratio (z) = 0.60098 0.10695
#
# Static dielectric constant tensor:
#      x y z
#    x 1.601820 0.000000 -0.008270 
#    y 0.000000 1.601910 0.000000 
#    z -0.008270 0.000000 1.627130 
# 
# From -- ./inp_files/11302.got.cif
#   From: 2010.05.17/outbox.cif.g08.bks.cpg/sg12_6_cif.got.tgz:11302.got - 2010.06.03 13:09:07.
