data_PCOD9192839
_publ_section_title
;
Structure prediction by ZEFSAII (Michael W. Deem and Ramdas Pophale) SiO2 
 PCOD9192839
Probable space group: C 2/M
;
_chemical_formula_sum "Si O2"
_cell_formula_units_Z 64
_cell_length_a 33.885485
_cell_length_b 9.092277
_cell_length_c 26.007839
_cell_angle_alpha 90.000000
_cell_angle_beta 153.267687
_cell_angle_gamma 90.000000
_cell_volume 3604.392343
_symmetry_space_group_name_H-M "C 2/M"
_symmetry_group_IT_number 12
_symmetry_cell_setting 'monoclinic'
loop_
_space_group_symop_operation_xyz
x,y,z
-x,y,-z
-x,-y,-z
x,-y,z
1/2+x,1/2+y,z
1/2-x,1/2+y,-z
1/2-x,1/2-y,-z
1/2+x,1/2-y,z
loop_
_atom_site_type_symbol
_atom_site_label
_atom_site_fract_x
_atom_site_fract_y
_atom_site_fract_z
Si Si1 0.210687 0.173706 0.144777
Si Si2 0.780284 0.326872 0.483314
Si Si3 0.844903 0.331982 0.737289
Si Si4 0.286348 0.824639 0.962663
Si Si5 0.580697 0.677238 0.425851
Si Si6 0.384134 0.675469 0.166829
Si Si7 0.513246 0.666293 0.954138
Si Si8 0.293765 0.328930 0.335027
O O1 0.214896 0.253524 0.094922
O O2 0.278039 0.237367 0.265339
O O3 0.224584 0.000000 0.154436
O O4 0.112702 0.195248 0.053575
O O5 0.791351 0.500000 0.502588
O O6 0.750000 0.250000 0.500000
O O7 0.704443 0.285942 0.354806
O O8 0.866443 0.253836 0.558680
O O9 0.831520 0.500000 0.703467
O O10 0.945827 0.287823 0.855946
O O11 0.795532 0.322215 0.734743
O O12 0.194297 0.792486 0.884546
O O13 0.296448 0.000000 0.970704
O O14 0.360905 0.757973 0.086875
O O15 0.591543 0.500000 0.434418
O O16 0.478394 0.712944 0.300773
O O17 0.628763 0.719135 0.535504
O O18 0.383448 0.500000 0.156038
O O19 0.490566 0.500000 0.909558
O O20 0.500000 0.665712 0.000000
O O21 0.308898 0.500000 0.339522
#
# Coordination Sequence:
#
# PCOD9192839 Si02
#       8
#     8   8   8   8   8   8   8   8
#     4  11  22  35  54  79 112 150 187 229 279 331
#     4  11  22  36  54  77 109 145 182 225 272 320
#     4  10  20  34  53  76 104 141 184 226 273 322
#     4  10  21  37  59  86 113 143 180 228 280 332
#     4   9  19  37  60  84 109 143 184 225 275 334
#     4   9  19  39  64  85 110 143 181 225 280 338
#     4  10  20  34  51  75 107 145 187 226 269 322
#     4   9  18  33  53  78 108 141 179 223 268 324
#
# _framework density 17.756114
#
# number of rings (size 3 to 8) (size 9 to 14) (size 15 to 20)
#    0.000    2.125    1.250    3.000    0.000    5.250 
#    0.000    1.875    0.000    3.750    0.000    0.000 
#    0.000    0.000    0.000    0.000    0.000    0.000 
#
# Total GULP energy -178471.080071 kJ/mol
# GULP energy per Si atom -5577.221252 kJ/mol
# Density = 1.771570 g / cm^3
# Si number density = 17.756114 Si / 1000 Ang^3
#
#
#
# Elastic Constant Matrix: (Units=GPa)
#
#
# Indices 1 2 3 4 5 6 
#
# 1 99.3466 52.5505 53.1803 0.0000 -20.4800 0.0000
# 2 52.5505 63.9014 53.8348 0.0000 -7.7984 0.0000
# 3 53.1803 53.8348 117.2497 0.0000 -1.3200 0.0000
# 4 0.0000 0.0000 0.0000 31.1588 0.0000 -4.8154
# 5 -20.4800 -7.7984 -1.3200 0.0000 19.2835 0.0000
# 6 0.0000 0.0000 0.0000 -4.8154 0.0000 28.6664
#
#
#
# Elastic Compliance Matrix: (Units=1/GPa)
#
#
# Indices 1 2 3 4 5 6 
#
# 1 0.023278 -0.013210 -0.004278 0.000000 0.019087 0.000000
# 2 -0.013210 0.034894 -0.010037 0.000000 -0.000605 0.000000
# 3 -0.004278 -0.010037 0.014992 0.000000 -0.007576 0.000000
# 4 0.000000 0.000000 0.000000 0.032949 0.000000 0.005535
# 5 0.019087 -0.000605 -0.007576 0.000000 0.071366 0.000000
# 6 0.000000 0.000000 0.000000 0.005535 0.000000 0.035814
#
#
# Mechanical properties :
#
#
# Convention : Reuss Voigt Hill
#
# Bulk Modulus (GPa) = 55.20178 66.62542 60.91360
# Shear Modulus (GPa) = 18.22281 23.88389 21.05335
#
# Velocity S-wave (km/s) = 3.20704 3.67155 3.44713
# Velocity P-wave (km/s) = 6.69850 7.45504 7.08687
#
# Compressibility (1/GPa) = 0.01811536
#
# Stress axis : x y z
#
# Youngs Moduli (GPa) = 42.95907 28.65801 66.70071
#
# Poissons Ratio (x) = 0.37856 0.28535
# Poissons Ratio (y) = 0.56747 0.66948
# Poissons Ratio (z) = 0.18378 0.28764
#
# Static dielectric constant tensor:
#      x y z
#    x 1.597010 0.000000 -0.013390 
#    y 0.000000 1.605780 0.000000 
#    z -0.013390 0.000000 1.623350 
# 
# From -- ./inp_files/353429.got.cif
#   From: 2010.05.17/outbox.cif.g08.bks.cpg/sg12_177_cif.got.tgz:353429.got - 2010.06.03 13:09:07.
