data_PCOD9192602
_publ_section_title
;
Structure prediction by ZEFSAII (Michael W. Deem and Ramdas Pophale) SiO2 
 PCOD9192602
Probable space group: C 2/M
;
_chemical_formula_sum "Si O2"
_cell_formula_units_Z 40
_cell_length_a 13.398945
_cell_length_b 29.390474
_cell_length_c 8.345728
_cell_angle_alpha 90.000000
_cell_angle_beta 150.519243
_cell_angle_gamma 90.000000
_cell_volume 1617.418246
_symmetry_space_group_name_H-M "C 2/M"
_symmetry_group_IT_number 12
_symmetry_cell_setting 'monoclinic'
loop_
_space_group_symop_operation_xyz
x,y,z
-x,y,-z
-x,-y,-z
x,-y,z
1/2+x,1/2+y,z
1/2-x,1/2+y,-z
1/2-x,1/2-y,-z
1/2+x,1/2-y,z
loop_
_atom_site_type_symbol
_atom_site_label
_atom_site_fract_x
_atom_site_fract_y
_atom_site_fract_z
Si Si1 0.944717 0.810268 0.111458
Si Si2 0.463122 0.865500 0.258759
Si Si3 0.803436 0.280735 0.841234
Si Si4 0.736513 0.550935 0.784752
Si Si5 0.628294 0.398762 0.324270
O O1 0.113064 0.789797 0.463613
O O2 0.967056 0.864015 0.182205
O O3 0.000000 0.811813 0.000000
O O4 0.780250 0.769995 0.878753
O O5 0.500000 0.861420 0.500000
O O6 0.683202 0.869446 0.481214
O O7 0.341451 0.822402 0.016516
O O8 0.353084 0.911957 0.052809
O O9 0.000000 0.281541 0.000000
O O10 0.500000 0.550222 0.500000
O O11 0.819234 0.500000 0.918418
O O12 0.728866 0.567560 0.590538
O O13 0.500000 0.420469 0.000000
#
# Coordination Sequence:
#
# PCOD9192602 Si02
#       5
#     8   8   8   8   8
#     4  10  20  33  65  95 132 177 225 272 329 391
#     4  12  25  43  65  99 141 180 228 281 330 397
#     4  11  19  37  61  94 132 179 227 272 327 391
#     4  11  25  48  74 101 132 169 219 284 349 410
#     4  11  23  42  70 101 136 178 223 275 338 405
#
# _framework density 24.730771000000001
#
# number of rings (size 3 to 8) (size 9 to 14) (size 15 to 20)
#    0.000    1.000    4.000    4.200    2.800    2.400 
#    0.000    2.000    0.000    0.000    0.000    0.000 
#    0.000    0.000    0.000    0.000    0.000    0.000 
#
# Total GULP energy -111883.193062 kJ/mol
# GULP energy per Si atom -5594.159653 kJ/mol
# Density = 2.467448 g / cm^3
# Si number density = 24.730771 Si / 1000 Ang^3
#
#
#
# Elastic Constant Matrix: (Units=GPa)
#
#
# Indices 1 2 3 4 5 6 
#
# 1 87.9739 47.1785 22.7508 0.0000 -14.5761 0.0000
# 2 47.1785 189.3901 63.5271 0.0000 -21.2468 0.0000
# 3 22.7508 63.5271 156.5843 0.0000 -29.8551 0.0000
# 4 0.0000 0.0000 0.0000 27.0656 0.0000 1.4557
# 5 -14.5761 -21.2468 -29.8551 0.0000 36.8068 0.0000
# 6 0.0000 0.0000 0.0000 1.4557 0.0000 26.0870
#
#
#
# Elastic Compliance Matrix: (Units=1/GPa)
#
#
# Indices 1 2 3 4 5 6 
#
# 1 0.013566 -0.002946 -0.000090 0.000000 0.003599 0.000000
# 2 -0.002946 0.006853 -0.002154 0.000000 0.001043 0.000000
# 3 -0.000090 -0.002154 0.008315 0.000000 0.005466 0.000000
# 4 0.000000 0.000000 0.000000 0.037059 0.000000 -0.002068
# 5 0.003599 0.001043 0.005466 0.000000 0.033630 0.000000
# 6 0.000000 0.000000 0.000000 -0.002068 0.000000 0.038449
#
#
# Mechanical properties :
#
#
# Convention : Reuss Voigt Hill
#
# Bulk Modulus (GPa) = 54.47572 77.87345 66.17459
# Shear Modulus (GPa) = 32.39001 38.02468 35.20734
#
# Velocity S-wave (km/s) = 3.62291 3.92541 3.77719
# Velocity P-wave (km/s) = 6.29094 7.21817 6.77045
#
# Compressibility (1/GPa) = 0.01835680
#
# Stress axis : x y z
#
# Youngs Moduli (GPa) = 73.71256 145.91684 120.26020
#
# Poissons Ratio (x) = 0.42980 0.01080
# Poissons Ratio (y) = 0.21712 0.25899
# Poissons Ratio (z) = 0.00662 0.31425
#
# Static dielectric constant tensor:
#      x y z
#    x 2.277930 0.000000 0.146390 
#    y 0.000000 1.962190 0.000000 
#    z 0.146390 0.000000 1.934530 
# 
# From -- ./inp_files/68733.got.cif
#   From: 2010.05.17/outbox.cif.g08.bks.cpg/sg12_35_cif.got.tgz:68733.got - 2010.06.03 13:09:07.
