data_PCOD9192927
_publ_section_title
;
Structure prediction by ZEFSAII (Michael W. Deem and Ramdas Pophale) SiO2 
 PCOD9192927
Probable space group: C 2/M
;
_chemical_formula_sum "Si O2"
_cell_formula_units_Z 64
_cell_length_a 8.887342
_cell_length_b 11.476647
_cell_length_c 34.215288
_cell_angle_alpha 90.000000
_cell_angle_beta 80.083521
_cell_angle_gamma 90.000000
_cell_volume 3437.713888
_symmetry_space_group_name_H-M "C 2/M"
_symmetry_group_IT_number 12
_symmetry_cell_setting 'monoclinic'
loop_
_space_group_symop_operation_xyz
x,y,z
-x,y,-z
-x,-y,-z
x,-y,z
1/2+x,1/2+y,z
1/2-x,1/2+y,-z
1/2-x,1/2-y,-z
1/2+x,1/2-y,z
loop_
_atom_site_type_symbol
_atom_site_label
_atom_site_fract_x
_atom_site_fract_y
_atom_site_fract_z
Si Si1 0.259414 0.245167 0.905419
Si Si2 0.948633 0.362944 0.146742
Si Si3 0.225327 0.135655 0.574484
Si Si4 0.779251 0.629702 0.664295
Si Si5 0.587774 0.366907 0.454685
Si Si6 0.524190 0.635909 0.042970
Si Si7 0.824899 0.362481 0.234777
Si Si8 0.021249 0.774253 0.287040
O O1 0.390411 0.192023 0.872322
O O2 0.344377 0.299301 0.938935
O O3 0.167381 0.337302 0.883412
O O4 0.133085 0.154845 0.926370
O O5 0.969884 0.500000 0.149933
O O6 0.879829 0.314239 0.190377
O O7 0.256079 0.146071 0.619240
O O8 0.306718 0.251000 0.552515
O O9 0.046373 0.142503 0.571609
O O10 0.272183 0.000000 0.560742
O O11 0.839382 0.500000 0.668375
O O12 0.894543 0.719158 0.679287
O O13 0.614275 0.643093 0.692164
O O14 0.500000 0.364532 0.500000
O O15 0.656915 0.500000 0.448111
O O16 0.562197 0.500000 0.038953
O O17 0.500000 0.681001 0.000000
O O18 0.831063 0.500000 0.231963
O O19 0.654161 0.328276 0.254685
O O20 0.936827 0.319906 0.263865
#
# Coordination Sequence:
#
# PCOD9192927 Si02
#       8
#     8   8   8   8   8   8   8   8
#     4  10  20  34  52  74 100 131 165 203 249 296
#     4  10  20  34  52  74 101 131 165 206 249 296
#     4  10  21  36  55  80 108 140 179 220 264 316
#     4  10  20  35  53  75 104 135 170 213 257 304
#     4  10  21  37  56  80 110 142 178 221 267 316
#     4  10  20  34  52  74 100 130 165 204 246 295
#     4  10  20  34  52  75 101 131 168 207 249 299
#     4  10  20  34  53  75 101 134 169 207 254 303
#
# _framework density 18.617021999999999
#
# number of rings (size 3 to 8) (size 9 to 14) (size 15 to 20)
#    0.000    2.000    0.000    3.750    0.000    0.750 
#    0.000    3.125    0.000   18.000    0.000    0.000 
#    0.000    0.000    0.000    0.000    0.000    0.000 
#
# Total GULP energy -178374.375188 kJ/mol
# GULP energy per Si atom -5574.199225 kJ/mol
# Density = 1.857465 g / cm^3
# Si number density = 18.617022 Si / 1000 Ang^3
#
#
#
# Elastic Constant Matrix: (Units=GPa)
#
#
# Indices 1 2 3 4 5 6 
#
# 1 57.6584 9.1748 -9.7037 0.0000 2.4931 0.0000
# 2 9.1748 73.9633 4.2325 0.0000 -6.0725 0.0000
# 3 -9.7037 4.2325 59.9306 0.0000 5.4581 0.0000
# 4 0.0000 0.0000 0.0000 18.7135 0.0000 3.7835
# 5 2.4931 -6.0725 5.4581 0.0000 29.8106 0.0000
# 6 0.0000 0.0000 0.0000 3.7835 0.0000 -4.2730
#
#
#
# Elastic Compliance Matrix: (Units=1/GPa)
#
#
# Indices 1 2 3 4 5 6 
#
# 1 0.018470 -0.002711 0.003430 0.000000 -0.002725 0.000000
# 2 -0.002711 0.014240 -0.001759 0.000000 0.003450 0.000000
# 3 0.003430 -0.001759 0.017720 0.000000 -0.003889 0.000000
# 4 0.000000 0.000000 0.000000 0.045324 0.000000 0.040132
# 5 -0.002725 0.003450 -0.003889 0.000000 0.035188 0.000000
# 6 0.000000 0.000000 0.000000 0.040132 0.000000 -0.198495
#
#
# Mechanical properties :
#
#
# Convention : Reuss Voigt Hill
#
# Bulk Modulus (GPa) = 20.68218 22.10659 21.39439
# Shear Modulus (GPa) = -101.30222 21.37349 -39.96437
#
# Velocity S-wave (km/s) = -7.38457 3.39198 -4.63823
# Velocity P-wave (km/s) = 7.84702 5.21928 4.14336
#
# Compressibility (1/GPa) = 0.04835080
#
# Stress axis : x y z
#
# Youngs Moduli (GPa) = 54.14170 70.22288 56.43395
#
# Poissons Ratio (x) = 0.19038 -0.19358
# Poissons Ratio (y) = 0.14679 0.09926
# Poissons Ratio (z) = -0.18572 0.12351
#
# Static dielectric constant tensor:
#      x y z
#    x 1.612830 0.000000 -0.011370 
#    y 0.000000 1.648420 0.000000 
#    z -0.011370 0.000000 1.651050 
# 
# From -- ./inp_files/372157.got.cif
#   From: 2010.05.17/outbox.cif.g08.bks.cpg/sg12_187_cif.got.tgz:372157.got - 2010.06.03 13:09:07.
