data_PCOD9192287
_publ_section_title
;
Structure prediction by ZEFSAII (Michael W. Deem and Ramdas Pophale) SiO2 
 PCOD9192287
Probable space group: C 2/M
;
_chemical_formula_sum "Si O2"
_cell_formula_units_Z 64
_cell_length_a 27.067896
_cell_length_b 7.497281
_cell_length_c 14.424120
_cell_angle_alpha 90.000000
_cell_angle_beta 94.453938
_cell_angle_gamma 90.000000
_cell_volume 2918.327979
_symmetry_space_group_name_H-M "C 2/M"
_symmetry_group_IT_number 12
_symmetry_cell_setting 'monoclinic'
loop_
_space_group_symop_operation_xyz
x,y,z
-x,y,-z
-x,-y,-z
x,-y,z
1/2+x,1/2+y,z
1/2-x,1/2+y,-z
1/2-x,1/2-y,-z
1/2+x,1/2-y,z
loop_
_atom_site_type_symbol
_atom_site_label
_atom_site_fract_x
_atom_site_fract_y
_atom_site_fract_z
Si Si1 0.155565 0.284102 0.608015
Si Si2 0.951889 0.215707 0.933719
Si Si3 0.854634 0.718939 0.606665
Si Si4 0.224933 0.213798 0.898731
Si Si5 0.885137 0.785226 0.085511
Si Si6 0.436451 0.211892 0.282273
Si Si7 0.545001 0.790436 0.282924
Si Si8 0.738044 0.790166 0.287429
O O1 0.155157 0.500000 0.610718
O O2 0.149493 0.227149 0.500904
O O3 0.109423 0.218233 0.663556
O O4 0.208665 0.227905 0.655760
O O5 0.951384 0.276018 0.827888
O O6 0.952706 0.000000 0.931261
O O7 0.905082 0.275070 0.988728
O O8 0.000000 0.272473 0.000000
O O9 0.854380 0.500000 0.607081
O O10 0.905713 0.780914 0.661129
O O11 0.806946 0.782155 0.657917
O O12 0.168794 0.283688 0.894376
O O13 0.255010 0.285063 0.814997
O O14 0.221630 0.000000 0.886468
O O15 0.250000 0.250000 0.000000
O O16 0.922982 0.738678 0.172667
O O17 0.882758 0.000000 0.081262
O O18 0.491666 0.285292 0.306222
O O19 0.438337 0.000000 0.299887
O O20 0.543819 0.000000 0.305771
O O21 0.727268 0.000000 0.276165
#
# Coordination Sequence:
#
# PCOD9192287 Si02
#       8
#     8   8   8   8   8   8   8   8
#     4  10  20  36  58  82 107 138 179 225 271 317
#     4  10  20  34  54  77 104 140 178 214 260 314
#     4   9  20  37  56  80 110 142 176 221 274 321
#     4  10  22  36  53  79 110 143 177 216 265 319
#     4  10  20  36  54  75 106 145 179 215 266 319
#     4  10  20  33  54  83 108 138 182 224 262 312
#     4  10  21  36  54  79 111 144 179 220 267 318
#     4  10  20  37  59  81 107 141 181 220 266 322
#
# _framework density 21.930367
#
# number of rings (size 3 to 8) (size 9 to 14) (size 15 to 20)
#    0.000    2.125    2.500    0.375    1.750    2.250 
#    0.000    3.750    0.000    0.000    0.000    2.625 
#    0.000    0.000    0.000    0.000    0.000    0.000 
#
# Total GULP energy -178771.811076 kJ/mol
# GULP energy per Si atom -5586.619096 kJ/mol
# Density = 2.188045 g / cm^3
# Si number density = 21.930367 Si / 1000 Ang^3
#
#
#
# Elastic Constant Matrix: (Units=GPa)
#
#
# Indices 1 2 3 4 5 6 
#
# 1 153.5340 -7.7446 64.8843 0.0000 -11.1713 0.0000
# 2 -7.7446 56.4823 -18.1053 0.0000 -5.0327 0.0000
# 3 64.8843 -18.1053 102.1458 0.0000 11.4560 0.0000
# 4 0.0000 0.0000 0.0000 -5.9815 0.0000 8.3015
# 5 -11.1713 -5.0327 11.4560 0.0000 31.7272 0.0000
# 6 0.0000 0.0000 0.0000 8.3015 0.0000 11.4924
#
#
#
# Elastic Compliance Matrix: (Units=1/GPa)
#
#
# Indices 1 2 3 4 5 6 
#
# 1 0.009894 -0.000362 -0.007018 0.000000 0.005960 0.000000
# 2 -0.000362 0.018889 0.003394 0.000000 0.001644 0.000000
# 3 -0.007018 0.003394 0.015702 0.000000 -0.007602 0.000000
# 4 0.000000 0.000000 0.000000 -0.083486 0.000000 0.060306
# 5 0.005960 0.001644 -0.007602 0.000000 0.036623 0.000000
# 6 0.000000 0.000000 0.000000 0.060306 0.000000 0.043452
#
#
# Mechanical properties :
#
#
# Convention : Reuss Voigt Hill
#
# Bulk Modulus (GPa) = 27.38690 43.35901 35.37295
# Shear Modulus (GPa) = 81.67595 25.65612 53.66603
#
# Velocity S-wave (km/s) = 6.10935 3.42408 4.95219
# Velocity P-wave (km/s) = 7.89182 5.95370 6.99025
#
# Compressibility (1/GPa) = 0.03651381
#
# Stress axis : x y z
#
# Youngs Moduli (GPa) = 101.06801 52.93998 63.68734
#
# Poissons Ratio (x) = 0.01915 0.44693
# Poissons Ratio (y) = 0.03656 -0.21613
# Poissons Ratio (z) = 0.70925 -0.17965
#
# Static dielectric constant tensor:
#      x y z
#    x 1.807610 0.000000 -0.028270 
#    y 0.000000 1.838890 0.000000 
#    z -0.028270 0.000000 1.758070 
# 
# From -- ./inp_files/238705.got.cif
#   From: 2010.05.17/outbox.cif.g08.bks.cpg/sg12_120_cif.got.tgz:238705.got - 2010.06.03 13:09:07.
