data_PCOD9192596
_publ_section_title
;
Structure prediction by ZEFSAII (Michael W. Deem and Ramdas Pophale) SiO2 
 PCOD9192596
Probable space group: C 2/M
;
_chemical_formula_sum "Si O2"
_cell_formula_units_Z 50
_cell_length_a 15.795844
_cell_length_b 20.051047
_cell_length_c 7.448026
_cell_angle_alpha 90.000000
_cell_angle_beta 52.617207
_cell_angle_gamma 90.000000
_cell_volume 1874.424668
_symmetry_space_group_name_H-M "C 2/M"
_symmetry_group_IT_number 12
_symmetry_cell_setting 'monoclinic'
loop_
_space_group_symop_operation_xyz
x,y,z
-x,y,-z
-x,-y,-z
x,-y,z
1/2+x,1/2+y,z
1/2-x,1/2+y,-z
1/2-x,1/2-y,-z
1/2+x,1/2-y,z
loop_
_atom_site_type_symbol
_atom_site_label
_atom_site_fract_x
_atom_site_fract_y
_atom_site_fract_z
Si Si1 0.400840 0.096645 0.329939
Si Si2 0.660575 0.426774 0.808555
Si Si3 0.248300 0.316702 0.118004
Si Si4 0.414297 0.610012 0.458136
Si Si5 0.577933 0.766004 0.571051
Si Si6 0.000000 0.500000 0.500000
Si Si7 0.687792 0.925570 0.934090
O O1 0.280924 0.083050 0.569868
O O2 0.441389 0.173378 0.270557
O O3 0.387769 0.075171 0.140944
O O4 0.472056 0.057127 0.380772
O O5 0.655137 0.500000 0.900360
O O6 0.652233 0.363079 0.952037
O O7 0.584049 0.425568 0.735486
O O8 0.196862 0.286124 0.360569
O O9 0.250000 0.250000 0.000000
O O10 0.177321 0.369556 0.099162
O O11 0.500000 0.594388 0.500000
O O12 0.421595 0.687997 0.394395
O O13 0.302761 0.592028 0.698032
O O14 0.500000 0.773897 0.500000
O O15 0.685458 0.000000 0.017355
#
# Coordination Sequence:
#
# PCOD9192596 Si02
#       7
#     8   8   8   8   8   2   8
#     4  10  20  33  63  88 121 161 208 252 306 371
#     4  10  21  38  60  91 121 163 210 250 309 382
#     4  11  23  39  62  89 124 169 202 252 316 374
#     4  10  21  38  65  93 121 158 217 263 307 362
#     4  10  21  38  62  90 119 163 206 258 303 364
#     4  12  16  36  60  94 126 156 212 264 304 372
#     4  11  22  39  60  93 126 161 209 256 312 377
#
# _framework density 26.674851
#
# number of rings (size 3 to 8) (size 9 to 14) (size 15 to 20)
#    0.000    1.600    4.000    1.920    2.240    3.200 
#    0.000    1.600    0.000    6.720    0.000    0.000 
#    0.000    0.000    0.000    0.000    0.000    0.000 
#
# Total GULP energy -139537.956388 kJ/mol
# GULP energy per Si atom -5581.518256 kJ/mol
# Density = 2.661414 g / cm^3
# Si number density = 26.674851 Si / 1000 Ang^3
#
#
#
# Elastic Constant Matrix: (Units=GPa)
#
#
# Indices 1 2 3 4 5 6 
#
# 1 173.7255 67.5711 30.6633 0.0000 31.2669 0.0000
# 2 67.5711 226.9067 15.6989 0.0000 17.3109 0.0000
# 3 30.6633 15.6989 54.2748 0.0000 14.5953 0.0000
# 4 0.0000 0.0000 0.0000 6.3147 0.0000 -5.3886
# 5 31.2669 17.3109 14.5953 0.0000 54.9724 0.0000
# 6 0.0000 0.0000 0.0000 -5.3886 0.0000 29.9636
#
#
#
# Elastic Compliance Matrix: (Units=1/GPa)
#
#
# Indices 1 2 3 4 5 6 
#
# 1 0.007502 -0.001809 -0.002930 0.000000 -0.002920 0.000000
# 2 -0.001809 0.005002 -0.000299 0.000000 -0.000467 0.000000
# 3 -0.002930 -0.000299 0.021207 0.000000 -0.003870 0.000000
# 4 0.000000 0.000000 0.000000 0.187071 0.000000 0.033642
# 5 -0.002920 -0.000467 -0.003870 0.000000 0.021026 0.000000
# 6 0.000000 0.000000 0.000000 0.033642 0.000000 0.039424
#
#
# Mechanical properties :
#
#
# Convention : Reuss Voigt Hill
#
# Bulk Modulus (GPa) = 42.30996 75.86372 59.08684
# Shear Modulus (GPa) = 16.71192 40.98171 28.84682
#
# Velocity S-wave (km/s) = 2.50572 3.92387 3.29207
# Velocity P-wave (km/s) = 4.92619 7.00221 6.05385
#
# Compressibility (1/GPa) = 0.02363509
#
# Stress axis : x y z
#
# Youngs Moduli (GPa) = 133.29114 199.91819 47.15320
#
# Poissons Ratio (x) = 0.36159 0.13817
# Poissons Ratio (y) = 0.24108 0.01412
# Poissons Ratio (z) = 0.39058 0.05986
#
# Static dielectric constant tensor:
#      x y z
#    x 2.133070 0.000000 -0.162010 
#    y 0.000000 2.139000 0.000000 
#    z -0.162010 0.000000 2.283820 
# 
# From -- ./inp_files/63401.got.cif
#   From: 2010.05.17/outbox.cif.g08.bks.cpg/sg12_32_cif.got.tgz:63401.got - 2010.06.03 13:09:07.
