data_PCOD9192942
_publ_section_title
;
Structure prediction by ZEFSAII (Michael W. Deem and Ramdas Pophale) SiO2 
 PCOD9192942
Probable space group: C 2/M
;
_chemical_formula_sum "Si O2"
_cell_formula_units_Z 64
_cell_length_a 15.183334
_cell_length_b 9.128914
_cell_length_c 28.217618
_cell_angle_alpha 90.000000
_cell_angle_beta 133.386055
_cell_angle_gamma 90.000000
_cell_volume 2842.410492
_symmetry_space_group_name_H-M "C 2/M"
_symmetry_group_IT_number 12
_symmetry_cell_setting 'monoclinic'
loop_
_space_group_symop_operation_xyz
x,y,z
-x,y,-z
-x,-y,-z
x,-y,z
1/2+x,1/2+y,z
1/2-x,1/2+y,-z
1/2-x,1/2-y,-z
1/2+x,1/2-y,z
loop_
_atom_site_type_symbol
_atom_site_label
_atom_site_fract_x
_atom_site_fract_y
_atom_site_fract_z
Si Si1 0.828533 0.333953 0.963033
Si Si2 0.501444 0.668463 0.711535
Si Si3 0.068532 0.834363 0.916092
Si Si4 0.925102 0.333085 0.535966
Si Si5 0.364709 0.667562 0.342303
Si Si6 0.776807 0.674895 0.166002
Si Si7 0.360795 0.824142 0.796809
Si Si8 0.787408 0.667716 0.587233
O O1 0.861399 0.500000 0.960982
O O2 0.705367 0.346012 0.948191
O O3 0.789962 0.232968 0.905256
O O4 0.926679 0.257753 0.033429
O O5 0.495645 0.500000 0.725314
O O6 0.569373 0.669506 0.685102
O O7 0.586654 0.763595 0.777141
O O8 0.370694 0.736577 0.652510
O O9 0.991966 0.747356 0.848623
O O10 0.021961 0.000000 0.905958
O O11 0.926248 0.500000 0.520164
O O12 0.856291 0.330676 0.561619
O O13 0.844098 0.233868 0.471817
O O14 0.058059 0.271595 0.595713
O O15 0.372031 0.500000 0.361720
O O16 0.226016 0.707691 0.279825
O O17 0.777910 0.500000 0.168847
O O18 0.704642 0.748195 0.182745
O O19 0.365021 0.000000 0.803654
O O20 0.782202 0.500000 0.601098
#
# Coordination Sequence:
#
# PCOD9192942 Si02
#       8
#     8   8   8   8   8   8   8   8
#     4  10  21  38  57  76 101 131 162 199 246 295
#     4   9  16  27  41  59  87 121 157 196 242 290
#     4  10  21  37  57  79 101 127 162 203 245 292
#     4   9  15  21  32  51  77 113 154 194 235 280
#     4   8  15  26  39  57  84 119 155 192 235 284
#     4  11  21  33  51  75 102 131 167 206 245 292
#     4  10  20  34  52  74 102 134 166 202 248 297
#     4   9  15  22  33  51  78 114 155 195 235 282
#
# _framework density 22.516102
#
# number of rings (size 3 to 8) (size 9 to 14) (size 15 to 20)
#    0.000    2.500    0.000    4.125    0.000    8.500 
#    0.000    2.500    0.000    0.000    0.000    0.000 
#    0.000    1.000    0.000   10.500    0.000   14.750 
#
# Total GULP energy -178871.490484 kJ/mol
# GULP energy per Si atom -5589.734078 kJ/mol
# Density = 2.246485 g / cm^3
# Si number density = 22.516102 Si / 1000 Ang^3
#
#
#
# Elastic Constant Matrix: (Units=GPa)
#
#
# Indices 1 2 3 4 5 6 
#
# 1 17.2853 30.8360 58.3255 0.0000 -16.2161 0.0000
# 2 30.8360 157.8052 67.9644 0.0000 25.9267 0.0000
# 3 58.3255 67.9644 93.2392 0.0000 42.7714 0.0000
# 4 0.0000 0.0000 0.0000 37.4096 0.0000 4.2674
# 5 -16.2161 25.9267 42.7714 0.0000 28.2435 0.0000
# 6 0.0000 0.0000 0.0000 4.2674 0.0000 -0.4862
#
#
#
# Elastic Compliance Matrix: (Units=1/GPa)
#
#
# Indices 1 2 3 4 5 6 
#
# 1 -0.004049 -0.001458 0.013259 0.000000 -0.021066 0.000000
# 2 -0.001458 0.008992 -0.004820 0.000000 -0.001792 0.000000
# 3 0.013259 -0.004820 0.001383 0.000000 0.009943 0.000000
# 4 0.000000 0.000000 0.000000 0.013357 0.000000 0.117238
# 5 -0.021066 -0.001792 0.009943 0.000000 0.009899 0.000000
# 6 0.000000 0.000000 0.000000 0.117238 0.000000 -1.027743
#
#
# Mechanical properties :
#
#
# Convention : Reuss Voigt Hill
#
# Bulk Modulus (GPa) = 49.29034 64.73129 57.01081
# Shear Modulus (GPa) = -4.97336 20.44695 7.73680
#
# Velocity S-wave (km/s) = -1.48782 3.01674 1.85569
# Velocity P-wave (km/s) = 4.35743 6.39888 5.47416
#
# Compressibility (1/GPa) = 0.02028795
#
# Stress axis : x y z
#
# Youngs Moduli (GPa) = -246.97223 111.20485 722.89784
#
# Poissons Ratio (x) = 0.16218 -9.58514
# Poissons Ratio (y) = -0.36019 3.48458
# Poissons Ratio (z) = 3.27469 0.53604
#
# Static dielectric constant tensor:
#      x y z
#    x 1.908860 0.000000 0.021980 
#    y 0.000000 1.767590 0.000000 
#    z 0.021980 0.000000 1.805200 
# 
# From -- ./inp_files/378323.got.cif
#   From: 2010.05.17/outbox.cif.g08.bks.cpg/sg12_190_cif.got.tgz:378323.got - 2010.06.03 13:09:07.
