data_PCOD9192096
_publ_section_title
;
Structure prediction by ZEFSAII (Michael W. Deem and Ramdas Pophale) SiO2 
 PCOD9192096
Probable space group: C 2/M
;
_chemical_formula_sum "Si O2"
_cell_formula_units_Z 56
_cell_length_a 31.802589
_cell_length_b 13.600829
_cell_length_c 9.234157
_cell_angle_alpha 90.000000
_cell_angle_beta 62.896924
_cell_angle_gamma 90.000000
_cell_volume 3555.551848
_symmetry_space_group_name_H-M "C 2/M"
_symmetry_group_IT_number 12
_symmetry_cell_setting 'monoclinic'
loop_
_space_group_symop_operation_xyz
x,y,z
-x,y,-z
-x,-y,-z
x,-y,z
1/2+x,1/2+y,z
1/2-x,1/2+y,-z
1/2-x,1/2-y,-z
1/2+x,1/2-y,z
loop_
_atom_site_type_symbol
_atom_site_label
_atom_site_fract_x
_atom_site_fract_y
_atom_site_fract_z
Si Si1 0.231390 0.710021 0.680263
Si Si2 0.355925 0.189651 0.646392
Si Si3 0.693972 0.610196 0.245526
Si Si4 0.252839 0.111996 0.856264
Si Si5 0.640049 0.118140 0.691804
Si Si6 0.450787 0.880939 0.655595
Si Si7 0.545867 0.880782 0.014520
O O1 0.250000 0.750000 0.500000
O O2 0.268912 0.633572 0.685782
O O3 0.231631 0.803603 0.786924
O O4 0.181970 0.658960 0.725659
O O5 0.344881 0.304636 0.686541
O O6 0.308809 0.135442 0.782141
O O7 0.357646 0.162975 0.473144
O O8 0.404208 0.157752 0.647310
O O9 0.675079 0.500000 0.284773
O O10 0.725219 0.618640 0.050656
O O11 0.247887 0.000000 0.808306
O O12 0.591603 0.143828 0.848608
O O13 0.643466 0.000000 0.672809
O O14 0.500000 0.852872 0.500000
O O15 0.448358 0.000000 0.655728
O O16 0.451565 0.848578 0.822484
O O17 0.543311 0.000000 0.023977
O O18 0.500000 0.845270 0.000000
#
# Coordination Sequence:
#
# PCOD9192096 Si02
#       7
#     8   8   8   8   8   8   8
#     4  11  20  33  50  76 104 139 176 213 253 310
#     4  11  20  34  52  75 102 137 177 209 256 312
#     4  10  22  37  52  72 106 142 179 221 257 302
#     4  10  21  35  52  74 105 141 175 215 257 304
#     4  11  21  32  49  74 107 139 170 209 254 305
#     4  10  20  33  53  78 105 135 168 211 259 313
#     4   9  19  33  49  73 103 134 164 202 253 307
#
# _framework density 15.750016
#
# number of rings (size 3 to 8) (size 9 to 14) (size 15 to 20)
#    0.000    1.714    2.857    4.286    4.000    2.857 
#    0.000    0.000    0.000    0.429    0.000    0.000 
#    0.000    2.857    0.000    0.000    0.000    0.000 
#
# Total GULP energy -156182.787543 kJ/mol
# GULP energy per Si atom -5577.956698 kJ/mol
# Density = 1.571417 g / cm^3
# Si number density = 15.750016 Si / 1000 Ang^3
#
#
#
# Elastic Constant Matrix: (Units=GPa)
#
#
# Indices 1 2 3 4 5 6 
#
# 1 116.9085 31.2582 44.0600 0.0000 -6.7292 0.0000
# 2 31.2582 85.4323 39.5821 0.0000 -7.1139 0.0000
# 3 44.0600 39.5821 82.7806 0.0000 -6.2749 0.0000
# 4 0.0000 0.0000 0.0000 19.4845 0.0000 -2.6093
# 5 -6.7292 -7.1139 -6.2749 0.0000 25.0829 0.0000
# 6 0.0000 0.0000 0.0000 -2.6093 0.0000 19.8419
#
#
#
# Elastic Compliance Matrix: (Units=1/GPa)
#
#
# Indices 1 2 3 4 5 6 
#
# 1 0.010919 -0.001597 -0.004954 0.000000 0.001237 0.000000
# 2 -0.001597 0.015427 -0.006348 0.000000 0.002359 0.000000
# 3 -0.004954 -0.006348 0.017854 0.000000 0.001337 0.000000
# 4 0.000000 0.000000 0.000000 0.052243 0.000000 0.006870
# 5 0.001237 0.002359 0.001337 0.000000 0.041203 0.000000
# 6 0.000000 0.000000 0.000000 0.006870 0.000000 0.051302
#
#
# Mechanical properties :
#
#
# Convention : Reuss Voigt Hill
#
# Bulk Modulus (GPa) = 54.34255 57.21357 55.77806
# Shear Modulus (GPa) = 22.63680 24.22992 23.43336
#
# Velocity S-wave (km/s) = 3.79523 3.92651 3.86143
# Velocity P-wave (km/s) = 7.33370 7.54729 7.44126
#
# Compressibility (1/GPa) = 0.01840179
#
# Stress axis : x y z
#
# Youngs Moduli (GPa) = 91.58347 64.82218 56.01067
#
# Poissons Ratio (x) = 0.10349 0.27750
# Poissons Ratio (y) = 0.14622 0.35555
# Poissons Ratio (z) = 0.45375 0.41148
#
# Static dielectric constant tensor:
#      x y z
#    x 1.506100 0.000000 -0.000500 
#    y 0.000000 1.522890 0.000000 
#    z -0.000500 0.000000 1.526110 
# 
# From -- ./inp_files/111089.got.cif
#   From: 2010.05.17/outbox.cif.g08.bks.cpg/sg12_56_cif.got.tgz:111089.got - 2010.06.03 13:09:07.
