data_PCOD9192773
_publ_section_title
;
Structure prediction by ZEFSAII (Michael W. Deem and Ramdas Pophale) SiO2 
 PCOD9192773
Probable space group: C 2/M
;
_chemical_formula_sum "Si O2"
_cell_formula_units_Z 64
_cell_length_a 16.460623
_cell_length_b 7.510140
_cell_length_c 20.075576
_cell_angle_alpha 90.000000
_cell_angle_beta 100.258208
_cell_angle_gamma 90.000000
_cell_volume 2442.103810
_symmetry_space_group_name_H-M "C 2/M"
_symmetry_group_IT_number 12
_symmetry_cell_setting 'monoclinic'
loop_
_space_group_symop_operation_xyz
x,y,z
-x,y,-z
-x,-y,-z
x,-y,z
1/2+x,1/2+y,z
1/2-x,1/2+y,-z
1/2-x,1/2-y,-z
1/2+x,1/2-y,z
loop_
_atom_site_type_symbol
_atom_site_label
_atom_site_fract_x
_atom_site_fract_y
_atom_site_fract_z
Si Si1 0.679121 0.714825 0.083598
Si Si2 0.342500 0.709060 0.540921
Si Si3 0.858270 0.282501 0.162237
Si Si4 0.476716 0.785451 0.290887
Si Si5 0.063047 0.295048 0.956608
Si Si6 0.732404 0.719219 0.339589
Si Si7 0.913088 0.711847 0.415488
Si Si8 0.622879 0.290675 0.210805
O O1 0.678276 0.500000 0.075362
O O2 0.767931 0.770342 0.124764
O O3 0.617580 0.775389 0.134660
O O4 0.649384 0.792460 0.009662
O O5 0.350390 0.500000 0.547681
O O6 0.250000 0.750000 0.500000
O O7 0.334516 0.781356 0.614629
O O8 0.408769 0.760976 0.494534
O O9 0.858060 0.500000 0.161417
O O10 0.892777 0.232525 0.239456
O O11 0.921067 0.217990 0.113783
O O12 0.475029 0.718560 0.367195
O O13 0.548088 0.729382 0.250869
O O14 0.479808 0.000000 0.292886
O O15 0.038293 0.500000 0.943513
O O16 0.000000 0.208803 0.000000
O O17 0.733767 0.500000 0.339695
O O18 0.822833 0.774736 0.376459
O O19 0.701377 0.780215 0.263575
O O20 0.916134 0.500000 0.409852
O O21 0.637903 0.500000 0.204569
#
# Coordination Sequence:
#
# PCOD9192773 Si02
#       8
#     8   8   8   8   8   8   8   8
#     4  10  20  34  54  77  99 129 169 210 248 288
#     4   9  16  28  49  75 101 130 166 208 251 295
#     4   9  18  34  55  76  99 132 172 207 243 293
#     4  10  20  35  54  74  99 132 168 206 251 302
#     4  10  20  34  53  77 106 137 165 199 247 300
#     4   8  15  30  51  72  95 128 167 202 240 291
#     4   9  17  31  52  75  98 128 167 208 249 296
#     4  10  20  34  51  72  99 129 165 208 250 295
#
# _framework density 26.206911999999999
#
# number of rings (size 3 to 8) (size 9 to 14) (size 15 to 20)
#    0.000    2.625    0.000    3.000    0.000    5.250 
#    0.000    5.000    0.000    8.250    0.000    0.000 
#    0.000    0.000    0.000    0.000    0.000    0.000 
#
# Total GULP energy -178773.567259 kJ/mol
# GULP energy per Si atom -5586.673977 kJ/mol
# Density = 2.614726 g / cm^3
# Si number density = 26.206912 Si / 1000 Ang^3
#
#
#
# Elastic Constant Matrix: (Units=GPa)
#
#
# Indices 1 2 3 4 5 6 
#
# 1 72.0582 -5.8221 4.0549 0.0000 -16.3913 0.0000
# 2 -5.8221 77.5005 1.9636 0.0000 -0.7083 0.0000
# 3 4.0549 1.9636 158.1866 0.0000 -18.0561 0.0000
# 4 0.0000 0.0000 0.0000 14.5959 0.0000 0.2122
# 5 -16.3913 -0.7083 -18.0561 0.0000 48.5800 0.0000
# 6 0.0000 0.0000 0.0000 0.2122 0.0000 12.4511
#
#
#
# Elastic Compliance Matrix: (Units=1/GPa)
#
#
# Indices 1 2 3 4 5 6 
#
# 1 0.015145 0.001180 0.000190 0.000000 0.005198 0.000000
# 2 0.001180 0.013000 -0.000130 0.000000 0.000539 0.000000
# 3 0.000190 -0.000130 0.006606 0.000000 0.002518 0.000000
# 4 0.000000 0.000000 0.000000 0.068529 0.000000 -0.001168
# 5 0.005198 0.000539 0.002518 0.000000 0.023282 0.000000
# 6 0.000000 0.000000 0.000000 -0.001168 0.000000 0.080334
#
#
# Mechanical properties :
#
#
# Convention : Reuss Voigt Hill
#
# Bulk Modulus (GPa) = 26.85854 34.23757 30.54806
# Shear Modulus (GPa) = 23.06002 35.62864 29.34433
#
# Velocity S-wave (km/s) = 2.96956 3.69116 3.34985
# Velocity P-wave (km/s) = 4.69347 5.59096 5.16176
#
# Compressibility (1/GPa) = 0.03723211
#
# Stress axis : x y z
#
# Youngs Moduli (GPa) = 66.02959 76.92283 151.38334
#
# Poissons Ratio (x) = -0.09080 -0.02883
# Poissons Ratio (y) = -0.07794 0.01969
# Poissons Ratio (z) = -0.01258 0.01000
#
# Static dielectric constant tensor:
#      x y z
#    x 2.160090 0.000000 -0.035220 
#    y 0.000000 1.956600 0.000000 
#    z -0.035220 0.000000 2.078190 
# 
# From -- ./inp_files/313984.got.cif
#   From: 2010.05.17/outbox.cif.g08.bks.cpg/sg12_157_cif.got.tgz:313984.got - 2010.06.03 13:09:07.
