data_PCOD9192843
_publ_section_title
;
Structure prediction by ZEFSAII (Michael W. Deem and Ramdas Pophale) SiO2 
 PCOD9192843
Probable space group: C 2/M
;
_chemical_formula_sum "Si O2"
_cell_formula_units_Z 64
_cell_length_a 21.166890
_cell_length_b 7.600002
_cell_length_c 20.886522
_cell_angle_alpha 90.000000
_cell_angle_beta 115.703051
_cell_angle_gamma 90.000000
_cell_volume 3027.524535
_symmetry_space_group_name_H-M "C 2/M"
_symmetry_group_IT_number 12
_symmetry_cell_setting 'monoclinic'
loop_
_space_group_symop_operation_xyz
x,y,z
-x,y,-z
-x,-y,-z
x,-y,z
1/2+x,1/2+y,z
1/2-x,1/2+y,-z
1/2-x,1/2-y,-z
1/2+x,1/2-y,z
loop_
_atom_site_type_symbol
_atom_site_label
_atom_site_fract_x
_atom_site_fract_y
_atom_site_fract_z
Si Si1 0.549783 0.715283 0.254674
Si Si2 0.697869 0.286454 0.709684
Si Si3 0.671571 0.210062 0.943796
Si Si4 0.143558 0.208857 0.177518
Si Si5 0.604685 0.295243 0.783988
Si Si6 0.688063 0.705633 0.563258
Si Si7 0.923968 0.294719 0.983975
Si Si8 0.344760 0.286015 0.587814
O O1 0.550017 0.500000 0.251790
O O2 0.589453 0.775449 0.207948
O O3 0.470484 0.779070 0.228064
O O4 0.594871 0.766237 0.336672
O O5 0.695036 0.500000 0.707115
O O6 0.777403 0.242239 0.764452
O O7 0.644006 0.219845 0.739625
O O8 0.679796 0.219255 0.630612
O O9 0.655221 0.284467 0.867045
O O10 0.664289 0.000000 0.936576
O O11 0.750000 0.250000 0.000000
O O12 0.616431 0.280259 0.972370
O O13 0.125044 0.284474 0.100053
O O14 0.134349 0.000000 0.167891
O O15 0.591435 0.500000 0.763101
O O16 0.669232 0.500000 0.558970
O O17 0.649075 0.776867 0.482957
O O18 0.770368 0.721606 0.582206
O O19 0.936094 0.500000 0.004437
O O20 0.000000 0.216408 0.000000
O O21 0.341717 0.500000 0.585698
#
# Coordination Sequence:
#
# PCOD9192843 Si02
#       8
#     8   8   8   8   8   8   8   8
#     4   9  18  33  52  77 106 138 173 212 260 306
#     4  10  20  34  51  76 106 137 173 213 257 304
#     4  11  23  39  58  79 103 135 175 215 258 311
#     4  11  21  33  54  80 103 131 172 217 258 305
#     4  10  21  37  55  74 105 142 173 211 259 311
#     4   9  17  29  49  77 105 135 173 214 254 301
#     4  10  22  39  56  76 104 135 167 211 264 311
#     4   9  16  30  51  75 105 137 171 212 257 303
#
# _framework density 21.139384
#
# number of rings (size 3 to 8) (size 9 to 14) (size 15 to 20)
#    0.000    2.125    1.250    2.250    0.000    4.750 
#    0.000    1.875    0.000    3.750    0.000    0.000 
#    0.000    6.000    0.000    0.000    0.000    0.000 
#
# Total GULP energy -178703.821015 kJ/mol
# GULP energy per Si atom -5584.494407 kJ/mol
# Density = 2.109127 g / cm^3
# Si number density = 21.139384 Si / 1000 Ang^3
#
#
#
# Elastic Constant Matrix: (Units=GPa)
#
#
# Indices 1 2 3 4 5 6 
#
# 1 93.9832 1.6866 9.0336 0.0000 -32.4992 0.0000
# 2 1.6866 46.3025 -16.0258 0.0000 -3.9788 -0.0001
# 3 9.0336 -16.0258 77.4648 0.0000 -34.7568 0.0000
# 4 0.0000 0.0000 0.0000 -0.2323 0.0000 5.7006
# 5 -32.4992 -3.9788 -34.7568 0.0000 37.9753 0.0000
# 6 0.0000 -0.0001 0.0000 5.7006 0.0000 13.3773
#
#
#
# Elastic Compliance Matrix: (Units=1/GPa)
#
#
# Indices 1 2 3 4 5 6 
#
# 1 0.018605 0.005292 0.010720 0.000000 0.026288 0.000000
# 2 0.005292 0.028234 0.014563 0.000000 0.020816 0.000000
# 3 0.010720 0.014563 0.033041 0.000000 0.040941 0.000000
# 4 0.000000 0.000000 0.000000 -0.375725 0.000000 0.160110
# 5 0.026288 0.020816 0.040941 0.000000 0.088482 0.000000
# 6 0.000000 0.000000 0.000000 0.160110 0.000000 0.006525
#
#
# Mechanical properties :
#
#
# Convention : Reuss Voigt Hill
#
# Bulk Modulus (GPa) = 7.09069 23.01550 15.05309
# Shear Modulus (GPa) = -23.25815 25.09447 0.91816
#
# Velocity S-wave (km/s) = -3.32057 3.44916 0.65976
# Velocity P-wave (km/s) = 3.36750 5.17431 2.77790
#
# Compressibility (1/GPa) = 0.14103007
#
# Stress axis : x y z
#
# Youngs Moduli (GPa) = 53.74818 35.41876 30.26536
#
# Poissons Ratio (x) = -0.18742 -0.32445
# Poissons Ratio (y) = -0.28441 -0.44077
# Poissons Ratio (z) = -0.57618 -0.51582
#
# Static dielectric constant tensor:
#      x y z
#    x 1.750630 0.000000 -0.026730 
#    y 0.000000 1.795330 0.000000 
#    z -0.026730 0.000000 1.742620 
# 
# From -- ./inp_files/319945.got.cif
#   From: 2010.05.17/outbox.cif.g08.bks.cpg/sg12_160_cif.got.tgz:319945.got - 2010.06.03 13:09:07.
