data_PCOD9192186
_publ_section_title
;
Structure prediction by ZEFSAII (Michael W. Deem and Ramdas Pophale) SiO2 
 PCOD9192186
Probable space group: C 2/M
;
_chemical_formula_sum "Si O2"
_cell_formula_units_Z 64
_cell_length_a 14.461165
_cell_length_b 18.025068
_cell_length_c 16.970473
_cell_angle_alpha 90.000000
_cell_angle_beta 45.014374
_cell_angle_gamma 90.000000
_cell_volume 3128.729868
_symmetry_space_group_name_H-M "C 2/M"
_symmetry_group_IT_number 12
_symmetry_cell_setting 'monoclinic'
loop_
_space_group_symop_operation_xyz
x,y,z
-x,y,-z
-x,-y,-z
x,-y,z
1/2+x,1/2+y,z
1/2-x,1/2+y,-z
1/2-x,1/2-y,-z
1/2+x,1/2-y,z
loop_
_atom_site_type_symbol
_atom_site_label
_atom_site_fract_x
_atom_site_fract_y
_atom_site_fract_z
Si Si1 0.813967 0.916383 0.465082
Si Si2 0.345074 0.089796 0.292618
Si Si3 0.093117 0.334842 0.223550
Si Si4 0.521595 0.079205 0.578204
Si Si5 0.179126 0.191919 0.100667
Si Si6 0.446508 0.589135 0.225141
Si Si7 0.647278 0.588327 0.886151
Si Si8 0.154874 0.585126 0.890841
O O1 0.769126 0.884272 0.577370
O O2 0.673388 0.921235 0.507209
O O3 0.902900 0.886976 0.339852
O O4 0.863581 0.000000 0.451657
O O5 0.484223 0.125639 0.233844
O O6 0.318980 0.104166 0.216566
O O7 0.355901 0.000000 0.295532
O O8 0.099903 0.248775 0.202910
O O9 0.237659 0.370678 0.136286
O O10 0.042959 0.352724 0.340436
O O11 0.500000 0.080865 0.500000
O O12 0.466274 0.000000 0.642641
O O13 0.278940 0.143225 0.090988
O O14 0.076812 0.134154 0.126408
O O15 0.250000 0.250000 0.000000
O O16 0.467234 0.500000 0.214143
O O17 0.346658 0.602166 0.212508
O O18 0.658268 0.500000 0.892804
O O19 0.500000 0.610235 0.000000
O O20 0.200820 0.500000 0.876977
O O21 0.000000 0.586014 0.000000
#
# Coordination Sequence:
#
# PCOD9192186 Si02
#       8
#     8   8   8   8   8   8   8   8
#     4   8  15  30  56  86 112 145 193 246 292 337
#     4   9  18  36  63  91 117 150 199 250 289 341
#     4  11  21  34  54  84 121 155 187 232 296 354
#     4   9  16  30  54  83 116 154 198 240 277 334
#     4  12  26  41  58  84 118 154 191 239 302 364
#     4  10  21  40  62  84 116 158 202 246 297 358
#     4  10  20  33  53  82 114 152 198 245 291 345
#     4  10  22  42  66  87 110 150 205 254 294 346
#
# _framework density 20.455586
#
# number of rings (size 3 to 8) (size 9 to 14) (size 15 to 20)
#    0.000    2.125    0.000    4.500    0.000    4.500 
#    0.000   10.625    0.000    3.000    0.000    0.000 
#    0.000    0.000    0.000    0.000    0.000    0.000 
#
# Total GULP energy -178359.505957 kJ/mol
# GULP energy per Si atom -5573.734561 kJ/mol
# Density = 2.040903 g / cm^3
# Si number density = 20.455586 Si / 1000 Ang^3
#
#
#
# Elastic Constant Matrix: (Units=GPa)
#
#
# Indices 1 2 3 4 5 6 
#
# 1 77.3676 49.1265 27.1037 0.0000 13.6494 -0.0001
# 2 49.1265 77.7384 35.5829 0.0000 3.3311 -0.0001
# 3 27.1037 35.5829 99.2845 0.0000 16.6703 -0.0002
# 4 0.0000 0.0000 0.0000 31.2879 0.0000 -11.8902
# 5 13.6494 3.3311 16.6703 0.0000 33.2393 0.0001
# 6 -0.0001 -0.0001 -0.0002 -11.8902 0.0001 -31.0092
#
#
#
# Elastic Compliance Matrix: (Units=1/GPa)
#
#
# Indices 1 2 3 4 5 6 
#
# 1 0.023646 -0.014681 0.000207 0.000000 -0.008343 0.000000
# 2 -0.014681 0.024557 -0.005888 0.000000 0.006520 0.000000
# 3 0.000207 -0.005888 0.013148 0.000000 -0.006089 0.000000
# 4 0.000000 0.000000 0.000000 0.027896 0.000000 -0.010697
# 5 -0.008343 0.006520 -0.006089 0.000000 0.035911 0.000000
# 6 0.000000 0.000000 0.000000 -0.010697 0.000000 -0.028147
#
#
# Mechanical properties :
#
#
# Convention : Reuss Voigt Hill
#
# Bulk Modulus (GPa) = 48.47798 53.11297 50.79548
# Shear Modulus (GPa) = 34.57550 16.20876 25.39213
#
# Velocity S-wave (km/s) = 4.11575 2.81799 3.52707
# Velocity P-wave (km/s) = 6.80709 6.05058 6.43995
#
# Compressibility (1/GPa) = 0.02062792
#
# Stress axis : x y z
#
# Youngs Moduli (GPa) = 42.28971 40.72207 76.05592
#
# Poissons Ratio (x) = 0.59782 -0.01574
# Poissons Ratio (y) = 0.62083 0.44783
# Poissons Ratio (z) = -0.00875 0.23978
#
# Static dielectric constant tensor:
#      x y z
#    x 1.725530 0.000000 0.027710 
#    y 0.000000 1.722120 0.000000 
#    z 0.027710 0.000000 1.853680 
# 
# From -- ./inp_files/271706.got.cif
#   From: 2010.05.17/outbox.cif.g08.bks.cpg/sg12_136_cif.got.tgz:271706.got - 2010.06.03 13:09:07.
