data_PCOD9192629
_publ_section_title
;
Structure prediction by ZEFSAII (Michael W. Deem and Ramdas Pophale) SiO2 
 PCOD9192629
Probable space group: C 2/M
;
_chemical_formula_sum "Si O2"
_cell_formula_units_Z 64
_cell_length_a 20.474690
_cell_length_b 7.310268
_cell_length_c 21.516164
_cell_angle_alpha 90.000000
_cell_angle_beta 45.213972
_cell_angle_gamma 90.000000
_cell_volume 2285.684692
_symmetry_space_group_name_H-M "C 2/M"
_symmetry_group_IT_number 12
_symmetry_cell_setting 'monoclinic'
loop_
_space_group_symop_operation_xyz
x,y,z
-x,y,-z
-x,-y,-z
x,-y,z
1/2+x,1/2+y,z
1/2-x,1/2+y,-z
1/2-x,1/2-y,-z
1/2+x,1/2-y,z
loop_
_atom_site_type_symbol
_atom_site_label
_atom_site_fract_x
_atom_site_fract_y
_atom_site_fract_z
Si Si1 0.440253 0.291166 0.284699
Si Si2 0.684624 0.711453 0.791132
Si Si3 0.372364 0.722567 0.906434
Si Si4 0.628821 0.224068 0.399748
Si Si5 0.474298 0.789015 0.647048
Si Si6 0.742753 0.218319 0.432160
Si Si7 0.486377 0.723639 0.939109
Si Si8 0.781260 0.219591 0.847365
O O1 0.437199 0.500000 0.264843
O O2 0.533355 0.217861 0.192258
O O3 0.458473 0.294372 0.346891
O O4 0.340091 0.209233 0.340606
O O5 0.684656 0.500000 0.773281
O O6 0.776384 0.785590 0.698082
O O7 0.583599 0.781543 0.843249
O O8 0.701177 0.717775 0.854748
O O9 0.368009 0.500000 0.909520
O O10 0.398266 0.784935 0.958543
O O11 0.292959 0.784102 0.911374
O O12 0.547805 0.284015 0.407343
O O13 0.653267 0.280175 0.453758
O O14 0.621265 0.000000 0.403090
O O15 0.374441 0.780123 0.748619
O O16 0.502959 0.000000 0.621755
O O17 0.750000 0.250000 0.500000
O O18 0.744321 0.000000 0.422824
O O19 0.484402 0.500000 0.941074
O O20 0.500000 0.786492 0.000000
O O21 0.780943 0.000000 0.847939
#
# Coordination Sequence:
#
# PCOD9192629 Si02
#       8
#     8   8   8   8   8   8   8   8
#     4   9  17  30  49  70  93 122 151 183 227 277
#     4   9  16  28  48  71  92 116 151 192 228 265
#     4   8  14  26  45  67  89 118 154 185 220 270
#     4   8  15  29  49  69  89 118 153 187 223 267
#     4   9  16  28  49  74  95 115 147 191 229 264
#     4  10  20  34  49  66  91 122 156 190 226 268
#     4   9  16  26  43  68  94 119 153 196 230 258
#     4   9  16  27  45  68  94 121 149 185 228 274
#
# _framework density 28.000364000000001
#
# number of rings (size 3 to 8) (size 9 to 14) (size 15 to 20)
#    0.000    3.125    0.000    3.000    0.000    3.500 
#    0.000    4.375    0.000   13.875    0.000    0.000 
#    0.000    0.000    0.000    0.000    0.000    0.000 
#
# Total GULP energy -178845.122755 kJ/mol
# GULP energy per Si atom -5588.910086 kJ/mol
# Density = 2.793663 g / cm^3
# Si number density = 28.000364 Si / 1000 Ang^3
#
#
#
# Elastic Constant Matrix: (Units=GPa)
#
#
# Indices 1 2 3 4 5 6 
#
# 1 278.1323 -0.7629 48.1982 -0.0007 26.3283 0.0002
# 2 -0.7629 126.1894 -5.1828 -0.0053 -0.4987 -0.0030
# 3 48.1982 -5.1828 91.9669 -0.0001 29.9191 0.0006
# 4 -0.0007 -0.0053 -0.0001 7.0041 0.0003 7.2175
# 5 26.3283 -0.4987 29.9191 0.0003 73.3615 -0.0007
# 6 0.0002 -0.0030 0.0006 7.2175 -0.0007 6.1151
#
#
#
# Elastic Compliance Matrix: (Units=1/GPa)
#
#
# Indices 1 2 3 4 5 6 
#
# 1 0.003983 -0.000056 -0.001874 -0.000002 -0.000666 0.000002
# 2 -0.000056 0.007945 0.000522 -0.000010 -0.000139 0.000015
# 3 -0.001874 0.000522 0.013450 -0.000010 -0.004809 0.000010
# 4 -0.000002 -0.000010 -0.000010 -0.660321 0.000014 0.779358
# 5 -0.000666 -0.000139 -0.004809 0.000014 0.015830 -0.000015
# 6 0.000002 0.000015 0.000010 0.779358 -0.000015 -0.756323
#
#
# Mechanical properties :
#
#
# Convention : Reuss Voigt Hill
#
# Bulk Modulus (GPa) = 44.32091 64.53260 54.42676
# Shear Modulus (GPa) = -3.66274 47.56522 21.95124
#
# Velocity S-wave (km/s) = -1.14496 4.12604 2.80297
# Velocity P-wave (km/s) = 3.75701 6.76728 5.47317
#
# Compressibility (1/GPa) = 0.02256271
#
# Stress axis : x y z
#
# Youngs Moduli (GPa) = 251.06606 125.86286 74.35198
#
# Poissons Ratio (x) = 0.00699 0.13934
# Poissons Ratio (y) = 0.01394 -0.03882
# Poissons Ratio (z) = 0.47051 -0.06571
#
# Static dielectric constant tensor:
#      x y z
#    x 2.144610 0.000010 0.025880 
#    y 0.000010 1.549910 0.000000 
#    z 0.025880 0.000000 2.314670 
# 
# From -- ./inp_files/319909.got.cif
#   From: 2010.05.17/outbox.cif.g08.bks.cpg/sg12_160_cif.got.tgz:319909.got - 2010.06.03 13:09:07.
