data_PCOD9192796
_publ_section_title
;
Structure prediction by ZEFSAII (Michael W. Deem and Ramdas Pophale) SiO2 
 PCOD9192796
Probable space group: C 2/M
;
_chemical_formula_sum "Si O2"
_cell_formula_units_Z 60
_cell_length_a 28.437582
_cell_length_b 25.067898
_cell_length_c 6.740498
_cell_angle_alpha 90.000000
_cell_angle_beta 129.536207
_cell_angle_gamma 90.000000
_cell_volume 3705.802285
_symmetry_space_group_name_H-M "C 2/M"
_symmetry_group_IT_number 12
_symmetry_cell_setting 'monoclinic'
loop_
_space_group_symop_operation_xyz
x,y,z
-x,y,-z
-x,-y,-z
x,-y,z
1/2+x,1/2+y,z
1/2-x,1/2+y,-z
1/2-x,1/2-y,-z
1/2+x,1/2-y,z
loop_
_atom_site_type_symbol
_atom_site_label
_atom_site_fract_x
_atom_site_fract_y
_atom_site_fract_z
Si Si1 0.264256 0.825323 0.671331
Si Si2 0.500000 0.845752 0.000000
Si Si3 0.065157 0.558888 0.686216
Si Si4 0.347908 0.252458 0.644868
Si Si5 0.117556 0.408124 0.436339
Si Si6 0.184844 0.438307 0.243049
Si Si7 0.649477 0.804240 0.754582
Si Si8 0.953590 0.271631 0.217787
O O1 0.309998 0.798186 0.633257
O O2 0.197342 0.802259 0.455204
O O3 0.269624 0.889374 0.676915
O O4 0.289730 0.802508 0.949027
O O5 0.439663 0.881331 0.828922
O O6 0.507566 0.809739 0.824034
O O7 0.053237 0.500000 0.742818
O O8 0.088079 0.555542 0.524141
O O9 0.000000 0.587935 0.500000
O O10 0.122857 0.578820 0.962360
O O11 0.358528 0.239104 0.441828
O O12 0.408955 0.258319 0.940915
O O13 0.164428 0.435827 0.416586
O O14 0.148530 0.360163 0.639069
O O15 0.200388 0.500000 0.230808
O O16 0.594356 0.800908 0.764564
O O17 0.000000 0.244402 0.500000
#
# Coordination Sequence:
#
# PCOD9192796 Si02
#       8
#     8   4   8   8   8   8   8   8
#     4  10  20  35  51  72  96 125 169 211 252 300
#     4  12  22  30  49  70 102 132 169 206 246 290
#     4  10  22  34  44  61  88 125 169 215 251 281
#     4  10  20  34  51  73  98 127 164 208 253 297
#     4  12  20  30  48  66  91 126 168 205 246 283
#     4  11  22  36  50  67  94 131 171 213 253 287
#     4  11  19  31  51  71  95 128 165 202 250 289
#     4  11  20  32  46  73 102 131 161 199 242 305
#
# _framework density 16.190826000000001
#
# number of rings (size 3 to 8) (size 9 to 14) (size 15 to 20)
#    0.000    1.200    5.333    2.400    1.867    0.000 
#    0.000    2.667    0.000    0.000    0.000    0.000 
#    0.000    0.533    0.000    4.467    0.000    2.000 
#
# Total GULP energy -167153.745230 kJ/mol
# GULP energy per Si atom -5571.791508 kJ/mol
# Density = 1.615397 g / cm^3
# Si number density = 16.190826 Si / 1000 Ang^3
#
#
#
# Elastic Constant Matrix: (Units=GPa)
#
#
# Indices 1 2 3 4 5 6 
#
# 1 46.3944 28.9085 27.5979 0.0000 -6.1077 0.0000
# 2 28.9085 68.6043 29.9278 0.0000 8.8822 0.0000
# 3 27.5979 29.9278 89.2348 0.0000 -0.0698 0.0000
# 4 0.0000 0.0000 0.0000 36.8496 0.0000 13.2903
# 5 -6.1077 8.8822 -0.0698 0.0000 30.9639 0.0000
# 6 0.0000 0.0000 0.0000 13.2903 0.0000 7.6001
#
#
#
# Elastic Compliance Matrix: (Units=1/GPa)
#
#
# Indices 1 2 3 4 5 6 
#
# 1 0.035108 -0.013417 -0.006350 0.000000 0.010760 0.000000
# 2 -0.013417 0.022983 -0.003566 0.000000 -0.009247 0.000000
# 3 -0.006350 -0.003566 0.014366 0.000000 -0.000197 0.000000
# 4 0.000000 0.000000 0.000000 0.073481 0.000000 -0.128496
# 5 0.010760 -0.009247 -0.000197 0.000000 0.037070 0.000000
# 6 0.000000 0.000000 0.000000 -0.128496 0.000000 0.356278
#
#
# Mechanical properties :
#
#
# Convention : Reuss Voigt Hill
#
# Bulk Modulus (GPa) = 38.77185 41.90022 40.33604
# Shear Modulus (GPa) = 8.40975 22.93602 15.67289
#
# Velocity S-wave (km/s) = 2.28154 3.76787 3.11466
# Velocity P-wave (km/s) = 5.56232 6.69808 6.15644
#
# Compressibility (1/GPa) = 0.02579191
#
# Stress axis : x y z
#
# Youngs Moduli (GPa) = 28.48340 43.51087 69.60909
#
# Poissons Ratio (x) = 0.58378 0.44200
# Poissons Ratio (y) = 0.38216 0.24821
# Poissons Ratio (z) = 0.18086 0.15515
#
# Static dielectric constant tensor:
#      x y z
#    x 1.605810 0.000000 -0.087380 
#    y 0.000000 1.581170 0.000000 
#    z -0.087380 0.000000 1.732150 
# 
# From -- ./inp_files/32498.got.cif
#   From: 2010.05.17/outbox.cif.g08.bks.cpg/sg12_17_cif.got.tgz:32498.got - 2010.06.03 13:09:07.
