data_PCOD9192266
_publ_section_title
;
Structure prediction by ZEFSAII (Michael W. Deem and Ramdas Pophale) SiO2 
 PCOD9192266
Probable space group: C 2/M
;
_chemical_formula_sum "Si O2"
_cell_formula_units_Z 58
_cell_length_a 29.640195
_cell_length_b 7.406339
_cell_length_c 12.660858
_cell_angle_alpha 90.000000
_cell_angle_beta 68.593004
_cell_angle_gamma 90.000000
_cell_volume 2587.633189
_symmetry_space_group_name_H-M "C 2/M"
_symmetry_group_IT_number 12
_symmetry_cell_setting 'monoclinic'
loop_
_space_group_symop_operation_xyz
x,y,z
-x,y,-z
-x,-y,-z
x,-y,z
1/2+x,1/2+y,z
1/2-x,1/2+y,-z
1/2-x,1/2-y,-z
1/2+x,1/2-y,z
loop_
_atom_site_type_symbol
_atom_site_label
_atom_site_fract_x
_atom_site_fract_y
_atom_site_fract_z
Si Si1 0.522844 0.215157 0.828814
Si Si2 0.108651 0.720838 0.891637
Si Si3 0.000000 0.000000 0.500000
Si Si4 0.044515 0.713875 0.582297
Si Si5 0.312354 0.217146 0.345041
Si Si6 0.383914 0.209064 0.659976
Si Si7 0.585498 0.221102 0.136721
Si Si8 0.296747 0.287335 0.596376
O O1 0.555434 0.281616 0.897081
O O2 0.555466 0.239642 0.695557
O O3 0.469402 0.279639 0.844202
O O4 0.516860 0.000000 0.850786
O O5 0.108277 0.500000 0.888506
O O6 0.148808 0.782212 0.773488
O O7 0.116141 0.772595 0.006770
O O8 0.000094 0.160585 0.409615
O O9 0.034823 0.500000 0.578105
O O10 0.084469 0.785232 0.465023
O O11 0.321400 0.256022 0.460865
O O12 0.257991 0.285011 0.366011
O O13 0.311811 0.000000 0.337986
O O14 0.394039 0.283750 0.767725
O O15 0.329306 0.216516 0.663929
O O16 0.398538 0.000000 0.651557
O O17 0.584981 0.000000 0.141343
O O18 0.293450 0.500000 0.614816
#
# Coordination Sequence:
#
# PCOD9192266 Si02
#       8
#     8   8   2   8   8   8   8   8
#     4   9  16  29  50  77 108 140 181 231 272 318
#     4   9  16  29  52  78 104 137 179 226 276 327
#     4  12  22  32  52  78 110 152 186 228 280 336
#     4  10  21  35  52  79 112 148 190 233 282 336
#     4   9  18  34  55  81 108 134 171 225 283 329
#     4  10  20  35  53  76 113 147 177 224 272 327
#     4   9  17  28  47  77 107 140 182 222 263 323
#     4  10  20  33  54  81 107 136 176 224 275 335
#
# _framework density 22.414304999999999
#
# number of rings (size 3 to 8) (size 9 to 14) (size 15 to 20)
#    0.000    2.483    0.000    2.690    0.966    6.621 
#    0.000    0.690    0.000    0.828    0.000    1.931 
#    0.000    0.000    0.000    0.000    0.000    0.000 
#
# Total GULP energy -161584.040256 kJ/mol
# GULP energy per Si atom -5571.863457 kJ/mol
# Density = 2.236329 g / cm^3
# Si number density = 22.414305 Si / 1000 Ang^3
#
#
#
# Elastic Constant Matrix: (Units=GPa)
#
#
# Indices 1 2 3 4 5 6 
#
# 1 102.7912 -11.7938 80.8150 0.0000 18.5704 0.0000
# 2 -11.7938 80.1988 9.0375 0.0000 5.1482 0.0000
# 3 80.8150 9.0375 173.1703 0.0000 26.0090 0.0000
# 4 0.0000 0.0000 0.0000 0.5634 0.0000 9.8218
# 5 18.5704 5.1482 26.0090 0.0000 35.5410 0.0000
# 6 0.0000 0.0000 0.0000 9.8218 0.0000 16.0332
#
#
#
# Elastic Compliance Matrix: (Units=1/GPa)
#
#
# Indices 1 2 3 4 5 6 
#
# 1 0.016607 0.003516 -0.007363 0.000000 -0.003798 0.000000
# 2 0.003516 0.013359 -0.001990 0.000000 -0.002316 0.000000
# 3 -0.007363 -0.001990 0.009767 0.000000 -0.003012 0.000000
# 4 0.000000 0.000000 0.000000 -0.183374 0.000000 0.112334
# 5 -0.003798 -0.002316 -0.003012 0.000000 0.032661 0.000000
# 6 0.000000 0.000000 0.000000 0.112334 0.000000 -0.006444
#
#
# Mechanical properties :
#
#
# Convention : Reuss Voigt Hill
#
# Bulk Modulus (GPa) = 35.64045 56.91973 46.28009
# Shear Modulus (GPa) = -51.86895 28.96762 -11.45066
#
# Velocity S-wave (km/s) = -4.81573 3.59886 -2.26268
# Velocity P-wave (km/s) = 3.87122 6.53594 3.72372
#
# Compressibility (1/GPa) = 0.02805801
#
# Stress axis : x y z
#
# Youngs Moduli (GPa) = 60.21567 74.85625 102.38407
#
# Poissons Ratio (x) = -0.26317 0.75387
# Poissons Ratio (y) = -0.21170 0.20375
# Poissons Ratio (z) = 0.44338 0.14897
#
# Static dielectric constant tensor:
#      x y z
#    x 1.912660 0.000000 -0.021660 
#    y 0.000000 1.863520 0.000000 
#    z -0.021660 0.000000 1.865150 
# 
# From -- ./inp_files/186535.got.cif
#   From: 2010.05.17/outbox.cif.g08.bks.cpg/sg12_94_cif.got.tgz:186535.got - 2010.06.03 13:09:07.
