data_PCOD9192149
_publ_section_title
;
Structure prediction by ZEFSAII (Michael W. Deem and Ramdas Pophale) SiO2 
 PCOD9192149
Probable space group: C 2/M
;
_chemical_formula_sum "Si O2"
_cell_formula_units_Z 48
_cell_length_a 26.150966
_cell_length_b 13.395188
_cell_length_c 20.592460
_cell_angle_alpha 90.000000
_cell_angle_beta 21.630878
_cell_angle_gamma 90.000000
_cell_volume 2659.072910
_symmetry_space_group_name_H-M "C 2/M"
_symmetry_group_IT_number 12
_symmetry_cell_setting 'monoclinic'
loop_
_space_group_symop_operation_xyz
x,y,z
-x,y,-z
-x,-y,-z
x,-y,z
1/2+x,1/2+y,z
1/2-x,1/2+y,-z
1/2-x,1/2-y,-z
1/2+x,1/2-y,z
loop_
_atom_site_type_symbol
_atom_site_label
_atom_site_fract_x
_atom_site_fract_y
_atom_site_fract_z
Si Si1 0.078136 0.716323 0.475369
Si Si2 0.341013 0.235874 0.328012
Si Si3 0.342009 0.381980 0.208508
Si Si4 0.144955 0.617309 0.172594
Si Si5 0.611678 0.382963 0.539679
Si Si6 0.586434 0.736862 0.126600
O O1 0.231839 0.670212 0.290904
O O2 0.084739 0.821207 0.505771
O O3 0.000000 0.724413 0.500000
O O4 0.990287 0.642539 0.625615
O O5 0.250000 0.250000 0.500000
O O6 0.322935 0.328782 0.300673
O O7 0.268696 0.143378 0.376965
O O8 0.497451 0.231483 0.169275
O O9 0.316648 0.500000 0.242087
O O10 0.500000 0.365803 0.000000
O O11 0.169353 0.500000 0.139738
O O12 0.124206 0.668059 0.126580
O O13 0.274634 0.675330 0.051333
O O14 0.589151 0.500000 0.560626
O O15 0.508862 0.334554 0.714958
#
# Coordination Sequence:
#
# PCOD9192149 Si02
#       6
#     8   8   8   8   8   8
#     4  10  22  37  53  80 113 147 184 233 274 329
#     4   9  19  34  54  81 110 142 184 234 279 325
#     4  10  22  38  57  83 115 151 190 233 285 344
#     4  10  20  33  53  80 114 147 180 226 280 333
#     4   9  18  35  57  79 106 143 186 229 279 330
#     4   9  19  34  52  82 113 141 181 231 277 329
#
# _framework density 18.051404000000002
#
# number of rings (size 3 to 8) (size 9 to 14) (size 15 to 20)
#    0.000    2.500    0.000    2.000    2.333    5.667 
#    0.000    0.000    0.000    8.000    0.000    0.000 
#    0.000    0.000    0.000    0.000    0.000    0.000 
#
# Total GULP energy -133839.511258 kJ/mol
# GULP energy per Si atom -5576.646302 kJ/mol
# Density = 1.801032 g / cm^3
# Si number density = 18.051404 Si / 1000 Ang^3
#
#
#
# Elastic Constant Matrix: (Units=GPa)
#
#
# Indices 1 2 3 4 5 6 
#
# 1 98.7836 8.7560 21.4946 0.0001 -15.3641 0.0000
# 2 8.7560 56.6835 27.5516 0.0002 12.5388 -0.0001
# 3 21.4946 27.5516 63.8891 0.0000 -18.7802 0.0000
# 4 0.0001 0.0002 0.0000 20.6726 0.0000 -2.7286
# 5 -15.3641 12.5388 -18.7802 0.0000 29.5872 0.0000
# 6 0.0000 -0.0001 0.0000 -2.7286 0.0000 5.2215
#
#
#
# Elastic Compliance Matrix: (Units=1/GPa)
#
#
# Indices 1 2 3 4 5 6 
#
# 1 0.011599 -0.003100 -0.000503 0.000000 0.007017 0.000000
# 2 -0.003100 0.037722 -0.025075 0.000000 -0.033512 0.000001
# 3 -0.000503 -0.025075 0.036490 0.000000 0.033527 -0.000001
# 4 0.000000 0.000000 0.000000 0.051957 0.000000 0.027151
# 5 0.007017 -0.033512 0.033527 0.000000 0.072926 -0.000001
# 6 0.000000 0.000001 -0.000001 0.027151 -0.000001 0.205706
#
#
# Mechanical properties :
#
#
# Convention : Reuss Voigt Hill
#
# Bulk Modulus (GPa) = 35.14270 37.21786 36.18028
# Shear Modulus (GPa) = 10.34684 21.86652 16.10668
#
# Velocity S-wave (km/s) = 2.39673 3.48422 2.99033
# Velocity P-wave (km/s) = 5.21244 6.07032 5.65766
#
# Compressibility (1/GPa) = 0.02845541
#
# Stress axis : x y z
#
# Youngs Moduli (GPa) = 86.21641 26.50988 27.40469
#
# Poissons Ratio (x) = 0.08217 0.01378
# Poissons Ratio (y) = 0.26724 0.68718
# Poissons Ratio (z) = 0.04335 0.66474
#
# Static dielectric constant tensor:
#      x y z
#    x 1.622360 0.000000 -0.030310 
#    y 0.000000 1.576200 0.000000 
#    z -0.030310 0.000000 1.652760 
# 
# From -- ./inp_files/327958.got.cif
#   From: 2010.05.17/outbox.cif.g08.bks.cpg/sg12_164_cif.got.tgz:327958.got - 2010.06.03 13:09:07.
