data_PCOD9192131
_publ_section_title
;
Structure prediction by ZEFSAII (Michael W. Deem and Ramdas Pophale) SiO2 
 PCOD9192131
Probable space group: C 2/M
;
_chemical_formula_sum "Si O2"
_cell_formula_units_Z 40
_cell_length_a 19.896891
_cell_length_b 14.054859
_cell_length_c 23.959820
_cell_angle_alpha 90.000000
_cell_angle_beta 160.208804
_cell_angle_gamma 90.000000
_cell_volume 2268.682278
_symmetry_space_group_name_H-M "C 2/M"
_symmetry_group_IT_number 12
_symmetry_cell_setting 'monoclinic'
loop_
_space_group_symop_operation_xyz
x,y,z
-x,y,-z
-x,-y,-z
x,-y,z
1/2+x,1/2+y,z
1/2-x,1/2+y,-z
1/2-x,1/2-y,-z
1/2+x,1/2-y,z
loop_
_atom_site_type_symbol
_atom_site_label
_atom_site_fract_x
_atom_site_fract_y
_atom_site_fract_z
Si Si1 0.867717 0.111921 0.841623
Si Si2 0.005958 0.742269 0.569479
Si Si3 0.277539 0.889664 0.845610
Si Si4 0.714826 0.890454 0.014959
Si Si5 0.554439 0.287277 0.213959
O O1 0.646399 0.149631 0.680532
O O2 0.944073 0.170946 0.847894
O O3 0.869259 0.000000 0.829779
O O4 0.000000 0.127625 0.000000
O O5 0.116534 0.821685 0.691892
O O6 0.000000 0.774192 0.500000
O O7 0.781545 0.719469 0.410958
O O8 0.247515 0.000000 0.805499
O O9 0.500000 0.862457 0.000000
O O10 0.267219 0.883779 0.904241
O O11 0.543911 0.817081 0.863205
O O12 0.673214 0.000000 0.967671
O O13 0.916375 0.854281 0.143605
#
# Coordination Sequence:
#
# PCOD9192131 Si02
#       5
#     8   8   8   8   8
#     4  10  20  35  56  80 107 140 175 211 256 311
#     4  10  20  33  53  80 106 133 172 219 263 307
#     4  10  20  35  55  77 105 141 178 215 258 311
#     4  10  21  37  55  75 104 142 177 213 262 313
#     4  10  21  35  55  80 107 137 173 219 261 308
#
# _framework density 17.63138
#
# number of rings (size 3 to 8) (size 9 to 14) (size 15 to 20)
#    0.000    2.000    0.000    4.800    0.000    6.400 
#    0.000    0.000    0.000    4.800    0.000    0.000 
#    0.000    0.000    0.000    0.000    0.000    0.000 
#
# Total GULP energy -111654.571489 kJ/mol
# GULP energy per Si atom -5582.728574 kJ/mol
# Density = 1.759125 g / cm^3
# Si number density = 17.631380 Si / 1000 Ang^3
#
#
#
# Elastic Constant Matrix: (Units=GPa)
#
#
# Indices 1 2 3 4 5 6 
#
# 1 86.0147 48.0382 59.4851 0.0002 24.9729 -0.0008
# 2 48.0382 128.0283 50.6522 0.0153 13.4253 0.0023
# 3 59.4851 50.6522 109.7459 0.0138 25.5673 0.0084
# 4 0.0002 0.0153 0.0138 -4.3232 0.0004 -0.6587
# 5 24.9729 13.4253 25.5673 0.0004 29.4568 -0.0011
# 6 -0.0008 0.0023 0.0084 -0.6587 -0.0011 19.8077
#
#
#
# Elastic Compliance Matrix: (Units=1/GPa)
#
#
# Indices 1 2 3 4 5 6 
#
# 1 0.022342 -0.004235 -0.007762 -0.000041 -0.010274 0.000003
# 2 -0.004235 0.010369 -0.002790 0.000028 0.001286 0.000001
# 3 -0.007762 -0.002790 0.016016 0.000041 -0.006049 -0.000006
# 4 -0.000041 0.000028 0.000041 -0.230142 -0.000011 -0.007653
# 5 -0.010274 0.001286 -0.006049 -0.000011 0.047323 0.000004
# 6 0.000003 0.000001 -0.000006 -0.007653 0.000004 0.050231
#
#
# Mechanical properties :
#
#
# Convention : Reuss Voigt Hill
#
# Bulk Modulus (GPa) = 52.20942 71.12666 61.66804
# Shear Modulus (GPa) = -104.37380 20.02914 -42.17233
#
# Velocity S-wave (km/s) = -7.70235 3.37411 -4.89600
# Velocity P-wave (km/s) = 7.03035 7.45708 1.75816
#
# Compressibility (1/GPa) = 0.01915363
#
# Stress axis : x y z
#
# Youngs Moduli (GPa) = 44.75954 96.44507 62.43782
#
# Poissons Ratio (x) = 0.40842 0.48462
# Poissons Ratio (y) = 0.18955 0.17419
# Poissons Ratio (z) = 0.34741 0.26906
#
# Static dielectric constant tensor:
#      x y z
#    x 1.590660 0.000000 0.006150 
#    y 0.000000 1.604650 0.000000 
#    z 0.006150 0.000000 1.575890 
# 
# From -- ./inp_files/84562.got.cif
#   From: 2010.05.17/outbox.cif.g08.bks.cpg/sg12_43_cif.got.tgz:84562.got - 2010.06.03 13:09:07.
