data_PCOD9192364
_publ_section_title
;
Structure prediction by ZEFSAII (Michael W. Deem and Ramdas Pophale) SiO2 
 PCOD9192364
Probable space group: C 2/M
;
_chemical_formula_sum "Si O2"
_cell_formula_units_Z 56
_cell_length_a 16.443902
_cell_length_b 9.416614
_cell_length_c 29.792465
_cell_angle_alpha 90.000000
_cell_angle_beta 39.397066
_cell_angle_gamma 90.000000
_cell_volume 2927.981893
_symmetry_space_group_name_H-M "C 2/M"
_symmetry_group_IT_number 12
_symmetry_cell_setting 'monoclinic'
loop_
_space_group_symop_operation_xyz
x,y,z
-x,y,-z
-x,-y,-z
x,-y,z
1/2+x,1/2+y,z
1/2-x,1/2+y,-z
1/2-x,1/2-y,-z
1/2+x,1/2-y,z
loop_
_atom_site_type_symbol
_atom_site_label
_atom_site_fract_x
_atom_site_fract_y
_atom_site_fract_z
Si Si1 0.910576 0.658847 0.454827
Si Si2 0.032193 0.172397 0.921162
Si Si3 0.146650 0.162820 0.607189
Si Si4 0.976199 0.833041 0.839516
Si Si5 0.186143 0.328217 0.927197
Si Si6 0.895362 0.659131 0.292772
Si Si7 0.408810 0.651275 0.582267
O O1 0.901630 0.500000 0.440667
O O2 0.882967 0.771630 0.428260
O O3 0.802770 0.670483 0.539622
O O4 0.048880 0.703366 0.412811
O O5 0.009619 0.195441 0.877538
O O6 0.154219 0.250125 0.893101
O O7 0.034999 0.000000 0.927533
O O8 0.913070 0.249156 0.997048
O O9 0.074981 0.250645 0.675714
O O10 0.111271 0.000000 0.626084
O O11 0.828205 0.808718 0.887313
O O12 0.060222 0.737414 0.770767
O O13 0.002211 0.000000 0.820691
O O14 0.163576 0.500000 0.933716
O O15 0.948052 0.500000 0.272251
O O16 0.741538 0.650771 0.360414
O O17 0.500000 0.645046 0.500000
O O18 0.438079 0.500000 0.594263
#
# Coordination Sequence:
#
# PCOD9192364 Si02
#       7
#     8   8   8   8   8   8   8
#     4  10  20  33  55  82 104 135 183 235 287 344
#     4  10  20  37  63  94 124 156 198 242 286 340
#     4  10  20  35  55  78 108 141 179 232 289 344
#     4  10  23  41  59  84 123 165 198 239 296 353
#     4  10  20  37  63  93 123 157 196 240 292 343
#     4  11  23  38  58  82 110 149 193 235 289 351
#     4  10  20  36  56  78 108 142 184 240 293 345
#
# _framework density 19.125800999999999
#
# number of rings (size 3 to 8) (size 9 to 14) (size 15 to 20)
#    0.000    1.857    1.429    3.429    0.000    4.857 
#    2.571    0.000    0.000    0.000    0.000    0.000 
#    0.000    0.000    0.000    0.000    0.000    0.000 
#
# Total GULP energy -155895.549846 kJ/mol
# GULP energy per Si atom -5567.698209 kJ/mol
# Density = 1.908227 g / cm^3
# Si number density = 19.125801 Si / 1000 Ang^3
#
#
#
# Elastic Constant Matrix: (Units=GPa)
#
#
# Indices 1 2 3 4 5 6 
#
# 1 72.8408 48.4501 30.2369 0.0000 15.9780 0.0002
# 2 48.4501 138.1243 59.9661 0.0000 20.6736 0.0002
# 3 30.2369 59.9661 79.0136 0.0000 23.6640 0.0000
# 4 0.0000 0.0000 0.0000 15.6363 0.0000 12.0273
# 5 15.9780 20.6736 23.6640 0.0000 24.0077 0.0000
# 6 0.0002 0.0002 0.0000 12.0273 0.0000 25.2448
#
#
#
# Elastic Compliance Matrix: (Units=1/GPa)
#
#
# Indices 1 2 3 4 5 6 
#
# 1 0.019237 -0.005090 -0.001386 0.000000 -0.007053 0.000000
# 2 -0.005090 0.012195 -0.007345 0.000000 0.000126 0.000000
# 3 -0.001386 -0.007345 0.023539 0.000000 -0.015955 0.000000
# 4 0.000000 0.000000 0.000000 0.100948 0.000000 -0.048094
# 5 -0.007053 0.000126 -0.015955 0.000000 0.061965 0.000000
# 6 0.000000 0.000000 0.000000 -0.048094 0.000000 0.062526
#
#
# Mechanical properties :
#
#
# Convention : Reuss Voigt Hill
#
# Bulk Modulus (GPa) = 36.59180 63.03166 49.81173
# Shear Modulus (GPa) = 15.76476 23.06612 19.41544
#
# Velocity S-wave (km/s) = 2.87412 3.47655 3.18959
# Velocity P-wave (km/s) = 5.49434 7.01021 6.29805
#
# Compressibility (1/GPa) = 0.02732853
#
# Stress axis : x y z
#
# Youngs Moduli (GPa) = 51.98335 81.99752 42.48200
#
# Poissons Ratio (x) = 0.41740 0.05887
# Poissons Ratio (y) = 0.26462 0.31205
# Poissons Ratio (z) = 0.07204 0.60230
#
# Static dielectric constant tensor:
#      x y z
#    x 1.746570 0.000000 -0.016400 
#    y 0.000000 1.696090 0.000000 
#    z -0.016400 0.000000 1.645660 
# 
# From -- ./inp_files/362923.got.cif
#   From: 2010.05.17/outbox.cif.g08.bks.cpg/sg12_182_cif.got.tgz:362923.got - 2010.06.03 13:09:07.
