data_PCOD9192529
_publ_section_title
;
Structure prediction by ZEFSAII (Michael W. Deem and Ramdas Pophale) SiO2 
 PCOD9192529
Probable space group: C 2/M
;
_chemical_formula_sum "Si O2"
_cell_formula_units_Z 64
_cell_length_a 8.030116
_cell_length_b 30.672827
_cell_length_c 15.941995
_cell_angle_alpha 90.000000
_cell_angle_beta 133.052565
_cell_angle_gamma 90.000000
_cell_volume 2869.286185
_symmetry_space_group_name_H-M "C 2/M"
_symmetry_group_IT_number 12
_symmetry_cell_setting 'monoclinic'
loop_
_space_group_symop_operation_xyz
x,y,z
-x,y,-z
-x,-y,-z
x,-y,z
1/2+x,1/2+y,z
1/2-x,1/2+y,-z
1/2-x,1/2-y,-z
1/2+x,1/2-y,z
loop_
_atom_site_type_symbol
_atom_site_label
_atom_site_fract_x
_atom_site_fract_y
_atom_site_fract_z
Si Si1 0.706805 0.389159 0.621838
Si Si2 0.981067 0.182848 0.855117
Si Si3 0.154527 0.050036 0.259917
Si Si4 0.103500 0.258234 0.786289
Si Si5 0.930180 0.549795 0.178765
Si Si6 0.884202 0.204027 0.370363
Si Si7 0.593324 0.133584 0.618472
Si Si8 0.256592 0.902352 0.958658
O O1 0.500000 0.410756 0.500000
O O2 0.597057 0.348148 0.633017
O O3 0.846006 0.421754 0.727107
O O4 0.891012 0.370942 0.617240
O O5 0.822666 0.211291 0.860951
O O6 0.793499 0.162475 0.726710
O O7 0.132564 0.218036 0.858769
O O8 0.127551 0.142449 0.936238
O O9 0.277389 0.051009 0.210550
O O10 0.298830 0.085611 0.361145
O O11 0.903971 0.069504 0.158339
O O12 0.154786 0.000000 0.289772
O O13 0.031446 0.235923 0.673051
O O14 0.885208 0.287232 0.730817
O O15 0.988005 0.500000 0.180451
O O16 0.794455 0.570385 0.055636
O O17 0.000000 0.213799 0.500000
O O18 0.500000 0.152464 0.500000
O O19 0.500000 0.893654 0.000000
#
# Coordination Sequence:
#
# PCOD9192529 Si02
#       8
#     8   8   8   8   8   8   8   8
#     4  10  22  37  59  92 129 165 201 243 301 362
#     4  10  23  41  60  87 123 159 204 256 305 362
#     4   9  20  41  63  90 121 159 208 249 298 368
#     4  10  21  38  60  83 121 158 204 255 303 361
#     4  10  22  42  68  91 120 163 207 247 296 367
#     4  10  20  33  57  89 120 160 205 247 299 356
#     4  10  21  36  58  89 127 165 201 250 305 359
#     4  11  24  40  64  92 121 153 199 259 316 355
#
# _framework density 22.305198000000001
#
# number of rings (size 3 to 8) (size 9 to 14) (size 15 to 20)
#    0.000    2.000    1.250    1.125    5.250    5.500 
#    0.000    0.625    0.000    0.000    0.000    0.000 
#    0.000    0.000    0.000    0.000    0.000    0.000 
#
# Total GULP energy -178911.480178 kJ/mol
# GULP energy per Si atom -5590.983756 kJ/mol
# Density = 2.225443 g / cm^3
# Si number density = 22.305198 Si / 1000 Ang^3
#
#
#
# Elastic Constant Matrix: (Units=GPa)
#
#
# Indices 1 2 3 4 5 6 
#
# 1 17.6718 6.9133 -4.3421 0.0000 8.7517 0.0000
# 2 6.9133 90.2121 7.2197 0.0000 10.6591 0.0000
# 3 -4.3421 7.2197 53.5379 0.0000 8.7752 0.0000
# 4 0.0000 0.0000 0.0000 24.4310 0.0000 -12.1338
# 5 8.7517 10.6591 8.7752 0.0000 21.6821 0.0000
# 6 0.0000 0.0000 0.0000 -12.1338 0.0000 19.0185
#
#
#
# Elastic Compliance Matrix: (Units=1/GPa)
#
#
# Indices 1 2 3 4 5 6 
#
# 1 0.078218 -0.002831 0.012502 0.000000 -0.035240 0.000000
# 2 -0.002831 0.011894 -0.001138 0.000000 -0.004244 0.000000
# 3 0.012502 -0.001138 0.022043 0.000000 -0.013408 0.000000
# 4 0.000000 0.000000 0.000000 0.059917 0.000000 0.038227
# 5 -0.035240 -0.004244 -0.013408 0.000000 0.067858 0.000000
# 6 0.000000 0.000000 0.000000 0.038227 0.000000 0.076969
#
#
# Mechanical properties :
#
#
# Convention : Reuss Voigt Hill
#
# Bulk Modulus (GPa) = 7.73865 20.11151 13.92508
# Shear Modulus (GPa) = 14.58113 23.13507 18.85810
#
# Velocity S-wave (km/s) = 2.55955 3.22406 2.91083
# Velocity P-wave (km/s) = 3.49457 4.78493 4.18972
#
# Compressibility (1/GPa) = 0.12922150
#
# Stress axis : x y z
#
# Youngs Moduli (GPa) = 12.78473 84.07269 45.36510
#
# Poissons Ratio (x) = 0.23800 -0.56713
# Poissons Ratio (y) = 0.03619 0.05162
# Poissons Ratio (z) = -0.15983 0.09567
#
# Static dielectric constant tensor:
#      x y z
#    x 1.893090 0.000000 -0.035770 
#    y 0.000000 1.824790 0.000000 
#    z -0.035770 0.000000 1.785050 
# 
# From -- ./inp_files/260373.got.cif
#   From: 2010.05.17/outbox.cif.g08.bks.cpg/sg12_131_cif.got.tgz:260373.got - 2010.06.03 13:09:07.
