data_PCOD9192253
_publ_section_title
;
Structure prediction by ZEFSAII (Michael W. Deem and Ramdas Pophale) SiO2 
 PCOD9192253
Probable space group: C 2/M
;
_chemical_formula_sum "Si O2"
_cell_formula_units_Z 56
_cell_length_a 27.256152
_cell_length_b 9.649833
_cell_length_c 10.517842
_cell_angle_alpha 90.000000
_cell_angle_beta 113.422364
_cell_angle_gamma 90.000000
_cell_volume 2538.424023
_symmetry_space_group_name_H-M "C 2/M"
_symmetry_group_IT_number 12
_symmetry_cell_setting 'monoclinic'
loop_
_space_group_symop_operation_xyz
x,y,z
-x,y,-z
-x,-y,-z
x,-y,z
1/2+x,1/2+y,z
1/2-x,1/2+y,-z
1/2-x,1/2-y,-z
1/2+x,1/2-y,z
loop_
_atom_site_type_symbol
_atom_site_label
_atom_site_fract_x
_atom_site_fract_y
_atom_site_fract_z
Si Si1 0.303177 0.839119 0.585332
Si Si2 0.032690 0.842955 0.259298
Si Si3 0.618808 0.333203 0.148174
Si Si4 0.042039 0.654532 0.660025
Si Si5 0.827797 0.661044 0.995388
Si Si6 0.209447 0.149582 0.820052
Si Si7 0.874448 0.235509 0.448992
O O1 0.250000 0.750000 0.500000
O O2 0.338522 0.746296 0.718193
O O3 0.342242 0.843939 0.501884
O O4 0.292961 0.000000 0.612712
O O5 0.061498 0.808564 0.156062
O O6 0.081049 0.833202 0.413743
O O7 0.985671 0.746442 0.261245
O O8 0.013150 0.000000 0.234266
O O9 0.627321 0.500000 0.153080
O O10 0.628105 0.258463 0.023552
O O11 0.050791 0.500000 0.716633
O O12 0.093825 0.710543 0.641442
O O13 0.000000 0.649222 0.500000
O O14 0.842895 0.500000 0.017691
O O15 0.772054 0.668531 0.858654
O O16 0.809682 0.726550 0.109877
O O17 0.173226 0.146041 0.658568
O O18 0.204168 0.000000 0.882414
#
# Coordination Sequence:
#
# PCOD9192253 Si02
#       7
#     8   8   8   8   8   8   8
#     4  11  22  34  50  75 108 142 176 215 261 313
#     4   9  19  33  52  80 108 136 171 212 260 313
#     4  10  20  35  54  75 103 138 176 216 261 314
#     4   9  18  32  50  74 105 138 171 209 257 313
#     4  10  21  36  55  78 105 140 181 221 262 311
#     4  10  21  36  54  77 106 140 179 221 263 309
#     4  10  20  33  54  79 107 140 176 216 261 312
#
# _framework density 22.060932000000001
#
# number of rings (size 3 to 8) (size 9 to 14) (size 15 to 20)
#    0.000    2.143    0.000    3.000    0.000   11.714 
#    0.000    0.000    0.000    0.857    0.000    5.000 
#    0.000    0.000    0.000    0.000    0.000    0.000 
#
# Total GULP energy -156222.049592 kJ/mol
# GULP energy per Si atom -5579.358914 kJ/mol
# Density = 2.201072 g / cm^3
# Si number density = 22.060932 Si / 1000 Ang^3
#
#
#
# Elastic Constant Matrix: (Units=GPa)
#
#
# Indices 1 2 3 4 5 6 
#
# 1 118.5641 63.2716 31.4471 0.0000 -24.1053 0.0000
# 2 63.2716 144.2566 14.9836 0.0000 -31.5471 0.0000
# 3 31.4471 14.9836 26.5139 0.0000 6.0188 0.0000
# 4 0.0000 0.0000 0.0000 12.4167 0.0000 -20.9547
# 5 -24.1053 -31.5471 6.0188 0.0000 43.2664 0.0000
# 6 0.0000 0.0000 0.0000 -20.9547 0.0000 17.0221
#
#
#
# Elastic Compliance Matrix: (Units=1/GPa)
#
#
# Indices 1 2 3 4 5 6 
#
# 1 0.018374 -0.003350 -0.022376 0.000000 0.010907 0.000000
# 2 -0.003350 0.009988 -0.002996 0.000000 0.005833 0.000000
# 3 -0.022376 -0.002996 0.071533 0.000000 -0.024602 0.000000
# 4 0.000000 0.000000 0.000000 -0.074744 0.000000 -0.092011
# 5 0.010907 0.005833 -0.024602 0.000000 0.036865 0.000000
# 6 0.000000 0.000000 0.000000 -0.092011 0.000000 -0.054522
#
#
# Mechanical properties :
#
#
# Convention : Reuss Voigt Hill
#
# Bulk Modulus (GPa) = 23.55570 56.52659 40.04115
# Shear Modulus (GPa) = 63.21912 26.51653 44.86782
#
# Velocity S-wave (km/s) = 5.35899 3.47070 4.51467
# Velocity P-wave (km/s) = 6.99946 6.46062 6.73543
#
# Compressibility (1/GPa) = 0.04245256
#
# Stress axis : x y z
#
# Youngs Moduli (GPa) = 54.42400 100.11968 13.97947
#
# Poissons Ratio (x) = 0.33535 0.31281
# Poissons Ratio (y) = 0.18230 0.04188
# Poissons Ratio (z) = 1.21780 0.29995
#
# Static dielectric constant tensor:
#      x y z
#    x 1.819900 0.000000 -0.000080 
#    y 0.000000 1.788080 0.000000 
#    z -0.000080 0.000000 1.851620 
# 
# From -- ./inp_files/181145.got.cif
#   From: 2010.05.17/outbox.cif.g08.bks.cpg/sg12_91_cif.got.tgz:181145.got - 2010.06.03 13:09:07.
