data_PCOD9192577
_publ_section_title
;
Structure prediction by ZEFSAII (Michael W. Deem and Ramdas Pophale) SiO2 
 PCOD9192577
Probable space group: C 2/M
;
_chemical_formula_sum "Si O2"
_cell_formula_units_Z 48
_cell_length_a 27.499793
_cell_length_b 18.169915
_cell_length_c 14.645087
_cell_angle_alpha 90.000000
_cell_angle_beta 16.309172
_cell_angle_gamma 90.000000
_cell_volume 2054.957558
_symmetry_space_group_name_H-M "C 2/M"
_symmetry_group_IT_number 12
_symmetry_cell_setting 'monoclinic'
loop_
_space_group_symop_operation_xyz
x,y,z
-x,y,-z
-x,-y,-z
x,-y,z
1/2+x,1/2+y,z
1/2-x,1/2+y,-z
1/2-x,1/2-y,-z
1/2+x,1/2-y,z
loop_
_atom_site_type_symbol
_atom_site_label
_atom_site_fract_x
_atom_site_fract_y
_atom_site_fract_z
Si Si1 0.113286 0.860152 0.718204
Si Si2 0.764132 0.418122 0.269469
Si Si3 0.598736 0.798049 0.476576
Si Si4 0.699977 0.350122 0.201396
Si Si5 0.070653 0.300799 0.735569
Si Si6 0.208633 0.583873 0.148385
O O1 0.137383 0.905198 0.582608
O O2 0.031174 0.780627 0.842619
O O3 0.295757 0.839215 0.436346
O O4 0.000000 0.897970 0.000000
O O5 0.839668 0.500000 0.137580
O O6 0.681077 0.405810 0.319813
O O7 0.908293 0.354900 0.020178
O O8 0.402107 0.825890 0.832089
O O9 0.643644 0.788231 0.501655
O O10 0.719379 0.858981 0.211826
O O11 0.607931 0.724763 0.399097
O O12 0.680098 0.386495 0.137913
O O13 0.254074 0.500000 0.088506
O O14 0.000000 0.583624 0.500000
#
# Coordination Sequence:
#
# PCOD9192577 Si02
#       6
#     8   8   8   8   8   8
#     4  11  22  37  61  84 118 154 195 245 303 351
#     4  11  23  39  60  88 119 156 200 244 294 352
#     4  10  20  33  59  86 114 151 197 239 285 348
#     4  10  20  36  59  87 117 153 193 241 286 346
#     4  10  21  37  58  87 115 156 199 245 287 352
#     4   9  18  34  56  86 120 152 190 238 290 340
#
# _framework density 23.358146999999999
#
# number of rings (size 3 to 8) (size 9 to 14) (size 15 to 20)
#    0.000    1.833    1.667    3.500    2.333    5.667 
#    0.000    0.000    0.000    5.000    0.000    0.000 
#    0.000    0.000    0.000    0.000    0.000    0.000 
#
# Total GULP energy -134279.458468 kJ/mol
# GULP energy per Si atom -5594.977436 kJ/mol
# Density = 2.330498 g / cm^3
# Si number density = 23.358147 Si / 1000 Ang^3
#
#
#
# Elastic Constant Matrix: (Units=GPa)
#
#
# Indices 1 2 3 4 5 6 
#
# 1 97.9320 36.7528 44.6826 -0.0038 35.9205 -0.0017
# 2 36.7528 121.3193 23.7665 -0.0069 28.0401 -0.0003
# 3 44.6826 23.7665 83.9619 -0.0100 41.4074 -0.0070
# 4 -0.0038 -0.0069 -0.0100 2.2594 0.0091 -4.1613
# 5 35.9205 28.0401 41.4074 0.0091 52.7022 0.0056
# 6 -0.0017 -0.0003 -0.0070 -4.1613 0.0056 5.4141
#
#
#
# Elastic Compliance Matrix: (Units=1/GPa)
#
#
# Indices 1 2 3 4 5 6 
#
# 1 0.015282 -0.002455 -0.004808 -0.000061 -0.005332 -0.000043
# 2 -0.002455 0.009798 0.000455 -0.000124 -0.003897 -0.000091
# 3 -0.004808 0.000455 0.020968 -0.000513 -0.013439 -0.000355
# 4 -0.000061 -0.000124 -0.000513 -1.064953 0.000780 -0.818535
# 5 -0.005332 -0.003897 -0.013439 0.000780 0.035240 0.000544
# 6 -0.000043 -0.000091 -0.000355 -0.818535 0.000544 -0.444431
#
#
# Mechanical properties :
#
#
# Convention : Reuss Voigt Hill
#
# Bulk Modulus (GPa) = 30.83495 57.06856 43.95175
# Shear Modulus (GPa) = -3.56210 25.27590 10.85690
#
# Velocity S-wave (km/s) = -1.23624 3.29310 2.15826
# Velocity P-wave (km/s) = 3.34542 6.24054 5.00681
#
# Compressibility (1/GPa) = 0.03243074
#
# Stress axis : x y z
#
# Youngs Moduli (GPa) = 65.43596 102.06057 47.69229
#
# Poissons Ratio (x) = 0.25060 0.22932
# Poissons Ratio (y) = 0.16067 -0.02171
# Poissons Ratio (z) = 0.31464 -0.04645
#
# Static dielectric constant tensor:
#      x y z
#    x 1.902090 0.000000 -0.027240 
#    y 0.000000 1.808810 0.000000 
#    z -0.027240 0.000000 1.924330 
# 
# From -- ./inp_files/251426.got.cif
#   From: 2010.05.17/outbox.cif.g08.bks.cpg/sg12_126_cif.got.tgz:251426.got - 2010.06.03 13:09:07.
