data_PCOD9192273
_publ_section_title
;
Structure prediction by ZEFSAII (Michael W. Deem and Ramdas Pophale) SiO2 
 PCOD9192273
Probable space group: C 2/M
;
_chemical_formula_sum "Si O2"
_cell_formula_units_Z 58
_cell_length_a 19.517871
_cell_length_b 9.216289
_cell_length_c 14.174507
_cell_angle_alpha 90.000000
_cell_angle_beta 102.921597
_cell_angle_gamma 90.000000
_cell_volume 2485.176262
_symmetry_space_group_name_H-M "C 2/M"
_symmetry_group_IT_number 12
_symmetry_cell_setting 'monoclinic'
loop_
_space_group_symop_operation_xyz
x,y,z
-x,y,-z
-x,-y,-z
x,-y,z
1/2+x,1/2+y,z
1/2-x,1/2+y,-z
1/2-x,1/2-y,-z
1/2+x,1/2-y,z
loop_
_atom_site_type_symbol
_atom_site_label
_atom_site_fract_x
_atom_site_fract_y
_atom_site_fract_z
Si Si1 0.485356 0.663899 0.225504
Si Si2 0.364765 0.834652 0.396012
Si Si3 0.926544 0.171612 0.579708
Si Si4 0.206778 0.171629 0.327997
Si Si5 0.208797 0.675682 0.128657
Si Si6 0.064932 0.210694 0.077572
Si Si7 0.000000 0.500000 0.000000
Si Si8 0.146837 0.669672 0.834568
O O1 0.457893 0.500000 0.230691
O O2 0.512152 0.728619 0.332392
O O3 0.553755 0.655187 0.179774
O O4 0.425933 0.758281 0.155509
O O5 0.414867 0.735120 0.473223
O O6 0.283371 0.808106 0.397951
O O7 0.361763 0.820040 0.281813
O O8 0.383575 0.000000 0.423662
O O9 0.854778 0.195346 0.616498
O O10 0.937946 0.000000 0.576392
O O11 0.203401 0.280933 0.238138
O O12 0.205613 0.000000 0.295657
O O13 0.204477 0.500000 0.112828
O O14 0.144904 0.775324 0.067529
O O15 0.283639 0.740780 0.118989
O O16 0.042698 0.376580 0.070557
O O17 0.000000 0.142098 0.000000
O O18 0.151266 0.500000 0.863736
#
# Coordination Sequence:
#
# PCOD9192273 Si02
#       8
#     8   8   8   8   8   8   2   8
#     4  11  24  41  61  91 121 156 201 248 297 353
#     4   9  19  35  51  79 113 157 205 244 290 346
#     4  10  20  33  54  81 117 156 196 250 296 342
#     4   9  18  33  52  78 119 156 195 244 295 347
#     4  11  19  35  62  92 118 153 199 240 291 354
#     4  10  21  40  67  92 125 150 188 238 298 354
#     4   8  20  40  62 100 124 150 182 240 300 352
#     4  10  24  41  61  82 122 165 201 247 296 349
#
# _framework density 23.338384999999999
#
# number of rings (size 3 to 8) (size 9 to 14) (size 15 to 20)
#    0.414    1.655    2.069    2.069    0.966    5.241 
#    0.000    3.448    0.000    0.000    0.000    0.000 
#    0.000    0.000    0.000    0.000    0.000    0.000 
#
# Total GULP energy -161543.977049 kJ/mol
# GULP energy per Si atom -5570.481967 kJ/mol
# Density = 2.328527 g / cm^3
# Si number density = 23.338385 Si / 1000 Ang^3
#
#
#
# Elastic Constant Matrix: (Units=GPa)
#
#
# Indices 1 2 3 4 5 6 
#
# 1 138.0931 35.3427 22.0611 0.0000 20.8920 0.0000
# 2 35.3427 80.5102 17.6706 0.0000 16.8695 0.0000
# 3 22.0611 17.6706 92.2150 0.0000 17.6653 0.0000
# 4 0.0000 0.0000 0.0000 -80.3185 0.0000 23.1194
# 5 20.8920 16.8695 17.6653 0.0000 36.8141 0.0000
# 6 0.0000 0.0000 0.0000 23.1194 0.0000 -19.7507
#
#
#
# Elastic Compliance Matrix: (Units=1/GPa)
#
#
# Indices 1 2 3 4 5 6 
#
# 1 0.008605 -0.002928 -0.000902 0.000000 -0.003109 0.000000
# 2 -0.002928 0.014946 -0.001288 0.000000 -0.004569 0.000000
# 3 -0.000902 -0.001288 0.012219 0.000000 -0.004761 0.000000
# 4 0.000000 0.000000 0.000000 -0.018777 0.000000 -0.021980
# 5 -0.003109 -0.004569 -0.004761 0.000000 0.033306 0.000000
# 6 0.000000 0.000000 0.000000 -0.021980 0.000000 -0.076360
#
#
# Mechanical properties :
#
#
# Convention : Reuss Voigt Hill
#
# Bulk Modulus (GPa) = 39.16414 51.21856 45.19135
# Shear Modulus (GPa) = -683.74552 3.06525 -340.34013
#
# Velocity S-wave (km/s) = -17.13495 1.14728 -12.08905
# Velocity P-wave (km/s) = 19.35608 4.87326 13.24592
#
# Compressibility (1/GPa) = 0.02553356
#
# Stress axis : x y z
#
# Youngs Moduli (GPa) = 116.20645 66.90605 81.84022
#
# Poissons Ratio (x) = 0.19592 0.07382
# Poissons Ratio (y) = 0.34028 0.10543
# Poissons Ratio (z) = 0.10482 0.08619
#
# Static dielectric constant tensor:
#      x y z
#    x 1.944500 0.000000 -0.001690 
#    y 0.000000 1.799210 0.000000 
#    z -0.001690 0.000000 1.940220 
# 
# From -- ./inp_files/281571.got.cif
#   From: 2010.05.17/outbox.cif.g08.bks.cpg/sg12_141_cif.got.tgz:281571.got - 2010.06.03 13:09:07.
