data_PCOD9192030
_publ_section_title
;
Structure prediction by ZEFSAII (Michael W. Deem and Ramdas Pophale) SiO2 
 PCOD9192030
Probable space group: C 2/M
;
_chemical_formula_sum "Si O2"
_cell_formula_units_Z 48
_cell_length_a 23.540893
_cell_length_b 8.316686
_cell_length_c 26.767786
_cell_angle_alpha 90.000000
_cell_angle_beta 150.464254
_cell_angle_gamma 90.000000
_cell_volume 2583.467887
_symmetry_space_group_name_H-M "C 2/M"
_symmetry_group_IT_number 12
_symmetry_cell_setting 'monoclinic'
loop_
_space_group_symop_operation_xyz
x,y,z
-x,y,-z
-x,-y,-z
x,-y,z
1/2+x,1/2+y,z
1/2-x,1/2+y,-z
1/2-x,1/2-y,-z
1/2+x,1/2-y,z
loop_
_atom_site_type_symbol
_atom_site_label
_atom_site_fract_x
_atom_site_fract_y
_atom_site_fract_z
Si Si1 0.665893 0.684705 0.795033
Si Si2 0.305539 0.190771 0.622026
Si Si3 0.418070 0.808825 0.602401
Si Si4 0.534940 0.686926 0.180460
Si Si5 0.851029 0.314982 0.111333
Si Si6 0.429754 0.806452 0.996629
O O1 0.665020 0.500000 0.777650
O O2 0.549119 0.769274 0.687100
O O3 0.647474 0.700678 0.840189
O O4 0.796516 0.749626 0.887988
O O5 0.384059 0.242108 0.633618
O O6 0.176173 0.229112 0.505389
O O7 0.339899 0.279490 0.699810
O O8 0.318544 0.000000 0.638433
O O9 0.402454 0.000000 0.589706
O O10 0.506034 0.500000 0.165758
O O11 0.460647 0.798578 0.160240
O O12 0.497201 0.732635 0.095596
O O13 0.835758 0.500000 0.115779
O O14 0.750000 0.250000 0.000000
O O15 0.424374 0.000000 0.000611
O O16 0.500000 0.774554 0.000000
#
# Coordination Sequence:
#
# PCOD9192030 Si02
#       6
#     8   8   8   8   8   8
#     4  11  21  34  56  82 113 149 186 228 279 337
#     4  10  20  34  53  79 116 154 188 224 271 333
#     4  10  20  33  52  80 117 153 187 225 272 331
#     4  12  23  35  56  83 115 150 186 230 281 337
#     4  12  22  33  50  79 114 148 183 224 278 338
#     4  10  23  42  61  81 109 148 193 238 284 335
#
# _framework density 18.579678000000001
#
# number of rings (size 3 to 8) (size 9 to 14) (size 15 to 20)
#    0.000    1.167    3.333    4.500    0.000    2.333 
#    0.000    0.000    0.000    1.000    0.000    7.000 
#    0.000    0.000    0.000    0.000    0.000    0.000 
#
# Total GULP energy -133816.391539 kJ/mol
# GULP energy per Si atom -5575.682981 kJ/mol
# Density = 1.853739 g / cm^3
# Si number density = 18.579678 Si / 1000 Ang^3
#
#
#
# Elastic Constant Matrix: (Units=GPa)
#
#
# Indices 1 2 3 4 5 6 
#
# 1 60.5440 10.6809 44.0866 0.0000 8.0588 0.0000
# 2 10.6809 57.3266 24.1853 0.0000 3.2682 0.0000
# 3 44.0866 24.1853 141.4878 0.0000 9.4927 0.0000
# 4 0.0000 0.0000 0.0000 25.5832 0.0000 -1.7423
# 5 8.0588 3.2682 9.4927 0.0000 11.0047 0.0000
# 6 0.0000 0.0000 0.0000 -1.7423 0.0000 16.1046
#
#
#
# Elastic Compliance Matrix: (Units=1/GPa)
#
#
# Indices 1 2 3 4 5 6 
#
# 1 0.022627 -0.000998 -0.006144 0.000000 -0.010974 0.000000
# 2 -0.000998 0.018936 -0.002757 0.000000 -0.002514 0.000000
# 3 -0.006144 -0.002757 0.009655 0.000000 -0.003011 0.000000
# 4 0.000000 0.000000 0.000000 0.039378 0.000000 0.004260
# 5 -0.010974 -0.002514 -0.003011 0.000000 0.102251 0.000000
# 6 0.000000 0.000000 0.000000 0.004260 0.000000 0.062555
#
#
# Mechanical properties :
#
#
# Convention : Reuss Voigt Hill
#
# Bulk Modulus (GPa) = 31.82575 46.36266 39.09421
# Shear Modulus (GPa) = 17.50241 22.56554 20.03397
#
# Velocity S-wave (km/s) = 3.07256 3.48879 3.28727
# Velocity P-wave (km/s) = 5.45473 6.42156 5.95779
#
# Compressibility (1/GPa) = 0.03142110
#
# Stress axis : x y z
#
# Youngs Moduli (GPa) = 44.19417 52.80812 103.56944
#
# Poissons Ratio (x) = 0.05272 0.63629
# Poissons Ratio (y) = 0.04412 0.28556
# Poissons Ratio (z) = 0.27151 0.14560
#
# Static dielectric constant tensor:
#      x y z
#    x 1.616070 0.000000 0.024780 
#    y 0.000000 1.633680 0.000000 
#    z 0.024780 0.000000 1.723640 
# 
# From -- ./inp_files/367120.got.cif
#   From: 2010.05.17/outbox.cif.g08.bks.cpg/sg12_184_cif.got.tgz:367120.got - 2010.06.03 13:09:07.
