data_PCOD9192498
_publ_section_title
;
Structure prediction by ZEFSAII (Michael W. Deem and Ramdas Pophale) SiO2 
 PCOD9192498
Probable space group: C 2/M
;
_chemical_formula_sum "Si O2"
_cell_formula_units_Z 56
_cell_length_a 28.834348
_cell_length_b 14.612884
_cell_length_c 11.671198
_cell_angle_alpha 90.000000
_cell_angle_beta 143.368364
_cell_angle_gamma 90.000000
_cell_volume 2934.230999
_symmetry_space_group_name_H-M "C 2/M"
_symmetry_group_IT_number 12
_symmetry_cell_setting 'monoclinic'
loop_
_space_group_symop_operation_xyz
x,y,z
-x,y,-z
-x,-y,-z
x,-y,z
1/2+x,1/2+y,z
1/2-x,1/2+y,-z
1/2-x,1/2-y,-z
1/2+x,1/2-y,z
loop_
_atom_site_type_symbol
_atom_site_label
_atom_site_fract_x
_atom_site_fract_y
_atom_site_fract_z
Si Si1 0.246091 0.145111 0.027640
Si Si2 0.975077 0.110207 0.578564
Si Si3 0.967716 0.608068 0.306173
Si Si4 0.115838 0.792218 0.933292
Si Si5 0.635412 0.894505 0.537577
Si Si6 0.694755 0.601278 0.685804
Si Si7 0.248679 0.739468 0.632440
O O1 0.167410 0.145869 0.947266
O O2 0.240959 0.095627 0.896798
O O3 0.250000 0.250000 0.000000
O O4 0.317432 0.116932 0.248902
O O5 0.888583 0.139621 0.438742
O O6 0.000000 0.140279 0.500000
O O7 0.035231 0.155211 0.784116
O O8 0.977795 0.000000 0.585955
O O9 0.943019 0.500000 0.243191
O O10 0.906174 0.689326 0.155637
O O11 0.000000 0.617261 0.500000
O O12 0.044520 0.623999 0.379782
O O13 0.168443 0.789758 0.150342
O O14 0.681333 0.829765 0.541199
O O15 0.642828 0.000000 0.516900
O O16 0.684313 0.500000 0.617882
O O17 0.731335 0.667034 0.665854
O O18 0.250000 0.750000 0.500000
#
# Coordination Sequence:
#
# PCOD9192498 Si02
#       7
#     8   8   8   8   8   8   8
#     4  11  19  33  54  92 121 154 185 227 296 355
#     4  10  20  33  56  92 125 149 176 224 297 369
#     4  10  21  34  55  92 127 152 178 223 294 369
#     4  11  21  34  61  83 119 154 185 241 289 348
#     4  10  21  38  61  85 120 156 191 238 291 352
#     4  11  22  38  60  86 121 154 190 240 292 350
#     4  11  26  44  59  81 111 157 215 252 284 325
#
# _framework density 19.085069000000001
#
# number of rings (size 3 to 8) (size 9 to 14) (size 15 to 20)
#    0.000    1.429    4.286    2.571    0.000    3.429 
#    0.000    2.857    0.000    3.429    0.000    0.000 
#    0.000    0.000    0.000    0.000    0.000    0.000 
#
# Total GULP energy -156281.220687 kJ/mol
# GULP energy per Si atom -5581.472167 kJ/mol
# Density = 1.904163 g / cm^3
# Si number density = 19.085069 Si / 1000 Ang^3
#
#
#
# Elastic Constant Matrix: (Units=GPa)
#
#
# Indices 1 2 3 4 5 6 
#
# 1 94.5600 25.3252 49.4950 0.0000 -19.4485 0.0000
# 2 25.3252 55.0942 6.8340 0.0000 -6.5025 0.0000
# 3 49.4950 6.8340 71.9188 0.0000 -6.7443 0.0000
# 4 0.0000 0.0000 0.0000 6.2415 0.0000 0.9368
# 5 -19.4485 -6.5025 -6.7443 0.0000 31.3846 0.0000
# 6 0.0000 0.0000 0.0000 0.9368 0.0000 -9.9567
#
#
#
# Elastic Compliance Matrix: (Units=1/GPa)
#
#
# Indices 1 2 3 4 5 6 
#
# 1 0.021085 -0.007038 -0.013016 0.000000 0.008811 0.000000
# 2 -0.007038 0.021101 0.002898 0.000000 0.000633 0.000000
# 3 -0.013016 0.002898 0.022337 0.000000 -0.002665 0.000000
# 4 0.000000 0.000000 0.000000 0.157986 0.000000 0.014865
# 5 0.008811 0.000633 -0.002665 0.000000 0.036881 0.000000
# 6 0.000000 0.000000 0.000000 0.014865 0.000000 -0.099036
#
#
# Mechanical properties :
#
#
# Convention : Reuss Voigt Hill
#
# Bulk Modulus (GPa) = 33.10032 42.76463 37.93247
# Shear Modulus (GPa) = 24.42158 14.86181 19.64170
#
# Velocity S-wave (km/s) = 3.58105 2.79357 3.21154
# Velocity P-wave (km/s) = 5.87195 5.73249 5.80264
#
# Compressibility (1/GPa) = 0.03021119
#
# Stress axis : x y z
#
# Youngs Moduli (GPa) = 47.42657 47.39089 44.76895
#
# Poissons Ratio (x) = 0.33353 0.58271
# Poissons Ratio (y) = 0.33378 -0.12973
# Poissons Ratio (z) = 0.61730 -0.13733
#
# Static dielectric constant tensor:
#      x y z
#    x 1.719510 0.000000 0.047060 
#    y 0.000000 1.666740 0.000000 
#    z 0.047060 0.000000 1.676530 
# 
# From -- ./inp_files/183556.got.cif
#   From: 2010.05.17/outbox.cif.g08.bks.cpg/sg12_92_cif.got.tgz:183556.got - 2010.06.03 13:09:07.
