data_PCOD9192451
_publ_section_title
;
Structure prediction by ZEFSAII (Michael W. Deem and Ramdas Pophale) SiO2 
 PCOD9192451
Probable space group: C 2/M
;
_chemical_formula_sum "Si O2"
_cell_formula_units_Z 56
_cell_length_a 17.289724
_cell_length_b 18.877460
_cell_length_c 17.097840
_cell_angle_alpha 90.000000
_cell_angle_beta 147.547493
_cell_angle_gamma 90.000000
_cell_volume 2994.496449
_symmetry_space_group_name_H-M "C 2/M"
_symmetry_group_IT_number 12
_symmetry_cell_setting 'monoclinic'
loop_
_space_group_symop_operation_xyz
x,y,z
-x,y,-z
-x,-y,-z
x,-y,z
1/2+x,1/2+y,z
1/2-x,1/2+y,-z
1/2-x,1/2-y,-z
1/2+x,1/2-y,z
loop_
_atom_site_type_symbol
_atom_site_label
_atom_site_fract_x
_atom_site_fract_y
_atom_site_fract_z
Si Si1 0.863796 0.752008 0.484100
Si Si2 0.767775 0.132113 0.517085
Si Si3 0.969895 0.421222 0.201737
Si Si4 0.446849 0.580252 0.171102
Si Si5 0.780132 0.310705 0.961072
Si Si6 0.277259 0.419739 0.876018
Si Si7 0.202656 0.726369 0.745700
O O1 0.842179 0.826211 0.509075
O O2 0.791095 0.691943 0.474687
O O3 0.789225 0.752340 0.335949
O O4 0.032214 0.732355 0.620612
O O5 0.631110 0.089622 0.369171
O O6 0.888268 0.088372 0.665244
O O7 0.954248 0.500000 0.153661
O O8 0.860115 0.417543 0.181940
O O9 0.919595 0.356876 0.103411
O O10 0.397823 0.500000 0.143933
O O11 0.351947 0.634562 0.140610
O O12 0.410749 0.593886 0.048987
O O13 0.782050 0.273769 0.878616
O O14 0.750000 0.250000 0.000000
O O15 0.287589 0.500000 0.852722
O O16 0.255447 0.354715 0.799190
#
# Coordination Sequence:
#
# PCOD9192451 Si02
#       7
#     8   8   8   8   8   8   8
#     4  10  23  33  57  84 113 141 189 231 273 323
#     4  11  20  38  55  83 111 146 183 234 275 319
#     4  10  20  34  57  84 112 146 185 223 273 330
#     4  10  20  33  56  83 112 147 185 222 273 330
#     4  11  18  33  60  85 107 147 185 227 267 327
#     4   9  18  34  55  83 113 147 184 221 266 337
#     4  11  19  38  56  85 111 148 185 228 272 328
#
# _framework density 18.700973999999999
#
# number of rings (size 3 to 8) (size 9 to 14) (size 15 to 20)
#    0.000    1.714    5.714    1.714    2.000    0.000 
#    0.000    5.714    0.000    6.857    0.000    0.000 
#    0.000    0.000    0.000    0.000    0.000    0.000 
#
# Total GULP energy -156252.878591 kJ/mol
# GULP energy per Si atom -5580.459950 kJ/mol
# Density = 1.865841 g / cm^3
# Si number density = 18.700974 Si / 1000 Ang^3
#
#
#
# Elastic Constant Matrix: (Units=GPa)
#
#
# Indices 1 2 3 4 5 6 
#
# 1 28.8238 11.5530 20.5816 -0.0026 -11.6426 -0.0007
# 2 11.5530 87.5276 39.7810 -0.0056 -5.9752 -0.0028
# 3 20.5816 39.7810 125.4684 -0.0054 8.9245 -0.0029
# 4 -0.0026 -0.0056 -0.0054 21.3942 -0.0032 -5.5017
# 5 -11.6426 -5.9752 8.9245 -0.0032 27.6506 -0.0013
# 6 -0.0007 -0.0028 -0.0029 -5.5017 -0.0013 2.9739
#
#
#
# Elastic Compliance Matrix: (Units=1/GPa)
#
#
# Indices 1 2 3 4 5 6 
#
# 1 0.052408 -0.000550 -0.010218 0.000021 0.025246 0.000051
# 2 -0.000550 0.013886 -0.004615 0.000011 0.004259 0.000030
# 3 -0.010218 -0.004615 0.011757 -0.000001 -0.009094 -0.000001
# 4 0.000021 0.000011 -0.000001 0.089158 0.000029 0.164942
# 5 0.025246 0.004259 -0.009094 0.000029 0.050651 0.000077
# 6 0.000051 0.000030 -0.000001 0.164942 0.000077 0.641404
#
#
# Mechanical properties :
#
#
# Convention : Reuss Voigt Hill
#
# Bulk Modulus (GPa) = 21.14915 42.85013 31.99964
# Shear Modulus (GPa) = 5.52004 21.73069 13.62536
#
# Velocity S-wave (km/s) = 1.71993 3.41252 2.70217
# Velocity P-wave (km/s) = 3.90869 6.20404 5.18498
#
# Compressibility (1/GPa) = 0.04728322
#
# Stress axis : x y z
#
# Youngs Moduli (GPa) = 19.08116 72.01505 85.05880
#
# Poissons Ratio (x) = 0.03959 0.86916
# Poissons Ratio (y) = 0.01049 0.39258
# Poissons Ratio (z) = 0.19498 0.33238
#
# Static dielectric constant tensor:
#      x y z
#    x 1.629710 0.000000 0.017960 
#    y 0.000000 1.658220 0.000000 
#    z 0.017960 0.000000 1.668110 
# 
# From -- ./inp_files/285011.got.cif
#   From: 2010.05.17/outbox.cif.g08.bks.cpg/sg12_143_cif.got.tgz:285011.got - 2010.06.03 13:09:07.
