data_PCOD9192135
_publ_section_title
;
Structure prediction by ZEFSAII (Michael W. Deem and Ramdas Pophale) SiO2 
 PCOD9192135
Probable space group: C 2/M
;
_chemical_formula_sum "Si O2"
_cell_formula_units_Z 56
_cell_length_a 19.629731
_cell_length_b 9.152646
_cell_length_c 19.330937
_cell_angle_alpha 90.000000
_cell_angle_beta 54.999136
_cell_angle_gamma 90.000000
_cell_volume 2844.944855
_symmetry_space_group_name_H-M "C 2/M"
_symmetry_group_IT_number 12
_symmetry_cell_setting 'monoclinic'
loop_
_space_group_symop_operation_xyz
x,y,z
-x,y,-z
-x,-y,-z
x,-y,z
1/2+x,1/2+y,z
1/2-x,1/2+y,-z
1/2-x,1/2-y,-z
1/2+x,1/2-y,z
loop_
_atom_site_type_symbol
_atom_site_label
_atom_site_fract_x
_atom_site_fract_y
_atom_site_fract_z
Si Si1 0.600793 0.326309 0.800987
Si Si2 0.821056 0.329628 0.500187
Si Si3 0.302734 0.324047 0.114385
Si Si4 0.090322 0.678483 0.418804
Si Si5 0.550274 0.834689 0.043161
Si Si6 0.383231 0.822068 0.754257
Si Si7 0.439043 0.829015 0.305488
O O1 0.597602 0.500000 0.798279
O O2 0.664075 0.290163 0.826820
O O3 0.616745 0.257869 0.716743
O O4 0.511270 0.259948 0.874229
O O5 0.799408 0.500000 0.518859
O O6 0.750000 0.250000 0.500000
O O7 0.842469 0.272450 0.563757
O O8 0.902734 0.319637 0.404021
O O9 0.310102 0.500000 0.101879
O O10 0.363443 0.243241 0.025714
O O11 0.206580 0.279908 0.164292
O O12 0.091324 0.500000 0.418214
O O13 0.108578 0.725906 0.330385
O O14 0.000000 0.722214 0.500000
O O15 0.561782 0.000000 0.062929
O O16 0.500000 0.843555 0.000000
O O17 0.465764 0.775083 0.746639
O O18 0.385161 0.000000 0.752644
O O19 0.437808 0.000000 0.286598
#
# Coordination Sequence:
#
# PCOD9192135 Si02
#       7
#     8   8   8   8   8   8   8
#     4  10  20  33  53  80 108 137 168 210 259 309
#     4  10  21  34  53  78 106 137 173 218 261 306
#     4   9  18  32  53  80 104 130 171 219 259 301
#     4   9  15  29  53  77  99 132 179 219 251 296
#     4   9  17  32  54  78 105 137 170 208 255 308
#     4   9  17  31  52  76 102 134 175 219 258 300
#     4  10  20  35  52  75 106 139 173 213 260 308
#
# _framework density 19.684035999999999
#
# number of rings (size 3 to 8) (size 9 to 14) (size 15 to 20)
#    0.000    2.571    1.429    0.857    2.000    2.857 
#    0.000    1.429    0.000    1.286    0.000    0.000 
#    0.000    0.000    0.000    0.000    0.000    0.000 
#
# Total GULP energy -156171.607116 kJ/mol
# GULP energy per Si atom -5577.557397 kJ/mol
# Density = 1.963923 g / cm^3
# Si number density = 19.684036 Si / 1000 Ang^3
#
#
#
# Elastic Constant Matrix: (Units=GPa)
#
#
# Indices 1 2 3 4 5 6 
#
# 1 75.5467 15.0124 -4.4306 0.0000 -11.3002 0.0000
# 2 15.0124 25.4458 0.3234 0.0000 -1.1310 0.0001
# 3 -4.4306 0.3234 14.8589 0.0000 -5.3683 0.0000
# 4 0.0000 0.0000 0.0000 20.4027 0.0000 1.8616
# 5 -11.3002 -1.1310 -5.3683 0.0000 37.1830 0.0000
# 6 0.0000 0.0001 0.0000 1.8616 0.0000 19.2060
#
#
#
# Elastic Compliance Matrix: (Units=1/GPa)
#
#
# Indices 1 2 3 4 5 6 
#
# 1 0.016405 -0.009515 0.007169 0.000000 0.005731 0.000000
# 2 -0.009515 0.044874 -0.004606 0.000000 -0.002192 0.000000
# 3 0.007169 -0.004606 0.074141 0.000000 0.012743 0.000000
# 4 0.000000 0.000000 0.000000 0.049450 0.000000 -0.004793
# 5 0.005731 -0.002192 0.012743 0.000000 0.030409 0.000000
# 6 0.000000 0.000000 0.000000 -0.004793 0.000000 0.052532
#
#
# Mechanical properties :
#
#
# Convention : Reuss Voigt Hill
#
# Bulk Modulus (GPa) = 8.22924 15.29576 11.76250
# Shear Modulus (GPa) = 15.51733 22.35476 18.93604
#
# Velocity S-wave (km/s) = 2.81075 3.37364 3.10498
# Velocity P-wave (km/s) = 3.83712 4.79195 4.34087
#
# Compressibility (1/GPa) = 0.12151792
#
# Stress axis : x y z
#
# Youngs Moduli (GPa) = 60.95540 22.28464 13.48775
#
# Poissons Ratio (x) = 0.21204 -0.09670
# Poissons Ratio (y) = 0.58000 0.06212
# Poissons Ratio (z) = -0.43702 0.10264
#
# Static dielectric constant tensor:
#      x y z
#    x 1.698890 0.000000 -0.000520 
#    y 0.000000 1.659390 0.000000 
#    z -0.000520 0.000000 1.720900 
# 
# From -- ./inp_files/313717.got.cif
#   From: 2010.05.17/outbox.cif.g08.bks.cpg/sg12_157_cif.got.tgz:313717.got - 2010.06.03 13:09:07.
