data_PCOD9192492
_publ_section_title
;
Structure prediction by ZEFSAII (Michael W. Deem and Ramdas Pophale) SiO2 
 PCOD9192492
Probable space group: C 2/M
;
_chemical_formula_sum "Si O2"
_cell_formula_units_Z 58
_cell_length_a 21.315483
_cell_length_b 7.975097
_cell_length_c 18.176077
_cell_angle_alpha 90.000000
_cell_angle_beta 75.707038
_cell_angle_gamma 90.000000
_cell_volume 2994.164991
_symmetry_space_group_name_H-M "C 2/M"
_symmetry_group_IT_number 12
_symmetry_cell_setting 'monoclinic'
loop_
_space_group_symop_operation_xyz
x,y,z
-x,y,-z
-x,-y,-z
x,-y,z
1/2+x,1/2+y,z
1/2-x,1/2+y,-z
1/2-x,1/2-y,-z
1/2+x,1/2-y,z
loop_
_atom_site_type_symbol
_atom_site_label
_atom_site_fract_x
_atom_site_fract_y
_atom_site_fract_z
Si Si1 0.500000 0.500000 0.500000
Si Si2 0.170534 0.204141 0.638162
Si Si3 0.428813 0.804945 0.027562
Si Si4 0.316653 0.799238 0.628533
Si Si5 0.143689 0.196157 0.809820
Si Si6 0.789793 0.800235 0.796037
Si Si7 0.582886 0.801536 0.527934
Si Si8 0.181119 0.801935 0.053628
O O1 0.529934 0.653473 0.544575
O O2 0.246177 0.257907 0.619121
O O3 0.140581 0.252611 0.726056
O O4 0.130772 0.282000 0.583331
O O5 0.169300 0.000000 0.632976
O O6 0.376479 0.741104 0.984516
O O7 0.434615 0.000000 0.009156
O O8 0.500000 0.726056 0.000000
O O9 0.400801 0.784005 0.117512
O O10 0.325296 0.736143 0.709054
O O11 0.374043 0.756051 0.556672
O O12 0.313157 0.000000 0.632967
O O13 0.218657 0.219568 0.810996
O O14 0.128181 0.000000 0.816712
O O15 0.823386 0.737261 0.861061
O O16 0.780200 0.000000 0.803253
O O17 0.562918 0.000000 0.529533
O O18 0.182040 0.000000 0.058854
O O19 0.250000 0.750000 0.000000
#
# Coordination Sequence:
#
# PCOD9192492 Si02
#       8
#     2   8   8   8   8   8   8   8
#     4  12  26  44  64  82 128 172 216 254 290 374
#     4   9  18  36  61  94 127 156 194 252 317 369
#     4  11  24  40  58  83 118 161 207 254 310 365
#     4   9  20  36  60  94 129 155 195 253 316 365
#     4  10  20  35  59  88 121 158 197 247 306 367
#     4  10  20  33  56  90 122 156 196 243 308 370
#     4  11  23  41  65  93 121 167 215 253 304 367
#     4  11  22  36  59  88 117 155 203 251 302 368
#
# _framework density 19.371009999999998
#
# number of rings (size 3 to 8) (size 9 to 14) (size 15 to 20)
#    0.000    1.793    2.069    3.103    0.966    5.517 
#    0.000    1.379    0.000    1.655    0.000    0.000 
#    0.000    0.000    0.000    0.000    0.000    0.000 
#
# Total GULP energy -161539.370305 kJ/mol
# GULP energy per Si atom -5570.323114 kJ/mol
# Density = 1.932692 g / cm^3
# Si number density = 19.371010 Si / 1000 Ang^3
#
#
#
# Elastic Constant Matrix: (Units=GPa)
#
#
# Indices 1 2 3 4 5 6 
#
# 1 82.7787 17.6723 50.5568 0.0000 12.1470 0.0000
# 2 17.6723 36.6230 13.3878 0.0000 7.3655 0.0000
# 3 50.5568 13.3878 102.9035 0.0000 15.5547 0.0000
# 4 0.0000 0.0000 0.0000 22.9837 0.0000 7.1151
# 5 12.1470 7.3655 15.5547 0.0000 15.0699 0.0000
# 6 0.0000 0.0000 0.0000 7.1151 0.0000 17.1717
#
#
#
# Elastic Compliance Matrix: (Units=1/GPa)
#
#
# Indices 1 2 3 4 5 6 
#
# 1 0.018605 -0.005246 -0.007795 0.000000 -0.004386 0.000000
# 2 -0.005246 0.032119 0.000157 0.000000 -0.011632 0.000000
# 3 -0.007795 0.000157 0.014916 0.000000 -0.009190 0.000000
# 4 0.000000 0.000000 0.000000 0.049911 0.000000 -0.020681
# 5 -0.004386 -0.011632 -0.009190 0.000000 0.085063 0.000000
# 6 0.000000 0.000000 0.000000 -0.020681 0.000000 0.066804
#
#
# Mechanical properties :
#
#
# Convention : Reuss Voigt Hill
#
# Bulk Modulus (GPa) = 25.08056 42.83767 33.95911
# Shear Modulus (GPa) = 16.31440 20.42426 18.36933
#
# Velocity S-wave (km/s) = 2.90523 3.25063 3.08277
# Velocity P-wave (km/s) = 4.92234 6.02089 5.49911
#
# Compressibility (1/GPa) = 0.03987152
#
# Stress axis : x y z
#
# Youngs Moduli (GPa) = 53.74941 31.13458 67.04095
#
# Poissons Ratio (x) = 0.16333 0.52259
# Poissons Ratio (y) = 0.28197 -0.01052
# Poissons Ratio (z) = 0.41898 -0.00489
#
# Static dielectric constant tensor:
#      x y z
#    x 1.678670 0.000000 0.008870 
#    y 0.000000 1.668540 0.000000 
#    z 0.008870 0.000000 1.696670 
# 
# From -- ./inp_files/281123.got.cif
#   From: 2010.05.17/outbox.cif.g08.bks.cpg/sg12_141_cif.got.tgz:281123.got - 2010.06.03 13:09:07.
