data_PCOD9192641
_publ_section_title
;
Structure prediction by ZEFSAII (Michael W. Deem and Ramdas Pophale) SiO2 
 PCOD9192641
Probable space group: C 2/M
;
_chemical_formula_sum "Si O2"
_cell_formula_units_Z 56
_cell_length_a 31.348738
_cell_length_b 20.218173
_cell_length_c 5.116307
_cell_angle_alpha 90.000000
_cell_angle_beta 108.882999
_cell_angle_gamma 90.000000
_cell_volume 3068.265857
_symmetry_space_group_name_H-M "C 2/M"
_symmetry_group_IT_number 12
_symmetry_cell_setting 'monoclinic'
loop_
_space_group_symop_operation_xyz
x,y,z
-x,y,-z
-x,-y,-z
x,-y,z
1/2+x,1/2+y,z
1/2-x,1/2+y,-z
1/2-x,1/2-y,-z
1/2+x,1/2-y,z
loop_
_atom_site_type_symbol
_atom_site_label
_atom_site_fract_x
_atom_site_fract_y
_atom_site_fract_z
Si Si1 0.892591 0.424725 0.267312
Si Si2 0.674220 0.340410 0.238059
Si Si3 0.602743 0.253414 0.267950
Si Si4 0.221014 0.810029 0.839980
Si Si5 0.947783 0.293854 0.328879
Si Si6 0.249645 0.076663 0.233261
Si Si7 0.659029 0.878438 0.329965
O O1 0.907366 0.500000 0.260420
O O2 0.931330 0.370207 0.304679
O O3 0.871412 0.414741 0.511344
O O4 0.854274 0.406798 0.978191
O O5 0.625332 0.324161 0.251965
O O6 0.707080 0.305769 0.514826
O O7 0.699913 0.410649 0.261897
O O8 0.678309 0.311561 0.953632
O O9 0.581626 0.243438 0.509344
O O10 0.642218 0.197689 0.308703
O O11 0.565529 0.235011 0.978488
O O12 0.289846 0.892076 0.484312
O O13 0.250000 0.750000 0.000000
O O14 0.000000 0.288595 0.500000
O O15 0.246096 0.121786 0.966379
O O16 0.258263 0.000000 0.205217
#
# Coordination Sequence:
#
# PCOD9192641 Si02
#       7
#     8   8   8   8   8   8   8
#     4  10  20  34  49  71 102 140 180 216 261 313
#     4  10  22  35  53  75 106 142 183 217 268 313
#     4  10  20  36  55  77 104 135 173 221 267 320
#     4  10  21  33  52  74 103 142 189 227 259 305
#     4  10  21  36  56  79 102 129 167 222 279 325
#     4  10  23  35  52  77 112 149 189 228 261 304
#     4  10  21  32  50  71 103 143 184 222 255 292
#
# _framework density 18.251353000000002
#
# number of rings (size 3 to 8) (size 9 to 14) (size 15 to 20)
#    0.857    1.143    0.000    3.857    4.000    2.000 
#    0.000    0.000    0.000    5.143    0.000    0.000 
#    0.000    3.429    0.000    0.000    0.000    0.000 
#
# Total GULP energy -156028.862750 kJ/mol
# GULP energy per Si atom -5572.459384 kJ/mol
# Density = 1.820981 g / cm^3
# Si number density = 18.251353 Si / 1000 Ang^3
#
#
#
# Elastic Constant Matrix: (Units=GPa)
#
#
# Indices 1 2 3 4 5 6 
#
# 1 40.0452 21.5705 2.4771 0.0000 17.2321 0.0000
# 2 21.5705 40.7286 15.5584 0.0000 15.7357 0.0000
# 3 2.4771 15.5584 51.5446 0.0000 4.3155 0.0000
# 4 0.0000 0.0000 0.0000 8.8371 0.0000 -3.7218
# 5 17.2321 15.7357 4.3155 0.0000 32.3381 0.0000
# 6 0.0000 0.0000 0.0000 -3.7218 0.0000 11.5131
#
#
#
# Elastic Compliance Matrix: (Units=1/GPa)
#
#
# Indices 1 2 3 4 5 6 
#
# 1 0.039977 -0.017794 0.004559 0.000000 -0.013253 0.000000
# 2 -0.017794 0.041798 -0.010975 0.000000 -0.009392 0.000000
# 3 0.004559 -0.010975 0.022502 0.000000 -0.000092 0.000000
# 4 0.000000 0.000000 0.000000 0.130994 0.000000 0.042346
# 5 -0.013253 -0.009392 -0.000092 0.000000 0.042568 0.000000
# 6 0.000000 0.000000 0.000000 0.042346 0.000000 0.100546
#
#
# Mechanical properties :
#
#
# Convention : Reuss Voigt Hill
#
# Bulk Modulus (GPa) = 17.90252 23.50339 20.70295
# Shear Modulus (GPa) = 11.22526 16.71848 13.97187
#
# Velocity S-wave (km/s) = 2.48268 3.02985 2.76981
# Velocity P-wave (km/s) = 4.24835 5.01454 4.64726
#
# Compressibility (1/GPa) = 0.05585807
#
# Stress axis : x y z
#
# Youngs Moduli (GPa) = 25.01410 23.92458 44.44052
#
# Poissons Ratio (x) = 0.42572 -0.20262
# Poissons Ratio (y) = 0.44510 0.48773
# Poissons Ratio (z) = -0.11405 0.26257
#
# Static dielectric constant tensor:
#      x y z
#    x 1.663350 0.000000 -0.014340 
#    y 0.000000 1.634600 0.000000 
#    z -0.014340 0.000000 1.627610 
# 
# From -- ./inp_files/25684.got.cif
#   From: 2010.05.17/outbox.cif.g08.bks.cpg/sg12_13_cif.got.tgz:25684.got - 2010.06.03 13:09:07.
