data_PCOD9192129
_publ_section_title
;
Structure prediction by ZEFSAII (Michael W. Deem and Ramdas Pophale) SiO2 
 PCOD9192129
Probable space group: C 2/M
;
_chemical_formula_sum "Si O2"
_cell_formula_units_Z 64
_cell_length_a 14.700597
_cell_length_b 9.089654
_cell_length_c 26.477706
_cell_angle_alpha 90.000000
_cell_angle_beta 87.543811
_cell_angle_gamma 90.000000
_cell_volume 3534.789062
_symmetry_space_group_name_H-M "C 2/M"
_symmetry_group_IT_number 12
_symmetry_cell_setting 'monoclinic'
loop_
_space_group_symop_operation_xyz
x,y,z
-x,y,-z
-x,-y,-z
x,-y,z
1/2+x,1/2+y,z
1/2-x,1/2+y,-z
1/2-x,1/2-y,-z
1/2+x,1/2-y,z
loop_
_atom_site_type_symbol
_atom_site_label
_atom_site_fract_x
_atom_site_fract_y
_atom_site_fract_z
Si Si1 0.731814 0.323030 0.306745
Si Si2 0.907112 0.326613 0.757288
Si Si3 0.280786 0.175716 0.051049
Si Si4 0.883356 0.675140 0.221299
Si Si5 0.605439 0.822784 0.497405
Si Si6 0.628550 0.326410 0.138479
Si Si7 0.750509 0.322951 0.421733
Si Si8 0.419726 0.674321 0.116081
O O1 0.725323 0.500000 0.305884
O O2 0.638960 0.253599 0.288566
O O3 0.809694 0.280693 0.264678
O O4 0.755083 0.278146 0.363219
O O5 0.891373 0.500000 0.754389
O O6 0.864444 0.263446 0.810033
O O7 0.015208 0.300911 0.759403
O O8 0.204816 0.207974 0.095617
O O9 0.373772 0.243428 0.070457
O O10 0.287432 0.000000 0.045241
O O11 0.250000 0.250000 0.000000
O O12 0.873182 0.500000 0.211064
O O13 0.877577 0.761778 0.168953
O O14 0.500000 0.776734 0.500000
O O15 0.664766 0.750120 0.451709
O O16 0.659518 0.785453 0.547813
O O17 0.607878 0.000000 0.491615
O O18 0.634977 0.500000 0.150910
O O19 0.528058 0.299819 0.117978
O O20 0.740723 0.500000 0.423941
O O21 0.404027 0.500000 0.112904
#
# Coordination Sequence:
#
# PCOD9192129 Si02
#       8
#     8   8   8   8   8   8   8   8
#     4  10  20  34  51  72 106 144 170 201 253 311
#     4  10  20  33  53  80 105 132 173 217 251 292
#     4  11  23  38  55  77 104 135 171 212 260 311
#     4   9  19  35  53  75 104 138 171 205 251 305
#     4   9  18  34  56  77  99 132 173 216 260 305
#     4   9  20  38  57  75 103 141 172 203 255 316
#     4   9  19  34  51  75 104 135 172 211 254 305
#     4  10  20  36  57  79 103 134 172 212 252 302
#
# _framework density 18.105747999999998
#
# number of rings (size 3 to 8) (size 9 to 14) (size 15 to 20)
#    0.000    2.375    0.000    1.875    0.000    7.750 
#    0.000    5.000    0.000    0.000    0.000    0.000 
#    0.000    0.000    0.000    0.000    0.000    0.000 
#
# Total GULP energy -178641.366883 kJ/mol
# GULP energy per Si atom -5582.542715 kJ/mol
# Density = 1.806454 g / cm^3
# Si number density = 18.105748 Si / 1000 Ang^3
#
#
#
# Elastic Constant Matrix: (Units=GPa)
#
#
# Indices 1 2 3 4 5 6 
#
# 1 79.1902 28.6253 31.0693 0.0000 10.3427 0.0000
# 2 28.6253 24.3396 29.4398 0.0000 8.6511 0.0000
# 3 31.0693 29.4398 69.3187 0.0000 22.1561 0.0000
# 4 0.0000 0.0000 0.0000 31.3563 0.0000 2.3499
# 5 10.3427 8.6511 22.1561 0.0000 17.1778 0.0000
# 6 0.0000 0.0000 0.0000 2.3499 0.0000 27.2291
#
#
#
# Elastic Compliance Matrix: (Units=1/GPa)
#
#
# Indices 1 2 3 4 5 6 
#
# 1 0.022245 -0.029197 0.003421 0.000000 -0.003102 0.000000
# 2 -0.029197 0.123216 -0.042584 0.000000 0.010451 0.000000
# 3 0.003421 -0.042584 0.042164 0.000000 -0.034998 0.000000
# 4 0.000000 0.000000 0.000000 0.032099 0.000000 -0.002770
# 5 -0.003102 0.010451 -0.034998 0.000000 0.099960 0.000000
# 6 0.000000 0.000000 0.000000 -0.002770 0.000000 0.036964
#
#
# Mechanical properties :
#
#
# Convention : Reuss Voigt Hill
#
# Bulk Modulus (GPa) = 19.64429 39.01303 29.32866
# Shear Modulus (GPa) = 9.79746 20.73358 15.26552
#
# Velocity S-wave (km/s) = 2.32873 3.38766 2.90682
# Velocity P-wave (km/s) = 4.25487 6.07419 5.24403
#
# Compressibility (1/GPa) = 0.05090538
#
# Stress axis : x y z
#
# Youngs Moduli (GPa) = 44.95445 8.11584 23.71671
#
# Poissons Ratio (x) = 0.23696 -0.08114
# Poissons Ratio (y) = 1.31254 1.00995
# Poissons Ratio (z) = -0.15380 0.34560
#
# Static dielectric constant tensor:
#      x y z
#    x 1.626530 0.000000 0.012240 
#    y 0.000000 1.602560 0.000000 
#    z 0.012240 0.000000 1.595360 
# 
# From -- ./inp_files/338684.got.cif
#   From: 2010.05.17/outbox.cif.g08.bks.cpg/sg12_170_cif.got.tgz:338684.got - 2010.06.03 13:09:07.
