data_PCOD9192066
_publ_section_title
;
Structure prediction by ZEFSAII (Michael W. Deem and Ramdas Pophale) SiO2 
 PCOD9192066
Probable space group: C 2/M
;
_chemical_formula_sum "Si O2"
_cell_formula_units_Z 50
_cell_length_a 27.245637
_cell_length_b 7.454807
_cell_length_c 11.617289
_cell_angle_alpha 90.000000
_cell_angle_beta 115.256091
_cell_angle_gamma 90.000000
_cell_volume 2134.044247
_symmetry_space_group_name_H-M "C 2/M"
_symmetry_group_IT_number 12
_symmetry_cell_setting 'monoclinic'
loop_
_space_group_symop_operation_xyz
x,y,z
-x,y,-z
-x,-y,-z
x,-y,z
1/2+x,1/2+y,z
1/2-x,1/2+y,-z
1/2-x,1/2-y,-z
1/2+x,1/2-y,z
loop_
_atom_site_type_symbol
_atom_site_label
_atom_site_fract_x
_atom_site_fract_y
_atom_site_fract_z
Si Si1 0.561693 0.783400 0.551311
Si Si2 0.763094 0.296214 0.211339
Si Si3 0.161115 0.781127 0.244466
Si Si4 0.000000 0.000000 0.000000
Si Si5 0.339794 0.709326 0.496562
Si Si6 0.141603 0.718253 0.836262
Si Si7 0.072904 0.705561 0.983944
O O1 0.500000 0.719745 0.500000
O O2 0.597232 0.727399 0.476754
O O3 0.597472 0.725932 0.696826
O O4 0.560492 0.000000 0.549994
O O5 0.749535 0.500000 0.165013
O O6 0.708428 0.213438 0.206983
O O7 0.803918 0.300687 0.362072
O O8 0.799555 0.214477 0.146138
O O9 0.170186 0.723095 0.384724
O O10 0.161200 0.000000 0.245059
O O11 0.103797 0.721102 0.136704
O O12 0.024148 0.157419 0.939031
O O13 0.325144 0.500000 0.478282
O O14 0.144918 0.500000 0.835985
O O15 0.117779 0.765855 0.935392
O O16 0.057395 0.500000 0.944540
#
# Coordination Sequence:
#
# PCOD9192066 Si02
#       7
#     8   8   8   2   8   8   8
#     4   9  18  35  58  82 111 152 203 255 307 366
#     4   9  18  36  62  86 122 166 201 252 317 368
#     4  10  21  38  58  89 128 163 207 261 306 370
#     4  12  26  48  64  90 126 164 210 264 318 362
#     4  10  20  33  52  86 127 159 201 254 307 369
#     4   8  17  36  58  88 119 153 208 255 304 374
#     4  11  24  43  67  91 123 167 211 257 313 374
#
# _framework density 23.429690999999998
#
# number of rings (size 3 to 8) (size 9 to 14) (size 15 to 20)
#    0.000    2.400    0.800    2.160    0.000    4.160 
#    5.760    1.600    0.000    0.000    0.000    0.000 
#    0.000    0.000    0.000    0.000    0.000    0.000 
#
# Total GULP energy -139413.570843 kJ/mol
# GULP energy per Si atom -5576.542834 kJ/mol
# Density = 2.337636 g / cm^3
# Si number density = 23.429691 Si / 1000 Ang^3
#
#
#
# Elastic Constant Matrix: (Units=GPa)
#
#
# Indices 1 2 3 4 5 6 
#
# 1 121.5135 22.0100 22.1963 0.0000 -16.5054 0.0000
# 2 22.0100 105.0868 6.2186 0.0000 -9.6581 0.0000
# 3 22.1963 6.2186 50.8491 0.0000 -15.1030 0.0000
# 4 0.0000 0.0000 0.0000 -5.2244 0.0000 20.9491
# 5 -16.5054 -9.6581 -15.1030 0.0000 37.4839 0.0000
# 6 0.0000 0.0000 0.0000 20.9491 0.0000 -9.0148
#
#
#
# Elastic Compliance Matrix: (Units=1/GPa)
#
#
# Indices 1 2 3 4 5 6 
#
# 1 0.009430 -0.001560 -0.003194 0.000000 0.002464 0.000000
# 2 -0.001560 0.010016 0.000021 0.000000 0.001902 0.000000
# 3 -0.003194 0.000021 0.023448 0.000000 0.008047 0.000000
# 4 0.000000 0.000000 0.000000 0.023010 0.000000 0.053473
# 5 0.002464 0.001902 0.008047 0.000000 0.031495 0.000000
# 6 0.000000 0.000000 0.000000 0.053473 0.000000 0.013335
#
#
# Mechanical properties :
#
#
# Convention : Reuss Voigt Hill
#
# Bulk Modulus (GPa) = 29.91446 42.03324 35.97385
# Shear Modulus (GPa) = 38.06822 19.78389 28.92606
#
# Velocity S-wave (km/s) = 4.03524 2.90900 3.51748
# Velocity P-wave (km/s) = 5.87421 5.40945 5.64661
#
# Compressibility (1/GPa) = 0.03342865
#
# Stress axis : x y z
#
# Youngs Moduli (GPa) = 106.04346 99.83810 42.64832
#
# Poissons Ratio (x) = 0.15571 0.13621
# Poissons Ratio (y) = 0.16539 -0.00089
# Poissons Ratio (z) = 0.33869 -0.00209
#
# Static dielectric constant tensor:
#      x y z
#    x 1.919450 0.000000 0.002880 
#    y 0.000000 1.890130 0.000000 
#    z 0.002880 0.000000 1.861470 
# 
# From -- ./inp_files/180196.got.cif
#   From: 2010.05.17/outbox.cif.g08.bks.cpg/sg12_91_cif.got.tgz:180196.got - 2010.06.03 13:09:07.
