data_PCOD9192553
_publ_section_title
;
Structure prediction by ZEFSAII (Michael W. Deem and Ramdas Pophale) SiO2 
 PCOD9192553
Probable space group: C 2/M
;
_chemical_formula_sum "Si O2"
_cell_formula_units_Z 56
_cell_length_a 9.887391
_cell_length_b 30.153011
_cell_length_c 22.490479
_cell_angle_alpha 90.000000
_cell_angle_beta 25.813421
_cell_angle_gamma 90.000000
_cell_volume 2919.721278
_symmetry_space_group_name_H-M "C 2/M"
_symmetry_group_IT_number 12
_symmetry_cell_setting 'monoclinic'
loop_
_space_group_symop_operation_xyz
x,y,z
-x,y,-z
-x,-y,-z
x,-y,z
1/2+x,1/2+y,z
1/2-x,1/2+y,-z
1/2-x,1/2-y,-z
1/2+x,1/2-y,z
loop_
_atom_site_type_symbol
_atom_site_label
_atom_site_fract_x
_atom_site_fract_y
_atom_site_fract_z
Si Si1 0.090548 0.250113 0.396022
Si Si2 0.295724 0.107527 0.221531
Si Si3 0.309388 0.842808 0.337284
Si Si4 0.276634 0.949302 0.530807
Si Si5 0.608350 0.448284 0.026002
Si Si6 0.832522 0.602699 0.714797
Si Si7 0.322025 0.342882 0.332704
O O1 0.289841 0.205139 0.312592
O O2 0.281938 0.295628 0.315539
O O3 0.000000 0.250142 0.500000
O O4 0.750000 0.250000 0.500000
O O5 0.330860 0.122509 0.275641
O O6 0.054092 0.067213 0.316412
O O7 0.115659 0.147549 0.258765
O O8 0.617944 0.087466 0.071552
O O9 0.573372 0.856352 0.279833
O O10 0.000000 0.846409 0.500000
O O11 0.500000 0.945335 0.500000
O O12 0.379191 0.919239 0.434507
O O13 0.276829 0.000000 0.511802
O O14 0.696625 0.500000 0.000500
O O15 0.337707 0.433741 0.178181
O O16 0.500000 0.444414 0.000000
O O17 0.646016 0.621634 0.732529
O O18 0.000000 0.348083 0.500000
#
# Coordination Sequence:
#
# PCOD9192553 Si02
#       7
#     8   8   8   8   8   8   8
#     4  10  20  33  57  96 135 161 193 252 311 374
#     4  12  21  40  62  86 123 164 204 256 308 371
#     4  11  20  34  62  94 123 158 207 250 311 367
#     4  11  22  38  61  92 124 154 195 262 325 370
#     4  11  26  45  61  86 122 166 216 262 311 370
#     4  12  21  40  62  88 123 161 206 257 305 372
#     4  11  20  38  63  93 133 158 197 251 314 371
#
# _framework density 19.179912999999999
#
# number of rings (size 3 to 8) (size 9 to 14) (size 15 to 20)
#    0.000    0.857    5.714    4.286    0.000    0.571 
#    0.000    1.429    0.000    5.143    0.000    0.000 
#    0.000    0.000    0.000    0.000    0.000    0.000 
#
# Total GULP energy -155935.071534 kJ/mol
# GULP energy per Si atom -5569.109698 kJ/mol
# Density = 1.913626 g / cm^3
# Si number density = 19.179913 Si / 1000 Ang^3
#
#
#
# Elastic Constant Matrix: (Units=GPa)
#
#
# Indices 1 2 3 4 5 6 
#
# 1 105.8918 19.0818 9.6712 0.0167 2.3633 -0.0236
# 2 19.0818 91.2876 8.9230 0.0052 -3.0673 -0.0014
# 3 9.6712 8.9230 41.5955 -0.0205 -2.1908 -0.0170
# 4 0.0167 0.0052 -0.0205 17.4323 -0.0156 4.5206
# 5 2.3633 -3.0673 -2.1908 -0.0156 21.7628 0.0095
# 6 -0.0236 -0.0014 -0.0170 4.5206 0.0095 17.9277
#
#
#
# Elastic Compliance Matrix: (Units=1/GPa)
#
#
# Indices 1 2 3 4 5 6 
#
# 1 0.010012 -0.001951 -0.001992 -0.000017 -0.001563 0.000016
# 2 -0.001951 0.011608 -0.001950 -0.000001 0.001652 -0.000004
# 3 -0.001992 -0.001950 0.025052 0.000031 0.002463 0.000012
# 4 -0.000017 -0.000001 0.000031 0.061378 0.000056 -0.015477
# 5 -0.001563 0.001652 0.002463 0.000056 0.046601 -0.000038
# 6 0.000016 -0.000004 0.000012 -0.015477 -0.000038 0.059682
#
#
# Mechanical properties :
#
#
# Convention : Reuss Voigt Hill
#
# Bulk Modulus (GPa) = 28.66289 34.90300 31.78294
# Shear Modulus (GPa) = 21.03077 24.83115 22.93096
#
# Velocity S-wave (km/s) = 3.31494 3.60202 3.46146
# Velocity P-wave (km/s) = 5.44320 5.96126 5.70811
#
# Compressibility (1/GPa) = 0.03488832
#
# Stress axis : x y z
#
# Youngs Moduli (GPa) = 99.88122 86.14603 39.91672
#
# Poissons Ratio (x) = 0.16804 0.07950
# Poissons Ratio (y) = 0.19483 0.07782
# Poissons Ratio (z) = 0.19893 0.16796
#
# Static dielectric constant tensor:
#      x y z
#    x 1.684840 -0.000010 -0.032020 
#    y -0.000010 1.782330 0.000000 
#    z -0.032020 0.000000 1.632080 
# 
# From -- ./inp_files/303005.got.cif
#   From: 2010.05.17/outbox.cif.g08.bks.cpg/sg12_152_cif.got.tgz:303005.got - 2010.06.03 13:09:07.
