data_PCOD9192108
_publ_section_title
;
Structure prediction by ZEFSAII (Michael W. Deem and Ramdas Pophale) SiO2 
 PCOD9192108
Probable space group: C 2/M
;
_chemical_formula_sum "Si O2"
_cell_formula_units_Z 64
_cell_length_a 10.403006
_cell_length_b 19.447890
_cell_length_c 22.091598
_cell_angle_alpha 90.000000
_cell_angle_beta 134.155672
_cell_angle_gamma 90.000000
_cell_volume 3206.638259
_symmetry_space_group_name_H-M "C 2/M"
_symmetry_group_IT_number 12
_symmetry_cell_setting 'monoclinic'
loop_
_space_group_symop_operation_xyz
x,y,z
-x,y,-z
-x,-y,-z
x,-y,z
1/2+x,1/2+y,z
1/2-x,1/2+y,-z
1/2-x,1/2-y,-z
1/2+x,1/2-y,z
loop_
_atom_site_type_symbol
_atom_site_label
_atom_site_fract_x
_atom_site_fract_y
_atom_site_fract_z
Si Si1 0.693386 0.281744 0.318283
Si Si2 0.908453 0.926414 0.058491
Si Si3 0.479457 0.919794 0.684289
Si Si4 0.629024 0.424197 0.245528
Si Si5 0.842832 0.791684 0.977384
Si Si6 0.973042 0.662679 0.806673
Si Si7 0.487040 0.923099 0.925384
Si Si8 0.903073 0.287509 0.588892
O O1 0.631884 0.359786 0.289937
O O2 0.629120 0.232810 0.242569
O O3 0.605535 0.251315 0.349634
O O4 0.909374 0.280592 0.385257
O O5 0.959903 0.920749 0.145454
O O6 0.989777 0.000000 0.065165
O O7 0.955234 0.855122 0.043088
O O8 0.697358 0.929406 0.977808
O O9 0.691807 0.917396 0.737349
O O10 0.452137 0.889000 0.742722
O O11 0.387746 0.867736 0.605449
O O12 0.424762 0.000000 0.662650
O O13 0.635288 0.500000 0.276007
O O14 0.681553 0.816765 0.882408
O O15 0.750000 0.750000 0.000000
O O16 0.000000 0.747222 0.000000
O O17 0.912086 0.627683 0.849743
O O18 0.405884 0.000000 0.895055
O O19 0.500000 0.903890 0.000000
O O20 0.750000 0.250000 0.500000
#
# Coordination Sequence:
#
# PCOD9192108 Si02
#       8
#     8   8   8   8   8   8   8   8
#     4  10  21  36  59  87 111 145 186 223 279 340
#     4   9  18  32  50  71  99 138 182 228 274 314
#     4   9  18  34  58  84 107 139 183 228 278 332
#     4   9  17  32  53  78 108 138 177 230 277 323
#     4  11  23  35  50  75 108 147 189 232 279 322
#     4  10  20  33  53  78 109 146 191 243 281 325
#     4   9  18  31  46  69 105 152 196 231 278 330
#     4  10  21  39  62  86 115 145 175 220 278 347
#
# _framework density 19.958596
#
# number of rings (size 3 to 8) (size 9 to 14) (size 15 to 20)
#    0.000    2.375    0.000    2.250    0.000    5.750 
#    0.000    0.625    0.000   12.750    0.000    0.000 
#    0.000    0.000    0.000    0.000    0.000    0.000 
#
# Total GULP energy -178313.327644 kJ/mol
# GULP energy per Si atom -5572.291489 kJ/mol
# Density = 1.991317 g / cm^3
# Si number density = 19.958596 Si / 1000 Ang^3
#
#
#
# Elastic Constant Matrix: (Units=GPa)
#
#
# Indices 1 2 3 4 5 6 
#
# 1 34.6291 7.3640 -5.8490 0.0000 -7.8855 0.0000
# 2 7.3640 136.5466 34.4959 0.0000 -1.1883 0.0000
# 3 -5.8490 34.4959 63.8170 0.0000 5.7923 0.0000
# 4 0.0000 0.0000 0.0000 13.0976 0.0000 -2.3209
# 5 -7.8855 -1.1883 5.7923 0.0000 27.9073 0.0000
# 6 0.0000 0.0000 0.0000 -2.3209 0.0000 16.5472
#
#
#
# Elastic Compliance Matrix: (Units=1/GPa)
#
#
# Indices 1 2 3 4 5 6 
#
# 1 0.031878 -0.002547 0.003558 0.000000 0.008161 0.000000
# 2 -0.002547 0.008735 -0.005018 0.000000 0.000694 0.000000
# 3 0.003558 -0.005018 0.018994 0.000000 -0.003151 0.000000
# 4 0.000000 0.000000 0.000000 0.078296 0.000000 0.010982
# 5 0.008161 0.000694 -0.003151 0.000000 0.038822 0.000000
# 6 0.000000 0.000000 0.000000 0.010982 0.000000 0.061973
#
#
# Mechanical properties :
#
#
# Convention : Reuss Voigt Hill
#
# Bulk Modulus (GPa) = 19.38249 34.11274 26.74761
# Shear Modulus (GPa) = 18.94582 24.77587 21.86084
#
# Velocity S-wave (km/s) = 3.08434 3.52712 3.31314
# Velocity P-wave (km/s) = 4.73462 5.80657 5.29778
#
# Compressibility (1/GPa) = 0.05159296
#
# Stress axis : x y z
#
# Youngs Moduli (GPa) = 31.36933 114.48772 52.64765
#
# Poissons Ratio (x) = 0.29160 -0.18731
# Poissons Ratio (y) = 0.07990 0.26418
# Poissons Ratio (z) = -0.11161 0.57448
#
# Static dielectric constant tensor:
#      x y z
#    x 1.865110 0.000000 -0.037110 
#    y 0.000000 1.795430 0.000000 
#    z -0.037110 0.000000 1.701640 
# 
# From -- ./inp_files/306226.got.cif
#   From: 2010.05.17/outbox.cif.g08.bks.cpg/sg12_154_cif.got.tgz:306226.got - 2010.06.03 13:09:07.
