data_PCOD9192055
_publ_section_title
;
Structure prediction by ZEFSAII (Michael W. Deem and Ramdas Pophale) SiO2 
 PCOD9192055
Probable space group: C 2/M
;
_chemical_formula_sum "Si O2"
_cell_formula_units_Z 56
_cell_length_a 15.585468
_cell_length_b 16.904214
_cell_length_c 14.145232
_cell_angle_alpha 90.000000
_cell_angle_beta 51.715387
_cell_angle_gamma 90.000000
_cell_volume 2925.249456
_symmetry_space_group_name_H-M "C 2/M"
_symmetry_group_IT_number 12
_symmetry_cell_setting 'monoclinic'
loop_
_space_group_symop_operation_xyz
x,y,z
-x,y,-z
-x,-y,-z
x,-y,z
1/2+x,1/2+y,z
1/2-x,1/2+y,-z
1/2-x,1/2-y,-z
1/2+x,1/2-y,z
loop_
_atom_site_type_symbol
_atom_site_label
_atom_site_fract_x
_atom_site_fract_y
_atom_site_fract_z
Si Si1 0.783840 0.704373 0.598479
Si Si2 0.192417 0.330732 0.201125
Si Si3 0.113037 0.169792 0.572921
Si Si4 0.622469 0.660068 0.202993
Si Si5 0.856232 0.000000 0.711508
Si Si6 0.122161 0.000000 0.518721
Si Si7 0.530702 0.909346 0.590862
Si Si8 0.587840 0.405621 0.022218
O O1 0.777782 0.677070 0.708868
O O2 0.840288 0.789543 0.552226
O O3 0.668577 0.709814 0.625210
O O4 0.863815 0.647070 0.483254
O O5 0.188682 0.242170 0.159644
O O6 0.288525 0.383315 0.091731
O O7 0.072174 0.371307 0.283282
O O8 0.984108 0.177180 0.661042
O O9 0.150090 0.079720 0.552113
O O10 0.675698 0.580321 0.210930
O O11 0.575603 0.637027 0.131744
O O12 0.827073 0.000000 0.620707
O O13 0.989165 0.000000 0.612451
O O14 0.500000 0.911523 0.500000
O O15 0.551091 0.000000 0.606936
O O16 0.576604 0.500000 0.043640
O O17 0.500000 0.382993 0.000000
#
# Coordination Sequence:
#
# PCOD9192055 Si02
#       8
#     8   8   8   8   4   4   8   8
#     4  10  20  34  52  81 116 150 184 229 279 336
#     4  11  21  36  59  82 109 150 190 234 281 335
#     4  10  20  33  52  82 118 148 185 227 283 338
#     4  11  20  37  58  83 112 148 192 236 280 340
#     4   9  18  32  53  80 110 141 190 231 276 323
#     4   9  18  30  50  80 110 150 183 228 277 332
#     4   9  18  32  51  77 108 144 186 222 270 332
#     4  11  24  41  59  84 115 146 189 241 293 341
#
# _framework density 19.143667000000001
#
# number of rings (size 3 to 8) (size 9 to 14) (size 15 to 20)
#    0.000    1.857    2.143    2.571    1.000    1.714 
#    0.000    0.000    0.000    0.000    0.000    0.500 
#    0.000    0.000    0.000    0.000    0.000    0.000 
#
# Total GULP energy -156073.989376 kJ/mol
# GULP energy per Si atom -5574.071049 kJ/mol
# Density = 1.910009 g / cm^3
# Si number density = 19.143667 Si / 1000 Ang^3
#
#
#
# Elastic Constant Matrix: (Units=GPa)
#
#
# Indices 1 2 3 4 5 6 
#
# 1 45.9280 5.2787 -0.8523 0.0000 2.6749 0.0000
# 2 5.2787 85.1808 7.2248 0.0000 -3.7985 0.0000
# 3 -0.8523 7.2248 33.4917 0.0000 2.0592 0.0000
# 4 0.0000 0.0000 0.0000 24.3605 0.0000 -6.8838
# 5 2.6749 -3.7985 2.0592 0.0000 24.8903 0.0000
# 6 0.0000 0.0000 0.0000 -6.8838 0.0000 5.0606
#
#
#
# Elastic Compliance Matrix: (Units=1/GPa)
#
#
# Indices 1 2 3 4 5 6 
#
# 1 0.022133 -0.001583 0.001071 0.000000 -0.002709 0.000000
# 2 -0.001583 0.012177 -0.002806 0.000000 0.002261 0.000000
# 3 0.001071 -0.002806 0.030680 0.000000 -0.003082 0.000000
# 4 0.000000 0.000000 0.000000 0.066681 0.000000 0.090704
# 5 -0.002709 0.002261 -0.003082 0.000000 0.041067 0.000000
# 6 0.000000 0.000000 0.000000 0.090704 0.000000 0.320986
#
#
# Mechanical properties :
#
#
# Convention : Reuss Voigt Hill
#
# Bulk Modulus (GPa) = 17.13682 20.87808 19.00745
# Shear Modulus (GPa) = 9.61887 21.05891 15.33889
#
# Velocity S-wave (km/s) = 2.24399 3.32029 2.83371
# Velocity P-wave (km/s) = 3.96044 5.06249 4.54499
#
# Compressibility (1/GPa) = 0.05835388
#
# Stress axis : x y z
#
# Youngs Moduli (GPa) = 45.18172 82.12444 32.59434
#
# Poissons Ratio (x) = 0.13002 -0.03492
# Poissons Ratio (y) = 0.07153 0.09146
# Poissons Ratio (z) = -0.04841 0.23044
#
# Static dielectric constant tensor:
#      x y z
#    x 1.655010 0.000000 -0.004660 
#    y 0.000000 1.717630 0.000000 
#    z -0.004660 0.000000 1.657200 
# 
# From -- ./inp_files/216338.got.cif
#   From: 2010.05.17/outbox.cif.g08.bks.cpg/sg12_109_cif.got.tgz:216338.got - 2010.06.03 13:09:07.
