data_PCOD9192885
_publ_section_title
;
Structure prediction by ZEFSAII (Michael W. Deem and Ramdas Pophale) SiO2 
 PCOD9192885
Probable space group: C 2/M
;
_chemical_formula_sum "Si O2"
_cell_formula_units_Z 48
_cell_length_a 23.227372
_cell_length_b 7.415559
_cell_length_c 20.005237
_cell_angle_alpha 90.000000
_cell_angle_beta 36.985839
_cell_angle_gamma 90.000000
_cell_volume 2073.042549
_symmetry_space_group_name_H-M "C 2/M"
_symmetry_group_IT_number 12
_symmetry_cell_setting 'monoclinic'
loop_
_space_group_symop_operation_xyz
x,y,z
-x,y,-z
-x,-y,-z
x,-y,z
1/2+x,1/2+y,z
1/2-x,1/2+y,-z
1/2-x,1/2-y,-z
1/2+x,1/2-y,z
loop_
_atom_site_type_symbol
_atom_site_label
_atom_site_fract_x
_atom_site_fract_y
_atom_site_fract_z
Si Si1 0.607881 0.206480 0.430649
Si Si2 0.675605 0.785863 0.231098
Si Si3 0.023177 0.721469 0.643894
Si Si4 0.594506 0.219921 0.827672
Si Si5 0.382961 0.784423 0.042037
Si Si6 0.158861 0.284929 0.630377
O O1 0.500000 0.202754 0.500000
O O2 0.668474 0.290054 0.313897
O O3 0.592052 0.284362 0.518983
O O4 0.639710 0.000000 0.410646
O O5 0.584895 0.720469 0.272682
O O6 0.781033 0.759338 0.104687
O O7 0.660957 0.000000 0.251825
O O8 0.024413 0.500000 0.641236
O O9 0.067412 0.779843 0.672733
O O10 0.618500 0.284225 0.879868
O O11 0.658921 0.283103 0.706289
O O12 0.599084 0.000000 0.826271
O O13 0.483689 0.272653 0.917160
O O14 0.388226 0.000000 0.039762
O O15 0.149975 0.500000 0.643841
O O16 0.250000 0.250000 0.500000
#
# Coordination Sequence:
#
# PCOD9192885 Si02
#       6
#     8   8   8   8   8   8
#     4   7  11  21  38  61  89 118 145 175 217 272
#     4   9  16  27  47  73  96 119 154 199 240 277
#     4   8  15  28  45  67  96 127 154 185 235 294
#     4   8  17  34  51  67  93 130 166 193 226 284
#     4   9  17  32  52  69  91 128 166 196 230 275
#     4  10  20  34  52  72  95 126 161 195 235 285
#
# _framework density 23.154373
#
# number of rings (size 3 to 8) (size 9 to 14) (size 15 to 20)
#    0.000    3.500    0.000    3.000    2.333    0.000 
#    0.000    4.167    0.000    4.500    0.000    0.000 
#    0.000    0.000    0.000    0.000    0.000    0.000 
#
# Total GULP energy -133820.569065 kJ/mol
# GULP energy per Si atom -5575.857044 kJ/mol
# Density = 2.310167 g / cm^3
# Si number density = 23.154373 Si / 1000 Ang^3
#
#
#
# Elastic Constant Matrix: (Units=GPa)
#
#
# Indices 1 2 3 4 5 6 
#
# 1 53.7967 1.0041 24.5548 0.0051 -5.7475 -0.0028
# 2 1.0041 74.3995 -4.3130 0.0035 5.2700 0.0059
# 3 24.5548 -4.3130 96.4540 0.0111 -12.3440 -0.0037
# 4 0.0051 0.0035 0.0111 13.9492 -0.0039 -8.4698
# 5 -5.7475 5.2700 -12.3440 -0.0039 40.6793 0.0000
# 6 -0.0028 0.0059 -0.0037 -8.4698 0.0000 1.1833
#
#
#
# Elastic Compliance Matrix: (Units=1/GPa)
#
#
# Indices 1 2 3 4 5 6 
#
# 1 0.021145 -0.000694 -0.005223 -0.000006 0.001493 -0.000005
# 2 -0.000694 0.013603 0.000569 0.000013 -0.001688 0.000029
# 3 -0.005223 0.000569 0.012088 -0.000002 0.002857 0.000008
# 4 -0.000006 0.000013 -0.000002 -0.021425 -0.000005 -0.153352
# 5 0.001493 -0.001688 0.002857 -0.000005 0.025879 -0.000017
# 6 -0.000005 0.000029 0.000008 -0.153352 -0.000017 -0.252562
#
#
# Mechanical properties :
#
#
# Convention : Reuss Voigt Hill
#
# Bulk Modulus (GPa) = 27.67006 29.68244 28.67625
# Shear Modulus (GPa) = -28.00656 24.72264 -1.64196
#
# Velocity S-wave (km/s) = -3.48164 3.27116 -0.84302
# Velocity P-wave (km/s) = 2.04604 5.20716 3.38587
#
# Compressibility (1/GPa) = 0.03614015
#
# Stress axis : x y z
#
# Youngs Moduli (GPa) = 47.29280 73.51406 82.72476
#
# Poissons Ratio (x) = 0.05101 0.43207
# Poissons Ratio (y) = 0.03282 -0.04706
# Poissons Ratio (z) = 0.24701 -0.04182
#
# Static dielectric constant tensor:
#      x y z
#    x 1.882780 0.000000 0.007570 
#    y 0.000000 1.907290 0.000000 
#    z 0.007570 0.000000 1.911680 
# 
# From -- ./inp_files/327187.got.cif
#   From: 2010.05.17/outbox.cif.g08.bks.cpg/sg12_164_cif.got.tgz:327187.got - 2010.06.03 13:09:07.
