data_PCOD9192852
_publ_section_title
;
Structure prediction by ZEFSAII (Michael W. Deem and Ramdas Pophale) SiO2 
 PCOD9192852
Probable space group: C 2/M
;
_chemical_formula_sum "Si O2"
_cell_formula_units_Z 44
_cell_length_a 27.504907
_cell_length_b 7.656306
_cell_length_c 28.635308
_cell_angle_alpha 90.000000
_cell_angle_beta 22.626685
_cell_angle_gamma 90.000000
_cell_volume 2319.968144
_symmetry_space_group_name_H-M "C 2/M"
_symmetry_group_IT_number 12
_symmetry_cell_setting 'monoclinic'
loop_
_space_group_symop_operation_xyz
x,y,z
-x,y,-z
-x,-y,-z
x,-y,z
1/2+x,1/2+y,z
1/2-x,1/2+y,-z
1/2-x,1/2-y,-z
1/2+x,1/2-y,z
loop_
_atom_site_type_symbol
_atom_site_label
_atom_site_fract_x
_atom_site_fract_y
_atom_site_fract_z
Si Si1 0.702894 0.290084 0.397966
Si Si2 0.771856 0.000000 0.206658
Si Si3 0.417820 0.303384 0.634764
Si Si4 0.869909 0.200339 0.789563
Si Si5 0.144506 0.791482 0.555740
Si Si6 0.321448 0.500000 0.051687
Si Si7 0.610654 0.500000 0.804344
O O1 0.725764 0.500000 0.375278
O O2 0.564860 0.257819 0.497363
O O3 0.686771 0.235529 0.466629
O O4 0.811718 0.170635 0.280522
O O5 0.682489 0.833329 0.294666
O O6 0.884346 0.000000 0.143772
O O7 0.808598 0.000000 0.119720
O O8 0.394639 0.500000 0.638327
O O9 0.398168 0.304226 0.708611
O O10 0.753902 0.330310 0.899572
O O11 0.002331 0.270711 0.693083
O O12 0.844954 0.000000 0.826341
O O13 0.250000 0.750000 0.500000
O O14 0.130705 0.000000 0.564906
O O15 0.469330 0.500000 0.910252
#
# Coordination Sequence:
#
# PCOD9192852 Si02
#       7
#     8   4   8   8   8   4   4
#     4   9  20  36  50  76 112 138 167 207 266 328
#     4  10  20  34  51  77 100 130 188 237 253 290
#     4   8  15  31  53  73 103 135 163 213 274 319
#     4   8  16  32  52  77 103 130 171 213 259 309
#     4   9  18  31  56  90 108 125 159 213 269 318
#     4  10  21  36  54  70 100 148 188 218 248 294
#     4  12  24  34  51  73 104 148 184 215 257 300
#
# _framework density 18.965778
#
# number of rings (size 3 to 8) (size 9 to 14) (size 15 to 20)
#    0.000    2.909    0.000    3.000    2.545    4.364 
#    0.000    1.818    0.000    6.545    0.000    0.000 
#    0.000    0.000    0.000    0.000    0.000    0.000 
#
# Total GULP energy -122724.081477 kJ/mol
# GULP energy per Si atom -5578.367340 kJ/mol
# Density = 1.892261 g / cm^3
# Si number density = 18.965778 Si / 1000 Ang^3
#
#
#
# Elastic Constant Matrix: (Units=GPa)
#
#
# Indices 1 2 3 4 5 6 
#
# 1 48.5792 8.4032 13.8828 -0.0020 -23.8967 0.0018
# 2 8.4032 81.5194 57.2053 -0.0050 -17.9286 0.0017
# 3 13.8828 57.2053 113.6007 -0.0124 -33.0893 0.0054
# 4 -0.0020 -0.0050 -0.0124 14.3106 0.0037 5.7220
# 5 -23.8967 -17.9286 -33.0893 0.0037 30.8563 -0.0010
# 6 0.0018 0.0017 0.0054 5.7220 -0.0010 12.1394
#
#
#
# Elastic Compliance Matrix: (Units=1/GPa)
#
#
# Indices 1 2 3 4 5 6 
#
# 1 0.035328 -0.000153 0.005385 0.000003 0.033046 -0.000006
# 2 -0.000153 0.018999 -0.009260 -0.000003 0.000991 0.000003
# 3 0.005385 -0.009260 0.018113 0.000013 0.018214 -0.000012
# 4 0.000003 -0.000003 0.000013 0.086106 0.000004 -0.040586
# 5 0.033046 0.000991 0.018214 0.000004 0.078109 -0.000008
# 6 -0.000006 0.000003 -0.000012 -0.040586 -0.000008 0.101507
#
#
# Mechanical properties :
#
#
# Convention : Reuss Voigt Hill
#
# Bulk Modulus (GPa) = 15.53159 44.74243 30.13701
# Shear Modulus (GPa) = 13.59886 22.40848 18.00367
#
# Velocity S-wave (km/s) = 2.68063 3.44106 3.08437
# Velocity P-wave (km/s) = 4.21759 6.27935 5.34875
#
# Compressibility (1/GPa) = 0.06438492
#
# Stress axis : x y z
#
# Youngs Moduli (GPa) = 28.30593 52.63547 55.20920
#
# Poissons Ratio (x) = 0.00805 -0.29732
# Poissons Ratio (y) = 0.00433 0.51123
# Poissons Ratio (z) = -0.15243 0.48740
#
# Static dielectric constant tensor:
#      x y z
#    x 1.693910 0.000000 0.002560 
#    y 0.000000 1.663560 0.000000 
#    z 0.002560 0.000000 1.644100 
# 
# From -- ./inp_files/383672.got.cif
#   From: 2010.05.17/outbox.cif.g08.bks.cpg/sg12_192_cif.got.tgz:383672.got - 2010.06.03 13:09:07.
