data_PCOD9192370
_publ_section_title
;
Structure prediction by ZEFSAII (Michael W. Deem and Ramdas Pophale) SiO2 
 PCOD9192370
Probable space group: C 2/M
;
_chemical_formula_sum "Si O2"
_cell_formula_units_Z 64
_cell_length_a 14.546243
_cell_length_b 27.323136
_cell_length_c 10.227996
_cell_angle_alpha 90.000000
_cell_angle_beta 91.137086
_cell_angle_gamma 90.000000
_cell_volume 4064.306020
_symmetry_space_group_name_H-M "C 2/M"
_symmetry_group_IT_number 12
_symmetry_cell_setting 'monoclinic'
loop_
_space_group_symop_operation_xyz
x,y,z
-x,y,-z
-x,-y,-z
x,-y,z
1/2+x,1/2+y,z
1/2-x,1/2+y,-z
1/2-x,1/2-y,-z
1/2+x,1/2-y,z
loop_
_atom_site_type_symbol
_atom_site_label
_atom_site_fract_x
_atom_site_fract_y
_atom_site_fract_z
Si Si1 0.199238 0.695699 0.849887
Si Si2 0.335471 0.614248 0.249770
Si Si3 0.110150 0.942062 0.501406
Si Si4 0.998870 0.815855 0.657365
Si Si5 0.712888 0.801121 0.154766
Si Si6 0.002700 0.271856 0.147444
Si Si7 0.610779 0.442469 0.009468
Si Si8 0.670893 0.619705 0.262359
O O1 0.237645 0.749403 0.807175
O O2 0.088768 0.695349 0.850464
O O3 0.239108 0.651319 0.766687
O O4 0.234007 0.690872 0.001000
O O5 0.339624 0.574974 0.365729
O O6 0.420984 0.649049 0.288678
O O7 0.251790 0.652332 0.233330
O O8 0.350769 0.585104 0.116338
O O9 0.163352 0.915814 0.385741
O O10 0.000000 0.928023 0.500000
O O11 0.111770 0.000000 0.485882
O O12 0.008776 0.765564 0.734796
O O13 0.000000 0.811313 0.500000
O O14 0.905266 0.839621 0.706294
O O15 0.603118 0.795564 0.164050
O O16 0.000000 0.248493 0.000000
O O17 0.636684 0.500000 0.014499
O O18 0.500000 0.440373 0.000000
O O19 0.643756 0.412862 0.136972
#
# Coordination Sequence:
#
# PCOD9192370 Si02
#       8
#     8   8   8   8   8   8   8   8
#     4  10  20  33  55  83 108 140 182 221 266 323
#     4  12  20  35  53  78 110 150 177 215 268 322
#     4  11  22  38  55  77 113 149 183 220 271 329
#     4  12  22  34  49  81 115 147 181 214 261 315
#     4  10  20  33  55  83 108 140 182 221 266 323
#     4  10  22  38  56  77 110 147 182 220 264 317
#     4  11  22  32  51  81 107 133 179 232 269 309
#     4  12  20  35  53  78 110 150 177 215 268 322
#
# _framework density 15.746845
#
# number of rings (size 3 to 8) (size 9 to 14) (size 15 to 20)
#    0.000    1.000    7.500    0.750    1.750    2.000 
#    2.250    1.875    0.000    0.000    0.000    5.250 
#    0.000    0.000    0.000    0.000    0.000    0.000 
#
# Total GULP energy -178416.726899 kJ/mol
# GULP energy per Si atom -5575.522716 kJ/mol
# Density = 1.571100 g / cm^3
# Si number density = 15.746845 Si / 1000 Ang^3
#
#
#
# Elastic Constant Matrix: (Units=GPa)
#
#
# Indices 1 2 3 4 5 6 
#
# 1 60.0841 16.1278 10.2651 0.0000 -11.1796 0.0000
# 2 16.1278 65.4145 29.1434 0.0000 -10.8561 0.0000
# 3 10.2651 29.1434 98.1278 0.0000 -8.9758 0.0000
# 4 0.0000 0.0000 0.0000 42.0911 0.0000 5.8512
# 5 -11.1796 -10.8561 -8.9758 0.0000 13.6387 0.0000
# 6 0.0000 0.0000 0.0000 5.8512 0.0000 11.6930
#
#
#
# Elastic Compliance Matrix: (Units=1/GPa)
#
#
# Indices 1 2 3 4 5 6 
#
# 1 0.020000 -0.002537 -0.000025 0.000000 0.014358 0.000000
# 2 -0.002537 0.019730 -0.004626 0.000000 0.010580 0.000000
# 3 -0.000025 -0.004626 0.011948 0.000000 0.004160 0.000000
# 4 0.000000 0.000000 0.000000 0.025534 0.000000 -0.012777
# 5 0.014358 0.010580 0.004160 0.000000 0.096250 0.000000
# 6 0.000000 0.000000 0.000000 -0.012777 0.000000 0.091915
#
#
# Mechanical properties :
#
#
# Convention : Reuss Voigt Hill
#
# Bulk Modulus (GPa) = 26.80938 37.18880 31.99909
# Shear Modulus (GPa) = 17.11230 24.69057 20.90143
#
# Velocity S-wave (km/s) = 3.30011 3.96405 3.64722
# Velocity P-wave (km/s) = 5.61989 6.67979 6.17263
#
# Compressibility (1/GPa) = 0.03730038
#
# Stress axis : x y z
#
# Youngs Moduli (GPa) = 49.99960 50.68519 83.69627
#
# Poissons Ratio (x) = 0.12858 0.00213
# Poissons Ratio (y) = 0.12684 0.38722
# Poissons Ratio (z) = 0.00127 0.23449
#
# Static dielectric constant tensor:
#      x y z
#    x 1.516470 0.000000 -0.005020 
#    y 0.000000 1.525120 0.000000 
#    z -0.005020 0.000000 1.564170 
# 
# From -- ./inp_files/66954.got.cif
#   From: 2010.05.17/outbox.cif.g08.bks.cpg/sg12_34_cif.got.tgz:66954.got - 2010.06.03 13:09:07.
