data_PCOD9192703
_publ_section_title
;
Structure prediction by ZEFSAII (Michael W. Deem and Ramdas Pophale) SiO2 
 PCOD9192703
Probable space group: C 2/M
;
_chemical_formula_sum "Si O2"
_cell_formula_units_Z 44
_cell_length_a 24.949669
_cell_length_b 10.179901
_cell_length_c 26.809235
_cell_angle_alpha 90.000000
_cell_angle_beta 161.649611
_cell_angle_gamma 90.000000
_cell_volume 2143.705704
_symmetry_space_group_name_H-M "C 2/M"
_symmetry_group_IT_number 12
_symmetry_cell_setting 'monoclinic'
loop_
_space_group_symop_operation_xyz
x,y,z
-x,y,-z
-x,-y,-z
x,-y,z
1/2+x,1/2+y,z
1/2-x,1/2+y,-z
1/2-x,1/2-y,-z
1/2+x,1/2-y,z
loop_
_atom_site_type_symbol
_atom_site_label
_atom_site_fract_x
_atom_site_fract_y
_atom_site_fract_z
Si Si1 0.773190 0.149477 0.223876
Si Si2 0.500000 0.795896 0.500000
Si Si3 0.919995 0.150617 0.586168
Si Si4 0.249769 0.850931 0.366203
Si Si5 0.981847 0.348213 0.082626
Si Si6 0.184448 0.147223 0.902169
O O1 0.927932 0.148550 0.320591
O O2 0.848028 0.216929 0.338676
O O3 0.735193 0.000000 0.202801
O O4 0.608122 0.198028 0.048118
O O5 0.405843 0.860847 0.464123
O O6 0.802368 0.266809 0.461548
O O7 0.848975 0.000000 0.523929
O O8 0.009641 0.178448 0.718299
O O9 0.111145 0.759023 0.217143
O O10 0.195161 0.000000 0.329257
O O11 0.046872 0.500000 0.136016
O O12 0.828965 0.356126 0.987378
O O13 0.168973 0.000000 0.909689
O O14 0.250000 0.250000 0.000000
#
# Coordination Sequence:
#
# PCOD9192703 Si02
#       6
#     8   4   8   8   8   8
#     4   8  15  30  53  76  98 130 174 213 251 302
#     4  10  20  34  50  74 105 136 171 218 263 304
#     4   8  16  33  54  75 101 135 170 209 254 301
#     4  11  22  35  51  74 104 139 176 214 258 306
#     4   9  19  36  54  76 106 137 169 212 258 301
#     4   9  18  34  58  84 107 132 167 209 257 310
#
# _framework density 20.525205
#
# number of rings (size 3 to 8) (size 9 to 14) (size 15 to 20)
#    0.000    2.909    0.000    3.273    0.000    4.364 
#    0.000   11.818    0.000    0.000    0.000    0.000 
#    0.000    0.000    0.000    0.000    0.000    0.000 
#
# Total GULP energy -122556.138900 kJ/mol
# GULP energy per Si atom -5570.733586 kJ/mol
# Density = 2.047849 g / cm^3
# Si number density = 20.525205 Si / 1000 Ang^3
#
#
#
# Elastic Constant Matrix: (Units=GPa)
#
#
# Indices 1 2 3 4 5 6 
#
# 1 49.1709 21.5007 18.0173 -0.0001 -21.3308 -0.0010
# 2 21.5007 156.2171 115.1230 0.0328 -41.5888 -0.0028
# 3 18.0173 115.1230 142.9275 0.0244 -41.3988 -0.0014
# 4 -0.0001 0.0328 0.0244 -31.3839 0.0117 27.8996
# 5 -21.3308 -41.5888 -41.3988 0.0117 40.0619 -0.0022
# 6 -0.0010 -0.0028 -0.0014 27.8996 -0.0022 -0.8472
#
#
#
# Elastic Compliance Matrix: (Units=1/GPa)
#
#
# Indices 1 2 3 4 5 6 
#
# 1 0.026618 -0.000984 0.001779 0.000002 0.014989 -0.000004
# 2 -0.000984 0.016411 -0.011862 0.000001 0.004255 -0.000009
# 3 0.001779 -0.011862 0.018602 0.000000 0.007856 -0.000005
# 4 0.000002 0.000001 0.000000 0.001127 0.000004 0.037110
# 5 0.014989 0.004255 0.007856 0.000004 0.045477 -0.000026
# 6 -0.000004 -0.000009 -0.000005 0.037110 -0.000026 0.041745
#
#
# Mechanical properties :
#
#
# Convention : Reuss Voigt Hill
#
# Bulk Modulus (GPa) = 25.31831 73.06639 49.19235
# Shear Modulus (GPa) = 26.98588 14.47779 20.73183
#
# Velocity S-wave (km/s) = 3.62991 2.65875 3.18160
# Velocity P-wave (km/s) = 5.47086 6.71572 6.12500
#
# Compressibility (1/GPa) = 0.03949710
#
# Stress axis : x y z
#
# Youngs Moduli (GPa) = 37.56821 60.93347 53.75634
#
# Poissons Ratio (x) = 0.05994 -0.09561
# Poissons Ratio (y) = 0.03696 0.63768
# Poissons Ratio (z) = -0.06682 0.72281
#
# Static dielectric constant tensor:
#      x y z
#    x 1.794970 0.000000 0.009610 
#    y 0.000000 1.713370 0.000000 
#    z 0.009610 0.000000 1.762810 
# 
# From -- ./inp_files/108009.got.cif
#   From: 2010.05.17/outbox.cif.g08.bks.cpg/sg12_55_cif.got.tgz:108009.got - 2010.06.03 13:09:07.
