data_PCOD9192857
_publ_section_title
;
Structure prediction by ZEFSAII (Michael W. Deem and Ramdas Pophale) SiO2 
 PCOD9192857
Probable space group: C 2/M
;
_chemical_formula_sum "Si O2"
_cell_formula_units_Z 56
_cell_length_a 14.483711
_cell_length_b 27.215322
_cell_length_c 9.598980
_cell_angle_alpha 90.000000
_cell_angle_beta 130.217814
_cell_angle_gamma 90.000000
_cell_volume 2889.227015
_symmetry_space_group_name_H-M "C 2/M"
_symmetry_group_IT_number 12
_symmetry_cell_setting 'monoclinic'
loop_
_space_group_symop_operation_xyz
x,y,z
-x,y,-z
-x,-y,-z
x,-y,z
1/2+x,1/2+y,z
1/2-x,1/2+y,-z
1/2-x,1/2-y,-z
1/2+x,1/2-y,z
loop_
_atom_site_type_symbol
_atom_site_label
_atom_site_fract_x
_atom_site_fract_y
_atom_site_fract_z
Si Si1 0.717610 0.349756 0.753940
Si Si2 0.403904 0.399062 0.795226
Si Si3 0.285926 0.844252 0.251563
Si Si4 0.202412 0.695857 0.431655
Si Si5 0.628503 0.443501 0.544965
Si Si6 0.565214 0.807698 0.847670
Si Si7 0.065682 0.189622 0.848939
O O1 0.705968 0.326454 0.590500
O O2 0.716767 0.407415 0.717681
O O3 0.606664 0.335953 0.745878
O O4 0.832224 0.325827 0.945135
O O5 0.280329 0.394355 0.764526
O O6 0.386856 0.426196 0.631427
O O7 0.458133 0.344065 0.808264
O O8 0.500000 0.420201 0.000000
O O9 0.312220 0.822221 0.426308
O O10 0.397619 0.837063 0.256621
O O11 0.178488 0.816218 0.064936
O O12 0.250000 0.750000 0.500000
O O13 0.071540 0.683438 0.239857
O O14 0.500000 0.440179 0.500000
O O15 0.667866 0.500000 0.585104
O O16 0.558702 0.748259 0.820245
#
# Coordination Sequence:
#
# PCOD9192857 Si02
#       7
#     8   8   8   8   8   8   8
#     4  11  22  38  57  84 123 164 197 255 307 364
#     4  10  20  37  62  86 122 160 200 257 311 371
#     4  10  20  34  51  77 114 160 198 240 294 349
#     4  12  22  33  55  85 116 160 211 247 295 359
#     4  11  23  41  66  94 120 156 207 266 322 373
#     4  11  23  36  53  83 126 167 205 244 294 375
#     4  10  20  36  53  82 126 165 198 239 298 369
#
# _framework density 19.382346999999999
#
# number of rings (size 3 to 8) (size 9 to 14) (size 15 to 20)
#    0.000    1.286    2.857    5.143    0.000    2.571 
#    0.000    0.000    0.000    1.714    0.000    1.000 
#    0.000    0.000    0.000    0.000    0.000    0.000 
#
# Total GULP energy -155892.916287 kJ/mol
# GULP energy per Si atom -5567.604153 kJ/mol
# Density = 1.933823 g / cm^3
# Si number density = 19.382347 Si / 1000 Ang^3
#
#
#
# Elastic Constant Matrix: (Units=GPa)
#
#
# Indices 1 2 3 4 5 6 
#
# 1 92.0477 10.1777 26.1546 0.0000 -27.2066 0.0000
# 2 10.1777 97.1667 27.0128 0.0000 -10.2947 0.0000
# 3 26.1546 27.0128 77.8767 0.0000 -23.9983 0.0000
# 4 0.0000 0.0000 0.0000 30.6949 0.0000 -4.3700
# 5 -27.2066 -10.2947 -23.9983 0.0000 40.7815 0.0000
# 6 0.0000 0.0000 0.0000 -4.3700 0.0000 11.1569
#
#
#
# Elastic Compliance Matrix: (Units=1/GPa)
#
#
# Indices 1 2 3 4 5 6 
#
# 1 0.013834 0.000004 -0.002203 0.000000 0.007934 0.000000
# 2 0.000004 0.011405 -0.003749 0.000000 0.000675 0.000000
# 3 -0.002203 -0.003749 0.017268 0.000000 0.007746 0.000000
# 4 0.000000 0.000000 0.000000 0.034503 0.000000 0.013514
# 5 0.007934 0.000675 0.007746 0.000000 0.034543 0.000000
# 6 0.000000 0.000000 0.000000 0.013514 0.000000 0.094924
#
#
# Mechanical properties :
#
#
# Convention : Reuss Voigt Hill
#
# Bulk Modulus (GPa) = 32.66741 43.75349 38.21045
# Shear Modulus (GPa) = 21.87454 30.10973 25.99213
#
# Velocity S-wave (km/s) = 3.36308 3.94567 3.66597
# Velocity P-wave (km/s) = 5.65431 6.58640 6.13807
#
# Compressibility (1/GPa) = 0.03061155
#
# Stress axis : x y z
#
# Youngs Moduli (GPa) = 72.28307 87.68057 57.91092
#
# Poissons Ratio (x) = -0.00034 0.12755
# Poissons Ratio (y) = -0.00028 0.21712
# Poissons Ratio (z) = 0.15921 0.32873
#
# Static dielectric constant tensor:
#      x y z
#    x 1.717060 0.000000 0.045560 
#    y 0.000000 1.665310 0.000000 
#    z 0.045560 0.000000 1.729920 
# 
# From -- ./inp_files/65991.got.cif
#   From: 2010.05.17/outbox.cif.g08.bks.cpg/sg12_33_cif.got.tgz:65991.got - 2010.06.03 13:09:07.
