data_PCOD9192192
_publ_section_title
;
Structure prediction by ZEFSAII (Michael W. Deem and Ramdas Pophale) SiO2 
 PCOD9192192
Probable space group: C 2/M
;
_chemical_formula_sum "Si O2"
_cell_formula_units_Z 64
_cell_length_a 15.998464
_cell_length_b 8.365645
_cell_length_c 24.478511
_cell_angle_alpha 90.000000
_cell_angle_beta 89.824789
_cell_angle_gamma 90.000000
_cell_volume 3276.126672
_symmetry_space_group_name_H-M "C 2/M"
_symmetry_group_IT_number 12
_symmetry_cell_setting 'monoclinic'
loop_
_space_group_symop_operation_xyz
x,y,z
-x,y,-z
-x,-y,-z
x,-y,z
1/2+x,1/2+y,z
1/2-x,1/2+y,-z
1/2-x,1/2-y,-z
1/2+x,1/2-y,z
loop_
_atom_site_type_symbol
_atom_site_label
_atom_site_fract_x
_atom_site_fract_y
_atom_site_fract_z
Si Si1 0.969965 0.805214 0.560763
Si Si2 0.374081 0.691467 0.366350
Si Si3 0.971354 0.807039 0.060124
Si Si4 0.373067 0.808411 0.242487
Si Si5 0.720584 0.307943 0.941177
Si Si6 0.214602 0.306244 0.174804
Si Si7 0.532192 0.192033 0.173738
Si Si8 0.221407 0.191754 0.440312
O O1 0.874188 0.752523 0.570866
O O2 0.000000 0.757954 0.500000
O O3 0.041321 0.751506 0.603011
O O4 0.969096 0.000000 0.561943
O O5 0.374139 0.745072 0.303866
O O6 0.291135 0.751626 0.397393
O O7 0.873583 0.000000 0.369292
O O8 0.875164 0.758745 0.067790
O O9 0.022335 0.738768 0.110537
O O10 0.976816 0.000000 0.061747
O O11 0.000000 0.754251 0.000000
O O12 0.289597 0.756536 0.211287
O O13 0.453586 0.746726 0.208443
O O14 0.376419 0.000000 0.243699
O O15 0.723292 0.500000 0.942231
O O16 0.772095 0.253578 0.888209
O O17 0.750000 0.250000 0.000000
O O18 0.217909 0.500000 0.175590
O O19 0.122883 0.253440 0.193977
O O20 0.530869 0.000000 0.176807
O O21 0.250000 0.250000 0.500000
O O22 0.220079 0.000000 0.440585
#
# Coordination Sequence:
#
# PCOD9192192 Si02
#       8
#     8   8   8   8   8   8   8   8
#     4   9  18  36  61  89 124 163 201 240 292 357
#     4  11  23  41  64  89 120 163 205 246 297 353
#     4  10  20  34  54  84 119 152 192 242 296 358
#     4  11  24  42  61  87 120 155 199 251 299 353
#     4  10  20  33  53  82 116 152 192 239 294 357
#     4  10  21  40  62  85 115 156 199 244 299 360
#     4  10  22  39  61  86 115 152 197 249 300 351
#     4  11  21  37  62  93 128 163 203 249 297 353
#
# _framework density 19.535264000000002
#
# number of rings (size 3 to 8) (size 9 to 14) (size 15 to 20)
#    0.000    1.750    2.500    1.875    0.000    3.250 
#    0.000    5.625    0.000    0.000    0.000    0.000 
#    0.000    0.000    0.000    0.000    0.000    0.000 
#
# Total GULP energy -178727.095900 kJ/mol
# GULP energy per Si atom -5585.221747 kJ/mol
# Density = 1.949080 g / cm^3
# Si number density = 19.535264 Si / 1000 Ang^3
#
#
#
# Elastic Constant Matrix: (Units=GPa)
#
#
# Indices 1 2 3 4 5 6 
#
# 1 206.1952 30.6060 93.6879 0.0000 2.3014 0.0000
# 2 30.6060 18.0905 17.3766 0.0000 -0.0416 0.0000
# 3 93.6879 17.3766 152.4493 0.0000 1.9144 0.0000
# 4 0.0000 0.0000 0.0000 32.1016 0.0000 2.6389
# 5 2.3014 -0.0416 1.9144 0.0000 29.5872 0.0000
# 6 0.0000 0.0000 0.0000 2.6389 0.0000 17.1012
#
#
#
# Elastic Compliance Matrix: (Units=1/GPa)
#
#
# Indices 1 2 3 4 5 6 
#
# 1 0.008071 -0.009990 -0.003816 0.000000 -0.000395 0.000000
# 2 -0.009990 0.074448 -0.002359 0.000000 0.001034 0.000000
# 3 -0.003816 -0.002359 0.009178 0.000000 -0.000300 0.000000
# 4 0.000000 0.000000 0.000000 0.031551 0.000000 -0.004869
# 5 -0.000395 0.001034 -0.000300 0.000000 0.033850 0.000000
# 6 0.000000 0.000000 0.000000 -0.004869 0.000000 0.059227
#
#
# Mechanical properties :
#
#
# Convention : Reuss Voigt Hill
#
# Bulk Modulus (GPa) = 16.84499 73.34178 45.09339
# Shear Modulus (GPa) = 18.62584 31.42898 25.02741
#
# Velocity S-wave (km/s) = 3.09114 4.01538 3.58318
# Velocity P-wave (km/s) = 4.62405 7.68911 6.34446
#
# Compressibility (1/GPa) = 0.05936482
#
# Stress axis : x y z
#
# Youngs Moduli (GPa) = 123.89920 13.43225 108.96023
#
# Poissons Ratio (x) = 0.13419 0.41584
# Poissons Ratio (y) = 1.23775 0.25708
# Poissons Ratio (z) = 0.47286 0.03169
#
# Static dielectric constant tensor:
#      x y z
#    x 1.701030 0.000000 -0.015100 
#    y 0.000000 1.681260 0.000000 
#    z -0.015100 0.000000 1.652690 
# 
# From -- ./inp_files/338904.got.cif
#   From: 2010.05.17/outbox.cif.g08.bks.cpg/sg12_170_cif.got.tgz:338904.got - 2010.06.03 13:09:07.
