data_PCOD9192018
_publ_section_title
;
Structure prediction by ZEFSAII (Michael W. Deem and Ramdas Pophale) SiO2 
 PCOD9192018
Probable space group: C 2/M
;
_chemical_formula_sum "Si O2"
_cell_formula_units_Z 56
_cell_length_a 27.390937
_cell_length_b 8.485574
_cell_length_c 13.787427
_cell_angle_alpha 90.000000
_cell_angle_beta 65.256607
_cell_angle_gamma 90.000000
_cell_volume 2910.373631
_symmetry_space_group_name_H-M "C 2/M"
_symmetry_group_IT_number 12
_symmetry_cell_setting 'monoclinic'
loop_
_space_group_symop_operation_xyz
x,y,z
-x,y,-z
-x,-y,-z
x,-y,z
1/2+x,1/2+y,z
1/2-x,1/2+y,-z
1/2-x,1/2-y,-z
1/2+x,1/2-y,z
loop_
_atom_site_type_symbol
_atom_site_label
_atom_site_fract_x
_atom_site_fract_y
_atom_site_fract_z
Si Si1 0.583767 0.687096 0.882775
Si Si2 0.910926 0.187869 0.899927
Si Si3 0.698182 0.192894 0.323712
Si Si4 0.021283 0.687293 0.751957
Si Si5 0.690351 0.313125 0.674093
Si Si6 0.123769 0.688793 0.551662
Si Si7 0.698549 0.188421 0.100866
O O1 0.570689 0.500000 0.888815
O O2 0.546359 0.774255 0.836698
O O3 0.644845 0.706841 0.794521
O O4 0.579273 0.740984 0.996978
O O5 0.856452 0.259946 0.904226
O O6 0.963099 0.235095 0.795078
O O7 0.905172 0.000000 0.907299
O O8 0.752482 0.242810 0.333982
O O9 0.647068 0.244929 0.429810
O O10 0.698577 0.245787 0.212411
O O11 0.698600 0.000000 0.322693
O O12 0.015708 0.500000 0.745742
O O13 0.066230 0.748079 0.638362
O O14 0.694064 0.500000 0.650378
O O15 0.667600 0.229701 0.597650
O O16 0.119362 0.500000 0.550711
O O17 0.701318 0.000000 0.100395
O O18 0.750000 0.250000 0.000000
#
# Coordination Sequence:
#
# PCOD9192018 Si02
#       7
#     8   8   8   8   8   8   8
#     4   9  18  32  51  76 107 142 175 212 265 325
#     4  11  22  37  56  77 105 143 182 218 262 315
#     4   9  18  34  55  76 103 142 180 213 256 314
#     4  10  20  33  52  80 110 138 174 222 268 311
#     4   9  16  29  51  78 106 135 170 212 261 315
#     4   9  18  33  52  77 108 139 174 215 260 311
#     4  11  23  40  60  81 106 137 175 218 262 310
#
# _framework density 19.241513999999999
#
# number of rings (size 3 to 8) (size 9 to 14) (size 15 to 20)
#    0.000    2.286    0.000    3.000    0.000    5.714 
#    0.000    6.429    0.000    4.286    0.000    0.000 
#    0.000    0.000    0.000    0.000    0.000    0.000 
#
# Total GULP energy -156312.449799 kJ/mol
# GULP energy per Si atom -5582.587493 kJ/mol
# Density = 1.919772 g / cm^3
# Si number density = 19.241514 Si / 1000 Ang^3
#
#
#
# Elastic Constant Matrix: (Units=GPa)
#
#
# Indices 1 2 3 4 5 6 
#
# 1 102.7454 16.8407 61.6262 0.0000 -29.0721 0.0000
# 2 16.8407 17.0701 19.7646 0.0000 -6.2351 0.0000
# 3 61.6262 19.7646 151.5178 0.0000 -19.7585 0.0000
# 4 0.0000 0.0000 0.0000 19.8062 0.0000 -2.1624
# 5 -29.0721 -6.2351 -19.7585 0.0000 15.4880 0.0000
# 6 0.0000 0.0000 0.0000 -2.1624 0.0000 29.5376
#
#
#
# Elastic Compliance Matrix: (Units=1/GPa)
#
#
# Indices 1 2 3 4 5 6 
#
# 1 0.023360 -0.004935 -0.004077 0.000000 0.036662 0.000000
# 2 -0.004935 0.075360 -0.006088 0.000000 0.013308 0.000000
# 3 -0.004077 -0.006088 0.009278 0.000000 0.001733 0.000000
# 4 0.000000 0.000000 0.000000 0.050896 0.000000 0.003726
# 5 0.036662 0.013308 0.001733 0.000000 0.140952 0.000000
# 6 0.000000 0.000000 0.000000 0.003726 0.000000 0.034128
#
#
# Mechanical properties :
#
#
# Convention : Reuss Voigt Hill
#
# Bulk Modulus (GPa) = 12.85347 51.97738 32.41543
# Shear Modulus (GPa) = 12.81700 24.50648 18.66174
#
# Velocity S-wave (km/s) = 2.58371 3.57266 3.11765
# Velocity P-wave (km/s) = 3.94909 6.64005 5.46286
#
# Compressibility (1/GPa) = 0.07780000
#
# Stress axis : x y z
#
# Youngs Moduli (GPa) = 42.80757 13.26957 107.78056
#
# Poissons Ratio (x) = 0.06549 0.43939
# Poissons Ratio (y) = 0.21126 0.65612
# Poissons Ratio (z) = 0.17451 0.08078
#
# Static dielectric constant tensor:
#      x y z
#    x 1.644780 0.000000 -0.023030 
#    y 0.000000 1.662760 0.000000 
#    z -0.023030 0.000000 1.690590 
# 
# From -- ./inp_files/180640.got.cif
#   From: 2010.05.17/outbox.cif.g08.bks.cpg/sg12_91_cif.got.tgz:180640.got - 2010.06.03 13:09:07.
