data_PCOD9192468
_publ_section_title
;
Structure prediction by ZEFSAII (Michael W. Deem and Ramdas Pophale) SiO2 
 PCOD9192468
Probable space group: C 2/M
;
_chemical_formula_sum "Si O2"
_cell_formula_units_Z 36
_cell_length_a 8.417635
_cell_length_b 23.284032
_cell_length_c 11.930831
_cell_angle_alpha 90.000000
_cell_angle_beta 126.945047
_cell_angle_gamma 90.000000
_cell_volume 1868.878888
_symmetry_space_group_name_H-M "C 2/M"
_symmetry_group_IT_number 12
_symmetry_cell_setting 'monoclinic'
loop_
_space_group_symop_operation_xyz
x,y,z
-x,y,-z
-x,-y,-z
x,-y,z
1/2+x,1/2+y,z
1/2-x,1/2+y,-z
1/2-x,1/2-y,-z
1/2+x,1/2-y,z
loop_
_atom_site_type_symbol
_atom_site_label
_atom_site_fract_x
_atom_site_fract_y
_atom_site_fract_z
Si Si1 0.704989 0.000000 0.853682
Si Si2 0.000000 0.278091 0.000000
Si Si3 0.500000 0.593990 0.000000
Si Si4 0.555211 0.683235 0.837905
Si Si5 0.992164 0.096645 0.363294
Si Si6 0.732437 0.000000 0.607047
Si Si7 0.665064 0.000000 0.171747
O O1 0.473561 0.000000 0.776648
O O2 0.810873 0.944580 0.948979
O O3 0.779129 0.000000 0.758218
O O4 0.795402 0.311976 0.933312
O O5 0.983917 0.239311 0.878602
O O6 0.530855 0.633641 0.119215
O O7 0.498990 0.658983 0.691901
O O8 0.000000 0.101794 0.500000
O O9 0.805522 0.056762 0.239897
O O10 0.176499 0.056689 0.407968
O O11 0.500000 0.000000 0.500000
O O12 0.500000 0.000000 0.000000
#
# Coordination Sequence:
#
# PCOD9192468 Si02
#       7
#     4   4   4   8   8   4   4
#     4  11  20  32  51  90 117 154 190 245 269 352
#     4   9  22  39  64  88 114 143 210 281 304 348
#     4  10  20  33  56  86 122 143 200 238 294 356
#     4  10  20  40  60  86 115 156 197 258 318 349
#     4  11  23  40  58  90 129 166 197 240 302 379
#     4  11  21  39  55  83 129 168 198 229 284 359
#     4  11  23  35  59  93 129 163 201 238 290 361
#
# _framework density 19.262886000000002
#
# number of rings (size 3 to 8) (size 9 to 14) (size 15 to 20)
#    0.000    1.556    2.222    4.000    7.778    0.000 
#    0.000    1.111    0.000    0.000    0.000    0.000 
#    0.000    0.000    0.000    0.000    0.000    0.000 
#
# Total GULP energy -100225.073346 kJ/mol
# GULP energy per Si atom -5568.059630 kJ/mol
# Density = 1.921904 g / cm^3
# Si number density = 19.262886 Si / 1000 Ang^3
#
#
#
# Elastic Constant Matrix: (Units=GPa)
#
#
# Indices 1 2 3 4 5 6 
#
# 1 104.9236 16.2225 20.4736 0.0000 3.8951 0.0000
# 2 16.2225 56.2027 21.9039 0.0000 0.9450 0.0000
# 3 20.4736 21.9039 93.7104 0.0000 -21.3011 0.0000
# 4 0.0000 0.0000 0.0000 -38.0627 0.0000 -40.9111
# 5 3.8951 0.9450 -21.3011 0.0000 44.8352 0.0000
# 6 0.0000 0.0000 0.0000 -40.9111 0.0000 -27.8240
#
#
#
# Elastic Compliance Matrix: (Units=1/GPa)
#
#
# Indices 1 2 3 4 5 6 
#
# 1 0.010356 -0.002098 -0.002205 0.000000 -0.001903 0.000000
# 2 -0.002098 0.020343 -0.004880 0.000000 -0.002565 0.000000
# 3 -0.002205 -0.004880 0.013857 0.000000 0.006878 0.000000
# 4 0.000000 0.000000 0.000000 0.045267 0.000000 -0.066558
# 5 -0.001903 -0.002565 0.006878 0.000000 0.025791 0.000000
# 6 0.000000 0.000000 0.000000 -0.066558 0.000000 0.061924
#
#
# Mechanical properties :
#
#
# Convention : Reuss Voigt Hill
#
# Bulk Modulus (GPa) = 38.18065 41.33740 39.75903
# Shear Modulus (GPa) = 24.43401 8.87215 16.65308
#
# Velocity S-wave (km/s) = 3.56539 2.14845 2.94346
# Velocity P-wave (km/s) = 6.06739 5.25934 5.67776
#
# Compressibility (1/GPa) = 0.02619127
#
# Stress axis : x y z
#
# Youngs Moduli (GPa) = 96.56277 49.15655 72.16671
#
# Poissons Ratio (x) = 0.10313 0.15911
# Poissons Ratio (y) = 0.20258 0.35215
# Poissons Ratio (z) = 0.21289 0.23987
#
# Static dielectric constant tensor:
#      x y z
#    x 1.685880 0.000000 -0.050500 
#    y 0.000000 1.702070 0.000000 
#    z -0.050500 0.000000 1.881580 
# 
# From -- ./inp_files/121494.got.cif
#   From: 2010.05.17/outbox.cif.g08.bks.cpg/sg12_61_cif.got.tgz:121494.got - 2010.06.03 13:09:07.
