data_PCOD9192565
_publ_section_title
;
Structure prediction by ZEFSAII (Michael W. Deem and Ramdas Pophale) SiO2 
 PCOD9192565
Probable space group: C 2/M
;
_chemical_formula_sum "Si O2"
_cell_formula_units_Z 40
_cell_length_a 19.894861
_cell_length_b 9.948816
_cell_length_c 24.309938
_cell_angle_alpha 90.000000
_cell_angle_beta 154.803093
_cell_angle_gamma 90.000000
_cell_volume 2048.475946
_symmetry_space_group_name_H-M "C 2/M"
_symmetry_group_IT_number 12
_symmetry_cell_setting 'monoclinic'
loop_
_space_group_symop_operation_xyz
x,y,z
-x,y,-z
-x,-y,-z
x,-y,z
1/2+x,1/2+y,z
1/2-x,1/2+y,-z
1/2-x,1/2-y,-z
1/2+x,1/2-y,z
loop_
_atom_site_type_symbol
_atom_site_label
_atom_site_fract_x
_atom_site_fract_y
_atom_site_fract_z
Si Si1 0.760942 0.500000 0.774246
Si Si2 0.683058 0.500000 0.142121
Si Si3 0.738830 0.000000 0.927282
Si Si4 0.869406 0.216255 0.168456
Si Si5 0.382611 0.000000 0.991844
Si Si6 0.898855 0.732593 0.319507
Si Si7 0.097090 0.500000 0.515833
Si Si8 0.461424 0.500000 0.775949
O O1 0.826520 0.500000 0.886168
O O2 0.649592 0.369408 0.685890
O O3 0.927214 0.500000 0.864047
O O4 0.751615 0.500000 0.131459
O O5 0.748624 0.634423 0.217420
O O6 0.500000 0.500000 0.000000
O O7 0.654550 0.859997 0.877769
O O8 0.912343 0.000000 0.081428
O O9 0.705506 0.130400 0.048132
O O10 0.914128 0.234618 0.265844
O O11 0.996251 0.127851 0.230479
O O12 0.042004 0.636374 0.443812
O O13 0.282644 0.500000 0.662142
O O14 0.000000 0.500000 0.500000
#
# Coordination Sequence:
#
# PCOD9192565 Si02
#       8
#     4   4   4   8   4   8   4   4
#     4   9  16  28  54  80 111 146 179 235 294 321
#     4   9  19  29  54  87 117 152 192 231 281 337
#     4  10  20  33  58  89 119 144 183 237 288 344
#     4   9  19  37  57  86 115 145 191 235 286 341
#     4   8  16  27  49  86 116 137 176 228 289 343
#     4   9  20  37  56  81 116 150 197 242 271 341
#     4  11  26  43  57  81 114 155 198 236 286 349
#     4  11  23  38  59  82 118 158 182 234 298 341
#
# _framework density 19.526712
#
# number of rings (size 3 to 8) (size 9 to 14) (size 15 to 20)
#    0.000    2.600    0.000    1.800   11.200    0.800 
#    0.000    1.500    0.000    0.000    0.000    0.000 
#    0.000    0.000    0.000    0.000    0.000    0.000 
#
# Total GULP energy -111506.163563 kJ/mol
# GULP energy per Si atom -5575.308178 kJ/mol
# Density = 1.948227 g / cm^3
# Si number density = 19.526712 Si / 1000 Ang^3
#
#
#
# Elastic Constant Matrix: (Units=GPa)
#
#
# Indices 1 2 3 4 5 6 
#
# 1 57.2065 41.2359 29.4202 -0.0002 13.2133 0.0000
# 2 41.2359 162.9006 40.7149 0.0007 6.8756 0.0000
# 3 29.4202 40.7149 74.1863 0.0002 14.1576 -0.0001
# 4 -0.0002 0.0007 0.0002 3.3399 0.0002 -0.1965
# 5 13.2133 6.8756 14.1576 0.0002 27.3666 0.0000
# 6 0.0000 0.0000 -0.0001 -0.1965 0.0000 -1.7980
#
#
#
# Elastic Compliance Matrix: (Units=1/GPa)
#
#
# Indices 1 2 3 4 5 6 
#
# 1 0.025894 -0.004674 -0.006149 0.000003 -0.008147 0.000000
# 2 -0.004674 0.007960 -0.002845 -0.000002 0.001729 0.000000
# 3 -0.006149 -0.002845 0.018614 0.000000 -0.005946 -0.000001
# 4 0.000003 -0.000002 0.000000 0.297498 -0.000003 -0.032519
# 5 -0.008147 0.001729 -0.005946 -0.000003 0.043116 0.000000
# 6 0.000000 0.000000 -0.000001 -0.032519 0.000000 -0.552607
#
#
# Mechanical properties :
#
#
# Convention : Reuss Voigt Hill
#
# Bulk Modulus (GPa) = 39.78934 57.44841 48.61887
# Shear Modulus (GPa) = -40.38371 17.97650 -11.20360
#
# Velocity S-wave (km/s) = -4.55260 3.03745 -2.39792
# Velocity P-wave (km/s) = 2.68585 6.46419 4.15764
#
# Compressibility (1/GPa) = 0.02513236
#
# Stress axis : x y z
#
# Youngs Moduli (GPa) = 38.61965 125.62923 53.72268
#
# Poissons Ratio (x) = 0.58718 0.33033
# Poissons Ratio (y) = 0.18050 0.15284
# Poissons Ratio (z) = 0.23746 0.35740
#
# Static dielectric constant tensor:
#      x y z
#    x 1.700730 0.000000 -0.031720 
#    y 0.000000 1.799740 0.000000 
#    z -0.031720 0.000000 1.655960 
# 
# From -- ./inp_files/382143.got.cif
#   From: 2010.05.17/outbox.cif.g08.bks.cpg/sg12_192_cif.got.tgz:382143.got - 2010.06.03 13:09:07.
