data_PCOD9192520
_publ_section_title
;
Structure prediction by ZEFSAII (Michael W. Deem and Ramdas Pophale) SiO2 
 PCOD9192520
Probable space group: C 2/M
;
_chemical_formula_sum "Si O2"
_cell_formula_units_Z 56
_cell_length_a 14.755074
_cell_length_b 18.595273
_cell_length_c 11.705961
_cell_angle_alpha 90.000000
_cell_angle_beta 116.496593
_cell_angle_gamma 90.000000
_cell_volume 2874.452138
_symmetry_space_group_name_H-M "C 2/M"
_symmetry_group_IT_number 12
_symmetry_cell_setting 'monoclinic'
loop_
_space_group_symop_operation_xyz
x,y,z
-x,y,-z
-x,-y,-z
x,-y,z
1/2+x,1/2+y,z
1/2-x,1/2+y,-z
1/2-x,1/2-y,-z
1/2+x,1/2-y,z
loop_
_atom_site_type_symbol
_atom_site_label
_atom_site_fract_x
_atom_site_fract_y
_atom_site_fract_z
Si Si1 0.922976 0.360262 0.059518
Si Si2 0.616917 0.721939 0.807987
Si Si3 0.246603 0.420419 0.747230
Si Si4 0.490308 0.921531 0.330990
Si Si5 0.205316 0.081726 0.956818
Si Si6 0.254042 0.736161 0.680575
Si Si7 0.087226 0.725237 0.400354
O O1 0.893295 0.284456 0.102677
O O2 0.976644 0.407437 0.188390
O O3 0.817631 0.399935 0.972622
O O4 0.000000 0.350307 0.000000
O O5 0.632452 0.643994 0.870337
O O6 0.712003 0.741079 0.779948
O O7 0.514996 0.730119 0.675841
O O8 0.275788 0.500000 0.720378
O O9 0.277673 0.349210 0.697272
O O10 0.124494 0.417947 0.687967
O O11 0.285245 0.414138 0.899890
O O12 0.554652 0.855485 0.411854
O O13 0.532934 0.000000 0.379618
O O14 0.176836 0.000000 0.911093
O O15 0.163754 0.751434 0.540023
O O16 0.352236 0.774670 0.685481
#
# Coordination Sequence:
#
# PCOD9192520 Si02
#       7
#     8   8   8   8   8   8   8
#     4  10  20  33  57  87 115 149 187 235 288 340
#     4  11  22  37  60  82 116 153 189 236 284 340
#     4   9  18  35  60  86 115 147 182 233 292 344
#     4   9  18  34  54  84 116 142 179 232 299 344
#     4  10  21  36  55  85 120 156 190 225 283 346
#     4  11  21  39  60  79 116 146 197 237 290 329
#     4  10  23  37  57  87 106 151 195 244 276 344
#
# _framework density 19.481974000000001
#
# number of rings (size 3 to 8) (size 9 to 14) (size 15 to 20)
#    0.000    2.000    4.286    2.143    4.000    1.714 
#    0.000    2.143    0.000    5.571    0.000    0.000 
#    0.000    0.000    0.000    0.000    0.000    0.000 
#
# Total GULP energy -156350.857108 kJ/mol
# GULP energy per Si atom -5583.959182 kJ/mol
# Density = 1.943763 g / cm^3
# Si number density = 19.481974 Si / 1000 Ang^3
#
#
#
# Elastic Constant Matrix: (Units=GPa)
#
#
# Indices 1 2 3 4 5 6 
#
# 1 49.9874 27.0609 23.7453 0.0000 -10.2497 0.0000
# 2 27.0609 131.5197 30.5247 0.0000 7.4921 0.0000
# 3 23.7453 30.5247 48.8719 0.0000 -6.5561 0.0000
# 4 0.0000 0.0000 0.0000 13.0653 0.0000 0.8875
# 5 -10.2497 7.4921 -6.5561 0.0000 22.5303 0.0000
# 6 0.0000 0.0000 0.0000 0.8875 0.0000 9.3418
#
#
#
# Elastic Compliance Matrix: (Units=1/GPa)
#
#
# Indices 1 2 3 4 5 6 
#
# 1 0.029645 -0.004467 -0.009995 0.000000 0.012063 0.000000
# 2 -0.004467 0.010085 -0.005048 0.000000 -0.006855 0.000000
# 3 -0.009995 -0.005048 0.029227 0.000000 0.005636 0.000000
# 4 0.000000 0.000000 0.000000 0.077036 0.000000 -0.007319
# 5 0.012063 -0.006855 0.005636 0.000000 0.053792 0.000000
# 6 0.000000 0.000000 0.000000 -0.007319 0.000000 0.107741
#
#
# Mechanical properties :
#
#
# Convention : Reuss Voigt Hill
#
# Bulk Modulus (GPa) = 33.40432 43.67120 38.53776
# Shear Modulus (GPa) = 14.02430 18.92403 16.47417
#
# Velocity S-wave (km/s) = 2.68593 3.12005 2.91109
# Velocity P-wave (km/s) = 5.17711 5.95353 5.57884
#
# Compressibility (1/GPa) = 0.02993624
#
# Stress axis : x y z
#
# Youngs Moduli (GPa) = 33.73277 99.16148 34.21504
#
# Poissons Ratio (x) = 0.44295 0.34199
# Poissons Ratio (y) = 0.15068 0.17271
# Poissons Ratio (z) = 0.33717 0.50055
#
# Static dielectric constant tensor:
#      x y z
#    x 1.673770 0.000000 -0.006200 
#    y 0.000000 1.682250 0.000000 
#    z -0.006200 0.000000 1.723160 
# 
# From -- ./inp_files/145660.got.cif
#   From: 2010.05.17/outbox.cif.g08.bks.cpg/sg12_73_cif.got.tgz:145660.got - 2010.06.03 13:09:07.
