data_PCOD9192396
_publ_section_title
;
Structure prediction by ZEFSAII (Michael W. Deem and Ramdas Pophale) SiO2 
 PCOD9192396
Probable space group: C 2/M
;
_chemical_formula_sum "Si O2"
_cell_formula_units_Z 48
_cell_length_a 14.405890
_cell_length_b 19.517165
_cell_length_c 9.577613
_cell_angle_alpha 90.000000
_cell_angle_beta 57.176997
_cell_angle_gamma 90.000000
_cell_volume 2262.944105
_symmetry_space_group_name_H-M "C 2/M"
_symmetry_group_IT_number 12
_symmetry_cell_setting 'monoclinic'
loop_
_space_group_symop_operation_xyz
x,y,z
-x,y,-z
-x,-y,-z
x,-y,z
1/2+x,1/2+y,z
1/2-x,1/2+y,-z
1/2-x,1/2-y,-z
1/2+x,1/2-y,z
loop_
_atom_site_type_symbol
_atom_site_label
_atom_site_fract_x
_atom_site_fract_y
_atom_site_fract_z
Si Si1 0.396397 0.579997 0.927867
Si Si2 0.806746 0.077780 0.690586
Si Si3 0.862533 0.080133 0.344158
Si Si4 0.677408 0.807485 0.478772
Si Si5 0.900957 0.676982 0.174477
Si Si6 0.229828 0.210654 0.870441
O O1 0.382646 0.500000 0.981811
O O2 0.366965 0.583449 0.787723
O O3 0.473737 0.598441 0.171269
O O4 0.313719 0.634419 0.063108
O O5 0.882841 0.088997 0.493591
O O6 0.705807 0.129788 0.761928
O O7 0.763652 0.000000 0.714144
O O8 0.755080 0.125589 0.405950
O O9 0.841051 0.000000 0.337400
O O10 0.750000 0.750000 0.500000
O O11 0.581577 0.819058 0.671890
O O12 0.667850 0.786811 0.323940
O O13 0.866602 0.749378 0.134432
O O14 0.000000 0.649660 0.000000
O O15 0.250000 0.250000 0.000000
#
# Coordination Sequence:
#
# PCOD9192396 Si02
#       6
#     8   8   8   8   8   8
#     4  10  20  33  55  85 116 148 182 227 284 343
#     4   9  17  34  56  82 116 149 185 232 281 333
#     4   9  18  33  56  86 115 147 185 229 284 338
#     4   9  21  37  55  78 115 148 184 231 277 328
#     4  10  21  38  58  82 109 146 191 238 277 324
#     4  11  22  38  56  80 115 152 186 225 283 339
#
# _framework density 21.211306
#
# number of rings (size 3 to 8) (size 9 to 14) (size 15 to 20)
#    0.000    2.333    1.667    0.500    4.667    3.000 
#    0.000    2.500    0.000    0.000    0.000    2.333 
#    0.000    0.000    0.000    0.000    0.000    0.000 
#
# Total GULP energy -133838.130866 kJ/mol
# GULP energy per Si atom -5576.588786 kJ/mol
# Density = 2.116303 g / cm^3
# Si number density = 21.211306 Si / 1000 Ang^3
#
#
#
# Elastic Constant Matrix: (Units=GPa)
#
#
# Indices 1 2 3 4 5 6 
#
# 1 29.5490 15.2509 36.5667 0.0000 5.0558 0.0000
# 2 15.2509 84.1148 42.9466 0.0000 -5.5742 0.0000
# 3 36.5667 42.9466 220.1801 0.0000 11.2862 0.0000
# 4 0.0000 0.0000 0.0000 29.9578 0.0000 1.5549
# 5 5.0558 -5.5742 11.2862 0.0000 33.7892 0.0000
# 6 0.0000 0.0000 0.0000 1.5549 0.0000 17.2772
#
#
#
# Elastic Compliance Matrix: (Units=1/GPa)
#
#
# Indices 1 2 3 4 5 6 
#
# 1 0.045231 -0.005424 -0.006167 0.000000 -0.005603 0.000000
# 2 -0.005424 0.014179 -0.002062 0.000000 0.003839 0.000000
# 3 -0.006167 -0.002062 0.006042 0.000000 -0.001435 0.000000
# 4 0.000000 0.000000 0.000000 0.033537 0.000000 -0.003018
# 5 -0.005603 0.003839 -0.001435 0.000000 0.031546 0.000000
# 6 0.000000 0.000000 0.000000 -0.003018 0.000000 0.058151
#
#
# Mechanical properties :
#
#
# Convention : Reuss Voigt Hill
#
# Bulk Modulus (GPa) = 26.21393 58.15246 42.18320
# Shear Modulus (GPa) = 21.86210 32.14351 27.00280
#
# Velocity S-wave (km/s) = 3.21391 3.89703 3.57184
# Velocity P-wave (km/s) = 5.11445 6.90829 6.07791
#
# Compressibility (1/GPa) = 0.03814766
#
# Stress axis : x y z
#
# Youngs Moduli (GPa) = 22.10862 70.52721 165.51907
#
# Poissons Ratio (x) = 0.38251 1.02071
# Poissons Ratio (y) = 0.11991 0.34125
# Poissons Ratio (z) = 0.13634 0.14541
#
# Static dielectric constant tensor:
#      x y z
#    x 1.764510 0.000000 0.043380 
#    y 0.000000 1.770710 0.000000 
#    z 0.043380 0.000000 1.887330 
# 
# From -- ./inp_files/76707.got.cif
#   From: 2010.05.17/outbox.cif.g08.bks.cpg/sg12_39_cif.got.tgz:76707.got - 2010.06.03 13:09:07.
