data_PCOD9192321
_publ_section_title
;
Structure prediction by ZEFSAII (Michael W. Deem and Ramdas Pophale) SiO2 
 PCOD9192321
Probable space group: C 2/M
;
_chemical_formula_sum "Si O2"
_cell_formula_units_Z 56
_cell_length_a 30.991362
_cell_length_b 11.749888
_cell_length_c 24.535979
_cell_angle_alpha 90.000000
_cell_angle_beta 20.182979
_cell_angle_gamma 90.000000
_cell_volume 3082.629113
_symmetry_space_group_name_H-M "C 2/M"
_symmetry_group_IT_number 12
_symmetry_cell_setting 'monoclinic'
loop_
_space_group_symop_operation_xyz
x,y,z
-x,y,-z
-x,-y,-z
x,-y,z
1/2+x,1/2+y,z
1/2-x,1/2+y,-z
1/2-x,1/2-y,-z
1/2+x,1/2-y,z
loop_
_atom_site_type_symbol
_atom_site_label
_atom_site_fract_x
_atom_site_fract_y
_atom_site_fract_z
Si Si1 0.350144 0.737299 0.017982
Si Si2 0.091588 0.630452 0.698293
Si Si3 0.312262 0.368141 0.951064
Si Si4 0.254072 0.209424 0.584814
Si Si5 0.095363 0.133836 0.341069
Si Si6 0.994156 0.868976 0.068105
Si Si7 0.445360 0.372237 0.406931
O O1 0.226325 0.803098 0.182380
O O2 0.452915 0.817917 0.866816
O O3 0.312697 0.646838 0.015710
O O4 0.418195 0.688904 0.990703
O O5 0.089045 0.500000 0.717782
O O6 0.179197 0.701592 0.635318
O O7 0.154195 0.642378 0.564628
O O8 0.266803 0.500000 0.990630
O O9 0.454783 0.365289 0.760513
O O10 0.250000 0.250000 0.000000
O O11 0.147295 0.139188 0.741745
O O12 0.339258 0.279745 0.525206
O O13 0.025958 0.143847 0.365623
O O14 0.000000 0.176959 0.500000
O O15 0.118279 0.000000 0.324474
O O16 0.033133 0.000000 0.018228
O O17 0.000000 0.819035 0.000000
O O18 0.391829 0.500000 0.470994
#
# Coordination Sequence:
#
# PCOD9192321 Si02
#       7
#     8   8   8   8   8   8   8
#     4  11  21  38  61  86 116 155 196 250 298 362
#     4  10  20  33  54  85 118 149 188 242 297 349
#     4  11  22  38  60  91 124 159 200 247 307 368
#     4  10  20  35  56  84 113 151 193 234 293 349
#     4  10  22  38  59  85 116 159 202 244 296 359
#     4  10  23  41  60  81 111 154 199 245 295 353
#     4  10  20  36  58  84 118 152 191 240 296 354
#
# _framework density 18.166312000000001
#
# number of rings (size 3 to 8) (size 9 to 14) (size 15 to 20)
#    0.000    1.714    2.857    1.714    2.000    0.571 
#    0.000    0.000    0.000    4.286    0.000    0.000 
#    0.000    0.000    0.000    0.000    0.000    0.000 
#
# Total GULP energy -156109.565181 kJ/mol
# GULP energy per Si atom -5575.341614 kJ/mol
# Density = 1.812496 g / cm^3
# Si number density = 18.166312 Si / 1000 Ang^3
#
#
#
# Elastic Constant Matrix: (Units=GPa)
#
#
# Indices 1 2 3 4 5 6 
#
# 1 80.6439 24.1128 32.7289 0.0000 15.2823 0.0000
# 2 24.1128 75.1851 25.5808 -0.0001 -4.9585 -0.0001
# 3 32.7289 25.5808 102.0998 0.0000 9.2792 -0.0001
# 4 0.0000 -0.0001 0.0000 13.3392 -0.0001 11.1465
# 5 15.2823 -4.9585 9.2792 -0.0001 27.3568 0.0001
# 6 0.0000 -0.0001 -0.0001 11.1465 0.0001 10.9555
#
#
#
# Elastic Compliance Matrix: (Units=1/GPa)
#
#
# Indices 1 2 3 4 5 6 
#
# 1 0.016988 -0.004908 -0.003377 -0.000001 -0.009234 0.000001
# 2 -0.004908 0.016394 -0.003150 0.000001 0.006782 -0.000001
# 3 -0.003377 -0.003150 0.011914 -0.000001 -0.002726 0.000001
# 4 -0.000001 0.000001 -0.000001 0.500403 0.000004 -0.509127
# 5 -0.009234 0.006782 -0.002726 0.000004 0.043866 -0.000004
# 6 0.000001 -0.000001 0.000001 -0.509127 -0.000004 0.609281
#
#
# Mechanical properties :
#
#
# Convention : Reuss Voigt Hill
#
# Bulk Modulus (GPa) = 44.59328 46.97487 45.78407
# Shear Modulus (GPa) = 4.06771 22.03071 13.04921
#
# Velocity S-wave (km/s) = 1.49800 3.48620 2.68306
# Velocity P-wave (km/s) = 5.25286 6.48992 5.90388
#
# Compressibility (1/GPa) = 0.02242490
#
# Stress axis : x y z
#
# Youngs Moduli (GPa) = 58.86434 60.99841 83.93640
#
# Poissons Ratio (x) = 0.29941 0.28342
# Poissons Ratio (y) = 0.28894 0.26443
# Poissons Ratio (z) = 0.19876 0.19217
#
# Static dielectric constant tensor:
#      x y z
#    x 1.642580 0.000000 0.017540 
#    y 0.000000 1.637780 0.000000 
#    z 0.017540 0.000000 1.608410 
# 
# From -- ./inp_files/164893.got.cif
#   From: 2010.05.17/outbox.cif.g08.bks.cpg/sg12_83_cif.got.tgz:164893.got - 2010.06.03 13:09:07.
