data_PCOD9192280
_publ_section_title
;
Structure prediction by ZEFSAII (Michael W. Deem and Ramdas Pophale) SiO2 
 PCOD9192280
Probable space group: C 2/M
;
_chemical_formula_sum "Si O2"
_cell_formula_units_Z 50
_cell_length_a 14.394164
_cell_length_b 7.775797
_cell_length_c 20.268366
_cell_angle_alpha 90.000000
_cell_angle_beta 97.554391
_cell_angle_gamma 90.000000
_cell_volume 2248.869159
_symmetry_space_group_name_H-M "C 2/M"
_symmetry_group_IT_number 12
_symmetry_cell_setting 'monoclinic'
loop_
_space_group_symop_operation_xyz
x,y,z
-x,y,-z
-x,-y,-z
x,-y,z
1/2+x,1/2+y,z
1/2-x,1/2+y,-z
1/2-x,1/2-y,-z
1/2+x,1/2-y,z
loop_
_atom_site_type_symbol
_atom_site_label
_atom_site_fract_x
_atom_site_fract_y
_atom_site_fract_z
Si Si1 0.500000 0.000000 0.000000
Si Si2 0.256973 0.698321 0.598038
Si Si3 0.599450 0.699245 0.495053
Si Si4 0.185618 0.301222 0.255358
Si Si5 0.363009 0.696322 0.966535
Si Si6 0.304879 0.793353 0.138353
Si Si7 0.480260 0.791379 0.852672
O O1 0.580367 0.847591 0.992242
O O2 0.242554 0.500000 0.577228
O O3 0.340232 0.771698 0.559999
O O4 0.163194 0.792026 0.566161
O O5 0.282496 0.704143 0.676738
O O6 0.500000 0.782495 0.500000
O O7 0.582608 0.500000 0.475236
O O8 0.189187 0.500000 0.273803
O O9 0.253545 0.271995 0.199274
O O10 0.080832 0.265875 0.218898
O O11 0.363778 0.500000 0.992515
O O12 0.259954 0.752804 0.930611
O O13 0.423261 0.694062 0.903626
O O14 0.412711 0.738316 0.145707
O O15 0.304033 0.000000 0.141327
O O16 0.474615 0.000000 0.871422
#
# Coordination Sequence:
#
# PCOD9192280 Si02
#       7
#     2   8   8   8   8   8   8
#     4  12  22  40  64  82 124 150 194 240 276 338
#     4  10  20  34  52  75 109 139 181 231 272 331
#     4   9  19  36  55  74 101 143 181 225 282 331
#     4  10  20  33  54  82 110 146 185 227 281 334
#     4  10  21  38  62  86 114 155 191 233 286 338
#     4   9  19  36  60  84 113 146 186 231 286 339
#     4   9  18  37  60  83 114 149 182 233 287 337
#
# _framework density 22.233395000000002
#
# number of rings (size 3 to 8) (size 9 to 14) (size 15 to 20)
#    0.000    2.400    0.800    1.200    1.120    3.520 
#    0.000    4.000    0.000    0.000    0.000    0.000 
#    0.000    0.000    0.000    0.000    0.000    0.000 
#
# Total GULP energy -139444.953680 kJ/mol
# GULP energy per Si atom -5577.798147 kJ/mol
# Density = 2.218279 g / cm^3
# Si number density = 22.233395 Si / 1000 Ang^3
#
#
#
# Elastic Constant Matrix: (Units=GPa)
#
#
# Indices 1 2 3 4 5 6 
#
# 1 164.3888 15.8510 27.8039 0.0000 14.5029 0.0000
# 2 15.8510 56.2027 25.4217 0.0000 4.1790 0.0000
# 3 27.8039 25.4217 88.9677 0.0000 3.6275 0.0000
# 4 0.0000 0.0000 0.0000 13.3450 0.0000 5.0539
# 5 14.5029 4.1790 3.6275 0.0000 8.4011 0.0000
# 6 0.0000 0.0000 0.0000 5.0539 0.0000 21.1603
#
#
#
# Elastic Compliance Matrix: (Units=1/GPa)
#
#
# Indices 1 2 3 4 5 6 
#
# 1 0.007470 -0.000441 -0.001722 0.000000 -0.011932 0.000000
# 2 -0.000441 0.020972 -0.005558 0.000000 -0.007272 0.000000
# 3 -0.001722 -0.005558 0.013368 0.000000 -0.000034 0.000000
# 4 0.000000 0.000000 0.000000 0.082386 0.000000 -0.019677
# 5 -0.011932 -0.007272 -0.000034 0.000000 0.143263 0.000000
# 6 0.000000 0.000000 0.000000 -0.019677 0.000000 0.051958
#
#
# Mechanical properties :
#
#
# Convention : Reuss Voigt Hill
#
# Bulk Modulus (GPa) = 37.92549 49.74582 43.83565
# Shear Modulus (GPa) = 14.54977 24.61345 19.58161
#
# Velocity S-wave (km/s) = 2.56092 3.33084 2.97093
# Velocity P-wave (km/s) = 5.08324 6.10046 5.61493
#
# Compressibility (1/GPa) = 0.02636749
#
# Stress axis : x y z
#
# Youngs Moduli (GPa) = 133.87671 47.68296 74.80647
#
# Poissons Ratio (x) = 0.02101 0.12881
# Poissons Ratio (y) = 0.05898 0.41580
# Poissons Ratio (z) = 0.23053 0.26504
#
# Static dielectric constant tensor:
#      x y z
#    x 1.867720 0.000000 -0.003060 
#    y 0.000000 1.831910 0.000000 
#    z -0.003060 0.000000 1.790580 
# 
# From -- ./inp_files/308403.got.cif
#   From: 2010.05.17/outbox.cif.g08.bks.cpg/sg12_155_cif.got.tgz:308403.got - 2010.06.03 13:09:07.
