data_PCOD9192887
_publ_section_title
;
Structure prediction by ZEFSAII (Michael W. Deem and Ramdas Pophale) SiO2 
 PCOD9192887
Probable space group: C 2/M
;
_chemical_formula_sum "Si O2"
_cell_formula_units_Z 56
_cell_length_a 14.853725
_cell_length_b 7.617110
_cell_length_c 28.995813
_cell_angle_alpha 90.000000
_cell_angle_beta 123.619954
_cell_angle_gamma 90.000000
_cell_volume 2731.896909
_symmetry_space_group_name_H-M "C 2/M"
_symmetry_group_IT_number 12
_symmetry_cell_setting 'monoclinic'
loop_
_space_group_symop_operation_xyz
x,y,z
-x,y,-z
-x,-y,-z
x,-y,z
1/2+x,1/2+y,z
1/2-x,1/2+y,-z
1/2-x,1/2-y,-z
1/2+x,1/2-y,z
loop_
_atom_site_type_symbol
_atom_site_label
_atom_site_fract_x
_atom_site_fract_y
_atom_site_fract_z
Si Si1 0.070104 0.204268 0.950302
Si Si2 0.334306 0.287464 0.857213
Si Si3 0.991321 0.296154 0.641920
Si Si4 0.306837 0.206684 0.655661
Si Si5 0.435490 0.213382 0.436423
Si Si6 0.249344 0.786730 0.070788
Si Si7 0.771109 0.206396 0.269300
O O1 0.148741 0.218362 0.928608
O O2 0.953847 0.279003 0.904491
O O3 0.051176 0.000000 0.956293
O O4 0.141275 0.275194 0.012969
O O5 0.337339 0.500000 0.856855
O O6 0.257281 0.236007 0.877879
O O7 0.293351 0.229023 0.796066
O O8 0.961370 0.500000 0.626441
O O9 0.008936 0.222633 0.595372
O O10 0.109589 0.288334 0.698614
O O11 0.900205 0.217221 0.649411
O O12 0.188870 0.227099 0.599492
O O13 0.291816 0.278027 0.703463
O O14 0.332187 0.000000 0.668218
O O15 0.500000 0.269296 0.500000
O O16 0.433937 0.000000 0.434926
O O17 0.251844 0.000000 0.068524
O O18 0.789134 0.000000 0.282376
#
# Coordination Sequence:
#
# PCOD9192887 Si02
#       7
#     8   8   8   8   8   8   8
#     4   9  18  33  52  74  99 127 161 200 242 292
#     4  10  20  34  52  72  97 131 165 197 244 301
#     4   9  18  35  55  72  98 136 169 198 243 297
#     4   9  19  35  53  72  97 133 170 203 243 290
#     4   9  18  32  51  78 108 133 162 202 243 287
#     4   9  18  33  52  73  98 128 161 198 242 295
#     4  10  21  35  50  72  99 125 164 213 249 283
#
# _framework density 20.498576
#
# number of rings (size 3 to 8) (size 9 to 14) (size 15 to 20)
#    0.000    2.714    0.000    0.857    0.000    6.000 
#    0.000    4.286    0.000    4.286    0.000    0.000 
#    0.000    0.000    0.000    0.000    0.000    0.000 
#
# Total GULP energy -156189.757286 kJ/mol
# GULP energy per Si atom -5578.205617 kJ/mol
# Density = 2.045192 g / cm^3
# Si number density = 20.498576 Si / 1000 Ang^3
#
#
#
# Elastic Constant Matrix: (Units=GPa)
#
#
# Indices 1 2 3 4 5 6 
#
# 1 143.4840 -2.0464 58.2051 0.0000 -20.2161 0.0000
# 2 -2.0464 39.5338 -5.8174 0.0000 -5.2409 0.0000
# 3 58.2051 -5.8174 92.0997 0.0000 -18.0565 0.0000
# 4 0.0000 0.0000 0.0000 15.4511 0.0000 5.4529
# 5 -20.2161 -5.2409 -18.0565 0.0000 11.4392 0.0000
# 6 0.0000 0.0000 0.0000 5.4529 0.0000 8.5266
#
#
#
# Elastic Compliance Matrix: (Units=1/GPa)
#
#
# Indices 1 2 3 4 5 6 
#
# 1 0.010417 0.001679 -0.003935 0.000000 0.012967 0.000000
# 2 0.001679 0.029673 0.005880 0.000000 0.025844 0.000000
# 3 -0.003935 0.005880 0.018653 0.000000 0.025184 0.000000
# 4 0.000000 0.000000 0.000000 0.083584 0.000000 -0.053453
# 5 0.012967 0.025844 0.025184 0.000000 0.161928 0.000000
# 6 0.000000 0.000000 0.000000 -0.053453 0.000000 0.151465
#
#
# Mechanical properties :
#
#
# Convention : Reuss Voigt Hill
#
# Bulk Modulus (GPa) = 15.15350 41.75556 28.45453
# Shear Modulus (GPa) = 10.62770 22.06846 16.34808
#
# Velocity S-wave (km/s) = 2.27944 3.28469 2.82711
# Velocity P-wave (km/s) = 3.78633 5.89914 4.95662
#
# Compressibility (1/GPa) = 0.06599137
#
# Stress axis : x y z
#
# Youngs Moduli (GPa) = 96.00133 33.70070 53.61022
#
# Poissons Ratio (x) = -0.05659 0.21094
# Poissons Ratio (y) = -0.16121 -0.31521
# Poissons Ratio (z) = 0.37773 -0.19815
#
# Static dielectric constant tensor:
#      x y z
#    x 1.732560 0.000000 -0.025210 
#    y 0.000000 1.779790 0.000000 
#    z -0.025210 0.000000 1.700210 
# 
# From -- ./inp_files/337841.got.cif
#   From: 2010.05.17/outbox.cif.g08.bks.cpg/sg12_169_cif.got.tgz:337841.got - 2010.06.03 13:09:07.
