data_PCOD9192039
_publ_section_title
;
Structure prediction by ZEFSAII (Michael W. Deem and Ramdas Pophale) SiO2 
 PCOD9192039
Probable space group: C 2/M
;
_chemical_formula_sum "Si O2"
_cell_formula_units_Z 64
_cell_length_a 25.268994
_cell_length_b 9.643986
_cell_length_c 12.702998
_cell_angle_alpha 90.000000
_cell_angle_beta 89.610279
_cell_angle_gamma 90.000000
_cell_volume 3095.570552
_symmetry_space_group_name_H-M "C 2/M"
_symmetry_group_IT_number 12
_symmetry_cell_setting 'monoclinic'
loop_
_space_group_symop_operation_xyz
x,y,z
-x,y,-z
-x,-y,-z
x,-y,z
1/2+x,1/2+y,z
1/2-x,1/2+y,-z
1/2-x,1/2-y,-z
1/2+x,1/2-y,z
loop_
_atom_site_type_symbol
_atom_site_label
_atom_site_fract_x
_atom_site_fract_y
_atom_site_fract_z
Si Si1 0.386872 0.152993 0.860933
Si Si2 0.829276 0.159603 0.012552
Si Si3 0.398747 0.658206 0.674454
Si Si4 0.523669 0.340124 0.700819
Si Si5 0.274664 0.835146 0.401806
Si Si6 0.373968 0.340401 0.433213
Si Si7 0.509911 0.154735 0.887400
Si Si8 0.262960 0.841348 0.163497
O O1 0.374362 0.242614 0.964058
O O2 0.372688 0.237182 0.756597
O O3 0.449727 0.138677 0.849629
O O4 0.362378 0.000000 0.868228
O O5 0.785655 0.162830 0.918403
O O6 0.844431 0.000000 0.029846
O O7 0.803987 0.230484 0.115459
O O8 0.391116 0.500000 0.713142
O O9 0.462575 0.681015 0.666965
O O10 0.375038 0.669893 0.559207
O O11 0.527036 0.500000 0.734418
O O12 0.566607 0.318574 0.609586
O O13 0.537982 0.243452 0.798874
O O14 0.250000 0.750000 0.500000
O O15 0.333625 0.772331 0.389969
O O16 0.249299 0.814812 0.285971
O O17 0.273758 0.000000 0.424314
O O18 0.358621 0.500000 0.406152
O O19 0.533089 0.000000 0.902770
O O20 0.500000 0.223994 0.000000
O O21 0.284097 0.000000 0.158972
#
# Coordination Sequence:
#
# PCOD9192039 Si02
#       8
#     8   8   8   8   8   8   8   8
#     4  10  20  33  52  81 113 144 185 231 278 332
#     4  10  20  36  61  87 109 141 185 233 288 340
#     4   9  18  34  56  81 113 150 189 232 279 334
#     4   9  18  34  56  82 110 143 185 232 279 330
#     4  11  25  43  61  84 116 154 195 236 285 344
#     4  10  21  37  58  84 113 148 188 232 285 338
#     4   9  19  35  52  73 107 149 183 218 271 331
#     4   9  21  41  60  80 110 145 184 233 285 337
#
# _framework density 20.674702
#
# number of rings (size 3 to 8) (size 9 to 14) (size 15 to 20)
#    0.000    2.375    0.000    1.500    1.750    5.750 
#    0.000    3.750    0.000    3.750    0.000    0.000 
#    0.000    0.000    0.000    0.000    0.000    0.000 
#
# Total GULP energy -178485.791145 kJ/mol
# GULP energy per Si atom -5577.680973 kJ/mol
# Density = 2.062765 g / cm^3
# Si number density = 20.674702 Si / 1000 Ang^3
#
#
#
# Elastic Constant Matrix: (Units=GPa)
#
#
# Indices 1 2 3 4 5 6 
#
# 1 32.3985 31.3568 1.6285 0.0000 -6.6574 0.0000
# 2 31.3568 106.1459 54.9187 0.0000 -15.0828 0.0000
# 3 1.6285 54.9187 101.3351 0.0000 -8.9178 0.0000
# 4 0.0000 0.0000 0.0000 33.3213 0.0000 -5.2646
# 5 -6.6574 -15.0828 -8.9178 0.0000 26.5901 0.0000
# 6 0.0000 0.0000 0.0000 -5.2646 0.0000 14.1454
#
#
#
# Elastic Compliance Matrix: (Units=1/GPa)
#
#
# Indices 1 2 3 4 5 6 
#
# 1 0.050067 -0.019308 0.010097 0.000000 0.004969 0.000000
# 2 -0.019308 0.021275 -0.010905 0.000000 0.003577 0.000000
# 3 0.010097 -0.010905 0.015759 0.000000 0.001628 0.000000
# 4 0.000000 0.000000 0.000000 0.031886 0.000000 0.011867
# 5 0.004969 0.003577 0.001628 0.000000 0.041427 0.000000
# 6 0.000000 0.000000 0.000000 0.011867 0.000000 0.075111
#
#
# Mechanical properties :
#
#
# Convention : Reuss Voigt Hill
#
# Bulk Modulus (GPa) = 21.33644 46.18750 33.76197
# Shear Modulus (GPa) = 17.15972 24.94307 21.05140
#
# Velocity S-wave (km/s) = 2.88407 3.47717 3.19442
# Velocity P-wave (km/s) = 4.62958 6.20561 5.47460
#
# Compressibility (1/GPa) = 0.04686818
#
# Stress axis : x y z
#
# Youngs Moduli (GPa) = 19.97338 47.00293 63.45475
#
# Poissons Ratio (x) = 0.90754 -0.64069
# Poissons Ratio (y) = 0.38565 0.69198
# Poissons Ratio (z) = -0.20167 0.51257
#
# Static dielectric constant tensor:
#      x y z
#    x 1.788300 0.000000 0.015360 
#    y 0.000000 1.754700 0.000000 
#    z 0.015360 0.000000 1.725440 
# 
# From -- ./inp_files/187575.got.cif
#   From: 2010.05.17/outbox.cif.g08.bks.cpg/sg12_94_cif.got.tgz:187575.got - 2010.06.03 13:09:07.
