data_PCOD9192928
_publ_section_title
;
Structure prediction by ZEFSAII (Michael W. Deem and Ramdas Pophale) SiO2 
 PCOD9192928
Probable space group: C 2/M
;
_chemical_formula_sum "Si O2"
_cell_formula_units_Z 56
_cell_length_a 8.692458
_cell_length_b 11.808319
_cell_length_c 33.128639
_cell_angle_alpha 90.000000
_cell_angle_beta 65.073400
_cell_angle_gamma 90.000000
_cell_volume 3083.677743
_symmetry_space_group_name_H-M "C 2/M"
_symmetry_group_IT_number 12
_symmetry_cell_setting 'monoclinic'
loop_
_space_group_symop_operation_xyz
x,y,z
-x,y,-z
-x,-y,-z
x,-y,z
1/2+x,1/2+y,z
1/2-x,1/2+y,-z
1/2-x,1/2-y,-z
1/2+x,1/2-y,z
loop_
_atom_site_type_symbol
_atom_site_label
_atom_site_fract_x
_atom_site_fract_y
_atom_site_fract_z
Si Si1 0.160124 0.874427 0.623120
Si Si2 0.703004 0.868867 0.482530
Si Si3 0.242765 0.129670 0.836563
Si Si4 0.877655 0.369944 0.050359
Si Si5 0.414210 0.870566 0.733264
Si Si6 0.712412 0.707787 0.322945
Si Si7 0.066854 0.288954 0.106983
O O1 0.957893 0.862511 0.650584
O O2 0.211289 0.860425 0.570958
O O3 0.247817 0.782138 0.641814
O O4 0.214848 0.000000 0.629985
O O5 0.500000 0.868252 0.500000
O O6 0.750000 0.750000 0.500000
O O7 0.745428 0.000000 0.493485
O O8 0.353447 0.159905 0.785020
O O9 0.352492 0.142234 0.865088
O O10 0.081366 0.210087 0.858821
O O11 0.186738 0.000000 0.838403
O O12 0.824908 0.500000 0.049735
O O13 0.715980 0.289139 0.072269
O O14 0.983428 0.359711 0.080149
O O15 0.000000 0.336112 0.000000
O O16 0.328293 0.789840 0.710030
O O17 0.616623 0.859183 0.706178
O O18 0.364041 0.000000 0.731127
#
# Coordination Sequence:
#
# PCOD9192928 Si02
#       7
#     8   8   8   8   8   8   8
#     4  10  20  35  54  76 104 136 171 212 257 305
#     4  10  21  37  56  80 109 141 178 220 265 315
#     4  10  20  34  52  74 101 132 166 205 249 297
#     4  10  20  34  52  74 100 130 165 205 248 295
#     4  10  20  34  52  75 102 132 167 207 250 298
#     4  10  20  34  53  76 102 133 170 208 253 302
#     4  10  20  34  52  74 100 131 166 204 248 296
#
# _framework density 18.160133999999999
#
# number of rings (size 3 to 8) (size 9 to 14) (size 15 to 20)
#    0.000    2.000    0.000    3.857    0.000    0.286 
#    0.000    3.571    0.000   20.571    0.000    0.000 
#    0.000    0.000    0.000    0.000    0.000    0.000 
#
# Total GULP energy -156162.718589 kJ/mol
# GULP energy per Si atom -5577.239950 kJ/mol
# Density = 1.811880 g / cm^3
# Si number density = 18.160134 Si / 1000 Ang^3
#
#
#
# Elastic Constant Matrix: (Units=GPa)
#
#
# Indices 1 2 3 4 5 6 
#
# 1 33.1272 8.4382 -0.3169 0.0000 -2.1625 0.0000
# 2 8.4382 80.2036 34.2251 0.0000 0.4430 0.0000
# 3 -0.3169 34.2251 98.0534 0.0000 -8.1057 0.0000
# 4 0.0000 0.0000 0.0000 25.0294 0.0000 -1.6296
# 5 -2.1625 0.4430 -8.1057 0.0000 19.2140 0.0000
# 6 0.0000 0.0000 0.0000 -1.6296 0.0000 8.2836
#
#
#
# Elastic Compliance Matrix: (Units=1/GPa)
#
#
# Indices 1 2 3 4 5 6 
#
# 1 0.031557 -0.004166 0.001925 0.000000 0.004460 0.000000
# 2 -0.004166 0.015325 -0.005627 0.000000 -0.003196 0.000000
# 3 0.001925 -0.005627 0.012638 0.000000 0.005678 0.000000
# 4 0.000000 0.000000 0.000000 0.040471 0.000000 0.007962
# 5 0.004460 -0.003196 0.005678 0.000000 0.055016 0.000000
# 6 0.000000 0.000000 0.000000 0.007962 0.000000 0.122287
#
#
# Mechanical properties :
#
#
# Convention : Reuss Voigt Hill
#
# Bulk Modulus (GPa) = 22.83915 32.89747 27.86831
# Shear Modulus (GPa) = 16.25346 21.77459 19.01403
#
# Velocity S-wave (km/s) = 2.99491 3.46646 3.23928
# Velocity P-wave (km/s) = 4.95612 5.84605 5.41939
#
# Compressibility (1/GPa) = 0.04378447
#
# Stress axis : x y z
#
# Youngs Moduli (GPa) = 31.68825 65.25108 79.12529
#
# Poissons Ratio (x) = 0.27185 -0.15230
# Poissons Ratio (y) = 0.13202 0.44523
# Poissons Ratio (z) = -0.06099 0.36716
#
# Static dielectric constant tensor:
#      x y z
#    x 1.582150 0.000000 0.010720 
#    y 0.000000 1.615680 0.000000 
#    z 0.010720 0.000000 1.587130 
# 
# From -- ./inp_files/355744.got.cif
#   From: 2010.05.17/outbox.cif.g08.bks.cpg/sg12_178_cif.got.tgz:355744.got - 2010.06.03 13:09:07.
