data_PCOD9192918
_publ_section_title
;
Structure prediction by ZEFSAII (Michael W. Deem and Ramdas Pophale) SiO2 
 PCOD9192918
Probable space group: C 2/M
;
_chemical_formula_sum "Si O2"
_cell_formula_units_Z 56
_cell_length_a 18.962865
_cell_length_b 7.552870
_cell_length_c 30.522167
_cell_angle_alpha 90.000000
_cell_angle_beta 37.787178
_cell_angle_gamma 90.000000
_cell_volume 2678.555332
_symmetry_space_group_name_H-M "C 2/M"
_symmetry_group_IT_number 12
_symmetry_cell_setting 'monoclinic'
loop_
_space_group_symop_operation_xyz
x,y,z
-x,y,-z
-x,-y,-z
x,-y,z
1/2+x,1/2+y,z
1/2-x,1/2+y,-z
1/2-x,1/2-y,-z
1/2+x,1/2-y,z
loop_
_atom_site_type_symbol
_atom_site_label
_atom_site_fract_x
_atom_site_fract_y
_atom_site_fract_z
Si Si1 0.499832 0.716897 0.135802
Si Si2 0.344571 0.285894 0.859457
Si Si3 0.576386 0.289365 0.002538
Si Si4 0.568012 0.290319 0.276460
Si Si5 0.763323 0.714272 0.726885
Si Si6 0.115715 0.788612 0.565781
Si Si7 0.548586 0.795668 0.431555
O O1 0.501224 0.500000 0.135122
O O2 0.584644 0.775311 0.132853
O O3 0.540773 0.778842 0.067906
O O4 0.368389 0.772219 0.208753
O O5 0.350410 0.500000 0.856171
O O6 0.399160 0.218221 0.787170
O O7 0.210901 0.238186 0.928114
O O8 0.554854 0.500000 0.014659
O O9 0.500000 0.217083 0.000000
O O10 0.551294 0.500000 0.278803
O O11 0.671450 0.264196 0.260332
O O12 0.453716 0.222759 0.357251
O O13 0.764739 0.500000 0.724498
O O14 0.840746 0.780860 0.648198
O O15 0.250000 0.750000 0.500000
O O16 0.052185 0.708655 0.554953
O O17 0.099287 0.000000 0.571273
O O18 0.500000 0.713531 0.500000
O O19 0.578804 0.000000 0.427099
#
# Coordination Sequence:
#
# PCOD9192918 Si02
#       7
#     8   8   8   8   8   8   8
#     4   9  18  32  50  73  99 128 163 202 245 292
#     4  10  20  34  52  74 100 129 162 201 246 294
#     4  10  20  34  52  73  98 129 164 202 244 291
#     4   9  19  34  51  72  99 130 163 204 250 293
#     4   9  17  32  54  74  96 131 170 204 241 294
#     4  10  20  34  52  74 102 135 171 212 256 302
#     4   9  18  32  52  78 104 132 169 211 254 303
#
# _framework density 20.906791999999999
#
# number of rings (size 3 to 8) (size 9 to 14) (size 15 to 20)
#    0.000    2.571    0.000    1.714    0.000    4.000 
#    0.000    5.714    0.000    0.000    0.000    0.000 
#    0.000    0.000    0.000    0.000    0.000    0.000 
#
# Total GULP energy -156299.944063 kJ/mol
# GULP energy per Si atom -5582.140859 kJ/mol
# Density = 2.085921 g / cm^3
# Si number density = 20.906792 Si / 1000 Ang^3
#
#
#
# Elastic Constant Matrix: (Units=GPa)
#
#
# Indices 1 2 3 4 5 6 
#
# 1 155.3713 -7.9135 136.8074 0.3638 12.8324 0.0727
# 2 -7.9135 48.2876 -5.3807 -0.7615 9.5061 -0.0331
# 3 136.8074 -5.3807 213.2188 0.1555 16.7671 0.0159
# 4 0.3638 -0.7615 0.1555 536.3179 -0.0169 27.4821
# 5 12.8324 9.5061 16.7671 -0.0169 45.9804 -0.0012
# 6 0.0727 -0.0331 0.0159 27.4821 -0.0012 17.3056
#
#
#
# Elastic Compliance Matrix: (Units=1/GPa)
#
#
# Indices 1 2 3 4 5 6 
#
# 1 0.014933 0.001600 -0.009458 -0.000003 -0.001049 -0.000047
# 2 0.001600 0.021937 -0.000083 0.000031 -0.004951 -0.000014
# 3 -0.009458 -0.000083 0.010859 0.000002 -0.001303 0.000027
# 4 -0.000003 0.000031 0.000002 0.002030 -0.000006 -0.003223
# 5 -0.001049 -0.004951 -0.001303 -0.000006 0.023540 0.000007
# 6 -0.000047 -0.000014 0.000027 -0.003223 0.000007 0.062904
#
#
# Mechanical properties :
#
#
# Convention : Reuss Voigt Hill
#
# Bulk Modulus (GPa) = 31.40225 73.76713 52.58469
# Shear Modulus (GPa) = 30.73111 139.47841 85.10476
#
# Velocity S-wave (km/s) = 3.83810 8.17675 6.38711
# Velocity P-wave (km/s) = 5.89017 11.15823 8.92189
#
# Compressibility (1/GPa) = 0.03184485
#
# Stress axis : x y z
#
# Youngs Moduli (GPa) = 66.96779 45.58441 92.08882
#
# Poissons Ratio (x) = -0.07292 0.87100
# Poissons Ratio (y) = -0.10713 0.00769
# Poissons Ratio (z) = 0.63340 0.00381
#
# Static dielectric constant tensor:
#      x y z
#    x 1.696870 -0.000010 0.026760 
#    y -0.000010 1.803200 -0.000010 
#    z 0.026760 -0.000010 1.750290 
# 
# From -- ./inp_files/377654.got.cif
#   From: 2010.05.17/outbox.cif.g08.bks.cpg/sg12_189_cif.got.tgz:377654.got - 2010.06.03 13:09:07.
