data_PCOD9192221
_publ_section_title
;
Structure prediction by ZEFSAII (Michael W. Deem and Ramdas Pophale) SiO2 
 PCOD9192221
Probable space group: C 2/M
;
_chemical_formula_sum "Si O2"
_cell_formula_units_Z 56
_cell_length_a 5.195286
_cell_length_b 30.277792
_cell_length_c 18.263208
_cell_angle_alpha 90.000000
_cell_angle_beta 98.247451
_cell_angle_gamma 90.000000
_cell_volume 2843.123765
_symmetry_space_group_name_H-M "C 2/M"
_symmetry_group_IT_number 12
_symmetry_cell_setting 'monoclinic'
loop_
_space_group_symop_operation_xyz
x,y,z
-x,y,-z
-x,-y,-z
x,-y,z
1/2+x,1/2+y,z
1/2-x,1/2+y,-z
1/2-x,1/2-y,-z
1/2+x,1/2-y,z
loop_
_atom_site_type_symbol
_atom_site_label
_atom_site_fract_x
_atom_site_fract_y
_atom_site_fract_z
Si Si1 0.653408 0.854234 0.235848
Si Si2 0.328378 0.590223 0.720558
Si Si3 0.976232 0.549281 0.587322
Si Si4 0.620997 0.550757 0.120644
Si Si5 0.228292 0.639607 0.449255
Si Si6 0.604493 0.104264 0.080552
Si Si7 0.778503 0.278954 0.661696
O O1 0.404962 0.877332 0.263508
O O2 0.631074 0.861688 0.148277
O O3 0.668412 0.803494 0.259605
O O4 0.913460 0.880021 0.272884
O O5 0.368661 0.557259 0.790698
O O6 0.230003 0.564676 0.643987
O O7 0.897039 0.500000 0.609510
O O8 0.788286 0.591245 0.588324
O O9 0.000000 0.546262 0.500000
O O10 0.581317 0.500000 0.100496
O O11 0.380922 0.580167 0.083227
O O12 0.890782 0.568660 0.099135
O O13 0.500000 0.643345 0.500000
O O14 0.202340 0.680468 0.393927
O O15 0.000000 0.641834 0.500000
O O16 0.500000 0.122757 0.000000
O O17 0.497039 0.256687 0.651288
#
# Coordination Sequence:
#
# PCOD9192221 Si02
#       7
#     8   8   8   8   8   8   8
#     4  10  22  40  62  86 117 154 194 246 301 357
#     4  10  20  38  60  80 119 162 202 247 296 346
#     4  10  22  38  61  90 121 167 213 250 293 348
#     4  10  20  33  53  84 118 156 202 250 292 345
#     4  11  25  42  63  89 127 164 198 257 309 356
#     4  10  21  36  57  83 115 159 195 235 302 364
#     4  12  25  41  68  94 118 156 204 250 312 376
#
# _framework density 19.696646000000001
#
# number of rings (size 3 to 8) (size 9 to 14) (size 15 to 20)
#    0.000    1.571    1.429    3.000    4.000    3.714 
#    0.000    5.000    0.000    0.857    0.000    0.000 
#    0.000    0.000    0.000    0.000    0.000    0.000 
#
# Total GULP energy -156379.233318 kJ/mol
# GULP energy per Si atom -5584.972619 kJ/mol
# Density = 1.965182 g / cm^3
# Si number density = 19.696646 Si / 1000 Ang^3
#
#
#
# Elastic Constant Matrix: (Units=GPa)
#
#
# Indices 1 2 3 4 5 6 
#
# 1 94.3345 -0.1763 19.9479 0.0000 5.7573 0.0000
# 2 -0.1763 75.7429 30.3835 0.0000 0.1756 0.0000
# 3 19.9479 30.3835 119.8368 0.0000 14.5363 0.0000
# 4 0.0000 0.0000 0.0000 0.6093 0.0000 -4.7256
# 5 5.7573 0.1756 14.5363 0.0000 27.1034 0.0000
# 6 0.0000 0.0000 0.0000 -4.7256 0.0000 10.3275
#
#
#
# Elastic Compliance Matrix: (Units=1/GPa)
#
#
# Indices 1 2 3 4 5 6 
#
# 1 0.011082 0.000783 -0.001879 0.000000 -0.001351 0.000000
# 2 0.000783 0.014858 -0.004135 0.000000 0.001955 0.000000
# 3 -0.001879 -0.004135 0.010326 0.000000 -0.005112 0.000000
# 4 0.000000 0.000000 0.000000 -0.643942 0.000000 -0.294649
# 5 -0.001351 0.001955 -0.005112 0.000000 0.039912 0.000000
# 6 0.000000 0.000000 0.000000 -0.294649 0.000000 -0.037994
#
#
# Mechanical properties :
#
#
# Convention : Reuss Voigt Hill
#
# Bulk Modulus (GPa) = 38.75374 43.35826 41.05600
# Shear Modulus (GPa) = -8.52234 23.59199 7.53483
#
# Velocity S-wave (km/s) = -2.08235 3.46463 1.95799
# Velocity P-wave (km/s) = 3.73315 6.16974 5.09912
#
# Compressibility (1/GPa) = 0.02580396
#
# Stress axis : x y z
#
# Youngs Moduli (GPa) = 90.23735 67.30195 96.84385
#
# Poissons Ratio (x) = -0.05268 0.18199
# Poissons Ratio (y) = -0.07064 0.40042
# Poissons Ratio (z) = 0.16958 0.27827
#
# Static dielectric constant tensor:
#      x y z
#    x 1.685250 0.000000 -0.017200 
#    y 0.000000 1.662860 0.000000 
#    z -0.017200 0.000000 1.749000 
# 
# From -- ./inp_files/253650.got.cif
#   From: 2010.05.17/outbox.cif.g08.bks.cpg/sg12_127_cif.got.tgz:253650.got - 2010.06.03 13:09:07.
