data_PCOD9192193
_publ_section_title
;
Structure prediction by ZEFSAII (Michael W. Deem and Ramdas Pophale) SiO2 
 PCOD9192193
Probable space group: C 2/M
;
_chemical_formula_sum "Si O2"
_cell_formula_units_Z 40
_cell_length_a 30.896494
_cell_length_b 9.298626
_cell_length_c 15.572824
_cell_angle_alpha 90.000000
_cell_angle_beta 152.434144
_cell_angle_gamma 90.000000
_cell_volume 2070.420351
_symmetry_space_group_name_H-M "C 2/M"
_symmetry_group_IT_number 12
_symmetry_cell_setting 'monoclinic'
loop_
_space_group_symop_operation_xyz
x,y,z
-x,y,-z
-x,-y,-z
x,-y,z
1/2+x,1/2+y,z
1/2-x,1/2+y,-z
1/2-x,1/2-y,-z
1/2+x,1/2-y,z
loop_
_atom_site_type_symbol
_atom_site_label
_atom_site_fract_x
_atom_site_fract_y
_atom_site_fract_z
Si Si1 0.213788 0.328154 0.521270
Si Si2 0.673165 0.332319 0.107638
Si Si3 0.495096 0.836908 0.589350
Si Si4 0.786234 0.660438 0.983276
Si Si5 0.545638 0.329570 0.316169
O O1 0.204132 0.500000 0.491779
O O2 0.250000 0.250000 0.500000
O O3 0.286799 0.304378 0.727739
O O4 0.117075 0.257271 0.382444
O O5 0.689298 0.500000 0.115469
O O6 0.725520 0.238878 0.127997
O O7 0.561544 0.308225 0.904023
O O8 0.500000 0.783926 0.500000
O O9 0.602297 0.848577 0.807504
O O10 0.447739 0.735049 0.575922
O O11 0.454342 0.000000 0.517349
O O12 0.746246 0.500000 0.912942
O O13 0.750000 0.750000 0.000000
O O14 0.565178 0.500000 0.349699
#
# Coordination Sequence:
#
# PCOD9192193 Si02
#       5
#     8   8   8   8   8
#     4  11  24  42  64  89 117 153 197 244 299 356
#     4   9  21  41  61  82 117 159 194 236 293 354
#     4   9  19  35  54  79 113 155 194 231 285 347
#     4  10  20  33  53  82 116 153 193 237 286 343
#     4  10  21  39  61  87 118 152 195 244 292 346
#
# _framework density 19.319749000000002
#
# number of rings (size 3 to 8) (size 9 to 14) (size 15 to 20)
#    0.000    2.200    0.000    1.800    2.800    4.400 
#    0.000    4.000    0.000    0.000    0.000    0.000 
#    0.000    0.000    0.000    0.000    0.000    0.000 
#
# Total GULP energy -111682.063053 kJ/mol
# GULP energy per Si atom -5584.103153 kJ/mol
# Density = 1.927578 g / cm^3
# Si number density = 19.319749 Si / 1000 Ang^3
#
#
#
# Elastic Constant Matrix: (Units=GPa)
#
#
# Indices 1 2 3 4 5 6 
#
# 1 180.4548 129.1451 44.5018 0.0000 -15.7596 0.0000
# 2 129.1451 152.0246 59.5249 0.0000 -13.5718 0.0000
# 3 44.5018 59.5249 65.4675 0.0000 -11.4134 0.0000
# 4 0.0000 0.0000 0.0000 24.9182 0.0000 -2.4423
# 5 -15.7596 -13.5718 -11.4134 0.0000 25.8062 0.0000
# 6 0.0000 0.0000 0.0000 -2.4423 0.0000 40.5177
#
#
#
# Elastic Compliance Matrix: (Units=1/GPa)
#
#
# Indices 1 2 3 4 5 6 
#
# 1 0.014541 -0.013069 0.002545 0.000000 0.003132 0.000000
# 2 -0.013069 0.022005 -0.011375 0.000000 -0.001439 0.000000
# 3 0.002545 -0.011375 0.025047 0.000000 0.006649 0.000000
# 4 0.000000 0.000000 0.000000 0.040370 0.000000 0.002433
# 5 0.003132 -0.001439 0.006649 0.000000 0.042847 0.000000
# 6 0.000000 0.000000 0.000000 0.002433 0.000000 0.024827
#
#
# Mechanical properties :
#
#
# Convention : Reuss Voigt Hill
#
# Bulk Modulus (GPa) = 56.19885 96.03228 76.11557
# Shear Modulus (GPa) = 22.79284 29.23342 26.01313
#
# Velocity S-wave (km/s) = 3.43850 3.89413 3.67338
# Velocity P-wave (km/s) = 6.70197 8.36861 7.58123
#
# Compressibility (1/GPa) = 0.01779396
#
# Stress axis : x y z
#
# Youngs Moduli (GPa) = 68.77329 45.44329 39.92521
#
# Poissons Ratio (x) = 0.59390 -0.10160
# Poissons Ratio (y) = 0.89880 0.45416
# Poissons Ratio (z) = -0.17501 0.51693
#
# Static dielectric constant tensor:
#      x y z
#    x 1.634750 0.000000 0.007460 
#    y 0.000000 1.683600 0.000000 
#    z 0.007460 0.000000 1.695140 
# 
# From -- ./inp_files/211216.got.cif
#   From: 2010.05.17/outbox.cif.g08.bks.cpg/sg12_106_cif.got.tgz:211216.got - 2010.06.03 13:09:07.
