data_PCOD9192290
_publ_section_title
;
Structure prediction by ZEFSAII (Michael W. Deem and Ramdas Pophale) SiO2 
 PCOD9192290
Probable space group: C 2/M
;
_chemical_formula_sum "Si O2"
_cell_formula_units_Z 64
_cell_length_a 15.828010
_cell_length_b 8.521590
_cell_length_c 24.753992
_cell_angle_alpha 90.000000
_cell_angle_beta 90.050037
_cell_angle_gamma 90.000000
_cell_volume 3338.812507
_symmetry_space_group_name_H-M "C 2/M"
_symmetry_group_IT_number 12
_symmetry_cell_setting 'monoclinic'
loop_
_space_group_symop_operation_xyz
x,y,z
-x,y,-z
-x,-y,-z
x,-y,z
1/2+x,1/2+y,z
1/2-x,1/2+y,-z
1/2-x,1/2-y,-z
1/2+x,1/2-y,z
loop_
_atom_site_type_symbol
_atom_site_label
_atom_site_fract_x
_atom_site_fract_y
_atom_site_fract_z
Si Si1 0.595697 0.687744 0.130661
Si Si2 0.503086 0.191816 0.437877
Si Si3 0.910092 0.190450 0.129318
Si Si4 0.150073 0.684225 0.243368
Si Si5 0.152262 0.313388 0.636501
Si Si6 0.746243 0.188372 0.939283
Si Si7 0.647332 0.315488 0.753257
Si Si8 0.841826 0.310130 0.635953
O O1 0.596362 0.500000 0.126098
O O2 0.503475 0.741845 0.112124
O O3 0.608624 0.729277 0.193316
O O4 0.673298 0.748646 0.095155
O O5 0.500000 0.242551 0.500000
O O6 0.420301 0.242933 0.404500
O O7 0.589053 0.241168 0.407644
O O8 0.503004 0.000000 0.437296
O O9 0.837507 0.256042 0.091349
O O10 0.895277 0.240377 0.191566
O O11 0.905098 0.000000 0.128604
O O12 0.128656 0.500000 0.239900
O O13 0.251628 0.698870 0.238405
O O14 0.130128 0.742244 0.303789
O O15 0.158664 0.500000 0.631579
O O16 0.126138 0.271543 0.697850
O O17 0.245693 0.244084 0.626345
O O18 0.748386 0.000000 0.939905
O O19 0.750000 0.250000 0.000000
O O20 0.628502 0.500000 0.745864
O O21 0.840174 0.500000 0.637295
#
# Coordination Sequence:
#
# PCOD9192290 Si02
#       8
#     8   8   8   8   8   8   8   8
#     4  10  22  37  57  86 115 145 184 231 281 326
#     4   9  19  36  56  78 109 151 194 232 278 340
#     4  10  21  39  60  84 114 150 186 226 280 337
#     4   9  17  31  54  81 111 145 182 223 274 337
#     4  10  20  33  54  83 110 141 187 237 278 326
#     4  11  24  42  62  85 115 152 192 234 277 326
#     4   9  18  34  56  81 114 151 181 219 282 344
#     4   9  19  36  55  78 110 149 186 226 285 342
#
# _framework density 19.168489999999998
#
# number of rings (size 3 to 8) (size 9 to 14) (size 15 to 20)
#    0.000    2.375    1.250    1.500    1.750    4.500 
#    0.000    3.750    0.000    2.625    0.000    0.000 
#    0.000    0.000    0.000    0.000    0.000    0.000 
#
# Total GULP energy -178590.672929 kJ/mol
# GULP energy per Si atom -5580.958529 kJ/mol
# Density = 1.912486 g / cm^3
# Si number density = 19.168490 Si / 1000 Ang^3
#
#
#
# Elastic Constant Matrix: (Units=GPa)
#
#
# Indices 1 2 3 4 5 6 
#
# 1 129.3097 30.6159 91.1890 0.0000 32.3102 0.0000
# 2 30.6159 8.1713 23.3016 0.0000 -5.8239 0.0000
# 3 91.1890 23.3016 139.5293 0.0000 28.8100 0.0000
# 4 0.0000 0.0000 0.0000 25.1329 0.0000 3.2533
# 5 32.3102 -5.8239 28.8100 0.0000 -18.9340 0.0000
# 6 0.0000 0.0000 0.0000 3.2533 0.0000 19.5964
#
#
#
# Elastic Compliance Matrix: (Units=1/GPa)
#
#
# Indices 1 2 3 4 5 6 
#
# 1 0.015033 -0.016395 -0.010215 0.000000 0.015152 0.000000
# 2 -0.016395 0.131186 0.002218 0.000000 -0.064954 0.000000
# 3 -0.010215 0.002218 0.013098 0.000000 0.001815 0.000000
# 4 0.000000 0.000000 0.000000 0.040662 0.000000 -0.006751
# 5 0.015152 -0.064954 0.001815 0.000000 -0.004217 0.000000
# 6 0.000000 0.000000 0.000000 -0.006751 0.000000 0.052151
#
#
# Mechanical properties :
#
#
# Convention : Reuss Voigt Hill
#
# Bulk Modulus (GPa) = 9.04706 63.02482 36.03594
# Shear Modulus (GPa) = 14.99064 13.95264 14.47164
#
# Velocity S-wave (km/s) = 2.79954 2.70088 2.75065
# Velocity P-wave (km/s) = 3.89614 6.53277 5.37852
#
# Compressibility (1/GPa) = 0.11053316
#
# Stress axis : x y z
#
# Youngs Moduli (GPa) = 66.52073 7.62275 76.34786
#
# Poissons Ratio (x) = 0.12497 0.77992
# Poissons Ratio (y) = 1.09058 -0.16935
# Poissons Ratio (z) = 0.67954 -0.01691
#
# Static dielectric constant tensor:
#      x y z
#    x 1.679180 0.000000 -0.020590 
#    y 0.000000 1.660100 0.000000 
#    z -0.020590 0.000000 1.648440 
# 
# From -- ./inp_files/338779.got.cif
#   From: 2010.05.17/outbox.cif.g08.bks.cpg/sg12_170_cif.got.tgz:338779.got - 2010.06.03 13:09:07.
