data_PCOD9192981
_publ_section_title
;
Structure prediction by ZEFSAII (Michael W. Deem and Ramdas Pophale) SiO2 
 PCOD9192981
Probable space group: C 2/M
;
_chemical_formula_sum "Si O2"
_cell_formula_units_Z 64
_cell_length_a 20.627612
_cell_length_b 13.665301
_cell_length_c 26.740701
_cell_angle_alpha 90.000000
_cell_angle_beta 150.817294
_cell_angle_gamma 90.000000
_cell_volume 3675.371282
_symmetry_space_group_name_H-M "C 2/M"
_symmetry_group_IT_number 12
_symmetry_cell_setting 'monoclinic'
loop_
_space_group_symop_operation_xyz
x,y,z
-x,y,-z
-x,-y,-z
x,-y,z
1/2+x,1/2+y,z
1/2-x,1/2+y,-z
1/2-x,1/2-y,-z
1/2+x,1/2-y,z
loop_
_atom_site_type_symbol
_atom_site_label
_atom_site_fract_x
_atom_site_fract_y
_atom_site_fract_z
Si Si1 0.125242 0.114279 0.907837
Si Si2 0.980572 0.114888 0.705460
Si Si3 0.118259 0.298130 0.972664
Si Si4 0.694351 0.883606 0.539797
Si Si5 0.650231 0.236582 0.609749
Si Si6 0.171395 0.615336 0.211374
Si Si7 0.274943 0.716899 0.180900
Si Si8 0.608289 0.114492 0.681169
O O1 0.095373 0.193170 0.930684
O O2 0.025604 0.128170 0.793712
O O3 0.120539 0.000000 0.919535
O O4 0.271086 0.142813 0.984707
O O5 0.825498 0.140453 0.596362
O O6 0.083445 0.173638 0.741138
O O7 0.997233 0.000000 0.705405
O O8 0.982107 0.357048 0.884342
O O9 0.179126 0.284662 0.068767
O O10 0.696202 0.818775 0.590990
O O11 0.550228 0.869197 0.417720
O O12 0.703123 0.000000 0.558396
O O13 0.500000 0.273340 0.500000
O O14 0.744027 0.323185 0.691434
O O15 0.640428 0.157921 0.648108
O O16 0.192446 0.500000 0.229742
O O17 0.217013 0.653488 0.187485
O O18 0.304549 0.824727 0.221365
O O19 0.634267 0.000000 0.700469
#
# Coordination Sequence:
#
# PCOD9192981 Si02
#       8
#     8   8   8   8   8   8   8   8
#     4   9  18  33  53  76 101 127 159 206 256 297
#     4   9  17  30  49  72  96 125 165 208 248 290
#     4  10  20  34  52  75 100 130 170 205 245 298
#     4   9  16  29  53  78  99 128 165 205 248 295
#     4   9  18  33  53  77 103 128 159 204 253 298
#     4  11  22  35  53  74  98 131 169 206 245 295
#     4  10  21  34  48  69 100 135 168 206 245 287
#     4   9  18  32  50  74 102 133 167 201 245 299
#
# _framework density 17.413207
#
# number of rings (size 3 to 8) (size 9 to 14) (size 15 to 20)
#    0.000    2.500    0.000    2.250    0.000    4.750 
#    0.000    2.500    0.000    4.500    0.000    0.000 
#    0.000    0.000    0.000    0.000    0.000    0.000 
#
# Total GULP energy -178499.033121 kJ/mol
# GULP energy per Si atom -5578.094785 kJ/mol
# Density = 1.737357 g / cm^3
# Si number density = 17.413207 Si / 1000 Ang^3
#
#
#
# Elastic Constant Matrix: (Units=GPa)
#
#
# Indices 1 2 3 4 5 6 
#
# 1 33.3805 14.6701 13.1258 -0.0001 6.3487 -0.0001
# 2 14.6701 93.9802 32.8844 -0.0007 4.7514 -0.0001
# 3 13.1258 32.8844 52.2944 -0.0003 10.2145 0.0000
# 4 -0.0001 -0.0007 -0.0003 20.2263 -0.0002 5.5632
# 5 6.3487 4.7514 10.2145 -0.0002 22.6454 -0.0001
# 6 -0.0001 -0.0001 0.0000 5.5632 -0.0001 17.1163
#
#
#
# Elastic Compliance Matrix: (Units=1/GPa)
#
#
# Indices 1 2 3 4 5 6 
#
# 1 0.034753 -0.003193 -0.005420 0.000000 -0.006628 0.000000
# 2 -0.003193 0.013961 -0.008313 0.000000 0.001715 0.000000
# 3 -0.005420 -0.008313 0.027495 0.000000 -0.009138 0.000000
# 4 0.000000 0.000000 0.000000 0.054294 0.000000 -0.017647
# 5 -0.006628 0.001715 -0.009138 0.000000 0.049779 0.000000
# 6 0.000000 0.000000 0.000000 -0.017647 0.000000 0.064159
#
#
# Mechanical properties :
#
#
# Convention : Reuss Voigt Hill
#
# Bulk Modulus (GPa) = 23.60897 33.44621 28.52759
# Shear Modulus (GPa) = 17.09908 19.92926 18.51417
#
# Velocity S-wave (km/s) = 3.13702 3.38670 3.26425
# Velocity P-wave (km/s) = 5.16805 5.87725 5.53402
#
# Compressibility (1/GPa) = 0.04235679
#
# Stress axis : x y z
#
# Youngs Moduli (GPa) = 28.77456 71.62848 36.36994
#
# Poissons Ratio (x) = 0.22872 0.19714
# Poissons Ratio (y) = 0.09188 0.30233
# Poissons Ratio (z) = 0.15597 0.59543
#
# Static dielectric constant tensor:
#      x y z
#    x 1.582300 0.000000 0.015900 
#    y 0.000000 1.562420 0.000000 
#    z 0.015900 0.000000 1.590320 
# 
# From -- ./inp_files/366048.got.cif
#   From: 2010.05.17/outbox.cif.g08.bks.cpg/sg12_184_cif.got.tgz:366048.got - 2010.06.03 13:09:07.
