data_PCOD9192658
_publ_section_title
;
Structure prediction by ZEFSAII (Michael W. Deem and Ramdas Pophale) SiO2 
 PCOD9192658
Probable space group: C 2/M
;
_chemical_formula_sum "Si O2"
_cell_formula_units_Z 56
_cell_length_a 20.214403
_cell_length_b 8.667425
_cell_length_c 21.905591
_cell_angle_alpha 90.000000
_cell_angle_beta 36.200864
_cell_angle_gamma 90.000000
_cell_volume 2266.796560
_symmetry_space_group_name_H-M "C 2/M"
_symmetry_group_IT_number 12
_symmetry_cell_setting 'monoclinic'
loop_
_space_group_symop_operation_xyz
x,y,z
-x,y,-z
-x,-y,-z
x,-y,z
1/2+x,1/2+y,z
1/2-x,1/2+y,-z
1/2-x,1/2-y,-z
1/2+x,1/2-y,z
loop_
_atom_site_type_symbol
_atom_site_label
_atom_site_fract_x
_atom_site_fract_y
_atom_site_fract_z
Si Si1 0.106056 0.315985 0.060705
Si Si2 0.852617 0.674164 0.587813
Si Si3 0.822549 0.673016 0.356693
Si Si4 0.921391 0.180272 0.117859
Si Si5 0.179721 0.820759 0.268423
Si Si6 0.882669 0.314792 0.435186
Si Si7 0.335565 0.816456 0.846103
O O1 0.124236 0.500000 0.043698
O O2 0.117734 0.266435 0.122582
O O3 0.986324 0.272967 0.122340
O O4 0.204351 0.230631 0.950436
O O5 0.859785 0.500000 0.605950
O O6 0.725390 0.707975 0.657240
O O7 0.873814 0.793348 0.625385
O O8 0.928718 0.687463 0.470512
O O9 0.840951 0.500000 0.319276
O O10 0.914309 0.711607 0.340391
O O11 0.710034 0.680927 0.482908
O O12 0.800251 0.241084 0.188810
O O13 0.916293 0.000000 0.137282
O O14 0.000000 0.197324 0.000000
O O15 0.123944 0.751675 0.248705
O O16 0.194127 0.000000 0.246124
O O17 0.853145 0.500000 0.454861
O O18 0.348207 0.000000 0.832356
#
# Coordination Sequence:
#
# PCOD9192658 Si02
#       7
#     8   8   8   8   8   8   8
#     4  10  20  34  53  71  87 110 144 184 221 268
#     4   9  16  26  37  54  83 115 144 177 221 263
#     4   8  11  19  34  53  75 105 145 176 206 252
#     4  11  22  35  51  68  89 116 145 183 229 272
#     4  12  23  32  46  67  91 119 152 188 226 267
#     4   7  12  20  33  51  75 109 142 174 209 254
#     4  10  20  34  50  69  90 113 142 180 227 270
#
# _framework density 24.704466
#
# number of rings (size 3 to 8) (size 9 to 14) (size 15 to 20)
#    0.857    1.571    1.429    3.000    0.000    2.286 
#    0.000    0.000    0.000    0.000    0.000    0.000 
#    0.000    0.000    0.000    5.143    0.000   92.571 
#
# Total GULP energy -155966.306459 kJ/mol
# GULP energy per Si atom -5570.225231 kJ/mol
# Density = 2.464824 g / cm^3
# Si number density = 24.704466 Si / 1000 Ang^3
#
#
#
# Elastic Constant Matrix: (Units=GPa)
#
#
# Indices 1 2 3 4 5 6 
#
# 1 124.7802 20.3369 6.5867 0.0000 32.6061 0.0000
# 2 20.3369 58.0138 5.9248 0.0001 18.3120 0.0000
# 3 6.5867 5.9248 85.3333 0.0000 17.6750 0.0000
# 4 0.0000 0.0001 0.0000 16.2176 0.0000 20.7191
# 5 32.6061 18.3120 17.6750 0.0000 31.7608 0.0000
# 6 0.0000 0.0000 0.0000 20.7191 0.0000 21.9801
#
#
#
# Elastic Compliance Matrix: (Units=1/GPa)
#
#
# Indices 1 2 3 4 5 6 
#
# 1 0.011171 -0.000209 0.001698 0.000000 -0.012293 0.000000
# 2 -0.000209 0.021184 0.001165 0.000001 -0.012647 -0.000001
# 3 0.001698 0.001165 0.013571 0.000000 -0.009968 0.000000
# 4 0.000000 0.000001 0.000000 -0.301865 -0.000001 0.284546
# 5 -0.012293 -0.012647 -0.009968 -0.000001 0.056944 0.000001
# 6 0.000000 -0.000001 0.000000 0.284546 0.000001 -0.222726
#
#
# Mechanical properties :
#
#
# Convention : Reuss Voigt Hill
#
# Bulk Modulus (GPa) = 19.51830 37.09156 28.30493
# Shear Modulus (GPa) = -12.19657 29.67697 8.74020
#
# Velocity S-wave (km/s) = -2.22434 3.46971 1.88297
# Velocity P-wave (km/s) = 1.14931 5.57661 4.02613
#
# Compressibility (1/GPa) = 0.05123397
#
# Stress axis : x y z
#
# Youngs Moduli (GPa) = 89.52007 47.20608 73.68445
#
# Poissons Ratio (x) = 0.00988 -0.12515
# Poissons Ratio (y) = 0.01873 -0.08584
# Poissons Ratio (z) = -0.15204 -0.05499
#
# Static dielectric constant tensor:
#      x y z
#    x 2.166480 0.000000 -0.037270 
#    y 0.000000 1.851110 0.000000 
#    z -0.037270 0.000000 2.122200 
# 
# From -- ./inp_files/345302.got.cif
#   From: 2010.05.17/outbox.cif.g08.bks.cpg/sg12_173_cif.got.tgz:345302.got - 2010.06.03 13:09:07.
