data_PCOD9192614
_publ_section_title
;
Structure prediction by ZEFSAII (Michael W. Deem and Ramdas Pophale) SiO2 
 PCOD9192614
Probable space group: C 2/M
;
_chemical_formula_sum "Si O2"
_cell_formula_units_Z 56
_cell_length_a 11.355222
_cell_length_b 26.869009
_cell_length_c 14.476495
_cell_angle_alpha 90.000000
_cell_angle_beta 136.206335
_cell_angle_gamma 90.000000
_cell_volume 3056.726374
_symmetry_space_group_name_H-M "C 2/M"
_symmetry_group_IT_number 12
_symmetry_cell_setting 'monoclinic'
loop_
_space_group_symop_operation_xyz
x,y,z
-x,y,-z
-x,-y,-z
x,-y,z
1/2+x,1/2+y,z
1/2-x,1/2+y,-z
1/2-x,1/2-y,-z
1/2+x,1/2-y,z
loop_
_atom_site_type_symbol
_atom_site_label
_atom_site_fract_x
_atom_site_fract_y
_atom_site_fract_z
Si Si1 0.575870 0.739804 0.852073
Si Si2 0.603064 0.882922 0.154210
Si Si3 0.559279 0.442351 0.640574
Si Si4 0.246037 0.191814 0.281029
Si Si5 0.185281 0.142632 0.445651
Si Si6 0.527693 0.151885 0.744985
Si Si7 0.383805 0.701753 0.323884
O O1 0.441825 0.713597 0.842885
O O2 0.509042 0.791193 0.770475
O O3 0.612576 0.705558 0.785634
O O4 0.750000 0.750000 0.000000
O O5 0.742619 0.927079 0.234808
O O6 0.465998 0.881827 0.159887
O O7 0.730200 0.836705 0.250469
O O8 0.500000 0.878269 0.000000
O O9 0.500000 0.435223 0.500000
O O10 0.534684 0.500000 0.650060
O O11 0.437072 0.405347 0.629012
O O12 0.233956 0.166063 0.374175
O O13 0.320123 0.156834 0.242998
O O14 0.355089 0.242944 0.345238
O O15 0.361664 0.133706 0.596627
O O16 0.072797 0.180029 0.446512
#
# Coordination Sequence:
#
# PCOD9192614 Si02
#       7
#     8   8   8   8   8   8   8
#     4  10  20  34  47  69 109 162 209 235 267 334
#     4  11  21  37  58  87 122 153 198 249 293 354
#     4  10  21  41  68  88 110 149 197 255 318 365
#     4  10  21  34  52  82 115 158 200 237 284 349
#     4  10  21  37  55  85 117 149 197 249 299 350
#     4  11  21  33  54  77 116 157 192 247 289 346
#     4   9  20  32  50  78 114 160 195 231 279 337
#
# _framework density 18.320252
#
# number of rings (size 3 to 8) (size 9 to 14) (size 15 to 20)
#    0.000    1.857    2.857    1.286    0.000    8.286 
#    0.000    0.000    0.000    2.571    0.000    1.000 
#    0.000    0.000    0.000    0.000    0.000    0.000 
#
# Total GULP energy -156057.112644 kJ/mol
# GULP energy per Si atom -5573.468309 kJ/mol
# Density = 1.827855 g / cm^3
# Si number density = 18.320252 Si / 1000 Ang^3
#
#
#
# Elastic Constant Matrix: (Units=GPa)
#
#
# Indices 1 2 3 4 5 6 
#
# 1 136.5325 41.5387 36.8955 0.0000 -1.8294 0.0000
# 2 41.5387 78.8773 11.0782 0.0000 -1.2896 0.0000
# 3 36.8955 11.0782 90.0371 0.0000 -0.0753 0.0000
# 4 0.0000 0.0000 0.0000 10.5494 0.0000 1.4051
# 5 -1.8294 -1.2896 -0.0753 0.0000 21.2328 0.0000
# 6 0.0000 0.0000 0.0000 1.4051 0.0000 16.4216
#
#
#
# Elastic Compliance Matrix: (Units=1/GPa)
#
#
# Indices 1 2 3 4 5 6 
#
# 1 0.009644 -0.004595 -0.003386 0.000000 0.000540 0.000000
# 2 -0.004595 0.015103 0.000025 0.000000 0.000522 0.000000
# 3 -0.003386 0.000025 0.012491 0.000000 -0.000246 0.000000
# 4 0.000000 0.000000 0.000000 0.095885 0.000000 -0.008205
# 5 0.000540 0.000522 -0.000246 0.000000 0.047174 0.000000
# 6 0.000000 0.000000 0.000000 -0.008205 0.000000 0.061597
#
#
# Mechanical properties :
#
#
# Convention : Reuss Voigt Hill
#
# Bulk Modulus (GPa) = 46.89101 53.83018 50.36059
# Shear Modulus (GPa) = 18.87394 24.03638 21.45516
#
# Velocity S-wave (km/s) = 3.21319 3.62610 3.42587
# Velocity P-wave (km/s) = 6.27829 6.85406 6.57248
#
# Compressibility (1/GPa) = 0.02132605
#
# Stress axis : x y z
#
# Youngs Moduli (GPa) = 103.68659 66.21404 80.05817
#
# Poissons Ratio (x) = 0.30422 0.27110
# Poissons Ratio (y) = 0.47639 -0.00200
# Poissons Ratio (z) = 0.35112 -0.00165
#
# Static dielectric constant tensor:
#      x y z
#    x 1.670070 0.000000 0.009620 
#    y 0.000000 1.627160 0.000000 
#    z 0.009620 0.000000 1.669840 
# 
# From -- ./inp_files/209159.got.cif
#   From: 2010.05.17/outbox.cif.g08.bks.cpg/sg12_105_cif.got.tgz:209159.got - 2010.06.03 13:09:07.
