data_PCOD9192947
_publ_section_title
;
Structure prediction by ZEFSAII (Michael W. Deem and Ramdas Pophale) SiO2 
 PCOD9192947
Probable space group: C 2/M
;
_chemical_formula_sum "Si O2"
_cell_formula_units_Z 56
_cell_length_a 16.775567
_cell_length_b 7.359868
_cell_length_c 23.006535
_cell_angle_alpha 90.000000
_cell_angle_beta 48.693917
_cell_angle_gamma 90.000000
_cell_volume 2133.784676
_symmetry_space_group_name_H-M "C 2/M"
_symmetry_group_IT_number 12
_symmetry_cell_setting 'monoclinic'
loop_
_space_group_symop_operation_xyz
x,y,z
-x,y,-z
-x,-y,-z
x,-y,z
1/2+x,1/2+y,z
1/2-x,1/2+y,-z
1/2-x,1/2-y,-z
1/2+x,1/2-y,z
loop_
_atom_site_type_symbol
_atom_site_label
_atom_site_fract_x
_atom_site_fract_y
_atom_site_fract_z
Si Si1 0.361130 0.779392 0.242744
Si Si2 0.407009 0.708503 0.473727
Si Si3 0.414029 0.221573 0.900466
Si Si4 0.157614 0.292013 0.190498
Si Si5 0.872814 0.209495 0.666768
Si Si6 0.380281 0.780216 0.042713
Si Si7 0.180060 0.280053 0.610910
O O1 0.462079 0.723953 0.156961
O O2 0.243868 0.709759 0.285346
O O3 0.380363 0.734571 0.301142
O O4 0.357475 0.000000 0.239268
O O5 0.416751 0.500000 0.488030
O O6 0.525033 0.789624 0.415286
O O7 0.303030 0.783686 0.555694
O O8 0.370364 0.709334 0.423808
O O9 0.371933 0.285972 0.858452
O O10 0.408783 0.000000 0.902781
O O11 0.358725 0.280385 0.986534
O O12 0.120906 0.500000 0.208783
O O13 0.111289 0.209061 0.271293
O O14 0.285700 0.284092 0.129211
O O15 0.866228 0.000000 0.650742
O O16 0.378502 0.000000 0.046412
O O17 0.500000 0.724127 0.000000
O O18 0.182029 0.500000 0.605079
#
# Coordination Sequence:
#
# PCOD9192947 Si02
#       7
#     8   8   8   8   8   8   8
#     4   9  17  31  52  75  99 131 172 213 250 293
#     4   9  18  31  49  76 105 133 169 211 253 300
#     4   9  18  32  51  76 102 131 169 207 246 297
#     4  11  22  35  53  77 105 134 167 208 252 300
#     4  10  20  34  52  74 102 135 172 213 254 298
#     4  10  20  36  58  79 102 134 169 205 248 298
#     4   9  17  31  52  75 101 135 171 208 253 302
#
# _framework density 26.244446
#
# number of rings (size 3 to 8) (size 9 to 14) (size 15 to 20)
#    0.000    2.429    0.000    2.571    0.000    4.857 
#    0.000    4.286    0.000    4.286    0.000    5.000 
#    0.000    0.000    0.000    0.000    0.000    0.000 
#
# Total GULP energy -156623.621290 kJ/mol
# GULP energy per Si atom -5593.700760 kJ/mol
# Density = 2.618471 g / cm^3
# Si number density = 26.244446 Si / 1000 Ang^3
#
#
#
# Elastic Constant Matrix: (Units=GPa)
#
#
# Indices 1 2 3 4 5 6 
#
# 1 79.9560 -3.0721 5.6219 0.0000 -4.9848 0.0006
# 2 -3.0721 98.8455 -4.4612 0.0001 3.6566 0.0014
# 3 5.6219 -4.4612 146.9249 0.0000 -5.2120 0.0001
# 4 0.0000 0.0001 0.0000 -0.5258 0.0000 7.2850
# 5 -4.9848 3.6566 -5.2120 0.0000 46.9071 0.0000
# 6 0.0006 0.0014 0.0001 7.2850 0.0000 -1.1384
#
#
#
# Elastic Compliance Matrix: (Units=1/GPa)
#
#
# Indices 1 2 3 4 5 6 
#
# 1 0.012629 0.000326 -0.000428 -0.000001 0.001269 0.000000
# 2 0.000326 0.010166 0.000270 -0.000002 -0.000728 0.000000
# 3 -0.000428 0.000270 0.006855 0.000000 0.000695 0.000000
# 4 -0.000001 -0.000002 0.000000 0.021696 0.000000 0.138835
# 5 0.001269 -0.000728 0.000695 0.000000 0.021588 0.000000
# 6 0.000000 0.000000 0.000000 0.138835 0.000000 0.010020
#
#
# Mechanical properties :
#
#
# Convention : Reuss Voigt Hill
#
# Bulk Modulus (GPa) = 33.34804 35.76707 34.55755
# Shear Modulus (GPa) = 53.98841 30.89110 42.43976
#
# Velocity S-wave (km/s) = 4.54049 3.43454 4.02567
# Velocity P-wave (km/s) = 6.34211 5.42090 5.89951
#
# Compressibility (1/GPa) = 0.02998677
#
# Stress axis : x y z
#
# Youngs Moduli (GPa) = 79.18502 98.36650 145.86920
#
# Poissons Ratio (x) = -0.03209 0.06248
# Poissons Ratio (y) = -0.02583 -0.03944
# Poissons Ratio (z) = 0.03392 -0.02660
#
# Static dielectric constant tensor:
#      x y z
#    x 2.111000 0.000000 -0.039510 
#    y 0.000000 2.194180 0.000000 
#    z -0.039510 0.000000 1.972260 
# 
# From -- ./inp_files/362960.got.cif
#   From: 2010.05.17/outbox.cif.g08.bks.cpg/sg12_182_cif.got.tgz:362960.got - 2010.06.03 13:09:07.
