data_PCOD9192312
_publ_section_title
;
Structure prediction by ZEFSAII (Michael W. Deem and Ramdas Pophale) SiO2 
 PCOD9192312
Probable space group: C 2/M
;
_chemical_formula_sum "Si O2"
_cell_formula_units_Z 48
_cell_length_a 25.559492
_cell_length_b 8.706682
_cell_length_c 20.951858
_cell_angle_alpha 90.000000
_cell_angle_beta 35.405548
_cell_angle_gamma 90.000000
_cell_volume 2701.319940
_symmetry_space_group_name_H-M "C 2/M"
_symmetry_group_IT_number 12
_symmetry_cell_setting 'monoclinic'
loop_
_space_group_symop_operation_xyz
x,y,z
-x,y,-z
-x,-y,-z
x,-y,z
1/2+x,1/2+y,z
1/2-x,1/2+y,-z
1/2-x,1/2-y,-z
1/2+x,1/2-y,z
loop_
_atom_site_type_symbol
_atom_site_label
_atom_site_fract_x
_atom_site_fract_y
_atom_site_fract_z
Si Si1 0.948512 0.814408 0.225021
Si Si2 0.063808 0.316047 0.995984
Si Si3 0.747953 0.815139 0.378948
Si Si4 0.943677 0.185509 0.619246
Si Si5 0.755494 0.684046 0.766264
Si Si6 0.066663 0.814771 0.615573
O O1 0.846514 0.769977 0.306408
O O2 0.962815 0.768017 0.284203
O O3 0.954608 0.000000 0.214508
O O4 0.017784 0.742141 0.106438
O O5 0.068364 0.500000 0.991305
O O6 0.163048 0.248452 0.886911
O O7 0.000000 0.267004 0.000000
O O8 0.739048 0.767797 0.313737
O O9 0.666196 0.745570 0.500279
O O10 0.742195 0.000000 0.387690
O O11 0.844170 0.254207 0.713115
O O12 0.000000 0.230613 0.500000
O O13 0.998613 0.235320 0.627326
O O14 0.937534 0.000000 0.625701
O O15 0.753615 0.500000 0.770089
O O16 0.069948 0.000000 0.611157
#
# Coordination Sequence:
#
# PCOD9192312 Si02
#       6
#     8   8   8   8   8   8
#     4  10  21  38  57  82 116 151 187 229 280 335
#     4  11  23  38  59  85 112 146 187 231 279 334
#     4  10  20  33  54  84 117 147 180 230 284 334
#     4  10  20  36  57  82 114 150 188 233 277 323
#     4  11  22  36  58  86 113 146 187 231 279 332
#     4  10  21  36  57  83 114 153 190 227 278 334
#
# _framework density 17.769092000000001
#
# number of rings (size 3 to 8) (size 9 to 14) (size 15 to 20)
#    0.000    1.667    3.333    1.500    0.000    3.667 
#    0.000    0.833    0.000    0.000    0.000    0.000 
#    0.000    0.000    0.000    0.000    0.000    0.000 
#
# Total GULP energy -134077.608640 kJ/mol
# GULP energy per Si atom -5586.567027 kJ/mol
# Density = 1.772865 g / cm^3
# Si number density = 17.769092 Si / 1000 Ang^3
#
#
#
# Elastic Constant Matrix: (Units=GPa)
#
#
# Indices 1 2 3 4 5 6 
#
# 1 81.4319 18.4646 62.7199 0.0007 6.2002 0.0004
# 2 18.4646 14.5757 31.7197 -0.0028 0.4516 0.0025
# 3 62.7199 31.7197 160.1869 -0.0054 3.8798 0.0023
# 4 0.0007 -0.0028 -0.0054 33.2127 0.0031 -1.6481
# 5 6.2002 0.4516 3.8798 0.0031 36.7154 -0.0014
# 6 0.0004 0.0025 0.0023 -1.6481 -0.0014 12.4214
#
#
#
# Elastic Compliance Matrix: (Units=1/GPa)
#
#
# Indices 1 2 3 4 5 6 
#
# 1 0.019301 -0.014165 -0.004690 -0.000002 -0.002590 0.000003
# 2 -0.014165 0.130994 -0.020464 0.000007 0.002943 -0.000021
# 3 -0.004690 -0.020464 0.012137 0.000000 -0.000239 0.000002
# 4 -0.000002 0.000007 0.000000 0.030309 -0.000002 0.004021
# 5 -0.002590 0.002943 -0.000239 -0.000002 0.027663 0.000002
# 6 0.000003 -0.000021 0.000002 0.004021 0.000002 0.081040
#
#
# Mechanical properties :
#
#
# Convention : Reuss Voigt Hill
#
# Bulk Modulus (GPa) = 11.93393 53.55589 32.74491
# Shear Modulus (GPa) = 12.25450 26.02259 19.13854
#
# Velocity S-wave (km/s) = 2.62897 3.83101 3.28543
# Velocity P-wave (km/s) = 3.99325 7.05508 5.73237
#
# Compressibility (1/GPa) = 0.08379468
#
# Stress axis : x y z
#
# Youngs Moduli (GPa) = 51.80982 7.63391 82.39350
#
# Poissons Ratio (x) = 0.10814 0.38639
# Poissons Ratio (y) = 0.73391 1.68610
# Poissons Ratio (z) = 0.24297 0.15622
#
# Static dielectric constant tensor:
#      x y z
#    x 1.607150 0.000000 0.013370 
#    y 0.000000 1.596470 0.000000 
#    z 0.013370 0.000000 1.562280 
# 
# From -- ./inp_files/172954.got.cif
#   From: 2010.05.17/outbox.cif.g08.bks.cpg/sg12_87_cif.got.tgz:172954.got - 2010.06.03 13:09:07.
