data_PCOD9192036
_publ_section_title
;
Structure prediction by ZEFSAII (Michael W. Deem and Ramdas Pophale) SiO2 
 PCOD9192036
Probable space group: C 2/M
;
_chemical_formula_sum "Si O2"
_cell_formula_units_Z 64
_cell_length_a 10.001957
_cell_length_b 15.811096
_cell_length_c 21.851773
_cell_angle_alpha 90.000000
_cell_angle_beta 97.993143
_cell_angle_gamma 90.000000
_cell_volume 3422.108035
_symmetry_space_group_name_H-M "C 2/M"
_symmetry_group_IT_number 12
_symmetry_cell_setting 'monoclinic'
loop_
_space_group_symop_operation_xyz
x,y,z
-x,y,-z
-x,-y,-z
x,-y,z
1/2+x,1/2+y,z
1/2-x,1/2+y,-z
1/2-x,1/2-y,-z
1/2+x,1/2-y,z
loop_
_atom_site_type_symbol
_atom_site_label
_atom_site_fract_x
_atom_site_fract_y
_atom_site_fract_z
Si Si1 0.637043 0.241237 0.544238
Si Si2 0.842864 0.653568 0.123985
Si Si3 0.919759 0.899021 0.370760
Si Si4 0.696337 0.898451 0.254461
Si Si5 0.765216 0.101334 0.639294
Si Si6 0.406163 0.903834 0.259257
Si Si7 0.663119 0.092325 0.010163
Si Si8 0.652429 0.196119 0.127490
O O1 0.500000 0.221704 0.500000
O O2 0.750000 0.250000 0.500000
O O3 0.617458 0.329691 0.580099
O O4 0.681811 0.163695 0.590243
O O5 0.870539 0.597560 0.185379
O O6 0.800384 0.611866 0.057321
O O7 0.724480 0.715112 0.136571
O O8 0.989245 0.697032 0.120302
O O9 0.820682 0.882074 0.307127
O O10 0.075301 0.885940 0.361043
O O11 0.903838 0.000000 0.386802
O O12 0.555102 0.863423 0.273987
O O13 0.704274 0.859839 0.187407
O O14 0.685792 0.000000 0.247014
O O15 0.712381 0.126431 0.703907
O O16 0.742704 0.000000 0.626897
O O17 0.426194 0.000000 0.280059
O O18 0.714677 0.000000 0.031293
O O19 0.500000 0.089198 0.000000
O O20 0.698145 0.158342 0.064937
#
# Coordination Sequence:
#
# PCOD9192036 Si02
#       8
#     8   8   8   8   8   8   8   8
#     4  12  26  44  65  95 124 157 197 244 292 358
#     4  10  20  33  52  81 112 148 187 236 290 342
#     4  10  23  43  66  90 123 163 200 243 297 356
#     4   9  19  36  58  84 112 149 196 241 288 342
#     4  10  23  43  65  91 124 160 200 246 297 353
#     4   9  19  36  58  84 113 148 195 244 287 340
#     4   9  17  32  55  77 104 145 193 241 284 335
#     4  10  20  33  52  81 112 147 188 237 288 342
#
# _framework density 18.701923000000001
#
# number of rings (size 3 to 8) (size 9 to 14) (size 15 to 20)
#    0.000    2.125    1.250    1.125    3.500    5.000 
#    0.000    0.000    0.000    3.000    0.000    0.000 
#    0.000    0.000    0.000    0.000    0.000    0.000 
#
# Total GULP energy -178247.761816 kJ/mol
# GULP energy per Si atom -5570.242557 kJ/mol
# Density = 1.865936 g / cm^3
# Si number density = 18.701923 Si / 1000 Ang^3
#
#
#
# Elastic Constant Matrix: (Units=GPa)
#
#
# Indices 1 2 3 4 5 6 
#
# 1 82.1903 32.1539 50.8168 0.0000 -5.3070 0.0000
# 2 32.1539 44.2463 22.3485 0.0000 -0.7170 0.0000
# 3 50.8168 22.3485 100.9382 0.0000 -13.3183 0.0000
# 4 0.0000 0.0000 0.0000 36.0921 0.0000 -0.6184
# 5 -5.3070 -0.7170 -13.3183 0.0000 28.6656 0.0000
# 6 0.0000 0.0000 0.0000 -0.6184 0.0000 14.9198
#
#
#
# Elastic Compliance Matrix: (Units=1/GPa)
#
#
# Indices 1 2 3 4 5 6 
#
# 1 0.021984 -0.011684 -0.008504 0.000000 -0.000173 0.000000
# 2 -0.011684 0.031776 -0.001421 0.000000 -0.002029 0.000000
# 3 -0.008504 -0.001421 0.015224 0.000000 0.005463 0.000000
# 4 0.000000 0.000000 0.000000 0.027727 0.000000 0.001149
# 5 -0.000173 -0.002029 0.005463 0.000000 0.037341 0.000000
# 6 0.000000 0.000000 0.000000 0.001149 0.000000 0.067073
#
#
# Mechanical properties :
#
#
# Convention : Reuss Voigt Hill
#
# Bulk Modulus (GPa) = 38.80919 48.66813 43.73866
# Shear Modulus (GPa) = 19.76828 24.07252 21.92040
#
# Velocity S-wave (km/s) = 3.25471 3.59161 3.42730
# Velocity P-wave (km/s) = 5.90937 6.57868 6.25299
#
# Compressibility (1/GPa) = 0.02576710
#
# Stress axis : x y z
#
# Youngs Moduli (GPa) = 45.48699 31.47006 65.68682
#
# Poissons Ratio (x) = 0.36768 0.55859
# Poissons Ratio (y) = 0.53145 0.09335
# Poissons Ratio (z) = 0.38682 0.04472
#
# Static dielectric constant tensor:
#      x y z
#    x 1.634510 0.000000 -0.024360 
#    y 0.000000 1.664850 0.000000 
#    z -0.024360 0.000000 1.662840 
# 
# From -- ./inp_files/332945.got.cif
#   From: 2010.05.17/outbox.cif.g08.bks.cpg/sg12_167_cif.got.tgz:332945.got - 2010.06.03 13:09:07.
