data_PCOD9192693
_publ_section_title
;
Structure prediction by ZEFSAII (Michael W. Deem and Ramdas Pophale) SiO2 
 PCOD9192693
Probable space group: C 2/M
;
_chemical_formula_sum "Si O2"
_cell_formula_units_Z 48
_cell_length_a 20.252662
_cell_length_b 9.565493
_cell_length_c 16.775911
_cell_angle_alpha 90.000000
_cell_angle_beta 65.382918
_cell_angle_gamma 90.000000
_cell_volume 2954.560978
_symmetry_space_group_name_H-M "C 2/M"
_symmetry_group_IT_number 12
_symmetry_cell_setting 'monoclinic'
loop_
_space_group_symop_operation_xyz
x,y,z
-x,y,-z
-x,-y,-z
x,-y,z
1/2+x,1/2+y,z
1/2-x,1/2+y,-z
1/2-x,1/2-y,-z
1/2+x,1/2-y,z
loop_
_atom_site_type_symbol
_atom_site_label
_atom_site_fract_x
_atom_site_fract_y
_atom_site_fract_z
Si Si1 0.964368 0.163934 0.434138
Si Si2 0.295193 0.660867 0.089260
Si Si3 0.792234 0.834682 0.546395
Si Si4 0.283772 0.832696 0.713203
Si Si5 0.639452 0.161539 0.075721
Si Si6 0.063853 0.333152 0.271011
O O1 0.878178 0.177074 0.485346
O O2 0.000000 0.210110 0.500000
O O3 0.998938 0.252311 0.345662
O O4 0.982703 0.000000 0.414037
O O5 0.318779 0.500000 0.078622
O O6 0.275340 0.704278 0.189102
O O7 0.217456 0.664796 0.082159
O O8 0.350159 0.751871 0.009808
O O9 0.750000 0.750000 0.500000
O O10 0.777168 0.760488 0.638414
O O11 0.773892 0.000000 0.556850
O O12 0.363171 0.810122 0.713021
O O13 0.277782 0.000000 0.699695
O O14 0.582714 0.212247 0.171167
O O15 0.623872 0.000000 0.065468
O O16 0.051350 0.500000 0.276168
#
# Coordination Sequence:
#
# PCOD9192693 Si02
#       6
#     8   8   8   8   8   8
#     4  10  20  34  50  72  99 126 162 206 247 289
#     4   8  14  24  39  61  91 126 159 192 234 283
#     4  11  23  37  52  71  98 130 165 205 247 292
#     4   9  17  30  47  69  97 128 164 202 241 287
#     4   8  14  24  37  61  95 125 156 194 234 279
#     4   9  17  28  46  71  98 129 163 199 240 288
#
# _framework density 16.246068999999999
#
# number of rings (size 3 to 8) (size 9 to 14) (size 15 to 20)
#    0.000    2.833    1.667    2.500    0.000    3.000 
#    0.000    3.333    0.000    0.000    0.000    1.167 
#    0.000    9.333    0.000    0.000    0.000    0.000 
#
# Total GULP energy -133672.280132 kJ/mol
# GULP energy per Si atom -5569.678339 kJ/mol
# Density = 1.620909 g / cm^3
# Si number density = 16.246069 Si / 1000 Ang^3
#
#
#
# Elastic Constant Matrix: (Units=GPa)
#
#
# Indices 1 2 3 4 5 6 
#
# 1 28.9882 27.9008 28.6293 0.0000 2.8935 0.0000
# 2 27.9008 76.1639 92.7927 0.0000 0.4940 0.0000
# 3 28.6293 92.7927 177.3400 0.0000 -9.4158 0.0000
# 4 0.0000 0.0000 0.0000 36.6148 0.0000 -3.3663
# 5 2.8935 0.4940 -9.4158 0.0000 11.8852 0.0000
# 6 0.0000 0.0000 0.0000 -3.3663 0.0000 18.5618
#
#
#
# Elastic Compliance Matrix: (Units=1/GPa)
#
#
# Indices 1 2 3 4 5 6 
#
# 1 0.055621 -0.024043 0.003064 0.000000 -0.010114 0.000000
# 2 -0.024043 0.050346 -0.023240 0.000000 -0.014650 0.000000
# 3 0.003064 -0.023240 0.018076 0.000000 0.014541 0.000000
# 4 0.000000 0.000000 0.000000 0.027774 0.000000 0.005037
# 5 -0.010114 -0.014650 0.014541 0.000000 0.098729 0.000000
# 6 0.000000 0.000000 0.000000 0.005037 0.000000 0.054788
#
#
# Mechanical properties :
#
#
# Convention : Reuss Voigt Hill
#
# Bulk Modulus (GPa) = 28.08499 64.57085 46.32792
# Shear Modulus (GPa) = 12.32621 22.29032 17.30827
#
# Velocity S-wave (km/s) = 2.75747 3.70813 3.26756
# Velocity P-wave (km/s) = 5.24052 7.62663 6.54326
#
# Compressibility (1/GPa) = 0.03560621
#
# Stress axis : x y z
#
# Youngs Moduli (GPa) = 17.97880 19.86268 55.32076
#
# Poissons Ratio (x) = 0.47755 -0.16950
# Poissons Ratio (y) = 0.43226 1.28564
# Poissons Ratio (z) = -0.05509 0.46160
#
# Static dielectric constant tensor:
#      x y z
#    x 1.525840 0.000000 -0.000670 
#    y 0.000000 1.540710 0.000000 
#    z -0.000670 0.000000 1.555130 
# 
# From -- ./inp_files/229920.got.cif
#   From: 2010.05.17/outbox.cif.g08.bks.cpg/sg12_115_cif.got.tgz:229920.got - 2010.06.03 13:09:07.
