data_PCOD9192522
_publ_section_title
;
Structure prediction by ZEFSAII (Michael W. Deem and Ramdas Pophale) SiO2 
 PCOD9192522
Probable space group: C 2/M
;
_chemical_formula_sum "Si O2"
_cell_formula_units_Z 48
_cell_length_a 11.466603
_cell_length_b 17.963192
_cell_length_c 12.621648
_cell_angle_alpha 90.000000
_cell_angle_beta 117.870767
_cell_angle_gamma 90.000000
_cell_volume 2298.204706
_symmetry_space_group_name_H-M "C 2/M"
_symmetry_group_IT_number 12
_symmetry_cell_setting 'monoclinic'
loop_
_space_group_symop_operation_xyz
x,y,z
-x,y,-z
-x,-y,-z
x,-y,z
1/2+x,1/2+y,z
1/2-x,1/2+y,-z
1/2-x,1/2-y,-z
1/2+x,1/2-y,z
loop_
_atom_site_type_symbol
_atom_site_label
_atom_site_fract_x
_atom_site_fract_y
_atom_site_fract_z
Si Si1 0.903734 0.275493 0.054219
Si Si2 0.087761 0.587850 0.299556
Si Si3 0.889345 0.674326 0.361456
Si Si4 0.290993 0.663686 0.538027
Si Si5 0.311230 0.087422 0.893861
Si Si6 0.072261 0.815772 0.734807
O O1 0.970037 0.236890 0.184563
O O2 0.750000 0.250000 0.000000
O O3 0.875075 0.361840 0.012035
O O4 0.000000 0.249831 0.000000
O O5 0.071560 0.500000 0.305953
O O6 0.215805 0.615820 0.418787
O O7 0.119751 0.602521 0.190394
O O8 0.961349 0.627676 0.300040
O O9 0.767794 0.639793 0.372465
O O10 0.848799 0.755302 0.301671
O O11 0.000000 0.683268 0.500000
O O12 0.250000 0.750000 0.500000
O O13 0.447175 0.659132 0.614046
O O14 0.162876 0.117615 0.813155
O O15 0.318919 0.000000 0.920039
#
# Coordination Sequence:
#
# PCOD9192522 Si02
#       6
#     8   8   8   8   8   8
#     4  10  23  40  65  94 121 160 212 265 311 367
#     4  10  21  37  59  89 126 163 202 251 305 366
#     4  10  20  33  57  87 121 161 201 250 295 360
#     4  11  21  34  57  90 125 164 205 244 307 368
#     4  10  23  42  63  89 124 160 204 258 313 371
#     4  11  22  37  63  91 122 158 208 253 309 364
#
# _framework density 20.885867999999999
#
# number of rings (size 3 to 8) (size 9 to 14) (size 15 to 20)
#    0.000    1.667    3.333    2.000    4.667    4.000 
#    0.000    2.500    0.000    8.000    0.000    0.000 
#    0.000    0.000    0.000    0.000    0.000    0.000 
#
# Total GULP energy -133842.736545 kJ/mol
# GULP energy per Si atom -5576.780689 kJ/mol
# Density = 2.083833 g / cm^3
# Si number density = 20.885868 Si / 1000 Ang^3
#
#
#
# Elastic Constant Matrix: (Units=GPa)
#
#
# Indices 1 2 3 4 5 6 
#
# 1 85.1267 42.0765 32.7856 0.0000 5.2756 0.0000
# 2 42.0765 103.4266 41.3190 0.0000 -10.9997 0.0000
# 3 32.7856 41.3190 56.7236 0.0000 -4.4395 0.0000
# 4 0.0000 0.0000 0.0000 36.3039 0.0000 -2.4727
# 5 5.2756 -10.9997 -4.4395 0.0000 42.6054 0.0000
# 6 0.0000 0.0000 0.0000 -2.4727 0.0000 25.7486
#
#
#
# Elastic Compliance Matrix: (Units=1/GPa)
#
#
# Indices 1 2 3 4 5 6 
#
# 1 0.016846 -0.004601 -0.006697 0.000000 -0.003972 0.000000
# 2 -0.004601 0.015164 -0.008102 0.000000 0.003640 0.000000
# 3 -0.006697 -0.008102 0.027527 0.000000 0.001606 0.000000
# 4 0.000000 0.000000 0.000000 0.027727 0.000000 0.002663
# 5 -0.003972 0.003640 0.001606 0.000000 0.025070 0.000000
# 6 0.000000 0.000000 0.000000 0.002663 0.000000 0.039093
#
#
# Mechanical properties :
#
#
# Convention : Reuss Voigt Hill
#
# Bulk Modulus (GPa) = 48.21731 53.07102 50.64416
# Shear Modulus (GPa) = 25.36273 29.53796 27.45034
#
# Velocity S-wave (km/s) = 3.48853 3.76474 3.62926
# Velocity P-wave (km/s) = 6.27397 6.66054 6.47014
#
# Compressibility (1/GPa) = 0.02073944
#
# Stress axis : x y z
#
# Youngs Moduli (GPa) = 59.35958 65.94436 36.32743
#
# Poissons Ratio (x) = 0.30339 0.24327
# Poissons Ratio (y) = 0.27309 0.29433
# Poissons Ratio (z) = 0.39751 0.53429
#
# Static dielectric constant tensor:
#      x y z
#    x 1.832800 0.000000 -0.016820 
#    y 0.000000 1.750520 0.000000 
#    z -0.016820 0.000000 1.796660 
# 
# From -- ./inp_files/131212.got.cif
#   From: 2010.05.17/outbox.cif.g08.bks.cpg/sg12_66_cif.got.tgz:131212.got - 2010.06.03 13:09:07.
