data_PCOD9192960
_publ_section_title
;
Structure prediction by ZEFSAII (Michael W. Deem and Ramdas Pophale) SiO2 
 PCOD9192960
Probable space group: C 2/M
;
_chemical_formula_sum "Si O2"
_cell_formula_units_Z 56
_cell_length_a 16.668112
_cell_length_b 7.651928
_cell_length_c 28.196047
_cell_angle_alpha 90.000000
_cell_angle_beta 135.716513
_cell_angle_gamma 90.000000
_cell_volume 2510.908846
_symmetry_space_group_name_H-M "C 2/M"
_symmetry_group_IT_number 12
_symmetry_cell_setting 'monoclinic'
loop_
_space_group_symop_operation_xyz
x,y,z
-x,y,-z
-x,-y,-z
x,-y,z
1/2+x,1/2+y,z
1/2-x,1/2+y,-z
1/2-x,1/2-y,-z
1/2+x,1/2-y,z
loop_
_atom_site_type_symbol
_atom_site_label
_atom_site_fract_x
_atom_site_fract_y
_atom_site_fract_z
Si Si1 0.194498 0.709604 0.426130
Si Si2 0.121923 0.788276 0.572498
Si Si3 0.235028 0.705242 0.718835
Si Si4 0.951623 0.286432 0.287162
Si Si5 0.890298 0.205934 0.926146
Si Si6 0.862159 0.285630 0.149467
Si Si7 0.965263 0.699601 0.853264
O O1 0.189386 0.500000 0.420243
O O2 0.250000 0.750000 0.500000
O O3 0.279261 0.773433 0.421181
O O4 0.066432 0.775440 0.361956
O O5 0.157046 0.730109 0.639594
O O6 0.000000 0.728826 0.500000
O O7 0.119920 0.000000 0.572037
O O8 0.257080 0.500000 0.734385
O O9 0.160098 0.771613 0.731281
O O10 0.358842 0.794354 0.771269
O O11 0.950844 0.500000 0.288349
O O12 0.939921 0.235040 0.227650
O O13 0.767073 0.274256 0.892397
O O14 0.917125 0.219781 0.881488
O O15 0.884887 0.000000 0.934907
O O16 0.000000 0.281937 0.000000
O O17 0.862055 0.500000 0.147883
O O18 0.923711 0.225064 0.127110
O O19 0.991844 0.500000 0.876492
#
# Coordination Sequence:
#
# PCOD9192960 Si02
#       7
#     8   8   8   8   8   8   8
#     4  10  20  34  52  74 103 143 186 232 288 349
#     4  10  21  36  53  77 112 149 188 240 301 356
#     4  11  21  35  58  83 111 149 197 248 292 347
#     4   9  17  32  55  77 103 145 191 231 280 345
#     4  10  21  40  65  90 120 158 198 241 291 352
#     4   9  18  36  60  85 117 157 195 233 292 360
#     4  11  22  37  61  89 120 158 197 242 298 354
#
# _framework density 22.302681
#
# number of rings (size 3 to 8) (size 9 to 14) (size 15 to 20)
#    0.000    2.000    1.429    2.571    0.000    4.000 
#    0.000    2.143    0.000    0.000    0.000    0.000 
#    0.000    0.000    0.000    0.000    0.000    0.000 
#
# Total GULP energy -156378.456091 kJ/mol
# GULP energy per Si atom -5584.944860 kJ/mol
# Density = 2.225192 g / cm^3
# Si number density = 22.302681 Si / 1000 Ang^3
#
#
#
# Elastic Constant Matrix: (Units=GPa)
#
#
# Indices 1 2 3 4 5 6 
#
# 1 154.4083 2.0566 45.2289 0.0000 20.0626 0.0000
# 2 2.0566 40.1836 -4.3110 0.0000 4.9131 0.0001
# 3 45.2289 -4.3110 113.0595 0.0000 19.3415 0.0000
# 4 0.0000 0.0000 0.0000 12.0420 0.0000 -2.1060
# 5 20.0626 4.9131 19.3415 0.0000 29.0208 0.0000
# 6 0.0000 0.0001 0.0000 -2.1060 0.0000 7.0803
#
#
#
# Elastic Compliance Matrix: (Units=1/GPa)
#
#
# Indices 1 2 3 4 5 6 
#
# 1 0.007670 -0.000212 -0.002455 0.000000 -0.003630 0.000000
# 2 -0.000212 0.025794 0.002021 0.000000 -0.005567 0.000000
# 3 -0.002455 0.002021 0.010917 0.000000 -0.005921 0.000000
# 4 0.000000 0.000000 0.000000 0.087600 0.000000 0.026056
# 5 -0.003630 -0.005567 -0.005921 0.000000 0.041856 0.000000
# 6 0.000000 0.000000 0.000000 0.026056 0.000000 0.148987
#
#
# Mechanical properties :
#
#
# Convention : Reuss Voigt Hill
#
# Bulk Modulus (GPa) = 23.20854 43.73337 33.47096
# Shear Modulus (GPa) = 14.77193 27.27374 21.02284
#
# Velocity S-wave (km/s) = 2.57639 3.50078 3.07353
# Velocity P-wave (km/s) = 4.39080 5.99935 5.25696
#
# Compressibility (1/GPa) = 0.04308758
#
# Stress axis : x y z
#
# Youngs Moduli (GPa) = 130.37689 38.76861 91.59943
#
# Poissons Ratio (x) = 0.00822 0.22492
# Poissons Ratio (y) = 0.02766 -0.18510
# Poissons Ratio (z) = 0.32013 -0.07834
#
# Static dielectric constant tensor:
#      x y z
#    x 1.821580 0.000000 0.010560 
#    y 0.000000 1.874970 0.000000 
#    z 0.010560 0.000000 1.829370 
# 
# From -- ./inp_files/363161.got.cif
#   From: 2010.05.17/outbox.cif.g08.bks.cpg/sg12_182_cif.got.tgz:363161.got - 2010.06.03 13:09:07.
