data_PCOD9192353
_publ_section_title
;
Structure prediction by ZEFSAII (Michael W. Deem and Ramdas Pophale) SiO2 
 PCOD9192353
Probable space group: C 2/M
;
_chemical_formula_sum "Si O2"
_cell_formula_units_Z 56
_cell_length_a 26.442280
_cell_length_b 21.560687
_cell_length_c 5.418951
_cell_angle_alpha 90.000000
_cell_angle_beta 73.414973
_cell_angle_gamma 90.000000
_cell_volume 2960.889875
_symmetry_space_group_name_H-M "C 2/M"
_symmetry_group_IT_number 12
_symmetry_cell_setting 'monoclinic'
loop_
_space_group_symop_operation_xyz
x,y,z
-x,y,-z
-x,-y,-z
x,-y,z
1/2+x,1/2+y,z
1/2-x,1/2+y,-z
1/2-x,1/2-y,-z
1/2+x,1/2-y,z
loop_
_atom_site_type_symbol
_atom_site_label
_atom_site_fract_x
_atom_site_fract_y
_atom_site_fract_z
Si Si1 0.732102 0.072951 0.237047
Si Si2 0.302587 0.866314 0.232726
Si Si3 0.966797 0.803803 0.301028
Si Si4 0.344527 0.634522 0.046420
Si Si5 0.711292 0.284513 0.243607
Si Si6 0.632669 0.236734 0.697487
Si Si7 0.561288 0.569718 0.830541
O O1 0.699278 0.088426 0.530400
O O2 0.792269 0.096842 0.194171
O O3 0.733467 0.000000 0.194786
O O4 0.709676 0.104146 0.016963
O O5 0.253410 0.819548 0.352368
O O6 0.354537 0.823328 0.160063
O O7 0.924951 0.749262 0.323717
O O8 0.939672 0.872198 0.356087
O O9 0.000000 0.794812 0.500000
O O10 0.000000 0.805035 0.000000
O O11 0.352858 0.699203 0.181858
O O12 0.396654 0.593248 0.021319
O O13 0.327741 0.662185 0.805346
O O14 0.673329 0.234589 0.415419
O O15 0.750000 0.250000 0.000000
O O16 0.576043 0.500000 0.725301
O O17 0.500000 0.565475 0.000000
#
# Coordination Sequence:
#
# PCOD9192353 Si02
#       7
#     8   8   8   8   8   8   8
#     4  11  23  38  54  79 119 153 189 229 276 341
#     4  11  22  36  57  84 110 151 190 229 281 343
#     4  10  24  39  59  83 114 148 188 244 299 337
#     4  10  20  33  55  78 112 149 197 239 297 329
#     4  11  20  32  55  85 116 145 189 240 288 354
#     4  11  21  35  59  84 115 146 192 240 290 344
#     4   9  19  36  55  75 106 153 207 249 281 325
#
# _framework density 18.913233999999999
#
# number of rings (size 3 to 8) (size 9 to 14) (size 15 to 20)
#    0.000    1.571    2.857    3.000    6.000    0.286 
#    0.000    0.000    0.000    0.000    0.000    0.000 
#    0.000   11.429    0.000    0.000    0.000    0.000 
#
# Total GULP energy -156053.816814 kJ/mol
# GULP energy per Si atom -5573.350601 kJ/mol
# Density = 1.887019 g / cm^3
# Si number density = 18.913234 Si / 1000 Ang^3
#
#
#
# Elastic Constant Matrix: (Units=GPa)
#
#
# Indices 1 2 3 4 5 6 
#
# 1 128.2009 60.1343 41.3739 0.0000 32.0861 0.0000
# 2 60.1343 95.4993 21.9097 0.0000 11.6456 0.0000
# 3 41.3739 21.9097 68.2575 0.0000 8.6441 0.0000
# 4 0.0000 0.0000 0.0000 19.9200 0.0000 1.0481
# 5 32.0861 11.6456 8.6441 0.0000 24.1312 0.0000
# 6 0.0000 0.0000 0.0000 1.0481 0.0000 27.2178
#
#
#
# Elastic Compliance Matrix: (Units=1/GPa)
#
#
# Indices 1 2 3 4 5 6 
#
# 1 0.017807 -0.007645 -0.006084 0.000000 -0.017808 0.000000
# 2 -0.007645 0.015040 -0.000588 0.000000 0.003118 0.000000
# 3 -0.006084 -0.000588 0.018297 0.000000 0.001820 0.000000
# 4 0.000000 0.000000 0.000000 0.050303 0.000000 -0.001937
# 5 -0.017808 0.003118 0.001820 0.000000 0.062962 0.000000
# 6 0.000000 0.000000 0.000000 -0.001937 0.000000 0.036815
#
#
# Mechanical properties :
#
#
# Convention : Reuss Voigt Hill
#
# Bulk Modulus (GPa) = 44.42898 59.86597 52.14748
# Shear Modulus (GPa) = 21.06483 25.48978 23.27730
#
# Velocity S-wave (km/s) = 3.34093 3.67512 3.51200
# Velocity P-wave (km/s) = 6.19874 7.05197 6.63908
#
# Compressibility (1/GPa) = 0.02250783
#
# Stress axis : x y z
#
# Youngs Moduli (GPa) = 56.15797 66.48878 54.65440
#
# Poissons Ratio (x) = 0.50832 0.33254
# Poissons Ratio (y) = 0.42934 0.03216
# Poissons Ratio (z) = 0.34168 0.03912
#
# Static dielectric constant tensor:
#      x y z
#    x 1.676550 0.000000 0.009410 
#    y 0.000000 1.687830 0.000000 
#    z 0.009410 0.000000 1.731910 
# 
# From -- ./inp_files/25362.got.cif
#   From: 2010.05.17/outbox.cif.g08.bks.cpg/sg12_13_cif.got.tgz:25362.got - 2010.06.03 13:09:07.
