data_PCOD9192016
_publ_section_title
;
Structure prediction by ZEFSAII (Michael W. Deem and Ramdas Pophale) SiO2 
 PCOD9192016
Probable space group: C 2/M
;
_chemical_formula_sum "Si O2"
_cell_formula_units_Z 56
_cell_length_a 21.390610
_cell_length_b 7.635614
_cell_length_c 30.164325
_cell_angle_alpha 90.000000
_cell_angle_beta 150.361588
_cell_angle_gamma 90.000000
_cell_volume 2436.400702
_symmetry_space_group_name_H-M "C 2/M"
_symmetry_group_IT_number 12
_symmetry_cell_setting 'monoclinic'
loop_
_space_group_symop_operation_xyz
x,y,z
-x,y,-z
-x,-y,-z
x,-y,z
1/2+x,1/2+y,z
1/2-x,1/2+y,-z
1/2-x,1/2-y,-z
1/2+x,1/2-y,z
loop_
_atom_site_type_symbol
_atom_site_label
_atom_site_fract_x
_atom_site_fract_y
_atom_site_fract_z
Si Si1 0.345914 0.707952 0.792172
Si Si2 0.641248 0.714333 0.099800
Si Si3 0.199125 0.289868 0.532884
Si Si4 0.854126 0.285839 0.403409
Si Si5 0.052244 0.207204 0.363668
Si Si6 0.146392 0.299070 0.829040
Si Si7 0.897841 0.708374 0.102105
O O1 0.325515 0.500000 0.782632
O O2 0.332896 0.777134 0.834284
O O3 0.235195 0.776819 0.691469
O O4 0.487335 0.727182 0.858446
O O5 0.654007 0.500000 0.108010
O O6 0.728086 0.784345 0.113550
O O7 0.500000 0.756119 0.000000
O O8 0.202484 0.500000 0.534625
O O9 0.208083 0.231541 0.588549
O O10 0.072657 0.239162 0.428267
O O11 0.319689 0.223314 0.580346
O O12 0.856493 0.500000 0.402533
O O13 0.000000 0.231154 0.500000
O O14 0.942273 0.295429 0.268613
O O15 0.041212 0.000000 0.349619
O O16 0.175652 0.500000 0.858903
O O17 0.086467 0.225049 0.837145
O O18 0.911615 0.500000 0.108545
O O19 0.750000 0.750000 0.000000
#
# Coordination Sequence:
#
# PCOD9192016 Si02
#       7
#     8   8   8   8   8   8   8
#     4  10  20  36  60  87 117 153 193 244 297 344
#     4   9  18  34  57  84 112 145 190 237 280 334
#     4   9  18  33  52  74 107 143 183 231 274 329
#     4   9  18  31  53  83 109 143 196 243 281 329
#     4  10  20  33  52  80 109 142 181 228 285 336
#     4  10  21  36  58  85 110 144 191 235 279 335
#     4  11  23  39  61  88 118 152 192 239 292 354
#
# _framework density 22.984722999999999
#
# number of rings (size 3 to 8) (size 9 to 14) (size 15 to 20)
#    0.000    2.286    0.000    2.571    2.000    5.143 
#    0.000    1.429    0.000    2.571    0.000    0.000 
#    0.000    0.000    0.000    0.000    0.000    0.000 
#
# Total GULP energy -156194.993382 kJ/mol
# GULP energy per Si atom -5578.392621 kJ/mol
# Density = 2.293241 g / cm^3
# Si number density = 22.984723 Si / 1000 Ang^3
#
#
#
# Elastic Constant Matrix: (Units=GPa)
#
#
# Indices 1 2 3 4 5 6 
#
# 1 47.5096 2.2008 -17.1489 0.0001 -12.7723 0.0009
# 2 2.2008 50.6127 -6.2535 -0.0003 -5.9062 0.0035
# 3 -17.1489 -6.2535 59.2544 0.0007 -10.0736 0.0000
# 4 0.0001 -0.0003 0.0007 10.3283 0.0000 1.2431
# 5 -12.7723 -5.9062 -10.0736 0.0000 40.0079 0.0000
# 6 0.0009 0.0035 0.0000 1.2431 0.0000 9.6955
#
#
#
# Elastic Compliance Matrix: (Units=1/GPa)
#
#
# Indices 1 2 3 4 5 6 
#
# 1 0.027781 0.001406 0.010167 0.000000 0.011637 -0.000003
# 2 0.001406 0.020612 0.003318 0.000001 0.004327 -0.000008
# 3 0.010167 0.003318 0.021734 -0.000001 0.009208 -0.000002
# 4 0.000000 0.000001 -0.000001 0.098339 0.000000 -0.012609
# 5 0.011637 0.004327 0.009208 0.000000 0.031667 -0.000003
# 6 -0.000003 -0.000008 -0.000002 -0.012609 -0.000003 0.104757
#
#
# Mechanical properties :
#
#
# Convention : Reuss Voigt Hill
#
# Bulk Modulus (GPa) = 10.00910 12.77484 11.39197
# Shear Modulus (GPa) = 16.21206 23.91155 20.06180
#
# Velocity S-wave (km/s) = 2.65871 3.22890 2.95758
# Velocity P-wave (km/s) = 3.71337 4.41261 4.07800
#
# Compressibility (1/GPa) = 0.09990907
#
# Stress axis : x y z
#
# Youngs Moduli (GPa) = 35.99536 48.51631 46.01007
#
# Poissons Ratio (x) = -0.06822 -0.46778
# Poissons Ratio (y) = -0.05061 -0.15265
# Poissons Ratio (z) = -0.36596 -0.16097
#
# Static dielectric constant tensor:
#      x y z
#    x 1.975740 0.000000 0.156370 
#    y 0.000000 1.859300 0.000000 
#    z 0.156370 0.000000 2.162160 
# 
# From -- ./inp_files/380799.got.cif
#   From: 2010.05.17/outbox.cif.g08.bks.cpg/sg12_191_cif.got.tgz:380799.got - 2010.06.03 13:09:07.
