data_PCOD9192549
_publ_section_title
;
Structure prediction by ZEFSAII (Michael W. Deem and Ramdas Pophale) SiO2 
 PCOD9192549
Probable space group: C 2/M
;
_chemical_formula_sum "Si O2"
_cell_formula_units_Z 44
_cell_length_a 18.899685
_cell_length_b 13.779895
_cell_length_c 11.681657
_cell_angle_alpha 90.000000
_cell_angle_beta 134.781049
_cell_angle_gamma 90.000000
_cell_volume 2159.450336
_symmetry_space_group_name_H-M "C 2/M"
_symmetry_group_IT_number 12
_symmetry_cell_setting 'monoclinic'
loop_
_space_group_symop_operation_xyz
x,y,z
-x,y,-z
-x,-y,-z
x,-y,z
1/2+x,1/2+y,z
1/2-x,1/2+y,-z
1/2-x,1/2-y,-z
1/2+x,1/2-y,z
loop_
_atom_site_type_symbol
_atom_site_label
_atom_site_fract_x
_atom_site_fract_y
_atom_site_fract_z
Si Si1 0.391385 0.211752 0.830662
Si Si2 0.500000 0.331849 0.500000
Si Si3 0.639516 0.000000 0.139915
Si Si4 0.039988 0.500000 0.772595
Si Si5 0.180148 0.787182 0.024606
Si Si6 0.247498 0.000000 0.081288
Si Si7 0.846805 0.000000 0.274998
Si Si8 0.966413 0.282924 0.684753
O O1 0.314158 0.237242 0.843722
O O2 0.385823 0.242032 0.691776
O O3 0.393961 0.095791 0.834340
O O4 0.500000 0.246692 0.000000
O O5 0.414754 0.404855 0.359008
O O6 0.545334 0.266357 0.451135
O O7 0.759120 0.000000 0.267373
O O8 0.590987 0.000000 0.957434
O O9 0.981381 0.399017 0.691291
O O10 0.132884 0.500000 0.789278
O O11 0.250000 0.750000 0.000000
O O12 0.204032 0.899318 0.077668
O O13 0.070952 0.760434 0.852309
O O14 0.209168 0.000000 0.907944
#
# Coordination Sequence:
#
# PCOD9192549 Si02
#       8
#     8   4   4   4   8   4   4   8
#     4  10  20  33  57  94 120 141 180 245 308 340
#     4  11  24  41  56  76 118 167 202 221 266 356
#     4  11  17  34  65  88 116 135 192 255 292 334
#     4  11  19  32  62  92 114 139 188 250 301 336
#     4  11  19  34  59  89 118 144 183 243 302 337
#     4  11  19  33  59  96 109 140 191 250 291 342
#     4  10  22  37  60  82 105 159 211 232 264 341
#     4  11  22  37  57  84 120 155 193 231 288 343
#
# _framework density 20.375554000000001
#
# number of rings (size 3 to 8) (size 9 to 14) (size 15 to 20)
#    0.000    1.273    7.273    1.909    0.000    0.364 
#    0.000    6.818    0.000    2.182    0.000    0.000 
#    0.000    0.000    0.000    0.000    0.000    0.000 
#
# Total GULP energy -122700.573825 kJ/mol
# GULP energy per Si atom -5577.298810 kJ/mol
# Density = 2.032918 g / cm^3
# Si number density = 20.375554 Si / 1000 Ang^3
#
#
#
# Elastic Constant Matrix: (Units=GPa)
#
#
# Indices 1 2 3 4 5 6 
#
# 1 127.4786 44.0006 22.6535 0.0000 -30.0298 0.0000
# 2 44.0006 130.7666 13.1215 0.0000 -22.3546 0.0000
# 3 22.6535 13.1215 17.3539 0.0000 -14.9845 0.0000
# 4 0.0000 0.0000 0.0000 13.1592 0.0000 4.9739
# 5 -30.0298 -22.3546 -14.9845 0.0000 37.8126 0.0000
# 6 0.0000 0.0000 0.0000 4.9739 0.0000 40.4334
#
#
#
# Elastic Compliance Matrix: (Units=1/GPa)
#
#
# Indices 1 2 3 4 5 6 
#
# 1 0.011206 -0.002148 -0.009753 0.000000 0.003764 0.000000
# 2 -0.002148 0.009036 -0.001350 0.000000 0.003101 0.000000
# 3 -0.009753 -0.001350 0.097289 0.000000 0.030010 0.000000
# 4 0.000000 0.000000 0.000000 0.079699 0.000000 -0.009804
# 5 0.003764 0.003101 0.030010 0.000000 0.043161 0.000000
# 6 0.000000 0.000000 0.000000 -0.009804 0.000000 0.025938
#
#
# Mechanical properties :
#
#
# Convention : Reuss Voigt Hill
#
# Bulk Modulus (GPa) = 10.98577 48.35004 29.66791
# Shear Modulus (GPa) = 15.47150 31.33593 23.40372
#
# Velocity S-wave (km/s) = 2.75856 3.92588 3.39280
# Velocity P-wave (km/s) = 3.94329 6.65816 5.47177
#
# Compressibility (1/GPa) = 0.09102688
#
# Stress axis : x y z
#
# Youngs Moduli (GPa) = 89.23830 110.67285 10.27863
#
# Poissons Ratio (x) = 0.23777 0.10025
# Poissons Ratio (y) = 0.19172 0.01388
# Poissons Ratio (z) = 0.87037 0.14944
#
# Static dielectric constant tensor:
#      x y z
#    x 1.796360 0.000000 0.008540 
#    y 0.000000 1.722710 0.000000 
#    z 0.008540 0.000000 1.733920 
# 
# From -- ./inp_files/156333.got.cif
#   From: 2010.05.17/outbox.cif.g08.bks.cpg/sg12_79_cif.got.tgz:156333.got - 2010.06.03 13:09:07.
