data_PCOD9192508
_publ_section_title
;
Structure prediction by ZEFSAII (Michael W. Deem and Ramdas Pophale) SiO2 
 PCOD9192508
Probable space group: C 2/M
;
_chemical_formula_sum "Si O2"
_cell_formula_units_Z 40
_cell_length_a 10.091616
_cell_length_b 28.924689
_cell_length_c 6.861862
_cell_angle_alpha 90.000000
_cell_angle_beta 130.317391
_cell_angle_gamma 90.000000
_cell_volume 1527.197764
_symmetry_space_group_name_H-M "C 2/M"
_symmetry_group_IT_number 12
_symmetry_cell_setting 'monoclinic'
loop_
_space_group_symop_operation_xyz
x,y,z
-x,y,-z
-x,-y,-z
x,-y,z
1/2+x,1/2+y,z
1/2-x,1/2+y,-z
1/2-x,1/2-y,-z
1/2+x,1/2-y,z
loop_
_atom_site_type_symbol
_atom_site_label
_atom_site_fract_x
_atom_site_fract_y
_atom_site_fract_z
Si Si1 0.295333 0.193360 0.335903
Si Si2 0.130987 0.000000 0.318615
Si Si3 0.257906 0.500000 0.121620
Si Si4 0.500000 0.643172 0.500000
Si Si5 0.300642 0.791550 0.793963
Si Si6 0.736743 0.599560 0.419063
Si Si7 0.500000 0.077236 0.000000
O O1 0.500000 0.198860 0.500000
O O2 0.252753 0.202330 0.521525
O O3 0.209961 0.237831 0.155540
O O4 0.250976 0.139501 0.270868
O O5 0.216236 0.952394 0.326905
O O6 0.175388 0.000000 0.591799
O O7 0.920498 0.000000 0.128406
O O8 0.134046 0.544851 0.006802
O O9 0.347729 0.675312 0.262236
O O10 0.571815 0.611106 0.397218
O O11 0.500000 0.805966 0.000000
O O12 0.893290 0.602751 0.727170
#
# Coordination Sequence:
#
# PCOD9192508 Si02
#       7
#     8   4   4   4   8   8   4
#     4  10  22  41  56  89 123 151 201 241 288 365
#     4   9  16  32  47  77 119 156 180 251 289 329
#     4   8  14  26  50  77 112 142 194 247 298 324
#     4  10  20  35  58  92 116 143 200 246 296 346
#     4  10  22  42  65  85 118 156 195 251 299 344
#     4  10  20  33  57  83 121 151 196 242 293 344
#     4   9  16  28  50  86 108 150 196 238 292 345
#
# _framework density 26.191759999999999
#
# number of rings (size 3 to 8) (size 9 to 14) (size 15 to 20)
#    0.000    2.400    1.000    3.000    5.600    0.800 
#    0.000    0.500    0.000    0.000    0.000    2.100 
#    0.000    0.000    0.000    0.000    0.000    0.000 
#
# Total GULP energy -111832.729011 kJ/mol
# GULP energy per Si atom -5591.636451 kJ/mol
# Density = 2.613215 g / cm^3
# Si number density = 26.191760 Si / 1000 Ang^3
#
#
#
# Elastic Constant Matrix: (Units=GPa)
#
#
# Indices 1 2 3 4 5 6 
#
# 1 46.8334 21.0372 23.8329 0.0000 7.3081 0.0000
# 2 21.0372 211.5430 61.2010 0.0000 8.7966 0.0000
# 3 23.8329 61.2010 109.2410 0.0000 15.4497 0.0000
# 4 0.0000 0.0000 0.0000 28.7086 0.0000 1.2784
# 5 7.3081 8.7966 15.4497 0.0000 51.9300 0.0000
# 6 0.0000 0.0000 0.0000 1.2784 0.0000 30.8112
#
#
#
# Elastic Compliance Matrix: (Units=1/GPa)
#
#
# Indices 1 2 3 4 5 6 
#
# 1 0.024396 -0.001056 -0.004458 0.000000 -0.001928 0.000000
# 2 -0.001056 0.005687 -0.002965 0.000000 0.000067 0.000000
# 3 -0.004458 -0.002965 0.012139 0.000000 -0.002482 0.000000
# 4 0.000000 0.000000 0.000000 0.034897 0.000000 -0.001448
# 5 -0.001928 0.000067 -0.002482 0.000000 0.020255 0.000000
# 6 0.000000 0.000000 0.000000 -0.001448 0.000000 0.032516
#
#
# Mechanical properties :
#
#
# Convention : Reuss Voigt Hill
#
# Bulk Modulus (GPa) = 39.58321 64.41776 52.00048
# Shear Modulus (GPa) = 32.20179 39.72638 35.96409
#
# Velocity S-wave (km/s) = 3.51017 3.89877 3.70957
# Velocity P-wave (km/s) = 5.61908 6.70189 6.18423
#
# Compressibility (1/GPa) = 0.02526324
#
# Stress axis : x y z
#
# Youngs Moduli (GPa) = 40.98996 175.83032 82.37919
#
# Poissons Ratio (x) = 0.18571 0.36725
# Poissons Ratio (y) = 0.04329 0.24428
# Poissons Ratio (z) = 0.18274 0.52140
#
# Static dielectric constant tensor:
#      x y z
#    x 2.039310 0.000000 -0.010730 
#    y 0.000000 2.124860 0.000000 
#    z -0.010730 0.000000 2.090670 
# 
# From -- ./inp_files/136830.got.cif
#   From: 2010.05.17/outbox.cif.g08.bks.cpg/sg12_69_cif.got.tgz:136830.got - 2010.06.03 13:09:07.
