data_PCOD9192601
_publ_section_title
;
Structure prediction by ZEFSAII (Michael W. Deem and Ramdas Pophale) SiO2 
 PCOD9192601
Probable space group: C 2/M
;
_chemical_formula_sum "Si O2"
_cell_formula_units_Z 34
_cell_length_a 15.851706
_cell_length_b 19.264657
_cell_length_c 8.677208
_cell_angle_alpha 90.000000
_cell_angle_beta 147.761964
_cell_angle_gamma 90.000000
_cell_volume 1413.517442
_symmetry_space_group_name_H-M "C 2/M"
_symmetry_group_IT_number 12
_symmetry_cell_setting 'monoclinic'
loop_
_space_group_symop_operation_xyz
x,y,z
-x,y,-z
-x,-y,-z
x,-y,z
1/2+x,1/2+y,z
1/2-x,1/2+y,-z
1/2-x,1/2-y,-z
1/2+x,1/2-y,z
loop_
_atom_site_type_symbol
_atom_site_label
_atom_site_fract_x
_atom_site_fract_y
_atom_site_fract_z
Si Si1 0.500000 0.000000 0.000000
Si Si2 0.502404 0.739391 0.180052
Si Si3 0.095601 0.606113 0.403072
Si Si4 0.239446 0.578711 0.944824
Si Si5 0.158633 0.204325 0.695571
O O1 0.593559 0.059869 0.247374
O O2 0.583254 0.814383 0.332108
O O3 0.610655 0.687775 0.446384
O O4 0.500000 0.719889 0.000000
O O5 0.320115 0.753104 0.948546
O O6 0.222199 0.594530 0.735764
O O7 0.932585 0.583800 0.238603
O O8 0.297466 0.500000 0.054454
O O9 0.331002 0.637076 0.182015
O O10 0.000000 0.246491 0.500000
#
# Coordination Sequence:
#
# PCOD9192601 Si02
#       5
#     2   8   8   8   8
#     4  12  16  34  60 100 126 158 208 270 316 370
#     4  11  24  42  64  98 129 167 212 272 328 380
#     4  10  20  33  64  95 125 162 215 265 314 380
#     4  10  20  39  60  90 126 169 214 261 314 383
#     4  11  26  42  66  93 129 173 220 267 318 385
#
# _framework density 24.053469
#
# number of rings (size 3 to 8) (size 9 to 14) (size 15 to 20)
#    0.000    1.412    3.529    2.118    9.882    0.471 
#    0.000    0.000    0.000    0.706    0.000    0.000 
#    0.000    0.000    0.000    0.000    0.000    0.000 
#
# Total GULP energy -94770.760911 kJ/mol
# GULP energy per Si atom -5574.750642 kJ/mol
# Density = 2.399872 g / cm^3
# Si number density = 24.053469 Si / 1000 Ang^3
#
#
#
# Elastic Constant Matrix: (Units=GPa)
#
#
# Indices 1 2 3 4 5 6 
#
# 1 50.9539 26.6437 50.8632 0.0000 -11.2626 0.0000
# 2 26.6437 129.7592 80.6100 0.0000 -36.2789 0.0000
# 3 50.8632 80.6100 205.3744 0.0000 -47.6329 0.0000
# 4 0.0000 0.0000 0.0000 37.2281 0.0000 -13.4553
# 5 -11.2626 -36.2789 -47.6329 0.0000 59.2710 0.0000
# 6 0.0000 0.0000 0.0000 -13.4553 0.0000 11.7955
#
#
#
# Elastic Compliance Matrix: (Units=1/GPa)
#
#
# Indices 1 2 3 4 5 6 
#
# 1 0.026430 -0.001981 -0.006003 0.000000 -0.001015 0.000000
# 2 -0.001981 0.011053 -0.002908 0.000000 0.004052 0.000000
# 3 -0.006003 -0.002908 0.008382 0.000000 0.003816 0.000000
# 4 0.000000 0.000000 0.000000 0.045705 0.000000 0.052136
# 5 -0.001015 0.004052 0.003816 0.000000 0.022225 0.000000
# 6 0.000000 0.000000 0.000000 0.052136 0.000000 0.144250
#
#
# Mechanical properties :
#
#
# Convention : Reuss Voigt Hill
#
# Bulk Modulus (GPa) = 41.52830 78.03571 59.78200
# Shear Modulus (GPa) = 17.36972 36.85696 27.11334
#
# Velocity S-wave (km/s) = 2.69016 3.91870 3.36104
# Velocity P-wave (km/s) = 5.19151 7.27928 6.32217
#
# Compressibility (1/GPa) = 0.02407997
#
# Stress axis : x y z
#
# Youngs Moduli (GPa) = 37.83587 90.47625 119.29902
#
# Poissons Ratio (x) = 0.17925 0.71621
# Poissons Ratio (y) = 0.07496 0.34689
# Poissons Ratio (z) = 0.22715 0.26308
#
# Static dielectric constant tensor:
#      x y z
#    x 2.115150 0.000000 -0.050680 
#    y 0.000000 1.870210 0.000000 
#    z -0.050680 0.000000 1.985880 
# 
# From -- ./inp_files/37975.got.cif
#   From: 2010.05.17/outbox.cif.g08.bks.cpg/sg12_19_cif.got.tgz:37975.got - 2010.06.03 13:09:07.
