data_PCOD9192631
_publ_section_title
;
Structure prediction by ZEFSAII (Michael W. Deem and Ramdas Pophale) SiO2 
 PCOD9192631
Probable space group: C 2/M
;
_chemical_formula_sum "Si O2"
_cell_formula_units_Z 48
_cell_length_a 23.887036
_cell_length_b 9.093021
_cell_length_c 31.318901
_cell_angle_alpha 90.000000
_cell_angle_beta 154.760510
_cell_angle_gamma 90.000000
_cell_volume 2900.661464
_symmetry_space_group_name_H-M "C 2/M"
_symmetry_group_IT_number 12
_symmetry_cell_setting 'monoclinic'
loop_
_space_group_symop_operation_xyz
x,y,z
-x,y,-z
-x,-y,-z
x,-y,z
1/2+x,1/2+y,z
1/2-x,1/2+y,-z
1/2-x,1/2-y,-z
1/2+x,1/2-y,z
loop_
_atom_site_type_symbol
_atom_site_label
_atom_site_fract_x
_atom_site_fract_y
_atom_site_fract_z
Si Si1 0.227098 0.674957 0.355956
Si Si2 0.971890 0.168777 0.418083
Si Si3 0.646303 0.824035 0.396045
Si Si4 0.293882 0.326020 0.744310
Si Si5 0.413416 0.329756 0.278925
Si Si6 0.629017 0.176707 0.116098
O O1 0.206939 0.500000 0.336982
O O2 0.384411 0.700322 0.465168
O O3 0.175599 0.718109 0.367231
O O4 0.166733 0.759557 0.274253
O O5 0.857927 0.277517 0.353632
O O6 0.976856 0.173655 0.370095
O O7 0.934559 0.000000 0.403948
O O8 0.750000 0.750000 0.500000
O O9 0.502075 0.770672 0.310303
O O10 0.659354 0.000000 0.408435
O O11 0.307214 0.500000 0.754058
O O12 0.366958 0.254148 0.835206
O O13 0.416280 0.500000 0.266429
O O14 0.262497 0.284056 0.182578
O O15 0.635303 0.000000 0.127131
O O16 0.500000 0.211519 0.000000
#
# Coordination Sequence:
#
# PCOD9192631 Si02
#       6
#     8   8   8   8   8   8
#     4  10  20  34  49  67  99 145 182 206 242 302
#     4   9  17  32  50  68  99 142 178 207 245 303
#     4  11  21  33  50  73 104 143 181 212 247 295
#     4  11  22  32  47  77 107 130 164 216 268 304
#     4   9  17  32  52  78 105 131 170 214 255 301
#     4   9  19  38  62  80  98 132 172 209 257 319
#
# _framework density 16.54795
#
# number of rings (size 3 to 8) (size 9 to 14) (size 15 to 20)
#    0.000    2.167    1.667    3.500    0.000    7.000 
#    0.000    0.000    0.000    1.000    0.000    0.000 
#    0.000    0.000    0.000    0.000    0.000    0.000 
#
# Total GULP energy -133907.478219 kJ/mol
# GULP energy per Si atom -5579.478259 kJ/mol
# Density = 1.651029 g / cm^3
# Si number density = 16.547950 Si / 1000 Ang^3
#
#
#
# Elastic Constant Matrix: (Units=GPa)
#
#
# Indices 1 2 3 4 5 6 
#
# 1 119.0842 59.3566 60.6756 -0.0004 -23.5248 -0.0001
# 2 59.3566 62.4479 48.7339 -0.0005 -14.2146 -0.0005
# 3 60.6756 48.7339 108.7819 -0.0011 -12.9867 -0.0003
# 4 -0.0004 -0.0005 -0.0011 16.4207 -0.0005 2.5884
# 5 -23.5248 -14.2146 -12.9867 -0.0005 15.1517 0.0000
# 6 -0.0001 -0.0005 -0.0003 2.5884 0.0000 27.3183
#
#
#
# Elastic Compliance Matrix: (Units=1/GPa)
#
#
# Indices 1 2 3 4 5 6 
#
# 1 0.019254 -0.012022 -0.003488 0.000000 0.015626 0.000000
# 2 -0.012022 0.035730 -0.008386 0.000000 0.007667 0.000000
# 3 -0.003488 -0.008386 0.014826 0.000001 -0.000575 0.000000
# 4 0.000000 0.000000 0.000001 0.061822 0.000004 -0.005858
# 5 0.015626 0.007667 -0.000575 0.000004 0.096960 0.000000
# 6 0.000000 0.000000 0.000000 -0.005858 0.000000 0.037160
#
#
# Mechanical properties :
#
#
# Convention : Reuss Voigt Hill
#
# Bulk Modulus (GPa) = 45.41715 69.76069 57.58892
# Shear Modulus (GPa) = 15.58202 19.88133 17.73167
#
# Velocity S-wave (km/s) = 3.07193 3.46994 3.27698
# Velocity P-wave (km/s) = 6.33148 7.63559 7.01391
#
# Compressibility (1/GPa) = 0.02201811
#
# Stress axis : x y z
#
# Youngs Moduli (GPa) = 51.93853 27.98807 67.44685
#
# Poissons Ratio (x) = 0.33646 0.23526
# Poissons Ratio (y) = 0.62439 0.56561
# Poissons Ratio (z) = 0.18116 0.23471
#
# Static dielectric constant tensor:
#      x y z
#    x 1.577350 0.000000 -0.002480 
#    y 0.000000 1.549710 0.000000 
#    z -0.002480 0.000000 1.544170 
# 
# From -- ./inp_files/236316.got.cif
#   From: 2010.05.17/outbox.cif.g08.bks.cpg/sg12_119_cif.got.tgz:236316.got - 2010.06.03 13:09:07.
