data_PCOD9192656
_publ_section_title
;
Structure prediction by ZEFSAII (Michael W. Deem and Ramdas Pophale) SiO2 
 PCOD9192656
Probable space group: C 2/M
;
_chemical_formula_sum "Si O2"
_cell_formula_units_Z 48
_cell_length_a 36.149749
_cell_length_b 8.199936
_cell_length_c 7.238411
_cell_angle_alpha 90.000000
_cell_angle_beta 102.683789
_cell_angle_gamma 90.000000
_cell_volume 2093.289590
_symmetry_space_group_name_H-M "C 2/M"
_symmetry_group_IT_number 12
_symmetry_cell_setting 'monoclinic'
loop_
_space_group_symop_operation_xyz
x,y,z
-x,y,-z
-x,-y,-z
x,-y,z
1/2+x,1/2+y,z
1/2-x,1/2+y,-z
1/2-x,1/2-y,-z
1/2+x,1/2-y,z
loop_
_atom_site_type_symbol
_atom_site_label
_atom_site_fract_x
_atom_site_fract_y
_atom_site_fract_z
Si Si1 0.667471 0.309407 0.192781
Si Si2 0.455046 0.500000 0.481880
Si Si3 0.249911 0.195636 0.285827
Si Si4 0.455501 0.500000 0.921289
Si Si5 0.669101 0.313573 0.643980
Si Si6 0.589354 0.820654 0.567989
Si Si7 0.587427 0.178572 0.115569
O O1 0.662056 0.500000 0.137160
O O2 0.708549 0.250794 0.169032
O O3 0.669304 0.305320 0.419514
O O4 0.630689 0.207713 0.100871
O O5 0.500000 0.500000 0.500000
O O6 0.448351 0.500000 0.694372
O O7 0.435190 0.666553 0.393144
O O8 0.250000 0.250000 0.500000
O O9 0.288812 0.264910 0.247667
O O10 0.250825 0.000000 0.278586
O O11 0.436817 0.333764 0.972516
O O12 0.500000 0.500000 0.000000
O O13 0.661422 0.500000 0.686718
O O14 0.633460 0.207067 0.665908
O O15 0.587696 0.819892 0.340979
O O16 0.576421 0.000000 0.614052
O O17 0.573635 0.000000 0.043606
#
# Coordination Sequence:
#
# PCOD9192656 Si02
#       7
#     8   4   8   4   8   8   8
#     4   8  13  21  31  46  74 108 144 181 214 253
#     4  10  20  34  50  70  92 116 152 192 228 274
#     4   9  15  19  26  43  70 105 144 183 214 249
#     4  10  20  34  50  68  92 118 148 190 232 272
#     4   9  14  21  32  48  74 107 145 183 214 255
#     4   9  16  27  43  61  83 114 149 183 222 269
#     4   9  16  26  43  61  81 113 150 182 219 270
#
# _framework density 22.930416000000001
#
# number of rings (size 3 to 8) (size 9 to 14) (size 15 to 20)
#    0.000    3.000    1.667    2.000    0.000    5.333 
#    0.000    0.000    0.000    0.000    0.000    0.000 
#    0.000    0.000    0.000    1.500    1.333    1.667 
#
# Total GULP energy -134022.058594 kJ/mol
# GULP energy per Si atom -5584.252441 kJ/mol
# Density = 2.287823 g / cm^3
# Si number density = 22.930416 Si / 1000 Ang^3
#
#
#
# Elastic Constant Matrix: (Units=GPa)
#
#
# Indices 1 2 3 4 5 6 
#
# 1 113.9437 82.9882 42.1860 0.0000 49.0235 0.0000
# 2 82.9882 184.8576 22.6147 0.0000 36.4207 0.0000
# 3 42.1860 22.6147 62.1478 0.0000 -34.6561 0.0000
# 4 0.0000 0.0000 0.0000 -17.2994 0.0000 17.1160
# 5 49.0235 36.4207 -34.6561 0.0000 26.6520 0.0000
# 6 0.0000 0.0000 0.0000 17.1160 0.0000 23.6370
#
#
#
# Elastic Compliance Matrix: (Units=1/GPa)
#
#
# Indices 1 2 3 4 5 6 
#
# 1 0.001925 -0.005309 0.009810 0.000000 0.016470 0.000000
# 2 -0.005309 0.008043 -0.000023 0.000000 -0.001256 0.000000
# 3 0.009810 -0.000023 -0.002198 0.000000 -0.020870 0.000000
# 4 0.000000 0.000000 0.000000 -0.033677 0.000000 0.024386
# 5 0.016470 -0.001256 -0.020870 0.000000 -0.018196 0.000000
# 6 0.000000 0.000000 0.000000 0.024386 0.000000 0.024648
#
#
# Mechanical properties :
#
#
# Convention : Reuss Voigt Hill
#
# Bulk Modulus (GPa) = 59.79011 72.94744 66.36878
# Shear Modulus (GPa) = -218.96309 20.80860 -99.07725
#
# Velocity S-wave (km/s) = -9.78251 3.01569 -6.58039
# Velocity P-wave (km/s) = 10.07301 6.63381 5.35995
#
# Compressibility (1/GPa) = 0.01672517
#
# Stress axis : x y z
#
# Youngs Moduli (GPa) = 519.49341 124.32682 -455.01920
#
# Poissons Ratio (x) = 0.66008 4.46364
# Poissons Ratio (y) = 2.75811 -0.01057
# Poissons Ratio (z) = -5.09612 0.00289
#
# Static dielectric constant tensor:
#      x y z
#    x 1.866400 0.000000 -0.118180 
#    y 0.000000 1.813810 0.000000 
#    z -0.118180 0.000000 2.129720 
# 
# From -- ./inp_files/185981.got.cif
#   From: 2010.05.17/outbox.cif.g08.bks.cpg/sg12_93_cif.got.tgz:185981.got - 2010.06.03 13:09:07.
