data_PCOD9192442
_publ_section_title
;
Structure prediction by ZEFSAII (Michael W. Deem and Ramdas Pophale) SiO2 
 PCOD9192442
Probable space group: C 2/M
;
_chemical_formula_sum "Si O2"
_cell_formula_units_Z 64
_cell_length_a 13.983139
_cell_length_b 23.823260
_cell_length_c 11.653708
_cell_angle_alpha 90.000000
_cell_angle_beta 111.918886
_cell_angle_gamma 90.000000
_cell_volume 3601.502832
_symmetry_space_group_name_H-M "C 2/M"
_symmetry_group_IT_number 12
_symmetry_cell_setting 'monoclinic'
loop_
_space_group_symop_operation_xyz
x,y,z
-x,y,-z
-x,-y,-z
x,-y,z
1/2+x,1/2+y,z
1/2-x,1/2+y,-z
1/2-x,1/2-y,-z
1/2+x,1/2-y,z
loop_
_atom_site_type_symbol
_atom_site_label
_atom_site_fract_x
_atom_site_fract_y
_atom_site_fract_z
Si Si1 0.243670 0.766690 0.188093
Si Si2 0.139822 0.065396 0.784695
Si Si3 0.168131 0.174404 0.933758
Si Si4 0.463432 0.727905 0.772664
Si Si5 0.055031 0.874593 0.406294
Si Si6 0.441460 0.180496 0.351816
Si Si7 0.750413 0.433845 0.595155
Si Si8 0.986760 0.437205 0.631629
O O1 0.283379 0.708775 0.151150
O O2 0.135946 0.757236 0.199928
O O3 0.327675 0.793630 0.309916
O O4 0.229317 0.809617 0.075176
O O5 0.161619 0.109648 0.895487
O O6 0.219512 0.075453 0.714662
O O7 0.025991 0.080996 0.684592
O O8 0.144562 0.000000 0.818605
O O9 0.055011 0.202326 0.891017
O O10 0.436952 0.677993 0.673067
O O11 0.503391 0.780203 0.716975
O O12 0.166155 0.900090 0.484389
O O13 0.000000 0.856527 0.500000
O O14 0.500000 0.182588 0.500000
O O15 0.443776 0.116455 0.307586
O O16 0.733763 0.500000 0.566054
O O17 0.868833 0.422448 0.614399
O O18 0.009940 0.500000 0.688547
O O19 0.000000 0.441397 0.500000
#
# Coordination Sequence:
#
# PCOD9192442 Si02
#       8
#     8   8   8   8   8   8   8   8
#     4  10  21  37  57  75 102 143 175 213 261 310
#     4   9  17  31  54  80 107 133 168 223 265 303
#     4   9  20  38  55  78 104 133 182 216 254 315
#     4  10  20  33  56  80 105 139 170 216 262 305
#     4   9  17  29  48  78 114 138 168 206 259 322
#     4  10  22  36  51  81 109 134 175 216 260 312
#     4   9  17  29  50  76 104 146 181 203 256 316
#     4   9  19  34  49  68 104 145 178 215 251 304
#
# _framework density 17.770361000000001
#
# number of rings (size 3 to 8) (size 9 to 14) (size 15 to 20)
#    0.000    2.625    0.000    1.125    5.250    3.000 
#    0.000    0.625    0.000    6.750    0.000    2.625 
#    0.000    0.000    0.000    0.000    0.000    0.000 
#
# Total GULP energy -178356.838818 kJ/mol
# GULP energy per Si atom -5573.651213 kJ/mol
# Density = 1.772991 g / cm^3
# Si number density = 17.770361 Si / 1000 Ang^3
#
#
#
# Elastic Constant Matrix: (Units=GPa)
#
#
# Indices 1 2 3 4 5 6 
#
# 1 81.0781 12.4508 -14.1401 0.0000 -3.7486 0.0000
# 2 12.4508 80.4940 12.3800 0.0000 -3.4323 0.0000
# 3 -14.1401 12.3800 34.3463 0.0000 7.4903 0.0000
# 4 0.0000 0.0000 0.0000 9.5274 0.0000 4.4126
# 5 -3.7486 -3.4323 7.4903 0.0000 12.9714 0.0000
# 6 0.0000 0.0000 0.0000 4.4126 0.0000 13.0845
#
#
#
# Elastic Compliance Matrix: (Units=1/GPa)
#
#
# Indices 1 2 3 4 5 6 
#
# 1 0.014054 -0.003322 0.007195 0.000000 -0.000973 0.000000
# 2 -0.003322 0.014538 -0.008280 0.000000 0.007668 0.000000
# 3 0.007195 -0.008280 0.040141 0.000000 -0.023291 0.000000
# 4 0.000000 0.000000 0.000000 0.124388 0.000000 -0.041949
# 5 -0.000973 0.007668 -0.023291 0.000000 0.092290 0.000000
# 6 0.000000 0.000000 0.000000 -0.041949 0.000000 0.090573
#
#
# Mechanical properties :
#
#
# Convention : Reuss Voigt Hill
#
# Bulk Modulus (GPa) = 16.68901 24.14443 20.41672
# Shear Modulus (GPa) = 12.35268 19.46517 15.90893
#
# Velocity S-wave (km/s) = 2.63939 3.31323 2.99532
# Velocity P-wave (km/s) = 4.32439 5.31536 4.84528
#
# Compressibility (1/GPa) = 0.05991969
#
# Stress axis : x y z
#
# Youngs Moduli (GPa) = 71.15494 68.78751 24.91203
#
# Poissons Ratio (x) = 0.22851 -0.17925
# Poissons Ratio (y) = 0.23637 0.20627
# Poissons Ratio (z) = -0.51198 0.56955
#
# Static dielectric constant tensor:
#      x y z
#    x 1.613480 0.000000 0.006920 
#    y 0.000000 1.609370 0.000000 
#    z 0.006920 0.000000 1.601620 
# 
# From -- ./inp_files/135993.got.cif
#   From: 2010.05.17/outbox.cif.g08.bks.cpg/sg12_68_cif.got.tgz:135993.got - 2010.06.03 13:09:07.
