data_PCOD9192883
_publ_section_title
;
Structure prediction by ZEFSAII (Michael W. Deem and Ramdas Pophale) SiO2 
 PCOD9192883
Probable space group: C 2/M
;
_chemical_formula_sum "Si O2"
_cell_formula_units_Z 56
_cell_length_a 19.767938
_cell_length_b 7.778106
_cell_length_c 31.233005
_cell_angle_alpha 90.000000
_cell_angle_beta 37.391537
_cell_angle_gamma 90.000000
_cell_volume 2916.235520
_symmetry_space_group_name_H-M "C 2/M"
_symmetry_group_IT_number 12
_symmetry_cell_setting 'monoclinic'
loop_
_space_group_symop_operation_xyz
x,y,z
-x,y,-z
-x,-y,-z
x,-y,z
1/2+x,1/2+y,z
1/2-x,1/2+y,-z
1/2-x,1/2-y,-z
1/2+x,1/2-y,z
loop_
_atom_site_type_symbol
_atom_site_label
_atom_site_fract_x
_atom_site_fract_y
_atom_site_fract_z
Si Si1 0.224434 0.207821 0.781791
Si Si2 0.170325 0.293512 0.500005
Si Si3 0.135563 0.207981 0.653865
Si Si4 0.977232 0.707142 0.653662
Si Si5 0.620951 0.795487 0.065183
Si Si6 0.973024 0.706343 0.060762
Si Si7 0.073787 0.204879 0.778701
O O1 0.351023 0.271543 0.718968
O O2 0.150668 0.256062 0.859961
O O3 0.156746 0.271729 0.774038
O O4 0.226831 0.000000 0.778728
O O5 0.161931 0.500000 0.500199
O O6 0.250000 0.250000 0.500000
O O7 0.241970 0.230664 0.423469
O O8 0.049914 0.229200 0.576312
O O9 0.099883 0.273360 0.718380
O O10 0.046309 0.252821 0.661963
O O11 0.139654 0.000000 0.653289
O O12 0.972491 0.500000 0.652746
O O13 0.557095 0.726150 0.055109
O O14 0.550869 0.734876 0.141507
O O15 0.611496 0.000000 0.069170
O O16 0.750000 0.750000 0.000000
O O17 0.986006 0.500000 0.052877
O O18 0.000000 0.773796 0.000000
O O19 0.090508 0.000000 0.768486
#
# Coordination Sequence:
#
# PCOD9192883 Si02
#       7
#     8   8   8   8   8   8   8
#     4   9  18  32  48  67  93 123 151 183 228 275
#     4   8  14  26  43  64  91 120 151 188 229 269
#     4   9  17  29  47  69  91 121 159 193 226 267
#     4   9  17  29  46  69  95 121 152 192 233 272
#     4  10  20  34  52  72  94 121 152 187 229 274
#     4   9  19  35  52  69  90 118 152 188 225 267
#     4   9  18  33  49  66  93 125 155 188 226 271
#
# _framework density 19.202839000000001
#
# number of rings (size 3 to 8) (size 9 to 14) (size 15 to 20)
#    0.000    3.000    0.000    0.429    0.000    3.143 
#    0.000    5.000    0.000    4.286    0.000    0.000 
#    0.000   16.000    0.000    0.000    0.000    0.000 
#
# Total GULP energy -155980.695136 kJ/mol
# GULP energy per Si atom -5570.739112 kJ/mol
# Density = 1.915913 g / cm^3
# Si number density = 19.202839 Si / 1000 Ang^3
#
#
#
# Elastic Constant Matrix: (Units=GPa)
#
#
# Indices 1 2 3 4 5 6 
#
# 1 63.4266 0.8913 98.5833 0.0001 2.9814 0.0110
# 2 0.8913 23.5998 -1.6233 0.0104 3.5730 -0.0151
# 3 98.5833 -1.6233 231.7697 0.0024 5.1702 -0.0005
# 4 0.0001 0.0104 0.0024 15.9350 -0.0003 0.3617
# 5 2.9814 3.5730 5.1702 -0.0003 35.9587 0.0003
# 6 0.0110 -0.0151 -0.0005 0.3617 0.0003 14.1511
#
#
#
# Elastic Compliance Matrix: (Units=1/GPa)
#
#
# Indices 1 2 3 4 5 6 
#
# 1 0.046773 -0.003027 -0.019900 0.000006 -0.000716 -0.000041
# 2 -0.003027 0.043253 0.001686 -0.000030 -0.004289 0.000050
# 3 -0.019900 0.001686 0.012799 -0.000003 -0.000358 0.000018
# 4 0.000006 -0.000030 -0.000003 0.062791 0.000003 -0.001605
# 5 -0.000716 -0.004289 -0.000358 0.000003 0.028347 -0.000005
# 6 -0.000041 0.000050 0.000018 -0.001605 -0.000005 0.070707
#
#
# Mechanical properties :
#
#
# Convention : Reuss Voigt Hill
#
# Bulk Modulus (GPa) = 16.57188 57.16652 36.86920
# Shear Modulus (GPa) = 15.27807 27.93861 21.60834
#
# Velocity S-wave (km/s) = 2.82373 3.81848 3.35814
# Velocity P-wave (km/s) = 4.39089 7.01965 5.85472
#
# Compressibility (1/GPa) = 0.06034319
#
# Stress axis : x y z
#
# Youngs Moduli (GPa) = 21.37985 23.11976 78.13143
#
# Poissons Ratio (x) = 0.06998 1.55483
# Poissons Ratio (y) = 0.06471 -0.13174
# Poissons Ratio (z) = 0.42546 -0.03898
#
# Static dielectric constant tensor:
#      x y z
#    x 1.640700 0.000010 0.023190 
#    y 0.000010 1.711180 -0.000010 
#    z 0.023190 -0.000010 1.674200 
# 
# From -- ./inp_files/320202.got.cif
#   From: 2010.05.17/outbox.cif.g08.bks.cpg/sg12_161_cif.got.tgz:320202.got - 2010.06.03 13:09:07.
