data_PCOD9192159
_publ_section_title
;
Structure prediction by ZEFSAII (Michael W. Deem and Ramdas Pophale) SiO2 
 PCOD9192159
Probable space group: C 2/M
;
_chemical_formula_sum "Si O2"
_cell_formula_units_Z 64
_cell_length_a 30.014170
_cell_length_b 9.081308
_cell_length_c 18.042188
_cell_angle_alpha 90.000000
_cell_angle_beta 39.807318
_cell_angle_gamma 90.000000
_cell_volume 3148.363894
_symmetry_space_group_name_H-M "C 2/M"
_symmetry_group_IT_number 12
_symmetry_cell_setting 'monoclinic'
loop_
_space_group_symop_operation_xyz
x,y,z
-x,y,-z
-x,-y,-z
x,-y,z
1/2+x,1/2+y,z
1/2-x,1/2+y,-z
1/2-x,1/2-y,-z
1/2+x,1/2-y,z
loop_
_atom_site_type_symbol
_atom_site_label
_atom_site_fract_x
_atom_site_fract_y
_atom_site_fract_z
Si Si1 0.471016 0.662944 0.952267
Si Si2 0.897676 0.328257 0.480242
Si Si3 0.154222 0.336351 0.848450
Si Si4 0.695034 0.173387 0.126797
Si Si5 0.278687 0.166349 0.737038
Si Si6 0.185908 0.169040 0.541742
Si Si7 0.463687 0.820438 0.625757
Si Si8 0.905704 0.662409 0.240748
O O1 0.480722 0.500000 0.907783
O O2 0.513411 0.799519 0.865108
O O3 0.500000 0.655840 0.000000
O O4 0.391436 0.711580 0.054124
O O5 0.899074 0.500000 0.457249
O O6 0.858375 0.320252 0.609501
O O7 0.847823 0.243890 0.487096
O O8 0.976828 0.278007 0.389966
O O9 0.144578 0.500000 0.891720
O O10 0.232894 0.285522 0.753660
O O11 0.127156 0.340240 0.798891
O O12 0.727595 0.183821 0.167494
O O13 0.613964 0.225971 0.246181
O O14 0.690275 0.000000 0.112522
O O15 0.750000 0.250000 0.000000
O O16 0.257199 0.000000 0.742847
O O17 0.250000 0.250000 0.500000
O O18 0.126055 0.197512 0.678147
O O19 0.203279 0.000000 0.506279
O O20 0.500000 0.774061 0.500000
O O21 0.460455 0.000000 0.625781
O O22 0.892255 0.500000 0.290634
#
# Coordination Sequence:
#
# PCOD9192159 Si02
#       8
#     8   8   8   8   8   8   8   8
#     4   9  17  31  52  76 104 141 187 238 292 352
#     4  10  20  37  64  93 118 155 208 262 312 366
#     4  10  20  33  53  81 112 150 196 245 296 355
#     4  10  21  39  63  93 126 160 198 249 311 375
#     4  10  20  35  58  86 116 152 198 248 301 364
#     4  12  25  40  57  82 119 160 202 252 310 367
#     4   9  16  35  68  97 121 156 209 261 307 369
#     4  10  20  36  56  79 111 151 196 247 301 359
#
# _framework density 20.328019999999999
#
# number of rings (size 3 to 8) (size 9 to 14) (size 15 to 20)
#    0.000    2.000    1.250    3.000    0.000    6.000 
#    2.250    0.625    0.000    0.750    0.000    0.000 
#    0.000    0.000    0.000    0.000    0.000    0.000 
#
# Total GULP energy -178143.899694 kJ/mol
# GULP energy per Si atom -5566.996865 kJ/mol
# Density = 2.028175 g / cm^3
# Si number density = 20.328020 Si / 1000 Ang^3
#
#
#
# Elastic Constant Matrix: (Units=GPa)
#
#
# Indices 1 2 3 4 5 6 
#
# 1 73.4787 39.9420 37.8931 -0.0007 -15.7847 -0.0002
# 2 39.9420 82.7007 30.7242 -0.0037 -4.2913 0.0026
# 3 37.8931 30.7242 91.5417 -0.0009 -22.0822 0.0010
# 4 -0.0007 -0.0037 -0.0009 26.0115 0.0024 3.9341
# 5 -15.7847 -4.2913 -22.0822 0.0024 22.2058 -0.0010
# 6 -0.0002 0.0026 0.0010 3.9341 -0.0010 12.6567
#
#
#
# Elastic Compliance Matrix: (Units=1/GPa)
#
#
# Indices 1 2 3 4 5 6 
#
# 1 0.022776 -0.009024 -0.003834 -0.000002 0.010633 0.000004
# 2 -0.009024 0.017501 -0.003776 0.000004 -0.006787 -0.000005
# 3 -0.003834 -0.003776 0.017030 -0.000001 0.013480 0.000001
# 4 -0.000002 0.000004 -0.000001 0.040341 -0.000007 -0.012539
# 5 0.010633 -0.006787 0.013480 -0.000007 0.064686 0.000008
# 6 0.000004 -0.000005 0.000001 -0.012539 0.000008 0.082907
#
#
# Mechanical properties :
#
#
# Convention : Reuss Voigt Hill
#
# Bulk Modulus (GPa) = 41.59856 51.64885 46.62370
# Shear Modulus (GPa) = 17.45067 21.45224 19.45146
#
# Velocity S-wave (km/s) = 2.93312 3.25207 3.09670
# Velocity P-wave (km/s) = 5.65500 6.29000 5.98093
#
# Compressibility (1/GPa) = 0.02403929
#
# Stress axis : x y z
#
# Youngs Moduli (GPa) = 43.90505 57.14081 58.71947
#
# Poissons Ratio (x) = 0.51564 0.22515
# Poissons Ratio (y) = 0.39620 0.22170
# Poissons Ratio (z) = 0.16835 0.21574
#
# Static dielectric constant tensor:
#      x y z
#    x 1.881550 -0.000010 -0.102260 
#    y -0.000010 1.699270 0.000010 
#    z -0.102260 0.000010 1.894060 
# 
# From -- ./inp_files/295502.got.cif
#   From: 2010.05.17/outbox.cif.g08.bks.cpg/sg12_148_cif.got.tgz:295502.got - 2010.06.03 13:09:07.
