data_PCOD9192798
_publ_section_title
;
Structure prediction by ZEFSAII (Michael W. Deem and Ramdas Pophale) SiO2 
 PCOD9192798
Probable space group: C 2/M
;
_chemical_formula_sum "Si O2"
_cell_formula_units_Z 56
_cell_length_a 16.528140
_cell_length_b 25.352562
_cell_length_c 9.552837
_cell_angle_alpha 90.000000
_cell_angle_beta 135.265881
_cell_angle_gamma 90.000000
_cell_volume 2817.334942
_symmetry_space_group_name_H-M "C 2/M"
_symmetry_group_IT_number 12
_symmetry_cell_setting 'monoclinic'
loop_
_space_group_symop_operation_xyz
x,y,z
-x,y,-z
-x,-y,-z
x,-y,z
1/2+x,1/2+y,z
1/2-x,1/2+y,-z
1/2-x,1/2-y,-z
1/2+x,1/2-y,z
loop_
_atom_site_type_symbol
_atom_site_label
_atom_site_fract_x
_atom_site_fract_y
_atom_site_fract_z
Si Si1 0.232110 0.743735 0.232000
Si Si2 0.191265 0.560978 0.187505
Si Si3 0.542617 0.672213 0.904504
Si Si4 0.547867 0.846182 0.699394
Si Si5 0.204998 0.853038 0.878446
Si Si6 0.550570 0.059956 0.280624
Si Si7 0.096690 0.272119 0.322684
O O1 0.290822 0.704130 0.194211
O O2 0.155596 0.711391 0.250599
O O3 0.318422 0.774220 0.441889
O O4 0.147806 0.787089 0.063308
O O5 0.231644 0.500000 0.233249
O O6 0.273999 0.602289 0.213163
O O7 0.152765 0.573896 0.298872
O O8 0.069830 0.561867 0.953448
O O9 0.592253 0.639488 0.835577
O O10 0.440416 0.711254 0.734186
O O11 0.500000 0.647645 0.000000
O O12 0.500000 0.820656 0.500000
O O13 0.470450 0.898195 0.624642
O O14 0.512857 0.807818 0.782556
O O15 0.682390 0.856016 0.881908
O O16 0.567523 0.000000 0.349199
#
# Coordination Sequence:
#
# PCOD9192798 Si02
#       7
#     8   8   8   8   8   8   8
#     4  10  20  34  51  73  98 134 174 204 249 305
#     4   8  15  29  51  75  96 122 165 212 252 303
#     4  10  21  35  48  69 101 136 171 211 251 295
#     4  11  21  29  46  72 103 139 170 206 243 299
#     4  11  20  32  53  72  97 135 172 206 253 309
#     4   8  15  29  47  71 102 131 160 202 254 304
#     4  10  21  33  48  72 105 132 166 214 249 293
#
# _framework density 19.876940000000001
#
# number of rings (size 3 to 8) (size 9 to 14) (size 15 to 20)
#    0.000    2.286    1.429    3.000    2.000    1.429 
#    0.000    0.000    0.000    0.429    0.000    2.000 
#    0.000    3.429    0.000    0.000    0.000    1.143 
#
# Total GULP energy -156082.116946 kJ/mol
# GULP energy per Si atom -5574.361320 kJ/mol
# Density = 1.983170 g / cm^3
# Si number density = 19.876940 Si / 1000 Ang^3
#
#
#
# Elastic Constant Matrix: (Units=GPa)
#
#
# Indices 1 2 3 4 5 6 
#
# 1 135.2549 36.3090 -4.9147 0.0000 -25.5687 0.0000
# 2 36.3090 40.7022 -11.0312 0.0000 -10.6168 0.0000
# 3 -4.9147 -11.0312 40.1943 0.0000 -4.2687 0.0000
# 4 0.0000 0.0000 0.0000 11.6988 0.0000 -6.8390
# 5 -25.5687 -10.6168 -4.2687 0.0000 20.5961 0.0000
# 6 0.0000 0.0000 0.0000 -6.8390 0.0000 28.1789
#
#
#
# Elastic Compliance Matrix: (Units=1/GPa)
#
#
# Indices 1 2 3 4 5 6 
#
# 1 0.011330 -0.007249 0.000504 0.000000 0.010433 0.000000
# 2 -0.007249 0.037131 0.010615 0.000000 0.012341 0.000000
# 3 0.000504 0.010615 0.029143 0.000000 0.012137 0.000000
# 4 0.000000 0.000000 0.000000 0.099612 0.000000 0.024176
# 5 0.010433 0.012341 0.012137 0.000000 0.070382 0.000000
# 6 0.000000 0.000000 0.000000 0.024176 0.000000 0.041355
#
#
# Mechanical properties :
#
#
# Convention : Reuss Voigt Hill
#
# Bulk Modulus (GPa) = 11.71740 28.54197 20.12968
# Shear Modulus (GPa) = 16.14662 25.14731 20.64697
#
# Velocity S-wave (km/s) = 2.85323 3.56075 3.22645
# Velocity P-wave (km/s) = 4.09418 5.59426 4.90195
#
# Compressibility (1/GPa) = 0.08534318
#
# Stress axis : x y z
#
# Youngs Moduli (GPa) = 88.26045 26.93146 34.31365
#
# Poissons Ratio (x) = 0.19523 -0.01729
# Poissons Ratio (y) = 0.63982 -0.36423
# Poissons Ratio (z) = -0.04447 -0.28587
#
# Static dielectric constant tensor:
#      x y z
#    x 1.779280 0.000000 -0.011190 
#    y 0.000000 1.714260 0.000000 
#    z -0.011190 0.000000 1.701380 
# 
# From -- ./inp_files/66839.got.cif
#   From: 2010.05.17/outbox.cif.g08.bks.cpg/sg12_34_cif.got.tgz:66839.got - 2010.06.03 13:09:07.
