data_PCOD9192758
_publ_section_title
;
Structure prediction by ZEFSAII (Michael W. Deem and Ramdas Pophale) SiO2 
 PCOD9192758
Probable space group: C 2/M
;
_chemical_formula_sum "Si O2"
_cell_formula_units_Z 56
_cell_length_a 19.337985
_cell_length_b 8.838161
_cell_length_c 19.172825
_cell_angle_alpha 90.000000
_cell_angle_beta 116.557942
_cell_angle_gamma 90.000000
_cell_volume 2931.103598
_symmetry_space_group_name_H-M "C 2/M"
_symmetry_group_IT_number 12
_symmetry_cell_setting 'monoclinic'
loop_
_space_group_symop_operation_xyz
x,y,z
-x,y,-z
-x,-y,-z
x,-y,z
1/2+x,1/2+y,z
1/2-x,1/2+y,-z
1/2-x,1/2-y,-z
1/2+x,1/2-y,z
loop_
_atom_site_type_symbol
_atom_site_label
_atom_site_fract_x
_atom_site_fract_y
_atom_site_fract_z
Si Si1 0.677824 0.321694 0.427285
Si Si2 0.169849 0.322897 0.682535
Si Si3 0.913076 0.821331 0.479461
Si Si4 0.269651 0.318012 0.083652
Si Si5 0.585869 0.681546 0.252977
Si Si6 0.682067 0.820930 0.181016
Si Si7 0.077629 0.679671 0.777380
O O1 0.693928 0.500000 0.427804
O O2 0.750000 0.250000 0.500000
O O3 0.606549 0.301111 0.448577
O O4 0.649629 0.265265 0.339300
O O5 0.191418 0.500000 0.694485
O O6 0.144023 0.273769 0.594604
O O7 0.240739 0.224325 0.741899
O O8 0.099970 0.298355 0.705985
O O9 0.000000 0.778462 0.500000
O O10 0.902810 0.000000 0.458632
O O11 0.274732 0.500000 0.083230
O O12 0.203774 0.278254 0.111406
O O13 0.350627 0.251395 0.148104
O O14 0.250000 0.250000 0.000000
O O15 0.583730 0.500000 0.254490
O O16 0.613047 0.736942 0.189445
O O17 0.502946 0.746055 0.237571
O O18 0.669209 0.000000 0.178313
O O19 0.074852 0.500000 0.789014
#
# Coordination Sequence:
#
# PCOD9192758 Si02
#       7
#     8   8   8   8   8   8   8
#     4  10  22  36  51  74 105 144 187 233 284 332
#     4  10  20  34  53  78 106 140 186 234 277 327
#     4  10  20  34  51  71  99 138 184 233 283 331
#     4  10  21  39  64  91 118 147 180 221 269 327
#     4  11  22  37  57  82 113 148 190 237 281 330
#     4  10  21  37  58  83 111 145 181 219 270 329
#     4  10  21  37  58  84 115 150 186 228 279 333
#
# _framework density 19.105430999999999
#
# number of rings (size 3 to 8) (size 9 to 14) (size 15 to 20)
#    0.000    1.857    0.000    3.857    0.000    8.857 
#    0.000    0.714    0.000    4.286    0.000    0.000 
#    0.000    0.000    0.000    0.000    0.000    0.000 
#
# Total GULP energy -156390.855585 kJ/mol
# GULP energy per Si atom -5585.387699 kJ/mol
# Density = 1.906195 g / cm^3
# Si number density = 19.105431 Si / 1000 Ang^3
#
#
#
# Elastic Constant Matrix: (Units=GPa)
#
#
# Indices 1 2 3 4 5 6 
#
# 1 96.5313 34.3866 20.7903 0.0000 -15.5129 0.0000
# 2 34.3866 51.6768 29.6436 0.0000 -12.7776 0.0000
# 3 20.7903 29.6436 92.3945 0.0000 -19.9423 0.0000
# 4 0.0000 0.0000 0.0000 28.7865 0.0000 0.1266
# 5 -15.5129 -12.7776 -19.9423 0.0000 22.0885 0.0000
# 6 0.0000 0.0000 0.0000 0.1266 0.0000 32.7805
#
#
#
# Elastic Compliance Matrix: (Units=1/GPa)
#
#
# Indices 1 2 3 4 5 6 
#
# 1 0.014112 -0.008409 0.000760 0.000000 0.005733 0.000000
# 2 -0.008409 0.030087 -0.006557 0.000000 0.005579 0.000000
# 3 0.000760 -0.006557 0.014969 0.000000 0.010256 0.000000
# 4 0.000000 0.000000 0.000000 0.034739 0.000000 -0.000134
# 5 0.005733 0.005579 0.010256 0.000000 0.061785 0.000000
# 6 0.000000 0.000000 0.000000 -0.000134 0.000000 0.030506
#
#
# Mechanical properties :
#
#
# Convention : Reuss Voigt Hill
#
# Bulk Modulus (GPa) = 32.51274 45.58263 39.04769
# Shear Modulus (GPa) = 22.23566 27.11658 24.67612
#
# Velocity S-wave (km/s) = 3.41521 3.77146 3.59775
# Velocity P-wave (km/s) = 5.71017 6.54794 6.14335
#
# Compressibility (1/GPa) = 0.03075717
#
# Stress axis : x y z
#
# Youngs Moduli (GPa) = 70.85947 33.23671 66.80299
#
# Poissons Ratio (x) = 0.27949 -0.05075
# Poissons Ratio (y) = 0.59586 0.43801
# Poissons Ratio (z) = -0.05383 0.21792
#
# Static dielectric constant tensor:
#      x y z
#    x 1.684310 0.000000 -0.022960 
#    y 0.000000 1.645000 0.000000 
#    z -0.022960 0.000000 1.639560 
# 
# From -- ./inp_files/275530.got.cif
#   From: 2010.05.17/outbox.cif.g08.bks.cpg/sg12_138_cif.got.tgz:275530.got - 2010.06.03 13:09:07.
