data_PCOD9192122
_publ_section_title
;
Structure prediction by ZEFSAII (Michael W. Deem and Ramdas Pophale) SiO2 
 PCOD9192122
Probable space group: C 2/M
;
_chemical_formula_sum "Si O2"
_cell_formula_units_Z 56
_cell_length_a 34.726109
_cell_length_b 8.512949
_cell_length_c 21.680361
_cell_angle_alpha 90.000000
_cell_angle_beta 24.769754
_cell_angle_gamma 90.000000
_cell_volume 2685.273402
_symmetry_space_group_name_H-M "C 2/M"
_symmetry_group_IT_number 12
_symmetry_cell_setting 'monoclinic'
loop_
_space_group_symop_operation_xyz
x,y,z
-x,y,-z
-x,-y,-z
x,-y,z
1/2+x,1/2+y,z
1/2-x,1/2+y,-z
1/2-x,1/2-y,-z
1/2+x,1/2-y,z
loop_
_atom_site_type_symbol
_atom_site_label
_atom_site_fract_x
_atom_site_fract_y
_atom_site_fract_z
Si Si1 0.606482 0.310520 0.212758
Si Si2 0.591156 0.689676 0.547684
Si Si3 0.666704 0.673793 0.691757
Si Si4 0.583052 0.820017 0.918284
Si Si5 0.767713 0.689991 0.211501
Si Si6 0.246620 0.312650 0.104737
Si Si7 0.383973 0.823919 0.353885
O O1 0.610593 0.500000 0.211596
O O2 0.501451 0.264453 0.353840
O O3 0.654668 0.239224 0.202686
O O4 0.669245 0.263672 0.062631
O O5 0.593963 0.500000 0.546806
O O6 0.681944 0.744012 0.378679
O O7 0.585437 0.754017 0.625539
O O8 0.642879 0.500000 0.750209
O O9 0.660041 0.807865 0.752917
O O10 0.603284 0.719754 0.725726
O O11 0.773276 0.665110 0.518719
O O12 0.634973 0.751889 0.901764
O O13 0.557027 0.000000 0.969449
O O14 0.500000 0.744811 0.000000
O O15 0.769910 0.500000 0.212139
O O16 0.754592 0.739399 0.160455
O O17 0.248953 0.500000 0.106738
O O18 0.421131 0.000000 0.291166
#
# Coordination Sequence:
#
# PCOD9192122 Si02
#       7
#     8   8   8   8   8   8   8
#     4   9  20  39  61  85 112 145 186 229 277 334
#     4  10  20  36  59  85 113 147 190 235 280 334
#     4  10  20  34  53  76 105 144 187 229 275 329
#     4  10  21  37  56  80 111 147 189 234 281 333
#     4  10  21  37  58  82 113 151 185 228 283 337
#     4  10  21  38  60  84 113 147 184 228 277 335
#     4  10  20  33  53  79 108 142 181 230 280 327
#
# _framework density 20.854486999999999
#
# number of rings (size 3 to 8) (size 9 to 14) (size 15 to 20)
#    0.000    2.143    1.429    1.286    0.000    5.429 
#    0.000    5.714    0.000    0.000    0.000    0.000 
#    0.000    0.000    0.000    0.000    0.000    0.000 
#
# Total GULP energy -156158.922081 kJ/mol
# GULP energy per Si atom -5577.104360 kJ/mol
# Density = 2.080702 g / cm^3
# Si number density = 20.854487 Si / 1000 Ang^3
#
#
#
# Elastic Constant Matrix: (Units=GPa)
#
#
# Indices 1 2 3 4 5 6 
#
# 1 178.6394 13.4736 47.2537 0.0000 -19.7765 -0.0002
# 2 13.4736 20.1733 9.0174 -0.0007 -7.7700 -0.0001
# 3 47.2537 9.0174 49.6393 -0.0011 -24.2018 -0.0002
# 4 0.0000 -0.0007 -0.0011 18.0288 0.0000 2.8718
# 5 -19.7765 -7.7700 -24.2018 0.0000 35.1562 0.0001
# 6 -0.0002 -0.0001 -0.0002 2.8718 0.0001 25.0208
#
#
#
# Elastic Compliance Matrix: (Units=1/GPa)
#
#
# Indices 1 2 3 4 5 6 
#
# 1 0.007598 -0.002257 -0.007499 -0.000001 -0.001387 0.000000
# 2 -0.002257 0.056078 -0.003936 0.000002 0.008415 0.000000
# 3 -0.007499 -0.003936 0.038410 0.000002 0.021353 0.000000
# 4 -0.000001 0.000002 0.000002 0.056500 0.000002 -0.006485
# 5 -0.001387 0.008415 0.021353 0.000002 0.044224 0.000000
# 6 0.000000 0.000000 0.000000 -0.006485 0.000000 0.040711
#
#
# Mechanical properties :
#
#
# Convention : Reuss Voigt Hill
#
# Bulk Modulus (GPa) = 13.38649 43.10462 28.24556
# Shear Modulus (GPa) = 16.90293 27.55499 22.22896
#
# Velocity S-wave (km/s) = 2.85005 3.63891 3.26837
# Velocity P-wave (km/s) = 4.15491 6.19432 5.27413
#
# Compressibility (1/GPa) = 0.07470216
#
# Stress axis : x y z
#
# Youngs Moduli (GPa) = 131.60871 17.83220 26.03472
#
# Poissons Ratio (x) = 0.04025 0.19525
# Poissons Ratio (y) = 0.29703 0.10247
# Poissons Ratio (z) = 0.98700 0.07019
#
# Static dielectric constant tensor:
#      x y z
#    x 1.725470 0.000000 -0.003120 
#    y 0.000000 1.746250 0.000000 
#    z -0.003120 0.000000 1.830490 
# 
# From -- ./inp_files/329510.got.cif
#   From: 2010.05.17/outbox.cif.g08.bks.cpg/sg12_165_cif.got.tgz:329510.got - 2010.06.03 13:09:07.
