data_PCOD9192954
_publ_section_title
;
Structure prediction by ZEFSAII (Michael W. Deem and Ramdas Pophale) SiO2 
 PCOD9192954
Probable space group: C 2/M
;
_chemical_formula_sum "Si O2"
_cell_formula_units_Z 64
_cell_length_a 29.588780
_cell_length_b 8.051254
_cell_length_c 14.774993
_cell_angle_alpha 90.000000
_cell_angle_beta 72.277068
_cell_angle_gamma 90.000000
_cell_volume 3352.748404
_symmetry_space_group_name_H-M "C 2/M"
_symmetry_group_IT_number 12
_symmetry_cell_setting 'monoclinic'
loop_
_space_group_symop_operation_xyz
x,y,z
-x,y,-z
-x,-y,-z
x,-y,z
1/2+x,1/2+y,z
1/2-x,1/2+y,-z
1/2-x,1/2-y,-z
1/2+x,1/2-y,z
loop_
_atom_site_type_symbol
_atom_site_label
_atom_site_fract_x
_atom_site_fract_y
_atom_site_fract_z
Si Si1 0.145719 0.192867 0.434752
Si Si2 0.104111 0.310474 0.283585
Si Si3 0.091895 0.199603 0.646647
Si Si4 0.303001 0.696071 0.874802
Si Si5 0.503895 0.800700 0.393421
Si Si6 0.700278 0.302604 0.918134
Si Si7 0.655728 0.703081 0.765468
Si Si8 0.748124 0.198742 0.396724
O O1 0.117088 0.302777 0.381826
O O2 0.131473 0.236540 0.545813
O O3 0.201224 0.218202 0.385397
O O4 0.133171 0.000000 0.427486
O O5 0.103195 0.500000 0.251880
O O6 0.147733 0.224534 0.206376
O O7 0.051226 0.236337 0.314109
O O8 0.111339 0.260294 0.731733
O O9 0.042806 0.264549 0.636163
O O10 0.088094 0.000000 0.654011
O O11 0.293671 0.500000 0.884183
O O12 0.255745 0.774933 0.860117
O O13 0.306564 0.763223 0.975858
O O14 0.500000 0.737515 0.500000
O O15 0.509731 0.000000 0.396294
O O16 0.692518 0.500000 0.927165
O O17 0.665194 0.237248 0.861820
O O18 0.653547 0.500000 0.768769
O O19 0.703583 0.747215 0.682149
O O20 0.750000 0.250000 0.500000
O O21 0.743233 0.000000 0.392765
#
# Coordination Sequence:
#
# PCOD9192954 Si02
#       8
#     8   8   8   8   8   8   8   8
#     4  11  21  33  49  75 106 136 176 219 261 315
#     4  11  22  36  55  76 104 142 175 218 275 324
#     4  10  20  34  52  74 103 137 173 217 265 312
#     4  10  20  34  55  85 112 136 176 226 266 314
#     4  10  21  37  54  75 102 135 182 225 264 321
#     4   9  18  35  59  81 109 145 177 215 266 319
#     4   9  18  34  52  73 102 140 179 211 257 316
#     4  11  20  31  47  70 105 144 179 212 252 308
#
# _framework density 19.088816999999999
#
# number of rings (size 3 to 8) (size 9 to 14) (size 15 to 20)
#    0.000    1.875    2.500    2.250    0.000    3.250 
#    0.000    1.250    0.000    0.750    0.000    5.250 
#    0.000    0.000    0.000    0.000    0.000    0.000 
#
# Total GULP energy -178542.752966 kJ/mol
# GULP energy per Si atom -5579.461030 kJ/mol
# Density = 1.904537 g / cm^3
# Si number density = 19.088817 Si / 1000 Ang^3
#
#
#
# Elastic Constant Matrix: (Units=GPa)
#
#
# Indices 1 2 3 4 5 6 
#
# 1 121.1999 -3.9723 34.8281 0.0000 17.0455 0.0000
# 2 -3.9723 11.7286 1.8623 0.0000 0.7708 0.0000
# 3 34.8281 1.8623 65.4882 0.0000 15.4150 0.0000
# 4 0.0000 0.0000 0.0000 15.4788 0.0000 2.0611
# 5 17.0455 0.7708 15.4150 0.0000 30.0805 0.0000
# 6 0.0000 0.0000 0.0000 2.0611 0.0000 22.1792
#
#
#
# Elastic Compliance Matrix: (Units=1/GPa)
#
#
# Indices 1 2 3 4 5 6 
#
# 1 0.010255 0.004458 -0.004760 0.000000 -0.003486 0.000000
# 2 0.004458 0.087617 -0.004252 0.000000 -0.002592 0.000000
# 3 -0.004760 -0.004252 0.019630 0.000000 -0.007253 0.000000
# 4 0.000000 0.000000 0.000000 0.065414 0.000000 -0.006079
# 5 -0.003486 -0.002592 -0.007253 0.000000 0.039003 0.000000
# 6 0.000000 0.000000 0.000000 -0.006079 0.000000 0.045652
#
#
# Mechanical properties :
#
#
# Convention : Reuss Voigt Hill
#
# Bulk Modulus (GPa) = 9.22567 29.31699 19.27133
# Shear Modulus (GPa) = 15.98412 24.59429 20.28920
#
# Velocity S-wave (km/s) = 2.89685 3.59334 3.26373
# Velocity P-wave (km/s) = 4.00406 5.71031 4.93154
#
# Compressibility (1/GPa) = 0.10839318
#
# Stress axis : x y z
#
# Youngs Moduli (GPa) = 97.51258 11.41331 50.94343
#
# Poissons Ratio (x) = -0.05088 0.24250
# Poissons Ratio (y) = -0.43473 0.21663
# Poissons Ratio (z) = 0.46417 0.04853
#
# Static dielectric constant tensor:
#      x y z
#    x 1.676330 0.000000 0.014530 
#    y 0.000000 1.676880 0.000000 
#    z 0.014530 0.000000 1.682980 
# 
# From -- ./inp_files/243935.got.cif
#   From: 2010.05.17/outbox.cif.g08.bks.cpg/sg12_122_cif.got.tgz:243935.got - 2010.06.03 13:09:07.
