data_PCOD9192976
_publ_section_title
;
Structure prediction by ZEFSAII (Michael W. Deem and Ramdas Pophale) SiO2 
 PCOD9192976
Probable space group: C 2/M
;
_chemical_formula_sum "Si O2"
_cell_formula_units_Z 40
_cell_length_a 8.746543
_cell_length_b 22.755314
_cell_length_c 12.486934
_cell_angle_alpha 90.000000
_cell_angle_beta 125.211835
_cell_angle_gamma 90.000000
_cell_volume 2030.536789
_symmetry_space_group_name_H-M "C 2/M"
_symmetry_group_IT_number 12
_symmetry_cell_setting 'monoclinic'
loop_
_space_group_symop_operation_xyz
x,y,z
-x,y,-z
-x,-y,-z
x,-y,z
1/2+x,1/2+y,z
1/2-x,1/2+y,-z
1/2-x,1/2-y,-z
1/2+x,1/2-y,z
loop_
_atom_site_type_symbol
_atom_site_label
_atom_site_fract_x
_atom_site_fract_y
_atom_site_fract_z
Si Si1 0.500000 0.247599 0.000000
Si Si2 0.097371 0.202389 0.821540
Si Si3 0.727274 0.500000 0.440285
Si Si4 0.135912 0.121829 0.656985
Si Si5 0.620064 0.797160 0.384574
Si Si6 0.783906 0.000000 0.310440
Si Si7 0.000000 0.602718 0.500000
O O1 0.318077 0.206381 0.931567
O O2 0.497870 0.288764 0.894522
O O3 0.039615 0.147541 0.724073
O O4 0.044937 0.259857 0.732265
O O5 0.502005 0.500000 0.355814
O O6 0.768970 0.500000 0.584644
O O7 0.824127 0.557345 0.427215
O O8 0.255757 0.174923 0.658568
O O9 0.000000 0.105898 0.500000
O O10 0.264869 0.066466 0.739951
O O11 0.750000 0.750000 0.500000
O O12 0.543944 0.851719 0.422324
#
# Coordination Sequence:
#
# PCOD9192976 Si02
#       7
#     4   8   4   8   8   4   4
#     4  10  24  42  56  82 116 164 206 248 296 350
#     4  11  23  39  60  85 119 157 202 248 304 357
#     4  10  20  34  52  74 124 174 191 224 273 367
#     4  12  20  35  60  90 126 154 193 237 308 373
#     4  12  22  33  57  96 126 150 183 253 314 366
#     4  11  20  38  56  84 124 169 194 233 303 374
#     4  11  22  34  52  86 128 159 194 232 286 371
#
# _framework density 19.699225999999999
#
# number of rings (size 3 to 8) (size 9 to 14) (size 15 to 20)
#    0.000    0.800    8.000    1.200    0.000    0.000 
#    0.000    0.000    0.000    1.200    0.000    0.000 
#    0.000    0.000    0.000    0.000    0.000    0.000 
#
# Total GULP energy -111404.724667 kJ/mol
# GULP energy per Si atom -5570.236233 kJ/mol
# Density = 1.965439 g / cm^3
# Si number density = 19.699226 Si / 1000 Ang^3
#
#
#
# Elastic Constant Matrix: (Units=GPa)
#
#
# Indices 1 2 3 4 5 6 
#
# 1 80.3807 22.6744 17.5468 0.0000 -11.6801 0.0000
# 2 22.6744 134.0647 26.4830 0.0000 -17.9325 0.0000
# 3 17.5468 26.4830 47.6091 0.0000 -14.2133 0.0000
# 4 0.0000 0.0000 0.0000 6.1329 0.0000 -6.4321
# 5 -11.6801 -17.9325 -14.2133 0.0000 38.4733 0.0000
# 6 0.0000 0.0000 0.0000 -6.4321 0.0000 42.5301
#
#
#
# Elastic Compliance Matrix: (Units=1/GPa)
#
#
# Indices 1 2 3 4 5 6 
#
# 1 0.013955 -0.001322 -0.003740 0.000000 0.002239 0.000000
# 2 -0.001322 0.008717 -0.003673 0.000000 0.002304 0.000000
# 3 -0.003740 -0.003673 0.026499 0.000000 0.006942 0.000000
# 4 0.000000 0.000000 0.000000 0.193793 0.000000 0.029308
# 5 0.002239 0.002304 0.006942 0.000000 0.030310 0.000000
# 6 0.000000 0.000000 0.000000 0.029308 0.000000 0.027945
#
#
# Mechanical properties :
#
#
# Convention : Reuss Voigt Hill
#
# Bulk Modulus (GPa) = 31.54545 43.94030 37.74288
# Shear Modulus (GPa) = 15.18574 30.45061 22.81818
#
# Velocity S-wave (km/s) = 2.77948 3.93590 3.40711
# Velocity P-wave (km/s) = 5.13313 6.55813 5.88889
#
# Compressibility (1/GPa) = 0.03170029
#
# Stress axis : x y z
#
# Youngs Moduli (GPa) = 71.65668 114.72407 37.73798
#
# Poissons Ratio (x) = 0.15168 0.14112
# Poissons Ratio (y) = 0.09474 0.13863
# Poissons Ratio (z) = 0.26796 0.42143
#
# Static dielectric constant tensor:
#      x y z
#    x 1.761010 0.000000 -0.003630 
#    y 0.000000 1.746360 0.000000 
#    z -0.003630 0.000000 1.754070 
# 
# From -- ./inp_files/120210.got.cif
#   From: 2010.05.17/outbox.cif.g08.bks.cpg/sg12_61_cif.got.tgz:120210.got - 2010.06.03 13:09:07.
