data_PCOD9192217
_publ_section_title
;
Structure prediction by ZEFSAII (Michael W. Deem and Ramdas Pophale) SiO2 
 PCOD9192217
Probable space group: C 2/M
;
_chemical_formula_sum "Si O2"
_cell_formula_units_Z 32
_cell_length_a 10.417102
_cell_length_b 15.860889
_cell_length_c 15.733960
_cell_angle_alpha 90.000000
_cell_angle_beta 154.229192
_cell_angle_gamma 90.000000
_cell_volume 1130.249658
_symmetry_space_group_name_H-M "C 2/M"
_symmetry_group_IT_number 12
_symmetry_cell_setting 'monoclinic'
loop_
_space_group_symop_operation_xyz
x,y,z
-x,y,-z
-x,-y,-z
x,-y,z
1/2+x,1/2+y,z
1/2-x,1/2+y,-z
1/2-x,1/2-y,-z
1/2+x,1/2-y,z
loop_
_atom_site_type_symbol
_atom_site_label
_atom_site_fract_x
_atom_site_fract_y
_atom_site_fract_z
Si Si1 0.535976 0.907722 0.134278
Si Si2 0.406228 0.405656 0.676019
Si Si3 0.900096 0.228236 0.808114
Si Si4 0.103833 0.407072 0.751356
O O1 0.718969 0.821293 0.242374
O O2 0.402602 0.906469 0.150913
O O3 0.684195 0.000000 0.215378
O O4 0.258364 0.904570 0.903608
O O5 0.324908 0.500000 0.660885
O O6 0.309328 0.323743 0.670962
O O7 0.229229 0.400331 0.482884
O O8 0.787028 0.166222 0.814729
O O9 0.250000 0.250000 0.000000
O O10 0.212349 0.500000 0.789296
#
# Coordination Sequence:
#
# PCOD9192217 Si02
#       4
#     8   8   8   8
#     4   9  20  38  59  84 114 148 185 227 278 333
#     4   9  18  34  57  85 113 141 183 237 280 321
#     4  10  20  33  53  84 115 141 179 231 279 326
#     4  10  20  37  62  86 109 144 189 234 279 326
#
# _framework density 28.312329999999999
#
# number of rings (size 3 to 8) (size 9 to 14) (size 15 to 20)
#    0.000    2.500    0.000    1.500    0.000    8.000 
#    0.000   16.250    0.000    6.000    0.000   17.500 
#    0.000    0.000    0.000    0.000    0.000    0.000 
#
# Total GULP energy -89451.197647 kJ/mol
# GULP energy per Si atom -5590.699853 kJ/mol
# Density = 2.824789 g / cm^3
# Si number density = 28.312330 Si / 1000 Ang^3
#
#
#
# Elastic Constant Matrix: (Units=GPa)
#
#
# Indices 1 2 3 4 5 6 
#
# 1 109.9276 59.7467 57.5342 -0.0005 14.0086 0.0003
# 2 59.7467 321.8886 47.3427 0.0275 14.7197 -0.0038
# 3 57.5342 47.3427 170.7948 0.0458 11.9433 -0.0032
# 4 -0.0005 0.0275 0.0458 146.2563 0.0026 -39.5886
# 5 14.0086 14.7197 11.9433 0.0026 40.8095 0.0011
# 6 0.0003 -0.0038 -0.0032 -39.5886 0.0011 73.4253
#
#
#
# Elastic Compliance Matrix: (Units=1/GPa)
#
#
# Indices 1 2 3 4 5 6 
#
# 1 0.012112 -0.001623 -0.003451 0.000002 -0.002562 0.000001
# 2 -0.001623 0.003491 -0.000379 -0.000001 -0.000591 0.000000
# 3 -0.003451 -0.000379 0.007177 -0.000002 -0.000779 -0.000001
# 4 0.000002 -0.000001 -0.000002 0.008006 0.000000 0.004316
# 5 -0.002562 -0.000591 -0.000779 0.000000 0.025825 -0.000001
# 6 0.000001 0.000000 -0.000001 0.004316 -0.000001 0.015947
#
#
# Mechanical properties :
#
#
# Convention : Reuss Voigt Hill
#
# Bulk Modulus (GPa) = 84.22941 103.53982 93.88461
# Shear Modulus (GPa) = 57.19411 81.29736 69.24574
#
# Velocity S-wave (km/s) = 4.49944 5.36440 4.95085
# Velocity P-wave (km/s) = 7.53711 8.66135 8.11871
#
# Compressibility (1/GPa) = 0.01187234
#
# Stress axis : x y z
#
# Youngs Moduli (GPa) = 82.56371 286.46596 139.33217
#
# Poissons Ratio (x) = 0.46505 0.48082
# Poissons Ratio (y) = 0.13403 0.05287
# Poissons Ratio (z) = 0.28492 0.10870
#
# Static dielectric constant tensor:
#      x y z
#    x 2.303030 0.000000 0.048720 
#    y 0.000000 2.195770 0.000000 
#    z 0.048720 0.000000 2.169520 
# 
# From -- ./inp_files/311422.got.cif
#   From: 2010.05.17/outbox.cif.g08.bks.cpg/sg12_156_cif.got.tgz:311422.got - 2010.06.03 13:09:07.
