data_PCOD9192076
_publ_section_title
;
Structure prediction by ZEFSAII (Michael W. Deem and Ramdas Pophale) SiO2 
 PCOD9192076
Probable space group: C 2/M
;
_chemical_formula_sum "Si O2"
_cell_formula_units_Z 40
_cell_length_a 22.012035
_cell_length_b 17.839513
_cell_length_c 9.362793
_cell_angle_alpha 90.000000
_cell_angle_beta 143.569970
_cell_angle_gamma 90.000000
_cell_volume 2183.325801
_symmetry_space_group_name_H-M "C 2/M"
_symmetry_group_IT_number 12
_symmetry_cell_setting 'monoclinic'
loop_
_space_group_symop_operation_xyz
x,y,z
-x,y,-z
-x,-y,-z
x,-y,z
1/2+x,1/2+y,z
1/2-x,1/2+y,-z
1/2-x,1/2-y,-z
1/2+x,1/2-y,z
loop_
_atom_site_type_symbol
_atom_site_label
_atom_site_fract_x
_atom_site_fract_y
_atom_site_fract_z
Si Si1 0.103427 0.583364 0.063588
Si Si2 0.733614 0.349737 0.827626
Si Si3 0.708834 0.325764 0.103370
Si Si4 0.600243 0.152711 0.354701
Si Si5 0.480979 0.701355 0.632729
O O1 0.113250 0.500000 0.143018
O O2 0.190184 0.597958 0.112847
O O3 0.112374 0.644932 0.206789
O O4 0.990503 0.594099 0.784481
O O5 0.769312 0.263750 0.866494
O O6 0.615761 0.353926 0.556102
O O7 0.736855 0.360118 0.002992
O O8 0.787974 0.358045 0.367020
O O9 0.587015 0.331809 0.891446
O O10 0.555211 0.229174 0.337980
O O11 0.500000 0.724235 0.500000
#
# Coordination Sequence:
#
# PCOD9192076 Si02
#       5
#     8   8   8   8   8
#     4  11  23  39  50  70 114 152 179 208 252 317
#     4   9  18  33  55  81 105 140 169 215 277 311
#     4   9  17  32  57  82 107 125 172 234 267 312
#     4  10  20  33  53  76 109 142 177 210 266 305
#     4   9  17  32  57  86 112 127 160 233 282 311
#
# _framework density 18.320674
#
# number of rings (size 3 to 8) (size 9 to 14) (size 15 to 20)
#    0.000    2.400    2.000    2.400    0.000    3.200 
#    0.000    3.000    0.000    9.000    0.000    0.000 
#    0.000    0.000    0.000    0.000    0.000    0.000 
#
# Total GULP energy -111361.782613 kJ/mol
# GULP energy per Si atom -5568.089131 kJ/mol
# Density = 1.827898 g / cm^3
# Si number density = 18.320674 Si / 1000 Ang^3
#
#
#
# Elastic Constant Matrix: (Units=GPa)
#
#
# Indices 1 2 3 4 5 6 
#
# 1 61.5686 22.3495 26.7770 0.0000 17.8508 0.0000
# 2 22.3495 23.7898 18.1286 0.0000 -6.8576 0.0000
# 3 26.7770 18.1286 144.1143 0.0000 23.0443 0.0000
# 4 0.0000 0.0000 0.0000 -0.9928 0.0000 -0.5430
# 5 17.8508 -6.8576 23.0443 0.0000 26.0417 0.0000
# 6 0.0000 0.0000 0.0000 -0.5430 0.0000 12.9048
#
#
#
# Elastic Compliance Matrix: (Units=1/GPa)
#
#
# Indices 1 2 3 4 5 6 
#
# 1 0.080573 -0.116307 0.015595 0.000000 -0.099658 0.000000
# 2 -0.116307 0.225853 -0.033849 0.000000 0.169152 0.000000
# 3 0.015595 -0.033849 0.013318 0.000000 -0.031389 0.000000
# 4 0.000000 0.000000 0.000000 -0.984565 0.000000 -0.041431
# 5 -0.099658 0.169152 -0.031389 0.000000 0.179032 0.000000
# 6 0.000000 0.000000 0.000000 -0.041431 0.000000 0.075747
#
#
# Mechanical properties :
#
#
# Convention : Reuss Voigt Hill
#
# Bulk Modulus (GPa) = 19.75298 40.44257 30.09777
# Shear Modulus (GPa) = -40.30764 18.40525 -10.95120
#
# Velocity S-wave (km/s) = -4.69563 3.17301 -2.44755
# Velocity P-wave (km/s) = 4.31200 5.96211 2.91147
#
# Compressibility (1/GPa) = 0.05062527
#
# Stress axis : x y z
#
# Youngs Moduli (GPa) = 12.41107 4.42765 75.08427
#
# Poissons Ratio (x) = 0.51497 -1.17098
# Poissons Ratio (y) = 1.44349 2.54149
# Poissons Ratio (z) = -0.19356 0.14987
#
# Static dielectric constant tensor:
#      x y z
#    x 1.643680 0.000000 0.009580 
#    y 0.000000 1.606500 0.000000 
#    z 0.009580 0.000000 1.661070 
# 
# From -- ./inp_files/60219.got.cif
#   From: 2010.05.17/outbox.cif.g08.bks.cpg/sg12_31_cif.got.tgz:60219.got - 2010.06.03 13:09:07.
