data_PCOD9192759
_publ_section_title
;
Structure prediction by ZEFSAII (Michael W. Deem and Ramdas Pophale) SiO2 
 PCOD9192759
Probable space group: C 2/M
;
_chemical_formula_sum "Si O2"
_cell_formula_units_Z 56
_cell_length_a 14.243550
_cell_length_b 7.524281
_cell_length_c 23.983876
_cell_angle_alpha 90.000000
_cell_angle_beta 74.275485
_cell_angle_gamma 90.000000
_cell_volume 2474.215906
_symmetry_space_group_name_H-M "C 2/M"
_symmetry_group_IT_number 12
_symmetry_cell_setting 'monoclinic'
loop_
_space_group_symop_operation_xyz
x,y,z
-x,y,-z
-x,-y,-z
x,-y,z
1/2+x,1/2+y,z
1/2-x,1/2+y,-z
1/2-x,1/2-y,-z
1/2+x,1/2-y,z
loop_
_atom_site_type_symbol
_atom_site_label
_atom_site_fract_x
_atom_site_fract_y
_atom_site_fract_z
Si Si1 0.903561 0.212448 0.951438
Si Si2 0.704456 0.714004 0.197156
Si Si3 0.325865 0.293612 0.276098
Si Si4 0.999482 0.216484 0.171906
Si Si5 0.713403 0.709889 0.595591
Si Si6 0.103791 0.284946 0.505307
Si Si7 0.299380 0.212354 0.073447
O O1 0.984417 0.280229 0.894611
O O2 0.799817 0.276395 0.941782
O O3 0.905976 0.000000 0.946596
O O4 0.890845 0.246654 0.019250
O O5 0.708250 0.500000 0.199422
O O6 0.729351 0.784734 0.253845
O O7 0.599318 0.759702 0.188886
O O8 0.785512 0.777930 0.138789
O O9 0.353198 0.500000 0.280019
O O10 0.409862 0.214459 0.222866
O O11 0.310345 0.214925 0.339763
O O12 0.992469 0.000000 0.170655
O O13 0.731718 0.500000 0.600474
O O14 0.809114 0.782013 0.548652
O O15 0.627475 0.731556 0.564660
O O16 0.105171 0.500000 0.503865
O O17 0.000000 0.223658 0.500000
O O18 0.293274 0.000000 0.076592
#
# Coordination Sequence:
#
# PCOD9192759 Si02
#       7
#     8   8   8   8   8   8   8
#     4   8  13  24  44  65  84 114 157 197 237 291
#     4   9  18  33  50  68  94 129 165 198 241 298
#     4  10  20  34  51  72 100 130 162 202 240 277
#     4   8  16  32  50  67  93 129 162 196 245 298
#     4   9  19  34  51  75 104 131 162 199 236 277
#     4   9  18  34  55  77 103 133 161 193 236 282
#     4   8  14  25  42  64  89 116 150 198 248 286
#
# _framework density 22.633431999999999
#
# number of rings (size 3 to 8) (size 9 to 14) (size 15 to 20)
#    0.000    3.286    0.000    1.714    0.000    2.571 
#    0.000    4.286    0.000    4.286    0.000    0.000 
#    0.000    0.000    0.000    0.000    0.000    0.000 
#
# Total GULP energy -156192.670370 kJ/mol
# GULP energy per Si atom -5578.309656 kJ/mol
# Density = 2.258192 g / cm^3
# Si number density = 22.633432 Si / 1000 Ang^3
#
#
#
# Elastic Constant Matrix: (Units=GPa)
#
#
# Indices 1 2 3 4 5 6 
#
# 1 74.6555 -10.2431 54.7021 0.0000 11.4221 0.0000
# 2 -10.2431 56.2940 6.1754 0.0000 -6.1370 0.0000
# 3 54.7021 6.1754 191.3646 0.0000 30.9026 0.0000
# 4 0.0000 0.0000 0.0000 10.1719 0.0000 7.6022
# 5 11.4221 -6.1370 30.9026 0.0000 21.2593 0.0000
# 6 0.0000 0.0000 0.0000 7.6022 0.0000 8.2179
#
#
#
# Elastic Compliance Matrix: (Units=1/GPa)
#
#
# Indices 1 2 3 4 5 6 
#
# 1 0.017738 0.003641 -0.004990 0.000000 -0.001225 0.000000
# 2 0.003641 0.019627 -0.002971 0.000000 0.008028 0.000000
# 3 -0.004990 -0.002971 0.008433 0.000000 -0.010435 0.000000
# 4 0.000000 0.000000 0.000000 0.318540 0.000000 -0.294673
# 5 -0.001225 0.008028 -0.010435 0.000000 0.065182 0.000000
# 6 0.000000 0.000000 0.000000 -0.294673 0.000000 0.394281
#
#
# Mechanical properties :
#
#
# Convention : Reuss Voigt Hill
#
# Bulk Modulus (GPa) = 26.91056 47.06478 36.98767
# Shear Modulus (GPa) = 5.91837 26.04180 15.98009
#
# Velocity S-wave (km/s) = 1.61881 3.39571 2.66002
# Velocity P-wave (km/s) = 3.92551 6.01781 5.08053
#
# Compressibility (1/GPa) = 0.03716013
#
# Stress axis : x y z
#
# Youngs Moduli (GPa) = 56.37477 50.94900 118.58174
#
# Poissons Ratio (x) = -0.18553 0.59175
# Poissons Ratio (y) = -0.20529 0.35226
# Poissons Ratio (z) = 0.28132 0.15135
#
# Static dielectric constant tensor:
#      x y z
#    x 1.856720 0.000000 -0.015260 
#    y 0.000000 1.852950 0.000000 
#    z -0.015260 0.000000 1.865100 
# 
# From -- ./inp_files/337836.got.cif
#   From: 2010.05.17/outbox.cif.g08.bks.cpg/sg12_169_cif.got.tgz:337836.got - 2010.06.03 13:09:07.
