data_PCOD9192823
_publ_section_title
;
Structure prediction by ZEFSAII (Michael W. Deem and Ramdas Pophale) SiO2 
 PCOD9192823
Probable space group: C 2/M
;
_chemical_formula_sum "Si O2"
_cell_formula_units_Z 64
_cell_length_a 15.017858
_cell_length_b 7.818275
_cell_length_c 28.166847
_cell_angle_alpha 90.000000
_cell_angle_beta 104.891656
_cell_angle_gamma 90.000000
_cell_volume 3196.098575
_symmetry_space_group_name_H-M "C 2/M"
_symmetry_group_IT_number 12
_symmetry_cell_setting 'monoclinic'
loop_
_space_group_symop_operation_xyz
x,y,z
-x,y,-z
-x,-y,-z
x,-y,z
1/2+x,1/2+y,z
1/2-x,1/2+y,-z
1/2-x,1/2-y,-z
1/2+x,1/2-y,z
loop_
_atom_site_type_symbol
_atom_site_label
_atom_site_fract_x
_atom_site_fract_y
_atom_site_fract_z
Si Si1 0.954681 0.205012 0.241211
Si Si2 0.713974 0.292797 0.423512
Si Si3 0.250875 0.794858 0.766263
Si Si4 0.485252 0.199816 0.945763
Si Si5 0.398221 0.704939 0.499854
Si Si6 0.702517 0.298353 0.124458
Si Si7 0.639644 0.705029 0.312534
Si Si8 0.909771 0.706943 0.131635
O O1 0.039179 0.272925 0.283695
O O2 0.854217 0.269664 0.242981
O O3 0.964331 0.243050 0.186671
O O4 0.953352 0.000000 0.246194
O O5 0.711843 0.500000 0.423567
O O6 0.645907 0.231610 0.456450
O O7 0.818340 0.241239 0.450527
O O8 0.679739 0.229974 0.367708
O O9 0.304887 0.730194 0.820047
O O10 0.294708 0.740582 0.722940
O O11 0.250655 0.000000 0.768718
O O12 0.379711 0.211902 0.915079
O O13 0.544812 0.273575 0.910401
O O14 0.512093 0.000000 0.952582
O O15 0.500000 0.276146 0.000000
O O16 0.500000 0.770964 0.500000
O O17 0.406562 0.500000 0.505529
O O18 0.697901 0.500000 0.114200
O O19 0.804224 0.234539 0.123825
O O20 0.631702 0.500000 0.316449
O O21 0.909223 0.500000 0.130547
#
# Coordination Sequence:
#
# PCOD9192823 Si02
#       8
#     8   8   8   8   8   8   8   8
#     4   9  19  34  52  74 100 132 168 204 246 299
#     4   9  19  34  51  75 106 136 168 209 256 302
#     4  10  20  34  53  77 102 132 171 209 248 298
#     4  10  21  36  53  75 103 133 166 207 255 303
#     4   9  18  34  56  77  99 133 175 215 253 296
#     4  10  20  35  54  75 101 133 169 209 252 300
#     4  10  20  34  51  74 107 140 167 204 254 301
#     4   9  19  35  53  73 100 133 167 205 249 297
#
# _framework density 20.024414
#
# number of rings (size 3 to 8) (size 9 to 14) (size 15 to 20)
#    0.000    2.500    0.000    1.500    0.000    6.500 
#    0.000    2.500    0.000    0.000    0.000    0.000 
#    0.000    0.000    0.000    0.000    0.000    0.000 
#
# Total GULP energy -178583.495019 kJ/mol
# GULP energy per Si atom -5580.734219 kJ/mol
# Density = 1.997884 g / cm^3
# Si number density = 20.024414 Si / 1000 Ang^3
#
#
#
# Elastic Constant Matrix: (Units=GPa)
#
#
# Indices 1 2 3 4 5 6 
#
# 1 103.0361 -4.5462 60.5990 0.0000 34.9272 0.0000
# 2 -4.5462 20.3735 -9.7100 0.0000 -3.5542 0.0000
# 3 60.5990 -9.7100 143.4143 0.0000 36.2051 0.0000
# 4 0.0000 0.0000 0.0000 0.0824 0.0000 82.7395
# 5 34.9272 -3.5542 36.2051 0.0000 -22.2795 0.0000
# 6 0.0000 0.0000 0.0000 82.7395 0.0000 -276.9272
#
#
#
# Elastic Compliance Matrix: (Units=1/GPa)
#
#
# Indices 1 2 3 4 5 6 
#
# 1 0.011157 0.000639 -0.006425 0.000000 0.006948 0.000000
# 2 0.000639 0.050657 0.003508 0.000000 -0.001379 0.000000
# 3 -0.006425 0.003508 0.008941 0.000000 0.003898 0.000000
# 4 0.000000 0.000000 0.000000 0.040318 0.000000 0.012046
# 5 0.006948 -0.001379 0.003898 0.000000 -0.027438 0.000000
# 6 0.000000 0.000000 0.000000 0.012046 0.000000 -0.000012
#
#
# Mechanical properties :
#
#
# Convention : Reuss Voigt Hill
#
# Bulk Modulus (GPa) = 15.10581 39.94552 27.52567
# Shear Modulus (GPa) = 45.35333 -45.12614 0.11359
#
# Velocity S-wave (km/s) = 4.76426 -4.75231 0.23843
# Velocity P-wave (km/s) = 6.15015 3.18134 3.72179
#
# Compressibility (1/GPa) = 0.06619969
#
# Stress axis : x y z
#
# Youngs Moduli (GPa) = 89.62823 19.74049 111.84163
#
# Poissons Ratio (x) = -0.01262 0.71860
# Poissons Ratio (y) = -0.05732 -0.39230
# Poissons Ratio (z) = 0.57587 -0.06924
#
# Static dielectric constant tensor:
#      x y z
#    x 1.672440 0.000000 -0.005610 
#    y 0.000000 1.730120 0.000000 
#    z -0.005610 0.000000 1.688700 
# 
# From -- ./inp_files/359696.got.cif
#   From: 2010.05.17/outbox.cif.g08.bks.cpg/sg12_180_cif.got.tgz:359696.got - 2010.06.03 13:09:07.
