data_PCOD9192652
_publ_section_title
;
Structure prediction by ZEFSAII (Michael W. Deem and Ramdas Pophale) SiO2 
 PCOD9192652
Probable space group: C 2/M
;
_chemical_formula_sum "Si O2"
_cell_formula_units_Z 48
_cell_length_a 17.235481
_cell_length_b 5.743029
_cell_length_c 21.224266
_cell_angle_alpha 90.000000
_cell_angle_beta 113.832921
_cell_angle_gamma 90.000000
_cell_volume 1921.714660
_symmetry_space_group_name_H-M "C 2/M"
_symmetry_group_IT_number 12
_symmetry_cell_setting 'monoclinic'
loop_
_space_group_symop_operation_xyz
x,y,z
-x,y,-z
-x,-y,-z
x,-y,z
1/2+x,1/2+y,z
1/2-x,1/2+y,-z
1/2-x,1/2-y,-z
1/2+x,1/2-y,z
loop_
_atom_site_type_symbol
_atom_site_label
_atom_site_fract_x
_atom_site_fract_y
_atom_site_fract_z
Si Si1 0.244330 0.500000 0.663709
Si Si2 0.723153 0.248272 0.778721
Si Si3 0.842676 0.749974 0.997776
Si Si4 0.289422 0.500000 0.536597
Si Si5 0.953704 0.500000 0.417984
Si Si6 0.009582 0.249800 0.138139
Si Si7 0.016287 0.000000 0.430275
Si Si8 0.017991 0.250581 0.720418
O O1 0.254781 0.713279 0.716594
O O2 0.291661 0.500000 0.613608
O O3 0.146753 0.500000 0.610115
O O4 0.748420 0.500000 0.811872
O O5 0.620217 0.247518 0.744908
O O6 0.745632 0.000000 0.817377
O O7 0.851785 0.500000 0.967385
O O8 0.917460 0.749808 0.074520
O O9 0.852811 0.000000 0.968128
O O10 0.750000 0.750000 0.000000
O O11 0.250000 0.250000 0.500000
O O12 0.383741 0.500000 0.542140
O O13 0.977496 0.249089 0.396289
O O14 0.000000 0.500000 0.500000
O O15 0.050255 0.500000 0.135088
O O16 0.995702 0.247925 0.208362
O O17 0.050970 0.000000 0.135277
O O18 0.000000 0.000000 0.500000
O O19 0.979891 0.500000 0.688643
O O20 0.983255 0.000000 0.687449
#
# Coordination Sequence:
#
# PCOD9192652 Si02
#       8
#     4   8   8   4   4   8   4   8
#     4  10  22  32  54  68  90 110 144 168 204 239
#     4   8  16  26  40  59  79  98 122 157 193 230
#     4   8  12  16  20  28  42  62  91 126 161 200
#     4  12  24  36  54  74  92 114 144 174 199 237
#     4  10  20  34  50  66  90 116 138 164 200 241
#     4   8  12  16  24  34  48  71  97 126 165 212
#     4  10  20  36  50  68  92 116 138 166 201 235
#     4   8  12  20  30  44  63  83 106 136 177 222
#
# _framework density 24.977695000000001
#
# number of rings (size 3 to 8) (size 9 to 14) (size 15 to 20)
#    0.500    2.667    0.000    2.500    2.333    0.000 
#    0.000    0.000    0.000    0.000    0.000    0.000 
#    0.000    0.000    0.000    0.000    0.000    0.000 
#
# Total GULP energy -133730.499747 kJ/mol
# GULP energy per Si atom -5572.104156 kJ/mol
# Density = 2.492084 g / cm^3
# Si number density = 24.977695 Si / 1000 Ang^3
#
#
#
# Elastic Constant Matrix: (Units=GPa)
#
#
# Indices 1 2 3 4 5 6 
#
# 1 98.3607 26.1394 2.1090 0.0000 -9.5053 0.0000
# 2 26.1394 336.3517 36.6523 -0.0001 1.6865 0.0003
# 3 2.1090 36.6523 38.5998 0.0000 3.0505 0.0000
# 4 0.0000 -0.0001 0.0000 -22.3545 0.0000 5.7107
# 5 -9.5053 1.6865 3.0505 0.0000 24.7996 0.0000
# 6 0.0000 0.0003 0.0000 5.7107 0.0000 -20.3404
#
#
#
# Elastic Compliance Matrix: (Units=1/GPa)
#
#
# Indices 1 2 3 4 5 6 
#
# 1 0.010802 -0.000848 -0.000118 0.000000 0.004212 0.000000
# 2 -0.000848 0.003383 -0.003153 0.000000 -0.000167 0.000000
# 3 -0.000118 -0.003153 0.029178 0.000000 -0.003420 0.000000
# 4 0.000000 0.000000 0.000000 -0.048190 0.000000 -0.013530
# 5 0.004212 -0.000167 -0.003420 0.000000 0.042370 0.000000
# 6 0.000000 0.000000 0.000000 -0.013530 0.000000 -0.052962
#
#
# Mechanical properties :
#
#
# Convention : Reuss Voigt Hill
#
# Bulk Modulus (GPa) = 28.47010 67.01265 47.74138
# Shear Modulus (GPa) = 1104.57907 23.64838 564.11373
#
# Velocity S-wave (km/s) = 21.05199 3.08032 15.04451
# Velocity P-wave (km/s) = 24.54257 6.28795 17.91475
#
# Compressibility (1/GPa) = 0.03512456
#
# Stress axis : x y z
#
# Youngs Moduli (GPa) = 92.57950 295.56113 34.27280
#
# Poissons Ratio (x) = 0.25054 0.00405
# Poissons Ratio (y) = 0.07848 0.10807
# Poissons Ratio (z) = 0.01094 0.93195
#
# Static dielectric constant tensor:
#      x y z
#    x 1.878640 0.000000 -0.057870 
#    y 0.000000 1.647720 0.000000 
#    z -0.057870 0.000000 2.035800 
# 
# From -- ./inp_files/374718.got.cif
#   From: 2010.05.17/outbox.cif.g08.bks.cpg/sg12_188_cif.got.tgz:374718.got - 2010.06.03 13:09:07.
