data_PCOD9192078
_publ_section_title
;
Structure prediction by ZEFSAII (Michael W. Deem and Ramdas Pophale) SiO2 
 PCOD9192078
Probable space group: C 2/M
;
_chemical_formula_sum "Si O2"
_cell_formula_units_Z 64
_cell_length_a 33.454717
_cell_length_b 14.244996
_cell_length_c 23.055368
_cell_angle_alpha 90.000000
_cell_angle_beta 17.833969
_cell_angle_gamma 90.000000
_cell_volume 3364.973603
_symmetry_space_group_name_H-M "C 2/M"
_symmetry_group_IT_number 12
_symmetry_cell_setting 'monoclinic'
loop_
_space_group_symop_operation_xyz
x,y,z
-x,y,-z
-x,-y,-z
x,-y,z
1/2+x,1/2+y,z
1/2-x,1/2+y,-z
1/2-x,1/2-y,-z
1/2+x,1/2-y,z
loop_
_atom_site_type_symbol
_atom_site_label
_atom_site_fract_x
_atom_site_fract_y
_atom_site_fract_z
Si Si1 0.249193 0.608291 0.541878
Si Si2 0.993100 0.610855 0.310746
Si Si3 0.735361 0.391633 0.133258
Si Si4 0.393271 0.267415 0.778874
Si Si5 0.288563 0.892294 0.193753
Si Si6 0.795731 0.891638 0.341288
Si Si7 0.084020 0.892175 0.582253
Si Si8 0.980148 0.281268 0.089260
O O1 0.223317 0.500000 0.593444
O O2 0.287324 0.611216 0.422661
O O3 0.355314 0.643898 0.441451
O O4 0.121455 0.667361 0.729274
O O5 0.993778 0.500000 0.321966
O O6 0.848259 0.632788 0.485490
O O7 0.024809 0.672263 0.324117
O O8 0.115200 0.626799 0.096958
O O9 0.705510 0.500000 0.157344
O O10 0.632454 0.320900 0.245812
O O11 0.730698 0.386579 0.209133
O O12 0.461093 0.336664 0.730323
O O13 0.250000 0.250000 0.000000
O O14 0.188010 0.886497 0.386007
O O15 0.347486 0.000000 0.115688
O O16 0.382470 0.802006 0.070664
O O17 0.909338 0.816797 0.171429
O O18 0.824502 0.000000 0.284375
O O19 0.049616 0.000000 0.638823
O O20 0.000000 0.332116 0.000000
#
# Coordination Sequence:
#
# PCOD9192078 Si02
#       8
#     8   8   8   8   8   8   8   8
#     4  10  20  35  56  83 115 147 185 232 282 336
#     4   9  18  34  55  77 104 140 189 234 272 317
#     4   9  18  34  55  81 110 142 176 220 275 338
#     4  10  20  33  53  77 103 135 180 230 277 324
#     4  10  21  35  53  81 117 150 178 213 275 349
#     4  10  22  38  56  79 110 155 201 239 272 319
#     4  10  20  34  53  80 112 140 173 220 280 342
#     4  12  22  33  55  83 116 153 190 231 277 334
#
# _framework density 19.019465
#
# number of rings (size 3 to 8) (size 9 to 14) (size 15 to 20)
#    0.000    2.000    1.250    2.625    0.000    5.750 
#    0.000    1.875    0.000    0.750    0.000    0.875 
#    0.000    0.000    0.000    0.000    0.000    0.000 
#
# Total GULP energy -178225.630056 kJ/mol
# GULP energy per Si atom -5569.550939 kJ/mol
# Density = 1.897618 g / cm^3
# Si number density = 19.019465 Si / 1000 Ang^3
#
#
#
# Elastic Constant Matrix: (Units=GPa)
#
#
# Indices 1 2 3 4 5 6 
#
# 1 99.3535 38.5790 26.2956 0.0000 -20.4620 0.0000
# 2 38.5790 81.2421 38.5899 -0.0001 -21.1227 0.0000
# 3 26.2956 38.5899 49.6811 -0.0001 -14.7688 -0.0001
# 4 0.0000 -0.0001 -0.0001 24.1361 0.0001 -17.1212
# 5 -20.4620 -21.1227 -14.7688 0.0001 19.7245 0.0000
# 6 0.0000 0.0000 -0.0001 -17.1212 0.0000 28.4694
#
#
#
# Elastic Compliance Matrix: (Units=1/GPa)
#
#
# Indices 1 2 3 4 5 6 
#
# 1 0.013754 -0.003103 -0.002079 0.000000 0.009389 0.000000
# 2 -0.003103 0.022827 -0.012579 0.000000 0.011808 0.000000
# 3 -0.002079 -0.012579 0.033899 0.000000 0.009755 0.000000
# 4 0.000000 0.000000 0.000000 0.072256 0.000000 0.043454
# 5 0.009389 0.011808 0.009755 0.000000 0.080388 0.000000
# 6 0.000000 0.000000 0.000000 0.043454 0.000000 0.061258
#
#
# Mechanical properties :
#
#
# Convention : Reuss Voigt Hill
#
# Bulk Modulus (GPa) = 28.60397 48.57841 38.59119
# Shear Modulus (GPa) = 15.08040 22.92013 19.00027
#
# Velocity S-wave (km/s) = 2.81889 3.47520 3.16411
# Velocity P-wave (km/s) = 5.06624 6.45752 5.80372
#
# Compressibility (1/GPa) = 0.03496019
#
# Stress axis : x y z
#
# Youngs Moduli (GPa) = 72.70806 43.80730 29.49937
#
# Poissons Ratio (x) = 0.13592 0.06132
# Poissons Ratio (y) = 0.22559 0.37106
# Poissons Ratio (z) = 0.15113 0.55103
#
# Static dielectric constant tensor:
#      x y z
#    x 1.665560 0.000000 -0.026180 
#    y 0.000000 1.752860 0.000000 
#    z -0.026180 0.000000 1.658820 
# 
# From -- ./inp_files/189453.got.cif
#   From: 2010.05.17/outbox.cif.g08.bks.cpg/sg12_95_cif.got.tgz:189453.got - 2010.06.03 13:09:07.
