data_PCOD9192757
_publ_section_title
;
Structure prediction by ZEFSAII (Michael W. Deem and Ramdas Pophale) SiO2 
 PCOD9192757
Probable space group: C 2/M
;
_chemical_formula_sum "Si O2"
_cell_formula_units_Z 56
_cell_length_a 18.617832
_cell_length_b 7.501534
_cell_length_c 29.960128
_cell_angle_alpha 90.000000
_cell_angle_beta 140.756039
_cell_angle_gamma 90.000000
_cell_volume 2647.087602
_symmetry_space_group_name_H-M "C 2/M"
_symmetry_group_IT_number 12
_symmetry_cell_setting 'monoclinic'
loop_
_space_group_symop_operation_xyz
x,y,z
-x,y,-z
-x,-y,-z
x,-y,z
1/2+x,1/2+y,z
1/2-x,1/2+y,-z
1/2-x,1/2-y,-z
1/2+x,1/2-y,z
loop_
_atom_site_type_symbol
_atom_site_label
_atom_site_fract_x
_atom_site_fract_y
_atom_site_fract_z
Si Si1 0.969799 0.711691 0.349057
Si Si2 0.832753 0.286790 0.497882
Si Si3 0.216447 0.781166 0.208122
Si Si4 0.296965 0.788402 0.071740
Si Si5 0.941517 0.791277 0.788121
Si Si6 0.366465 0.283980 0.655703
Si Si7 0.629881 0.718044 0.069287
O O1 0.959086 0.500000 0.351223
O O2 0.843148 0.780481 0.281221
O O3 0.045676 0.783487 0.426814
O O4 0.042826 0.735831 0.338991
O O5 0.844211 0.500000 0.498208
O O6 0.750000 0.250000 0.500000
O O7 0.758701 0.221393 0.420396
O O8 0.128012 0.719799 0.203171
O O9 0.178184 0.725594 0.140409
O O10 0.216703 0.000000 0.207350
O O11 0.424419 0.721431 0.139741
O O12 0.210922 0.720520 0.068207
O O13 0.302672 0.000000 0.079765
O O14 0.250000 0.750000 0.000000
O O15 0.905048 0.716497 0.722503
O O16 0.911982 0.000000 0.771979
O O17 0.363922 0.500000 0.655170
O O18 0.629543 0.500000 0.068498
O O19 0.500000 0.774629 0.000000
#
# Coordination Sequence:
#
# PCOD9192757 Si02
#       7
#     8   8   8   8   8   8   8
#     4   9  16  28  48  70  92 125 170 211 242 284
#     4   8  14  25  42  66  94 123 159 202 246 291
#     4   9  17  30  48  70  95 126 166 205 239 281
#     4  11  22  36  56  79 101 126 158 196 237 282
#     4  10  20  34  51  71  99 132 162 196 241 290
#     4   9  17  29  46  70  99 128 158 199 253 299
#     4   9  17  30  50  73  94 120 156 194 230 275
#
# _framework density 21.155324
#
# number of rings (size 3 to 8) (size 9 to 14) (size 15 to 20)
#    0.000    2.714    0.000    2.143    0.000    4.000 
#    0.000    1.429    0.000   13.714    0.000    0.000 
#    0.000   12.571    0.000    0.000    0.000    0.000 
#
# Total GULP energy -156230.941878 kJ/mol
# GULP energy per Si atom -5579.676496 kJ/mol
# Density = 2.110717 g / cm^3
# Si number density = 21.155324 Si / 1000 Ang^3
#
#
#
# Elastic Constant Matrix: (Units=GPa)
#
#
# Indices 1 2 3 4 5 6 
#
# 1 143.4940 -9.0728 107.1127 -0.0002 8.4779 0.0005
# 2 -9.0728 53.1335 -10.8687 -0.0004 2.7152 0.0007
# 3 107.1127 -10.8687 232.6747 -0.0001 6.5344 0.0001
# 4 -0.0002 -0.0004 -0.0001 0.6464 0.0001 -3.0754
# 5 8.4779 2.7152 6.5344 0.0001 33.4635 -0.0001
# 6 0.0005 0.0007 0.0001 -3.0754 -0.0001 9.1178
#
#
#
# Elastic Compliance Matrix: (Units=1/GPa)
#
#
# Indices 1 2 3 4 5 6 
#
# 1 0.010766 0.000939 -0.004860 -0.000003 -0.001855 -0.000001
# 2 0.000939 0.019183 0.000517 -0.000009 -0.001895 -0.000005
# 3 -0.004860 0.000517 0.006562 0.000000 -0.000092 0.000000
# 4 -0.000003 -0.000009 0.000000 -2.558025 0.000006 -0.862812
# 5 -0.001855 -0.001895 -0.000092 0.000006 0.030525 0.000002
# 6 -0.000001 -0.000005 0.000000 -0.862812 0.000002 -0.181348
#
#
# Mechanical properties :
#
#
# Convention : Reuss Voigt Hill
#
# Bulk Modulus (GPa) = 33.66665 67.07161 50.36913
# Shear Modulus (GPa) = -1.88279 31.45428 14.78574
#
# Velocity S-wave (km/s) = -0.94441 3.86012 2.64657
# Velocity P-wave (km/s) = 3.84179 7.18614 5.76194
#
# Compressibility (1/GPa) = 0.02970299
#
# Stress axis : x y z
#
# Youngs Moduli (GPa) = 92.88707 52.12820 152.39353
#
# Poissons Ratio (x) = -0.04894 0.74065
# Poissons Ratio (y) = -0.08721 -0.07880
# Poissons Ratio (z) = 0.45144 -0.02696
#
# Static dielectric constant tensor:
#      x y z
#    x 1.716300 0.000000 -0.008030 
#    y 0.000000 1.798560 0.000000 
#    z -0.008030 0.000000 1.760440 
# 
# From -- ./inp_files/275183.got.cif
#   From: 2010.05.17/outbox.cif.g08.bks.cpg/sg12_138_cif.got.tgz:275183.got - 2010.06.03 13:09:07.
