data_PCOD9192238
_publ_section_title
;
Structure prediction by ZEFSAII (Michael W. Deem and Ramdas Pophale) SiO2 
 PCOD9192238
Probable space group: C 2/M
;
_chemical_formula_sum "Si O2"
_cell_formula_units_Z 44
_cell_length_a 9.050611
_cell_length_b 17.722017
_cell_length_c 13.498880
_cell_angle_alpha 90.000000
_cell_angle_beta 71.041771
_cell_angle_gamma 90.000000
_cell_volume 2047.706654
_symmetry_space_group_name_H-M "C 2/M"
_symmetry_group_IT_number 12
_symmetry_cell_setting 'monoclinic'
loop_
_space_group_symop_operation_xyz
x,y,z
-x,y,-z
-x,-y,-z
x,-y,z
1/2+x,1/2+y,z
1/2-x,1/2+y,-z
1/2-x,1/2-y,-z
1/2+x,1/2-y,z
loop_
_atom_site_type_symbol
_atom_site_label
_atom_site_fract_x
_atom_site_fract_y
_atom_site_fract_z
Si Si1 0.620855 0.641236 0.405038
Si Si2 0.093389 0.080862 0.877552
Si Si3 0.796162 0.882107 0.822068
Si Si4 0.143838 0.296280 0.168517
Si Si5 0.944932 0.705347 0.403357
Si Si6 0.500000 0.139833 0.000000
O O1 0.500000 0.595636 0.500000
O O2 0.701004 0.601081 0.294882
O O3 0.764511 0.684175 0.427378
O O4 0.502807 0.707315 0.392154
O O5 0.206499 0.151232 0.851157
O O6 0.958188 0.086454 0.826660
O O7 0.177556 0.000000 0.851479
O O8 0.000000 0.082954 0.000000
O O9 0.807042 0.790873 0.832818
O O10 0.645412 0.904882 0.919256
O O11 0.031028 0.320196 0.283693
O O12 0.068071 0.312177 0.077678
O O13 0.000000 0.675871 0.500000
#
# Coordination Sequence:
#
# PCOD9192238 Si02
#       6
#     8   8   8   8   8   4
#     4  10  20  33  53  87 124 158 201 255 312 356
#     4  11  25  43  59  86 127 171 201 240 309 381
#     4  11  23  36  62  91 124 160 206 256 306 361
#     4  11  23  36  62  91 124 160 206 256 306 361
#     4  10  20  33  53  87 124 158 201 255 312 356
#     4  12  20  36  53  92 123 146 200 258 310 350
#
# _framework density 21.487452000000001
#
# number of rings (size 3 to 8) (size 9 to 14) (size 15 to 20)
#    0.000    1.273    3.636    3.818   12.727    0.000 
#    0.000    1.818    0.000    1.091    0.000    0.000 
#    0.000    0.000    0.000    0.000    0.000    0.000 
#
# Total GULP energy -122717.887715 kJ/mol
# GULP energy per Si atom -5578.085805 kJ/mol
# Density = 2.143855 g / cm^3
# Si number density = 21.487452 Si / 1000 Ang^3
#
#
#
# Elastic Constant Matrix: (Units=GPa)
#
#
# Indices 1 2 3 4 5 6 
#
# 1 89.2611 12.7846 47.4131 0.0000 -11.3015 0.0000
# 2 12.7846 69.1171 7.8515 0.0000 -8.7020 0.0000
# 3 47.4131 7.8515 175.0555 0.0000 -2.8663 0.0000
# 4 0.0000 0.0000 0.0000 -430.8381 0.0000 -97.2264
# 5 -11.3015 -8.7020 -2.8663 0.0000 38.9033 0.0000
# 6 0.0000 0.0000 0.0000 -97.2264 0.0000 -14.0167
#
#
#
# Elastic Compliance Matrix: (Units=1/GPa)
#
#
# Indices 1 2 3 4 5 6 
#
# 1 0.013788 -0.001719 -0.003602 0.000000 0.003355 0.000000
# 2 -0.001719 0.015168 -0.000168 0.000000 0.002881 0.000000
# 3 -0.003602 -0.000168 0.006686 0.000000 -0.000591 0.000000
# 4 0.000000 0.000000 0.000000 0.004106 0.000000 -0.028478
# 5 0.003355 0.002881 -0.000591 0.000000 0.027280 0.000000
# 6 0.000000 0.000000 0.000000 -0.028478 0.000000 0.126196
#
#
# Mechanical properties :
#
#
# Convention : Reuss Voigt Hill
#
# Bulk Modulus (GPa) = 40.54441 52.17025 46.35733
# Shear Modulus (GPa) = 23.53806 -63.49801 -19.97998
#
# Velocity S-wave (km/s) = 3.31332 -5.44200 -3.05264
# Velocity P-wave (km/s) = 5.79200 3.89295 3.03251
#
# Compressibility (1/GPa) = 0.02466431
#
# Stress axis : x y z
#
# Youngs Moduli (GPa) = 72.52937 65.92874 149.56691
#
# Poissons Ratio (x) = 0.11331 0.53878
# Poissons Ratio (y) = 0.12465 0.02507
# Poissons Ratio (z) = 0.26127 0.01105
#
# Static dielectric constant tensor:
#      x y z
#    x 1.746110 0.000000 0.006770 
#    y 0.000000 1.767110 0.000000 
#    z 0.006770 0.000000 1.896220 
# 
# From -- ./inp_files/124481.got.cif
#   From: 2010.05.17/outbox.cif.g08.bks.cpg/sg12_63_cif.got.tgz:124481.got - 2010.06.03 13:09:07.
