data_PCOD9192245
_publ_section_title
;
Structure prediction by ZEFSAII (Michael W. Deem and Ramdas Pophale) SiO2 
 PCOD9192245
Probable space group: C 2/M
;
_chemical_formula_sum "Si O2"
_cell_formula_units_Z 56
_cell_length_a 8.831736
_cell_length_b 22.552612
_cell_length_c 18.845540
_cell_angle_alpha 90.000000
_cell_angle_beta 128.058043
_cell_angle_gamma 90.000000
_cell_volume 2955.558535
_symmetry_space_group_name_H-M "C 2/M"
_symmetry_group_IT_number 12
_symmetry_cell_setting 'monoclinic'
loop_
_space_group_symop_operation_xyz
x,y,z
-x,y,-z
-x,-y,-z
x,-y,z
1/2+x,1/2+y,z
1/2-x,1/2+y,-z
1/2-x,1/2-y,-z
1/2+x,1/2-y,z
loop_
_atom_site_type_symbol
_atom_site_label
_atom_site_fract_x
_atom_site_fract_y
_atom_site_fract_z
Si Si1 0.712232 0.313780 0.527119
Si Si2 0.945578 0.070706 0.210232
Si Si3 0.477373 0.070055 0.846006
Si Si4 0.650427 0.665862 0.362356
Si Si5 0.501527 0.167874 0.742079
Si Si6 0.285880 0.752690 0.283284
Si Si7 0.369948 0.428005 0.028408
O O1 0.500000 0.316398 0.500000
O O2 0.750000 0.250000 0.500000
O O3 0.724244 0.354403 0.460427
O O4 0.862194 0.329970 0.632351
O O5 0.732727 0.080339 0.181837
O O6 0.939091 0.089848 0.126197
O O7 0.091070 0.111067 0.296526
O O8 0.986300 0.000000 0.226193
O O9 0.506983 0.105592 0.781787
O O10 0.496158 0.000000 0.838626
O O11 0.648866 0.088051 0.948609
O O12 0.459165 0.705995 0.322569
O O13 0.788271 0.710091 0.357755
O O14 0.696135 0.197929 0.771741
O O15 0.404150 0.213732 0.768810
O O16 0.377806 0.500000 0.031333
O O17 0.500000 0.407578 0.000000
#
# Coordination Sequence:
#
# PCOD9192245 Si02
#       7
#     8   8   8   8   8   8   8
#     4  12  18  30  51  79 106 142 185 223 254 301
#     4  10  20  36  57  81 109 141 174 218 270 322
#     4  10  20  36  57  81 109 141 174 218 270 322
#     4  11  20  34  53  82 109 141 182 224 262 312
#     4  11  20  34  53  82 109 141 182 224 262 312
#     4  10  20  33  54  77 108 142 184 225 264 301
#     4   9  19  35  57  82 103 132 182 224 261 313
#
# _framework density 18.947348999999999
#
# number of rings (size 3 to 8) (size 9 to 14) (size 15 to 20)
#    0.000    1.571    5.714    0.429    2.000    1.714 
#    0.000    0.714    0.000    7.714    0.000    2.000 
#    0.000    0.000    0.000    0.000    0.000    0.000 
#
# Total GULP energy -156121.731214 kJ/mol
# GULP energy per Si atom -5575.776115 kJ/mol
# Density = 1.890422 g / cm^3
# Si number density = 18.947349 Si / 1000 Ang^3
#
#
#
# Elastic Constant Matrix: (Units=GPa)
#
#
# Indices 1 2 3 4 5 6 
#
# 1 57.0292 19.6044 7.3167 0.0000 -19.4808 0.0000
# 2 19.6044 52.4569 44.7669 0.0000 -11.1527 0.0000
# 3 7.3167 44.7669 105.7770 0.0000 -19.3611 0.0000
# 4 0.0000 0.0000 0.0000 5.8114 0.0000 -18.3637
# 5 -19.4808 -11.1527 -19.3611 0.0000 28.1692 0.0000
# 6 0.0000 0.0000 0.0000 -18.3637 0.0000 22.3583
#
#
#
# Elastic Compliance Matrix: (Units=1/GPa)
#
#
# Indices 1 2 3 4 5 6 
#
# 1 0.027052 -0.011690 0.006467 0.000000 0.018525 0.000000
# 2 -0.011690 0.035213 -0.014896 0.000000 -0.004382 0.000000
# 3 0.006467 -0.014896 0.017216 0.000000 0.010407 0.000000
# 4 0.000000 0.000000 0.000000 -0.107857 0.000000 -0.088587
# 5 0.018525 -0.004382 0.010407 0.000000 0.053729 0.000000
# 6 0.000000 0.000000 0.000000 -0.088587 0.000000 -0.028034
#
#
# Mechanical properties :
#
#
# Convention : Reuss Voigt Hill
#
# Bulk Modulus (GPa) = 25.48320 39.84877 32.66598
# Shear Modulus (GPa) = 98.74001 20.83946 59.78974
#
# Velocity S-wave (km/s) = 7.22675 3.32001 5.62354
# Velocity P-wave (km/s) = 9.11665 5.98111 7.70996
#
# Compressibility (1/GPa) = 0.03924154
#
# Stress axis : x y z
#
# Youngs Moduli (GPa) = 36.96620 28.39842 58.08595
#
# Poissons Ratio (x) = 0.33199 -0.37565
# Poissons Ratio (y) = 0.43215 0.86526
# Poissons Ratio (z) = -0.23907 0.42303
#
# Static dielectric constant tensor:
#      x y z
#    x 1.716070 0.000000 -0.001930 
#    y 0.000000 1.662700 0.000000 
#    z -0.001930 0.000000 1.697450 
# 
# From -- ./inp_files/257975.got.cif
#   From: 2010.05.17/outbox.cif.g08.bks.cpg/sg12_129_cif.got.tgz:257975.got - 2010.06.03 13:09:07.
