data_PCOD9192765
_publ_section_title
;
Structure prediction by ZEFSAII (Michael W. Deem and Ramdas Pophale) SiO2 
 PCOD9192765
Probable space group: C 2/M
;
_chemical_formula_sum "Si O2"
_cell_formula_units_Z 64
_cell_length_a 31.728224
_cell_length_b 8.906582
_cell_length_c 15.031378
_cell_angle_alpha 90.000000
_cell_angle_beta 62.019277
_cell_angle_gamma 90.000000
_cell_volume 3751.182703
_symmetry_space_group_name_H-M "C 2/M"
_symmetry_group_IT_number 12
_symmetry_cell_setting 'monoclinic'
loop_
_space_group_symop_operation_xyz
x,y,z
-x,y,-z
-x,-y,-z
x,-y,z
1/2+x,1/2+y,z
1/2-x,1/2+y,-z
1/2-x,1/2-y,-z
1/2+x,1/2-y,z
loop_
_atom_site_type_symbol
_atom_site_label
_atom_site_fract_x
_atom_site_fract_y
_atom_site_fract_z
Si Si1 0.108367 0.821133 0.420092
Si Si2 0.386236 0.179163 0.148774
Si Si3 0.072018 0.679960 0.079207
Si Si4 0.918108 0.677889 0.730099
Si Si5 0.531777 0.320837 0.812141
Si Si6 0.301623 0.680049 0.547189
Si Si7 0.968785 0.678306 0.377909
Si Si8 0.198573 0.179171 0.658087
O O1 0.109770 0.768686 0.316905
O O2 0.155707 0.780413 0.428671
O O3 0.063910 0.740035 0.511349
O O4 0.102105 0.000000 0.431875
O O5 0.430891 0.250676 0.156393
O O6 0.338495 0.245121 0.238680
O O7 0.387220 0.000000 0.159474
O O8 0.393403 0.211900 0.037173
O O9 0.062176 0.500000 0.090694
O O10 0.091626 0.719339 0.157567
O O11 0.021655 0.762760 0.115550
O O12 0.909495 0.500000 0.727310
O O13 0.974984 0.703875 0.660950
O O14 0.533807 0.500000 0.813099
O O15 0.543925 0.262254 0.701076
O O16 0.294064 0.500000 0.558710
O O17 0.252261 0.762013 0.618200
O O18 0.314510 0.716739 0.431843
O O19 0.961996 0.500000 0.373618
O O20 0.196596 0.000000 0.669404
#
# Coordination Sequence:
#
# PCOD9192765 Si02
#       8
#     8   8   8   8   8   8   8   8
#     4  11  21  32  51  78 105 134 170 212 257 305
#     4  11  21  34  54  76 102 138 174 207 252 310
#     4   9  20  37  53  71 100 140 179 212 251 301
#     4   9  19  35  51  70 100 137 177 216 251 294
#     4  11  21  32  49  76 108 137 170 215 257 296
#     4   9  20  37  53  74 106 136 161 197 251 311
#     4  10  20  34  51  72 103 142 177 209 251 305
#     4  10  20  35  56  80 104 130 164 207 252 300
#
# _framework density 17.061285999999999
#
# number of rings (size 3 to 8) (size 9 to 14) (size 15 to 20)
#    0.000    2.000    0.000    4.875    0.000    9.000 
#    0.000    0.000    0.000    0.750    0.000    0.000 
#    0.000    0.000    0.000    0.000    0.000    0.000 
#
# Total GULP energy -178715.912466 kJ/mol
# GULP energy per Si atom -5584.872265 kJ/mol
# Density = 1.702245 g / cm^3
# Si number density = 17.061286 Si / 1000 Ang^3
#
#
#
# Elastic Constant Matrix: (Units=GPa)
#
#
# Indices 1 2 3 4 5 6 
#
# 1 75.6142 45.2109 61.7927 0.0000 18.1547 0.0000
# 2 45.2109 60.4486 58.2576 0.0000 5.5138 0.0000
# 3 61.7927 58.2576 138.7874 0.0000 7.4286 0.0000
# 4 0.0000 0.0000 0.0000 23.0027 0.0000 0.7088
# 5 18.1547 5.5138 7.4286 0.0000 16.7935 0.0000
# 6 0.0000 0.0000 0.0000 0.7088 0.0000 27.3735
#
#
#
# Elastic Compliance Matrix: (Units=1/GPa)
#
#
# Indices 1 2 3 4 5 6 
#
# 1 0.037807 -0.018141 -0.007527 0.000000 -0.031585 0.000000
# 2 -0.018141 0.036760 -0.007945 0.000000 0.011057 0.000000
# 3 -0.007527 -0.007945 0.013639 0.000000 0.004713 0.000000
# 4 0.000000 0.000000 0.000000 0.043508 0.000000 -0.001127
# 5 -0.031585 0.011057 0.004713 0.000000 0.087977 0.000000
# 6 0.000000 0.000000 0.000000 -0.001127 0.000000 0.036561
#
#
# Mechanical properties :
#
#
# Convention : Reuss Voigt Hill
#
# Bulk Modulus (GPa) = 47.66674 67.26363 57.46519
# Shear Modulus (GPa) = 15.12989 20.73986 17.93488
#
# Velocity S-wave (km/s) = 2.98114 3.49034 3.24574
# Velocity P-wave (km/s) = 6.31259 7.46683 6.91384
#
# Compressibility (1/GPa) = 0.02097899
#
# Stress axis : x y z
#
# Youngs Moduli (GPa) = 26.45037 27.20369 73.31660
#
# Poissons Ratio (x) = 0.49350 0.55187
# Poissons Ratio (y) = 0.47984 0.58251
# Poissons Ratio (z) = 0.19910 0.21614
#
# Static dielectric constant tensor:
#      x y z
#    x 1.554000 0.000000 0.018470 
#    y 0.000000 1.568210 0.000000 
#    z 0.018470 0.000000 1.579450 
# 
# From -- ./inp_files/248991.got.cif
#   From: 2010.05.17/outbox.cif.g08.bks.cpg/sg12_125_cif.got.tgz:248991.got - 2010.06.03 13:09:07.
