data_PCOD9192963
_publ_section_title
;
Structure prediction by ZEFSAII (Michael W. Deem and Ramdas Pophale) SiO2 
 PCOD9192963
Probable space group: C 2/M
;
_chemical_formula_sum "Si O2"
_cell_formula_units_Z 58
_cell_length_a 20.430458
_cell_length_b 7.586803
_cell_length_c 13.747505
_cell_angle_alpha 90.000000
_cell_angle_beta 92.021207
_cell_angle_gamma 90.000000
_cell_volume 2129.563095
_symmetry_space_group_name_H-M "C 2/M"
_symmetry_group_IT_number 12
_symmetry_cell_setting 'monoclinic'
loop_
_space_group_symop_operation_xyz
x,y,z
-x,y,-z
-x,-y,-z
x,-y,z
1/2+x,1/2+y,z
1/2-x,1/2+y,-z
1/2-x,1/2-y,-z
1/2+x,1/2-y,z
loop_
_atom_site_type_symbol
_atom_site_label
_atom_site_fract_x
_atom_site_fract_y
_atom_site_fract_z
Si Si1 0.734212 0.289565 0.112711
Si Si2 0.493376 0.795144 0.283271
Si Si3 0.876556 0.282111 0.143680
Si Si4 0.591030 0.295609 0.076563
Si Si5 0.229354 0.709790 0.610852
Si Si6 0.909483 0.797723 0.453649
Si Si7 0.000000 0.500000 0.000000
Si Si8 0.632384 0.710034 0.339624
O O1 0.729630 0.500000 0.125361
O O2 0.801936 0.235655 0.168533
O O3 0.750000 0.250000 0.000000
O O4 0.659905 0.228755 0.127416
O O5 0.434423 0.718568 0.216078
O O6 0.468629 0.771403 0.392690
O O7 0.567144 0.729448 0.272304
O O8 0.494488 0.000000 0.265979
O O9 0.880168 0.500000 0.134998
O O10 0.889662 0.208618 0.037633
O O11 0.576220 0.500000 0.099259
O O12 0.532922 0.154835 0.071640
O O13 0.221269 0.500000 0.625536
O O14 0.250000 0.750000 0.500000
O O15 0.156931 0.786306 0.613650
O O16 0.293304 0.774633 0.673485
O O17 0.890507 0.714707 0.556372
O O18 0.924081 0.000000 0.474591
O O19 0.642182 0.500000 0.349352
#
# Coordination Sequence:
#
# PCOD9192963 Si02
#       8
#     8   8   8   8   8   8   2   8
#     4   8  15  29  54  81 104 133 178 222 261 319
#     4  11  22  32  52  80 109 144 181 227 284 335
#     4   9  18  36  56  79 113 144 176 234 287 321
#     4  10  20  35  60  89 112 154 192 218 278 333
#     4   9  17  31  52  74  97 130 170 219 276 331
#     4  10  20  34  52  74 104 139 182 236 285 324
#     4  12  22  36  60  86 132 148 172 250 258 322
#     4   9  19  34  51  73 103 142 183 230 283 335
#
# _framework density 27.235634000000001
#
# number of rings (size 3 to 8) (size 9 to 14) (size 15 to 20)
#    0.000    2.483    0.690    2.690    0.966    6.069 
#    0.000    0.000    3.034    0.000    0.000    0.000 
#    0.000    0.000    0.000    0.000    0.000    0.000 
#
# Total GULP energy -161961.570016 kJ/mol
# GULP energy per Si atom -5584.881725 kJ/mol
# Density = 2.717364 g / cm^3
# Si number density = 27.235634 Si / 1000 Ang^3
#
#
#
# Elastic Constant Matrix: (Units=GPa)
#
#
# Indices 1 2 3 4 5 6 
#
# 1 206.8266 35.4503 35.3535 0.0000 27.8547 0.0000
# 2 35.4503 101.7106 10.9928 0.0000 5.4956 0.0000
# 3 35.3535 10.9928 96.6163 0.0000 36.4653 0.0000
# 4 0.0000 0.0000 0.0000 20.1408 0.0000 7.2191
# 5 27.8547 5.4956 36.4653 0.0000 67.0841 0.0000
# 6 0.0000 0.0000 0.0000 7.2191 0.0000 34.1974
#
#
#
# Elastic Compliance Matrix: (Units=1/GPa)
#
#
# Indices 1 2 3 4 5 6 
#
# 1 0.005545 -0.001715 -0.001281 0.000000 -0.001466 0.000000
# 2 -0.001715 0.010488 -0.000642 0.000000 0.000202 0.000000
# 3 -0.001281 -0.000642 0.013426 0.000000 -0.006714 0.000000
# 4 0.000000 0.000000 0.000000 0.053715 0.000000 -0.011339
# 5 -0.001466 0.000202 -0.006714 0.000000 0.019148 0.000000
# 6 0.000000 0.000000 0.000000 -0.011339 0.000000 0.031636
#
#
# Mechanical properties :
#
#
# Convention : Reuss Voigt Hill
#
# Bulk Modulus (GPa) = 45.07840 63.19407 54.13624
# Shear Modulus (GPa) = 33.64110 45.84160 39.74135
#
# Velocity S-wave (km/s) = 3.51834 4.10707 3.82405
# Velocity P-wave (km/s) = 5.75257 6.76341 6.27837
#
# Compressibility (1/GPa) = 0.02218357
#
# Stress axis : x y z
#
# Youngs Moduli (GPa) = 180.33367 95.34629 74.48378
#
# Poissons Ratio (x) = 0.16353 0.09539
# Poissons Ratio (y) = 0.30930 0.04781
# Poissons Ratio (z) = 0.23096 0.06120
#
# Static dielectric constant tensor:
#      x y z
#    x 2.175970 0.000000 -0.019180 
#    y 0.000000 1.974290 0.000000 
#    z -0.019180 0.000000 2.292270 
# 
# From -- ./inp_files/281498.got.cif
#   From: 2010.05.17/outbox.cif.g08.bks.cpg/sg12_141_cif.got.tgz:281498.got - 2010.06.03 13:09:07.
