data_PCOD9192440
_publ_section_title
;
Structure prediction by ZEFSAII (Michael W. Deem and Ramdas Pophale) SiO2 
 PCOD9192440
Probable space group: C 2/M
;
_chemical_formula_sum "Si O2"
_cell_formula_units_Z 40
_cell_length_a 21.394214
_cell_length_b 11.232901
_cell_length_c 7.631963
_cell_angle_alpha 90.000000
_cell_angle_beta 99.005768
_cell_angle_gamma 90.000000
_cell_volume 1811.496600
_symmetry_space_group_name_H-M "C 2/M"
_symmetry_group_IT_number 12
_symmetry_cell_setting 'monoclinic'
loop_
_space_group_symop_operation_xyz
x,y,z
-x,y,-z
-x,-y,-z
x,-y,z
1/2+x,1/2+y,z
1/2-x,1/2+y,-z
1/2-x,1/2-y,-z
1/2+x,1/2-y,z
loop_
_atom_site_type_symbol
_atom_site_label
_atom_site_fract_x
_atom_site_fract_y
_atom_site_fract_z
Si Si1 0.793902 0.631891 0.046479
Si Si2 0.253238 0.871455 0.396247
Si Si3 0.563233 0.638592 0.645834
Si Si4 0.931979 0.299946 0.005391
Si Si5 0.612282 0.367965 0.309952
O O1 0.766022 0.500000 0.987599
O O2 0.802613 0.630886 0.260477
O O3 0.863177 0.638479 0.988695
O O4 0.750000 0.750000 0.000000
O O5 0.250000 0.750000 0.500000
O O6 0.183980 0.874585 0.276497
O O7 0.259980 0.000000 0.495064
O O8 0.500000 0.653271 0.500000
O O9 0.569510 0.500000 0.701773
O O10 0.565055 0.721909 0.814916
O O11 0.614720 0.664406 0.516549
O O12 0.925550 0.216537 0.832509
O O13 0.000000 0.362529 0.000000
O O14 0.583879 0.500000 0.289890
#
# Coordination Sequence:
#
# PCOD9192440 Si02
#       5
#     8   8   8   8   8
#     4  11  25  45  69  98 135 174 225 280 332 403
#     4  10  21  40  65  94 130 169 218 278 334 399
#     4  10  20  33  55  93 135 174 223 278 333 397
#     4  12  23  38  65  93 131 179 222 272 340 398
#     4  10  20  36  58  93 132 169 221 278 331 396
#
# _framework density 22.081189999999999
#
# number of rings (size 3 to 8) (size 9 to 14) (size 15 to 20)
#    0.000    1.400    4.000    1.800    0.000    2.800 
#    0.000    0.000    0.000    0.600    0.000    0.000 
#    0.000    0.000    0.000    0.000    0.000    0.000 
#
# Total GULP energy -111378.789729 kJ/mol
# GULP energy per Si atom -5568.939486 kJ/mol
# Density = 2.203093 g / cm^3
# Si number density = 22.081190 Si / 1000 Ang^3
#
#
#
# Elastic Constant Matrix: (Units=GPa)
#
#
# Indices 1 2 3 4 5 6 
#
# 1 118.3887 37.1135 0.5408 0.0000 -18.5706 0.0000
# 2 37.1135 167.5609 55.8492 0.0000 -0.1188 0.0000
# 3 0.5408 55.8492 57.0693 0.0000 -16.3136 0.0000
# 4 0.0000 0.0000 0.0000 15.7510 0.0000 -17.4411
# 5 -18.5706 -0.1188 -16.3136 0.0000 36.2344 0.0000
# 6 0.0000 0.0000 0.0000 -17.4411 0.0000 -20.6195
#
#
#
# Elastic Compliance Matrix: (Units=1/GPa)
#
#
# Indices 1 2 3 4 5 6 
#
# 1 0.011412 -0.004983 0.007386 0.000000 0.009158 0.000000
# 2 -0.004983 0.011704 -0.013917 0.000000 -0.008781 0.000000
# 3 0.007386 -0.013917 0.036888 0.000000 0.020348 0.000000
# 4 0.000000 0.000000 0.000000 0.032783 0.000000 -0.027730
# 5 0.009158 -0.008781 0.020348 0.000000 0.041424 0.000000
# 6 0.000000 0.000000 0.000000 -0.027730 0.000000 -0.025043
#
#
# Mechanical properties :
#
#
# Convention : Reuss Voigt Hill
#
# Bulk Modulus (GPa) = 27.04413 58.89177 42.96795
# Shear Modulus (GPa) = 34.59726 22.90756 28.75241
#
# Velocity S-wave (km/s) = 3.96260 3.22440 3.61241
# Velocity P-wave (km/s) = 5.76285 6.37109 6.07459
#
# Compressibility (1/GPa) = 0.03697660
#
# Stress axis : x y z
#
# Youngs Moduli (GPa) = 87.63053 85.44148 27.10898
#
# Poissons Ratio (x) = 0.42574 -0.20023
# Poissons Ratio (y) = 0.43665 0.37726
# Poissons Ratio (z) = -0.64723 1.18905
#
# Static dielectric constant tensor:
#      x y z
#    x 1.944480 0.000000 -0.041200 
#    y 0.000000 1.947920 0.000000 
#    z -0.041200 0.000000 1.815620 
# 
# From -- ./inp_files/83648.got.cif
#   From: 2010.05.17/outbox.cif.g08.bks.cpg/sg12_42_cif.got.tgz:83648.got - 2010.06.03 13:09:07.
