data_PCOD9192906
_publ_section_title
;
Structure prediction by ZEFSAII (Michael W. Deem and Ramdas Pophale) SiO2 
 PCOD9192906
Probable space group: C 2/M
;
_chemical_formula_sum "Si O2"
_cell_formula_units_Z 64
_cell_length_a 14.852934
_cell_length_b 14.219796
_cell_length_c 17.860917
_cell_angle_alpha 90.000000
_cell_angle_beta 89.587334
_cell_angle_gamma 90.000000
_cell_volume 3772.229483
_symmetry_space_group_name_H-M "C 2/M"
_symmetry_group_IT_number 12
_symmetry_cell_setting 'monoclinic'
loop_
_space_group_symop_operation_xyz
x,y,z
-x,y,-z
-x,-y,-z
x,-y,z
1/2+x,1/2+y,z
1/2-x,1/2+y,-z
1/2-x,1/2-y,-z
1/2+x,1/2-y,z
loop_
_atom_site_type_symbol
_atom_site_label
_atom_site_fract_x
_atom_site_fract_y
_atom_site_fract_z
Si Si1 0.452952 0.777586 0.928515
Si Si2 0.670748 0.605733 0.057918
Si Si3 0.859993 0.114401 0.643463
Si Si4 0.107627 0.110102 0.516777
Si Si5 0.880455 0.779312 0.174752
Si Si6 0.222736 0.610637 0.087525
Si Si7 0.933525 0.113812 0.322958
Si Si8 0.762590 0.390707 0.217674
O O1 0.401013 0.685280 0.958425
O O2 0.528651 0.741121 0.871438
O O3 0.374252 0.843554 0.896297
O O4 0.500000 0.824800 0.000000
O O5 0.636147 0.500000 0.044828
O O6 0.699585 0.613741 0.144190
O O7 0.755141 0.618806 0.001585
O O8 0.846003 0.149852 0.558366
O O9 0.790617 0.141997 0.708109
O O10 0.961155 0.138944 0.667921
O O11 0.857824 0.000000 0.640391
O O12 0.116973 0.147875 0.600877
O O13 0.000000 0.112604 0.500000
O O14 0.132674 0.000000 0.520740
O O15 0.802545 0.831688 0.127436
O O16 0.898440 0.842191 0.247326
O O17 0.843459 0.678662 0.200869
O O18 0.225793 0.500000 0.106886
O O19 0.928078 0.000000 0.320522
O O20 0.788484 0.500000 0.226540
#
# Coordination Sequence:
#
# PCOD9192906 Si02
#       8
#     8   8   8   8   8   8   8   8
#     4  12  23  37  58  79 107 140 185 224 270 321
#     4  10  20  37  58  78 103 134 173 221 272 315
#     4   8  14  28  51  75 101 133 166 210 269 316
#     4   7  11  23  45  73 105 132 158 203 264 320
#     4  12  23  35  55  77 109 142 183 224 264 315
#     4  11  24  41  57  78 110 146 180 223 274 322
#     4   9  17  29  49  80 107 132 168 211 265 322
#     4  10  20  34  52  73 101 136 176 218 261 309
#
# _framework density 16.966093000000001
#
# number of rings (size 3 to 8) (size 9 to 14) (size 15 to 20)
#    0.000    2.125    2.500    3.750    0.000    3.000 
#    0.000    0.625    0.000    0.000    0.000    0.000 
#    0.000    4.500    0.000    0.500    0.000    0.000 
#
# Total GULP energy -178276.208335 kJ/mol
# GULP energy per Si atom -5571.131510 kJ/mol
# Density = 1.692748 g / cm^3
# Si number density = 16.966093 Si / 1000 Ang^3
#
#
#
# Elastic Constant Matrix: (Units=GPa)
#
#
# Indices 1 2 3 4 5 6 
#
# 1 72.5163 35.0281 35.5159 0.0000 -3.0942 0.0000
# 2 35.0281 62.0893 21.7824 0.0000 -6.8622 0.0000
# 3 35.5159 21.7824 115.7714 0.0000 -7.0290 0.0000
# 4 0.0000 0.0000 0.0000 10.2618 0.0000 2.1744
# 5 -3.0942 -6.8622 -7.0290 0.0000 8.1176 0.0000
# 6 0.0000 0.0000 0.0000 2.1744 0.0000 7.1437
#
#
#
# Elastic Compliance Matrix: (Units=1/GPa)
#
#
# Indices 1 2 3 4 5 6 
#
# 1 0.021129 -0.010827 -0.004762 0.000000 -0.005222 0.000000
# 2 -0.010827 0.024066 -0.000234 0.000000 0.016015 0.000000
# 3 -0.004762 -0.000234 0.010576 0.000000 0.007145 0.000000
# 4 0.000000 0.000000 0.000000 0.104167 0.000000 -0.031706
# 5 -0.005222 0.016015 0.007145 0.000000 0.140924 0.000000
# 6 0.000000 0.000000 0.000000 -0.031706 0.000000 0.149633
#
#
# Mechanical properties :
#
#
# Convention : Reuss Voigt Hill
#
# Bulk Modulus (GPa) = 41.44959 48.33663 44.89311
# Shear Modulus (GPa) = 10.20025 15.64132 12.92078
#
# Velocity S-wave (km/s) = 2.45463 3.03960 2.76264
# Velocity P-wave (km/s) = 5.70241 6.39303 6.05757
#
# Compressibility (1/GPa) = 0.02412569
#
# Stress axis : x y z
#
# Youngs Moduli (GPa) = 47.32812 41.55249 94.54975
#
# Poissons Ratio (x) = 0.44987 0.45024
# Poissons Ratio (y) = 0.51241 0.02216
# Poissons Ratio (z) = 0.22537 0.00974
#
# Static dielectric constant tensor:
#      x y z
#    x 1.578510 0.000000 -0.004580 
#    y 0.000000 1.570850 0.000000 
#    z -0.004580 0.000000 1.614420 
# 
# From -- ./inp_files/269870.got.cif
#   From: 2010.05.17/outbox.cif.g08.bks.cpg/sg12_135_cif.got.tgz:269870.got - 2010.06.03 13:09:07.
