data_PCOD9192146
_publ_section_title
;
Structure prediction by ZEFSAII (Michael W. Deem and Ramdas Pophale) SiO2 
 PCOD9192146
Probable space group: C 2/M
;
_chemical_formula_sum "Si O2"
_cell_formula_units_Z 64
_cell_length_a 14.811667
_cell_length_b 7.766663
_cell_length_c 23.625470
_cell_angle_alpha 90.000000
_cell_angle_beta 96.485985
_cell_angle_gamma 90.000000
_cell_volume 2700.413244
_symmetry_space_group_name_H-M "C 2/M"
_symmetry_group_IT_number 12
_symmetry_cell_setting 'monoclinic'
loop_
_space_group_symop_operation_xyz
x,y,z
-x,y,-z
-x,-y,-z
x,-y,z
1/2+x,1/2+y,z
1/2-x,1/2+y,-z
1/2-x,1/2-y,-z
1/2+x,1/2-y,z
loop_
_atom_site_type_symbol
_atom_site_label
_atom_site_fract_x
_atom_site_fract_y
_atom_site_fract_z
Si Si1 0.355445 0.302184 0.001647
Si Si2 0.009624 0.204109 0.598997
Si Si3 0.467456 0.708846 0.723221
Si Si4 0.013364 0.302497 0.087745
Si Si5 0.204024 0.789653 0.636151
Si Si6 0.151184 0.298913 0.186516
Si Si7 0.327283 0.796134 0.549916
Si Si8 0.665649 0.289812 0.761895
O O1 0.357464 0.500000 0.984053
O O2 0.413753 0.200809 0.958810
O O3 0.250000 0.250000 0.000000
O O4 0.419205 0.283765 0.061801
O O5 0.978991 0.268563 0.659252
O O6 0.929856 0.236135 0.549258
O O7 0.111954 0.266628 0.597014
O O8 0.018102 0.000000 0.605395
O O9 0.460627 0.500000 0.723193
O O10 0.384141 0.785545 0.751744
O O11 0.561257 0.760355 0.761821
O O12 0.990243 0.500000 0.099463
O O13 0.072221 0.219988 0.142380
O O14 0.289468 0.724671 0.607164
O O15 0.191936 0.735868 0.699858
O O16 0.208200 0.000000 0.636818
O O17 0.156457 0.500000 0.170498
O O18 0.253596 0.228142 0.191716
O O19 0.250000 0.750000 0.500000
O O20 0.331546 0.000000 0.553369
O O21 0.667186 0.500000 0.763003
#
# Coordination Sequence:
#
# PCOD9192146 Si02
#       8
#     8   8   8   8   8   8   8   8
#     4  11  22  39  62  83 106 144 188 234 284 333
#     4   9  18  35  55  75  99 132 174 217 255 302
#     4   9  18  32  53  78 105 137 175 215 256 304
#     4  10  21  37  55  83 117 148 187 231 271 321
#     4   8  16  32  54  73  96 134 174 205 246 308
#     4  10  20  33  53  80 113 145 174 214 260 306
#     4  11  22  35  52  75 100 130 167 212 264 319
#     4   8  15  31  52  75 101 135 175 208 245 304
#
# _framework density 23.700074999999998
#
# number of rings (size 3 to 8) (size 9 to 14) (size 15 to 20)
#    0.000    2.500    0.000    4.875    0.000    4.000 
#    0.000    5.625    0.000    2.250    0.000    0.000 
#    0.000    0.000    0.000    0.000    0.000    0.000 
#
# Total GULP energy -178610.205295 kJ/mol
# GULP energy per Si atom -5581.568915 kJ/mol
# Density = 2.364613 g / cm^3
# Si number density = 23.700075 Si / 1000 Ang^3
#
#
#
# Elastic Constant Matrix: (Units=GPa)
#
#
# Indices 1 2 3 4 5 6 
#
# 1 162.8857 -2.6301 29.5252 0.0000 42.8308 0.0000
# 2 -2.6301 43.9290 -7.3674 0.0000 3.0715 0.0000
# 3 29.5252 -7.3674 36.1350 0.0000 22.2521 0.0000
# 4 0.0000 0.0000 0.0000 14.1108 0.0000 1.5009
# 5 42.8308 3.0715 22.2521 0.0000 35.5696 0.0000
# 6 0.0000 0.0000 0.0000 1.5009 0.0000 5.4088
#
#
#
# Elastic Compliance Matrix: (Units=1/GPa)
#
#
# Indices 1 2 3 4 5 6 
#
# 1 0.009066 0.001182 -0.000620 0.000000 -0.010631 0.000000
# 2 0.001182 0.025293 0.010431 0.000000 -0.010133 0.000000
# 3 -0.000620 0.010431 0.049454 0.000000 -0.031092 0.000000
# 4 0.000000 0.000000 0.000000 0.073023 0.000000 -0.020264
# 5 -0.010631 -0.010133 -0.031092 0.000000 0.061241 0.000000
# 6 0.000000 0.000000 0.000000 -0.020264 0.000000 0.190506
#
#
# Mechanical properties :
#
#
# Convention : Reuss Voigt Hill
#
# Bulk Modulus (GPa) = 9.45193 31.33391 20.39292
# Shear Modulus (GPa) = 11.85217 25.91264 18.88241
#
# Velocity S-wave (km/s) = 2.23870 3.31018 2.82569
# Velocity P-wave (km/s) = 3.26790 5.27821 4.38968
#
# Compressibility (1/GPa) = 0.10579850
#
# Stress axis : x y z
#
# Youngs Moduli (GPa) = 110.29958 39.53726 20.22076
#
# Poissons Ratio (x) = -0.04674 0.01254
# Poissons Ratio (y) = -0.13039 -0.21092
# Poissons Ratio (z) = 0.06840 -0.41240
#
# Static dielectric constant tensor:
#      x y z
#    x 1.867540 0.000000 0.033790 
#    y 0.000000 1.864690 0.000000 
#    z 0.033790 0.000000 1.968330 
# 
# From -- ./inp_files/359915.got.cif
#   From: 2010.05.17/outbox.cif.g08.bks.cpg/sg12_180_cif.got.tgz:359915.got - 2010.06.03 13:09:07.
