data_PCOD9192675
_publ_section_title
;
Structure prediction by ZEFSAII (Michael W. Deem and Ramdas Pophale) SiO2 
 PCOD9192675
Probable space group: C 2/M
;
_chemical_formula_sum "Si O2"
_cell_formula_units_Z 40
_cell_length_a 21.247119
_cell_length_b 8.040228
_cell_length_c 13.225192
_cell_angle_alpha 90.000000
_cell_angle_beta 76.999372
_cell_angle_gamma 90.000000
_cell_volume 2201.370966
_symmetry_space_group_name_H-M "C 2/M"
_symmetry_group_IT_number 12
_symmetry_cell_setting 'monoclinic'
loop_
_space_group_symop_operation_xyz
x,y,z
-x,y,-z
-x,-y,-z
x,-y,z
1/2+x,1/2+y,z
1/2-x,1/2+y,-z
1/2-x,1/2-y,-z
1/2+x,1/2-y,z
loop_
_atom_site_type_symbol
_atom_site_label
_atom_site_fract_x
_atom_site_fract_y
_atom_site_fract_z
Si Si1 0.599312 0.200618 0.271012
Si Si2 0.422854 0.192811 0.504258
Si Si3 0.322175 0.698204 0.947583
Si Si4 0.430230 0.299640 0.064101
Si Si5 0.046566 0.298679 0.721681
O O1 0.608174 0.265645 0.382659
O O2 0.653415 0.246355 0.171231
O O3 0.528669 0.257560 0.256434
O O4 0.595961 0.000000 0.278934
O O5 0.500000 0.191573 0.500000
O O6 0.418294 0.264758 0.393104
O O7 0.401793 0.000000 0.505191
O O8 0.325287 0.500000 0.949063
O O9 0.250000 0.750000 0.000000
O O10 0.373472 0.763828 0.012037
O O11 0.431114 0.500000 0.057034
O O12 0.423109 0.253408 0.183697
O O13 0.500000 0.237518 0.000000
O O14 0.045899 0.500000 0.716828
#
# Coordination Sequence:
#
# PCOD9192675 Si02
#       5
#     8   8   8   8   8
#     4   9  16  29  50  74 102 133 165 201 245 294
#     4   7  12  24  43  71 103 130 157 197 246 289
#     4  11  23  37  52  71 100 135 170 207 249 298
#     4  10  20  34  50  71 103 135 161 203 259 299
#     4   9  16  27  49  78 103 129 165 204 240 290
#
# _framework density 18.170494999999999
#
# number of rings (size 3 to 8) (size 9 to 14) (size 15 to 20)
#    0.000    2.800    2.000    3.000    0.000    2.000 
#    0.000    1.000    0.000    4.800    0.000    0.000 
#    0.000    0.000    0.000    0.000    0.000    0.000 
#
# Total GULP energy -111406.203082 kJ/mol
# GULP energy per Si atom -5570.310154 kJ/mol
# Density = 1.812914 g / cm^3
# Si number density = 18.170495 Si / 1000 Ang^3
#
#
#
# Elastic Constant Matrix: (Units=GPa)
#
#
# Indices 1 2 3 4 5 6 
#
# 1 84.2551 9.6953 72.9365 0.0000 -7.8665 0.0000
# 2 9.6953 14.9639 8.6696 0.0000 -1.7186 0.0000
# 3 72.9365 8.6696 208.8732 0.0000 -7.7673 0.0000
# 4 0.0000 0.0000 0.0000 50.1040 0.0000 2.8987
# 5 -7.8665 -1.7186 -7.7673 0.0000 20.8711 0.0000
# 6 0.0000 0.0000 0.0000 2.8987 0.0000 15.1362
#
#
#
# Elastic Compliance Matrix: (Units=1/GPa)
#
#
# Indices 1 2 3 4 5 6 
#
# 1 0.018267 -0.007955 -0.005898 0.000000 0.004035 0.000000
# 2 -0.007955 0.072385 -0.000118 0.000000 0.002918 0.000000
# 3 -0.005898 -0.000118 0.006864 0.000000 0.000322 0.000000
# 4 0.000000 0.000000 0.000000 0.020182 0.000000 -0.003865
# 5 0.004035 0.002918 0.000322 0.000000 0.049794 0.000000
# 6 0.000000 0.000000 0.000000 -0.003865 0.000000 0.066807
#
#
# Mechanical properties :
#
#
# Convention : Reuss Voigt Hill
#
# Bulk Modulus (GPa) = 14.37328 54.52166 34.44747
# Shear Modulus (GPa) = 17.51728 31.67498 24.59613
#
# Velocity S-wave (km/s) = 3.10828 4.17971 3.68316
# Velocity P-wave (km/s) = 4.56172 7.30507 6.08988
#
# Compressibility (1/GPa) = 0.06957356
#
# Stress axis : x y z
#
# Youngs Moduli (GPa) = 54.74426 13.81501 145.68512
#
# Poissons Ratio (x) = 0.10989 0.85931
# Poissons Ratio (y) = 0.43546 0.01723
# Poissons Ratio (z) = 0.32290 0.00163
#
# Static dielectric constant tensor:
#      x y z
#    x 1.615660 0.000000 -0.011060 
#    y 0.000000 1.654630 0.000000 
#    z -0.011060 0.000000 1.689140 
# 
# From -- ./inp_files/151870.got.cif
#   From: 2010.05.17/outbox.cif.g08.bks.cpg/sg12_76_cif.got.tgz:151870.got - 2010.06.03 13:09:07.
