data_PCOD9192181
_publ_section_title
;
Structure prediction by ZEFSAII (Michael W. Deem and Ramdas Pophale) SiO2 
 PCOD9192181
Probable space group: C 2/M
;
_chemical_formula_sum "Si O2"
_cell_formula_units_Z 48
_cell_length_a 22.993470
_cell_length_b 11.118335
_cell_length_c 10.055316
_cell_angle_alpha 90.000000
_cell_angle_beta 89.904196
_cell_angle_gamma 90.000000
_cell_volume 2570.628915
_symmetry_space_group_name_H-M "C 2/M"
_symmetry_group_IT_number 12
_symmetry_cell_setting 'monoclinic'
loop_
_space_group_symop_operation_xyz
x,y,z
-x,y,-z
-x,-y,-z
x,-y,z
1/2+x,1/2+y,z
1/2-x,1/2+y,-z
1/2-x,1/2-y,-z
1/2+x,1/2-y,z
loop_
_atom_site_type_symbol
_atom_site_label
_atom_site_fract_x
_atom_site_fract_y
_atom_site_fract_z
Si Si1 0.087248 0.138452 0.405584
Si Si2 0.296879 0.873949 0.377209
Si Si3 0.898615 0.636204 0.172041
Si Si4 0.542270 0.358989 0.705009
Si Si5 0.292399 0.135608 0.971036
Si Si6 0.806296 0.302448 0.672976
O O1 0.076087 0.157374 0.563651
O O2 0.137476 0.218952 0.344743
O O3 0.025456 0.155436 0.333099
O O4 0.104289 0.000000 0.390542
O O5 0.357855 0.865714 0.302997
O O6 0.254113 0.770332 0.332418
O O7 0.304957 0.873127 0.534668
O O8 0.268920 0.000000 0.336667
O O9 0.924881 0.500000 0.160032
O O10 0.938700 0.753494 0.193905
O O11 0.852004 0.651842 0.053670
O O12 0.551594 0.500000 0.746323
O O13 0.306811 0.135377 0.814728
O O14 0.269468 0.000000 0.005378
O O15 0.250000 0.250000 0.000000
#
# Coordination Sequence:
#
# PCOD9192181 Si02
#       6
#     8   8   8   8   8   8
#     4   9  18  33  58  85 115 145 186 238 284 327
#     4  10  20  33  53  82 114 142 182 234 280 332
#     4  10  20  38  56  80 114 149 185 229 282 335
#     4   9  18  36  58  86 113 146 190 234 279 332
#     4  11  24  40  57  81 117 155 188 228 278 340
#     4  11  20  35  56  83 112 147 188 230 281 332
#
# _framework density 18.672474000000001
#
# number of rings (size 3 to 8) (size 9 to 14) (size 15 to 20)
#    0.000    2.000    3.333    2.000    0.000    1.333 
#    0.000    4.167    0.000    4.000    0.000    0.000 
#    0.000    0.000    0.000    0.000    0.000    0.000 
#
# Total GULP energy -133650.693258 kJ/mol
# GULP energy per Si atom -5568.778886 kJ/mol
# Density = 1.862997 g / cm^3
# Si number density = 18.672474 Si / 1000 Ang^3
#
#
#
# Elastic Constant Matrix: (Units=GPa)
#
#
# Indices 1 2 3 4 5 6 
#
# 1 36.4348 44.0917 5.6951 0.0000 6.0084 0.0000
# 2 44.0917 140.2994 48.7254 0.0000 28.0010 0.0000
# 3 5.6951 48.7254 81.0833 0.0000 15.5362 0.0000
# 4 0.0000 0.0000 0.0000 18.2764 0.0000 33.5200
# 5 6.0084 28.0010 15.5362 0.0000 22.3970 0.0000
# 6 0.0000 0.0000 0.0000 33.5200 0.0000 49.8977
#
#
#
# Elastic Compliance Matrix: (Units=1/GPa)
#
#
# Indices 1 2 3 4 5 6 
#
# 1 0.047824 -0.018468 0.006658 0.000000 0.005640 0.000000
# 2 -0.018468 0.017875 -0.007049 0.000000 -0.012504 0.000000
# 3 0.006658 -0.007049 0.017017 0.000000 -0.004778 0.000000
# 4 0.000000 0.000000 0.000000 -0.235768 0.000000 0.158383
# 5 0.005640 -0.012504 -0.004778 0.000000 0.062082 0.000000
# 6 0.000000 0.000000 0.000000 0.158383 0.000000 -0.086357
#
#
# Mechanical properties :
#
#
# Convention : Reuss Voigt Hill
#
# Bulk Modulus (GPa) = 22.22275 50.53800 36.38037
# Shear Modulus (GPa) = -40.12487 28.73458 -5.69514
#
# Velocity S-wave (km/s) = -4.64063 3.92710 -1.74833
# Velocity P-wave (km/s) = 4.09716 6.90559 3.93067
#
# Compressibility (1/GPa) = 0.04499894
#
# Stress axis : x y z
#
# Youngs Moduli (GPa) = 20.90997 55.94457 58.76640
#
# Poissons Ratio (x) = 1.03316 -0.39126
# Poissons Ratio (y) = 0.38616 0.41422
# Poissons Ratio (z) = -0.13922 0.39433
#
# Static dielectric constant tensor:
#      x y z
#    x 1.610070 0.000000 -0.003770 
#    y 0.000000 1.685010 0.000000 
#    z -0.003770 0.000000 1.651700 
# 
# From -- ./inp_files/94517.got.cif
#   From: 2010.05.17/outbox.cif.g08.bks.cpg/sg12_48_cif.got.tgz:94517.got - 2010.06.03 13:09:07.
