data_PCOD9192202
_publ_section_title
;
Structure prediction by ZEFSAII (Michael W. Deem and Ramdas Pophale) SiO2 
 PCOD9192202
Probable space group: C 2/M
;
_chemical_formula_sum "Si O2"
_cell_formula_units_Z 64
_cell_length_a 19.761019
_cell_length_b 8.602263
_cell_length_c 34.946189
_cell_angle_alpha 90.000000
_cell_angle_beta 37.159031
_cell_angle_gamma 90.000000
_cell_volume 3588.227379
_symmetry_space_group_name_H-M "C 2/M"
_symmetry_group_IT_number 12
_symmetry_cell_setting 'monoclinic'
loop_
_space_group_symop_operation_xyz
x,y,z
-x,y,-z
-x,-y,-z
x,-y,z
1/2+x,1/2+y,z
1/2-x,1/2+y,-z
1/2-x,1/2-y,-z
1/2+x,1/2-y,z
loop_
_atom_site_type_symbol
_atom_site_label
_atom_site_fract_x
_atom_site_fract_y
_atom_site_fract_z
Si Si1 0.625208 0.687576 0.226657
Si Si2 0.510182 0.687058 0.149818
Si Si3 0.856651 0.313434 0.975735
Si Si4 0.275481 0.311037 0.894776
Si Si5 0.651370 0.814048 0.570671
Si Si6 0.123160 0.314406 0.670486
Si Si7 0.403340 0.313476 0.674661
Si Si8 0.715367 0.686207 0.705602
O O1 0.627509 0.500000 0.225831
O O2 0.710158 0.742801 0.155326
O O3 0.500373 0.739604 0.271049
O O4 0.641265 0.739676 0.263190
O O5 0.512339 0.500000 0.147092
O O6 0.537496 0.751501 0.095418
O O7 0.611715 0.734125 0.132661
O O8 0.392735 0.737504 0.220623
O O9 0.856811 0.500000 0.974253
O O10 0.750000 0.250000 0.000000
O O11 0.829910 0.263688 0.031428
O O12 0.274116 0.500000 0.894597
O O13 0.750000 0.750000 0.500000
O O14 0.668941 0.775176 0.607637
O O15 0.531038 0.742949 0.614047
O O16 0.645474 0.000000 0.570003
O O17 0.112058 0.500000 0.678087
O O18 0.198284 0.252444 0.670983
O O19 0.400367 0.500000 0.674870
O O20 0.325769 0.245131 0.676773
O O21 0.714277 0.500000 0.704468
#
# Coordination Sequence:
#
# PCOD9192202 Si02
#       8
#     8   8   8   8   8   8   8   8
#     4   9  16  31  52  73 101 138 175 213 265 319
#     4   9  17  29  45  66  95 133 173 214 262 314
#     4   9  16  25  39  63  96 129 166 215 264 314
#     4   8  13  25  44  67  94 126 169 214 258 310
#     4  10  21  39  62  86 113 143 173 209 251 302
#     4  10  20  33  53  83 111 134 172 219 257 300
#     4  10  21  35  55  82 110 139 175 217 260 312
#     4  11  21  35  54  75 107 145 178 217 266 317
#
# _framework density 17.836106000000001
#
# number of rings (size 3 to 8) (size 9 to 14) (size 15 to 20)
#    0.000    2.500    1.250    2.625    0.000    3.000 
#    0.000    1.250    0.000    4.500    0.000    5.250 
#    0.000    0.000    0.000    0.000    0.000    0.000 
#
# Total GULP energy -178368.229366 kJ/mol
# GULP energy per Si atom -5574.007168 kJ/mol
# Density = 1.779551 g / cm^3
# Si number density = 17.836106 Si / 1000 Ang^3
#
#
#
# Elastic Constant Matrix: (Units=GPa)
#
#
# Indices 1 2 3 4 5 6 
#
# 1 93.0398 15.0169 36.3528 -0.0086 10.7859 0.0006
# 2 15.0169 20.8267 21.6092 0.0163 2.6782 0.0050
# 3 36.3528 21.6092 115.6858 -0.0119 17.5759 0.0055
# 4 -0.0086 0.0163 -0.0119 27.3174 -0.0025 0.4056
# 5 10.7859 2.6782 17.5759 -0.0025 16.9096 -0.0003
# 6 0.0006 0.0050 0.0055 0.4056 -0.0003 20.2295
#
#
#
# Elastic Compliance Matrix: (Units=1/GPa)
#
#
# Indices 1 2 3 4 5 6 
#
# 1 0.013260 -0.006684 -0.002131 0.000007 -0.005185 0.000002
# 2 -0.006684 0.063018 -0.010453 -0.000044 0.005147 -0.000012
# 3 -0.002131 -0.010453 0.012835 0.000010 -0.010326 -0.000001
# 4 0.000007 -0.000044 0.000010 0.036618 -0.000003 -0.000734
# 5 -0.005185 0.005147 -0.010326 -0.000003 0.072363 0.000003
# 6 0.000002 -0.000012 -0.000001 -0.000734 0.000003 0.049447
#
#
# Mechanical properties :
#
#
# Convention : Reuss Voigt Hill
#
# Bulk Modulus (GPa) = 19.77114 41.72335 30.74725
# Shear Modulus (GPa) = 16.50509 23.32953 19.91731
#
# Velocity S-wave (km/s) = 3.04530 3.62054 3.34531
# Velocity P-wave (km/s) = 4.84501 6.39697 5.67430
#
# Compressibility (1/GPa) = 0.05057877
#
# Stress axis : x y z
#
# Youngs Moduli (GPa) = 75.41198 15.86838 77.91189
#
# Poissons Ratio (x) = 0.10606 0.16601
# Poissons Ratio (y) = 0.50404 0.81441
# Poissons Ratio (z) = 0.16068 0.16587
#
# Static dielectric constant tensor:
#      x y z
#    x 1.591030 0.000000 0.033600 
#    y 0.000000 1.603650 0.000000 
#    z 0.033600 0.000000 1.634730 
# 
# From -- ./inp_files/377965.got.cif
#   From: 2010.05.17/outbox.cif.g08.bks.cpg/sg12_189_cif.got.tgz:377965.got - 2010.06.03 13:09:07.
