data_PCOD9192743
_publ_section_title
;
Structure prediction by ZEFSAII (Michael W. Deem and Ramdas Pophale) SiO2 
 PCOD9192743
Probable space group: C 2/M
;
_chemical_formula_sum "Si O2"
_cell_formula_units_Z 64
_cell_length_a 29.133592
_cell_length_b 8.724982
_cell_length_c 21.741162
_cell_angle_alpha 90.000000
_cell_angle_beta 132.140365
_cell_angle_gamma 90.000000
_cell_volume 4097.834714
_symmetry_space_group_name_H-M "C 2/M"
_symmetry_group_IT_number 12
_symmetry_cell_setting 'monoclinic'
loop_
_space_group_symop_operation_xyz
x,y,z
-x,y,-z
-x,-y,-z
x,-y,z
1/2+x,1/2+y,z
1/2-x,1/2+y,-z
1/2-x,1/2-y,-z
1/2+x,1/2-y,z
loop_
_atom_site_type_symbol
_atom_site_label
_atom_site_fract_x
_atom_site_fract_y
_atom_site_fract_z
Si Si1 0.749309 0.316805 0.597822
Si Si2 0.945090 0.182823 0.498942
Si Si3 0.282229 0.815186 0.173804
Si Si4 0.186900 0.315992 0.659516
Si Si5 0.471818 0.184370 0.657634
Si Si6 0.848315 0.183205 0.597793
Si Si7 0.300750 0.183832 0.998247
Si Si8 0.607751 0.813999 0.819658
O O1 0.752874 0.500000 0.605523
O O2 0.732682 0.244785 0.648144
O O3 0.810878 0.251257 0.621594
O O4 0.693219 0.278792 0.499989
O O5 0.880794 0.249280 0.416038
O O6 0.961164 0.256561 0.578887
O O7 0.000000 0.213295 0.500000
O O8 0.938684 0.000000 0.501096
O O9 0.291983 0.770179 0.253075
O O10 0.341978 0.765436 0.186759
O O11 0.279504 0.000000 0.167896
O O12 0.220872 0.748909 0.086443
O O13 0.183881 0.500000 0.654334
O O14 0.415710 0.247247 0.648137
O O15 0.538912 0.238141 0.741981
O O16 0.470432 0.000000 0.656432
O O17 0.851352 0.000000 0.605154
O O18 0.365272 0.228695 0.088985
O O19 0.297142 0.000000 0.993913
O O20 0.250000 0.250000 0.000000
O O21 0.606942 0.000000 0.816895
#
# Coordination Sequence:
#
# PCOD9192743 Si02
#       8
#     8   8   8   8   8   8   8   8
#     4  10  20  34  52  71  96 125 160 204 246 290
#     4  11  23  35  45  64  98 134 168 203 236 278
#     4   9  18  32  48  70  99 129 165 202 238 284
#     4  11  21  33  51  72  97 130 165 201 243 291
#     4  11  20  32  51  71  95 129 166 199 241 290
#     4  10  20  34  51  71  97 124 159 205 247 288
#     4   9  16  29  48  69  95 126 162 203 244 282
#     4   8  16  30  47  69  97 128 163 200 234 282
#
# _framework density 15.618005
#
# number of rings (size 3 to 8) (size 9 to 14) (size 15 to 20)
#    0.000    2.125    1.250    3.750    0.000    4.000 
#    0.000    7.500    0.000    0.000    0.000    0.875 
#    0.000    7.000    0.000    0.000    0.000    0.000 
#
# Total GULP energy -178488.576952 kJ/mol
# GULP energy per Si atom -5577.768030 kJ/mol
# Density = 1.558246 g / cm^3
# Si number density = 15.618005 Si / 1000 Ang^3
#
#
#
# Elastic Constant Matrix: (Units=GPa)
#
#
# Indices 1 2 3 4 5 6 
#
# 1 107.7304 39.9584 75.6192 0.0000 -3.5300 0.0000
# 2 39.9584 37.4651 38.6857 0.0000 -0.9783 0.0000
# 3 75.6192 38.6857 151.0171 0.0000 -5.3785 0.0000
# 4 0.0000 0.0000 0.0000 23.1893 0.0000 -1.4177
# 5 -3.5300 -0.9783 -5.3785 0.0000 6.7559 0.0000
# 6 0.0000 0.0000 0.0000 -1.4177 0.0000 25.9714
#
#
#
# Elastic Compliance Matrix: (Units=1/GPa)
#
#
# Indices 1 2 3 4 5 6 
#
# 1 0.018420 -0.013809 -0.005573 0.000000 0.003189 0.000000
# 2 -0.013809 0.046675 -0.005206 0.000000 -0.004601 0.000000
# 3 -0.005573 -0.005206 0.010925 0.000000 0.005032 0.000000
# 4 0.000000 0.000000 0.000000 0.043268 0.000000 0.002362
# 5 0.003189 -0.004601 0.005032 0.000000 0.153025 0.000000
# 6 0.000000 0.000000 0.000000 0.002362 0.000000 0.038633
#
#
# Mechanical properties :
#
#
# Convention : Reuss Voigt Hill
#
# Bulk Modulus (GPa) = 37.25059 67.19325 52.22192
# Shear Modulus (GPa) = 13.54761 20.64661 17.09711
#
# Velocity S-wave (km/s) = 2.94842 3.63984 3.31222
# Velocity P-wave (km/s) = 5.95766 7.79621 6.93811
#
# Compressibility (1/GPa) = 0.02684521
#
# Stress axis : x y z
#
# Youngs Moduli (GPa) = 54.28752 21.42497 91.53284
#
# Poissons Ratio (x) = 0.29585 0.51010
# Poissons Ratio (y) = 0.74964 0.47651
# Poissons Ratio (z) = 0.30253 0.11154
#
# Static dielectric constant tensor:
#      x y z
#    x 1.503190 0.000000 -0.001020 
#    y 0.000000 1.526290 0.000000 
#    z -0.001020 0.000000 1.529760 
# 
# From -- ./inp_files/326990.got.cif
#   From: 2010.05.17/outbox.cif.g08.bks.cpg/sg12_164_cif.got.tgz:326990.got - 2010.06.03 13:09:07.
