data_PCOD9192198
_publ_section_title
;
Structure prediction by ZEFSAII (Michael W. Deem and Ramdas Pophale) SiO2 
 PCOD9192198
Probable space group: C 2/M
;
_chemical_formula_sum "Si O2"
_cell_formula_units_Z 58
_cell_length_a 23.871487
_cell_length_b 10.184474
_cell_length_c 12.612830
_cell_angle_alpha 90.000000
_cell_angle_beta 92.432405
_cell_angle_gamma 90.000000
_cell_volume 3063.649919
_symmetry_space_group_name_H-M "C 2/M"
_symmetry_group_IT_number 12
_symmetry_cell_setting 'monoclinic'
loop_
_space_group_symop_operation_xyz
x,y,z
-x,y,-z
-x,-y,-z
x,-y,z
1/2+x,1/2+y,z
1/2-x,1/2+y,-z
1/2-x,1/2-y,-z
1/2+x,1/2-y,z
loop_
_atom_site_type_symbol
_atom_site_label
_atom_site_fract_x
_atom_site_fract_y
_atom_site_fract_z
Si Si1 0.626956 0.342818 0.114520
Si Si2 0.707469 0.345923 0.312244
Si Si3 0.383830 0.348833 0.120444
Si Si4 0.502361 0.248486 0.158262
Si Si5 0.020895 0.653659 0.388878
Si Si6 0.648386 0.848779 0.459509
Si Si7 0.000000 0.500000 0.000000
Si Si8 0.159348 0.348612 0.705549
O O1 0.628763 0.500000 0.110765
O O2 0.671469 0.301355 0.206973
O O3 0.564536 0.300987 0.141116
O O4 0.638633 0.298200 0.995193
O O5 0.694434 0.500000 0.332834
O O6 0.689659 0.254063 0.408182
O O7 0.773212 0.337714 0.293540
O O8 0.366684 0.500000 0.136392
O O9 0.451384 0.340960 0.119517
O O10 0.364478 0.252977 0.211981
O O11 0.497961 0.223780 0.283592
O O12 0.496298 0.114915 0.091779
O O13 0.004297 0.500000 0.382473
O O14 0.088357 0.659908 0.397057
O O15 0.000000 0.706806 0.500000
O O16 0.639442 0.823395 0.583575
O O17 0.668929 0.000000 0.452586
O O18 0.144622 0.500000 0.731677
#
# Coordination Sequence:
#
# PCOD9192198 Si02
#       8
#     8   8   8   8   8   8   2   8
#     4  10  21  39  61  83 117 155 194 240 296 351
#     4  10  21  39  62  88 115 154 197 244 294 347
#     4  11  24  39  59  84 118 159 197 238 294 355
#     4  12  21  37  58  86 122 150 200 239 293 344
#     4  10  20  33  53  82 118 155 188 231 289 346
#     4  10  20  37  59  87 116 154 195 240 295 350
#     4  12  24  32  60  96 116 160 202 250 280 358
#     4  10  23  40  61  86 118 153 196 246 297 347
#
# _framework density 18.931666
#
# number of rings (size 3 to 8) (size 9 to 14) (size 15 to 20)
#    0.000    1.517    3.448    1.655    0.966    3.862 
#    0.000    0.000    0.000    2.069    0.000    0.000 
#    0.000    0.000    0.000    0.000    0.000    0.000 
#
# Total GULP energy -161669.692573 kJ/mol
# GULP energy per Si atom -5574.816985 kJ/mol
# Density = 1.888858 g / cm^3
# Si number density = 18.931666 Si / 1000 Ang^3
#
#
#
# Elastic Constant Matrix: (Units=GPa)
#
#
# Indices 1 2 3 4 5 6 
#
# 1 29.5645 10.6083 6.4532 0.0000 -1.5576 0.0000
# 2 10.6083 48.6117 45.0225 0.0000 -6.3831 0.0000
# 3 6.4532 45.0225 129.3497 0.0000 -0.2501 0.0000
# 4 0.0000 0.0000 0.0000 440.7160 0.0000 -544.3225
# 5 -1.5576 -6.3831 -0.2501 0.0000 18.0939 0.0000
# 6 0.0000 0.0000 0.0000 -544.3225 0.0000 730.1710
#
#
#
# Elastic Compliance Matrix: (Units=1/GPa)
#
#
# Indices 1 2 3 4 5 6 
#
# 1 0.036874 -0.009383 0.001426 0.000000 -0.000116 0.000000
# 2 -0.009383 0.034908 -0.011660 0.000000 0.011346 0.000000
# 3 0.001426 -0.011660 0.011711 0.000000 -0.003829 0.000000
# 4 0.000000 0.000000 0.000000 0.028622 0.000000 0.021337
# 5 -0.000116 0.011346 -0.003829 0.000000 0.059207 0.000000
# 6 0.000000 0.000000 0.000000 0.021337 0.000000 0.017275
#
#
# Mechanical properties :
#
#
# Convention : Reuss Voigt Hill
#
# Bulk Modulus (GPa) = 22.59448 36.85487 29.72468
# Shear Modulus (GPa) = 20.61145 247.49232 134.05188
#
# Velocity S-wave (km/s) = 3.30317 11.44609 8.42389
# Velocity P-wave (km/s) = 5.14865 13.93534 10.50481
#
# Compressibility (1/GPa) = 0.04425859
#
# Stress axis : x y z
#
# Youngs Moduli (GPa) = 27.11961 28.64680 85.38973
#
# Poissons Ratio (x) = 0.26878 -0.12176
# Poissons Ratio (y) = 0.25446 0.99567
# Poissons Ratio (z) = -0.03867 0.33403
#
# Static dielectric constant tensor:
#      x y z
#    x 1.661070 0.000000 0.014670 
#    y 0.000000 1.629210 0.000000 
#    z 0.014670 0.000000 1.669860 
# 
# From -- ./inp_files/180927.got.cif
#   From: 2010.05.17/outbox.cif.g08.bks.cpg/sg12_91_cif.got.tgz:180927.got - 2010.06.03 13:09:07.
