data_PCOD9192286
_publ_section_title
;
Structure prediction by ZEFSAII (Michael W. Deem and Ramdas Pophale) SiO2 
 PCOD9192286
Probable space group: C 2/M
;
_chemical_formula_sum "Si O2"
_cell_formula_units_Z 56
_cell_length_a 24.695560
_cell_length_b 7.475498
_cell_length_c 14.331618
_cell_angle_alpha 90.000000
_cell_angle_beta 73.851600
_cell_angle_gamma 90.000000
_cell_volume 2541.392510
_symmetry_space_group_name_H-M "C 2/M"
_symmetry_group_IT_number 12
_symmetry_cell_setting 'monoclinic'
loop_
_space_group_symop_operation_xyz
x,y,z
-x,y,-z
-x,-y,-z
x,-y,z
1/2+x,1/2+y,z
1/2-x,1/2+y,-z
1/2-x,1/2-y,-z
1/2+x,1/2-y,z
loop_
_atom_site_type_symbol
_atom_site_label
_atom_site_fract_x
_atom_site_fract_y
_atom_site_fract_z
Si Si1 0.780899 0.794290 0.837221
Si Si2 0.683457 0.214666 0.530713
Si Si3 0.364784 0.205830 0.639864
Si Si4 0.669160 0.217423 0.989295
Si Si5 0.986606 0.716916 0.613614
Si Si6 0.084467 0.281030 0.707877
Si Si7 0.559740 0.218546 0.930765
O O1 0.813875 0.707803 0.736805
O O2 0.720390 0.721263 0.898144
O O3 0.772653 0.000000 0.814302
O O4 0.818361 0.782529 0.912778
O O5 0.750000 0.250000 0.500000
O O6 0.655300 0.285694 0.448549
O O7 0.644641 0.275754 0.635719
O O8 0.678766 0.000000 0.531813
O O9 0.422098 0.279237 0.658393
O O10 0.379131 0.000000 0.611191
O O11 0.610131 0.272580 0.974873
O O12 0.671570 0.000000 0.991588
O O13 0.988910 0.500000 0.620484
O O14 0.000000 0.762949 0.500000
O O15 0.034207 0.779133 0.662780
O O16 0.084396 0.500000 0.709099
O O17 0.072512 0.223265 0.819115
O O18 0.559218 0.000000 0.929869
O O19 0.500000 0.277442 0.000000
#
# Coordination Sequence:
#
# PCOD9192286 Si02
#       7
#     8   8   8   8   8   8   8
#     4  10  21  35  54  79 107 141 174 213 268 323
#     4  10  21  35  53  79 112 146 180 216 260 318
#     4  10  20  33  54  83 107 134 177 223 266 315
#     4   9  19  36  55  77 104 136 178 224 266 312
#     4   9  15  28  50  77 104 131 171 223 269 302
#     4   9  17  30  50  77 108 139 173 220 270 312
#     4   9  18  30  49  80 108 132 172 224 273 312
#
# _framework density 22.035164000000002
#
# number of rings (size 3 to 8) (size 9 to 14) (size 15 to 20)
#    0.000    2.571    1.429    0.429    4.000    1.143 
#    0.000    0.000    0.000    1.714    0.000    0.000 
#    0.000    0.000    0.000    0.000    0.000    0.000 
#
# Total GULP energy -156332.206484 kJ/mol
# GULP energy per Si atom -5583.293089 kJ/mol
# Density = 2.198501 g / cm^3
# Si number density = 22.035164 Si / 1000 Ang^3
#
#
#
# Elastic Constant Matrix: (Units=GPa)
#
#
# Indices 1 2 3 4 5 6 
#
# 1 154.5141 -2.2087 61.8865 0.0000 -16.8662 0.0000
# 2 -2.2087 59.0794 -5.3477 0.0000 -3.1417 0.0000
# 3 61.8865 -5.3477 119.8176 0.0000 -32.0882 0.0000
# 4 0.0000 0.0000 0.0000 -4.8446 0.0000 8.0854
# 5 -16.8662 -3.1417 -32.0882 0.0000 18.8354 0.0000
# 6 0.0000 0.0000 0.0000 8.0854 0.0000 -12.5146
#
#
#
# Elastic Compliance Matrix: (Units=1/GPa)
#
#
# Indices 1 2 3 4 5 6 
#
# 1 0.008161 -0.000061 -0.004163 0.000000 0.000206 0.000000
# 2 -0.000061 0.017607 0.002922 0.000000 0.007861 0.000000
# 3 -0.004163 0.002922 0.017947 0.000000 0.027335 0.000000
# 4 0.000000 0.000000 0.000000 2.637350 0.000000 1.703924
# 5 0.000206 0.007861 0.027335 0.000000 0.101155 0.000000
# 6 0.000000 0.000000 0.000000 1.703924 0.000000 1.020955
#
#
# Mechanical properties :
#
#
# Convention : Reuss Voigt Hill
#
# Bulk Modulus (GPa) = 24.32348 49.11902 36.72125
# Shear Modulus (GPa) = 1.30908 18.90065 10.10486
#
# Velocity S-wave (km/s) = 0.77161 2.93191 2.14377
# Velocity P-wave (km/s) = 3.44330 5.81387 4.77794
#
# Compressibility (1/GPa) = 0.04111253
#
# Stress axis : x y z
#
# Youngs Moduli (GPa) = 122.53784 56.79663 55.71990
#
# Poissons Ratio (x) = 0.00345 0.23194
# Poissons Ratio (y) = 0.00744 -0.16284
# Poissons Ratio (z) = 0.51008 -0.16599
#
# Static dielectric constant tensor:
#      x y z
#    x 1.796630 0.000000 -0.012950 
#    y 0.000000 1.884540 0.000000 
#    z -0.012950 0.000000 1.758490 
# 
# From -- ./inp_files/237334.got.cif
#   From: 2010.05.17/outbox.cif.g08.bks.cpg/sg12_119_cif.got.tgz:237334.got - 2010.06.03 13:09:07.
