data_PCOD9192065
_publ_section_title
;
Structure prediction by ZEFSAII (Michael W. Deem and Ramdas Pophale) SiO2 
 PCOD9192065
Probable space group: C 2/M
;
_chemical_formula_sum "Si O2"
_cell_formula_units_Z 64
_cell_length_a 27.205997
_cell_length_b 11.037553
_cell_length_c 9.516452
_cell_angle_alpha 90.000000
_cell_angle_beta 95.316603
_cell_angle_gamma 90.000000
_cell_volume 2845.378829
_symmetry_space_group_name_H-M "C 2/M"
_symmetry_group_IT_number 12
_symmetry_cell_setting 'monoclinic'
loop_
_space_group_symop_operation_xyz
x,y,z
-x,y,-z
-x,-y,-z
x,-y,z
1/2+x,1/2+y,z
1/2-x,1/2+y,-z
1/2-x,1/2-y,-z
1/2+x,1/2-y,z
loop_
_atom_site_type_symbol
_atom_site_label
_atom_site_fract_x
_atom_site_fract_y
_atom_site_fract_z
Si Si1 0.400093 0.361937 0.393566
Si Si2 0.180128 0.135305 0.855105
Si Si3 0.725392 0.866585 0.318343
Si Si4 0.835952 0.627764 0.978025
Si Si5 0.067943 0.859851 0.178106
Si Si6 0.991730 0.284844 0.351650
Si Si7 0.051208 0.675756 0.947144
Si Si8 0.334244 0.356710 0.628264
O O1 0.401554 0.500000 0.437996
O O2 0.371924 0.352713 0.238822
O O3 0.455175 0.318344 0.397677
O O4 0.366115 0.306168 0.504949
O O5 0.222040 0.138464 0.746337
O O6 0.184321 0.251150 0.954804
O O7 0.182774 0.000000 0.921687
O O8 0.711327 0.735607 0.377164
O O9 0.723068 0.000000 0.392045
O O10 0.684764 0.874239 0.183768
O O11 0.818795 0.500000 0.041436
O O12 0.895302 0.627168 0.997548
O O13 0.125927 0.851606 0.233261
O O14 0.037551 0.773672 0.278471
O O15 0.053349 0.000000 0.190474
O O16 0.056083 0.810435 0.018909
O O17 0.958541 0.342522 0.219924
O O18 0.000000 0.355941 0.500000
O O19 0.000000 0.628992 0.000000
O O20 0.320775 0.500000 0.609251
#
# Coordination Sequence:
#
# PCOD9192065 Si02
#       8
#     8   8   8   8   8   8   8   8
#     4  10  20  34  56  86 120 157 196 242 299 359
#     4  10  22  40  61  88 119 154 195 248 304 354
#     4  10  22  40  61  85 118 157 199 243 299 361
#     4  11  22  39  62  89 118 155 200 245 293 358
#     4  10  20  33  52  85 121 154 198 248 295 352
#     4  11  20  33  56  84 121 159 197 241 302 357
#     4  10  22  37  56  85 117 161 199 242 292 359
#     4  10  20  35  59  88 119 152 198 248 296 352
#
# _framework density 22.492609999999999
#
# number of rings (size 3 to 8) (size 9 to 14) (size 15 to 20)
#    0.000    1.750    3.750    0.750    0.000    5.500 
#    0.000    0.625    0.000    0.375    0.000    0.000 
#    0.000    0.000    0.000    0.000    0.000    0.000 
#
# Total GULP energy -178292.121300 kJ/mol
# GULP energy per Si atom -5571.628791 kJ/mol
# Density = 2.244142 g / cm^3
# Si number density = 22.492610 Si / 1000 Ang^3
#
#
#
# Elastic Constant Matrix: (Units=GPa)
#
#
# Indices 1 2 3 4 5 6 
#
# 1 96.4084 22.7611 14.4364 0.0000 15.9901 0.0000
# 2 22.7611 124.6031 4.1938 0.0000 -7.1366 0.0000
# 3 14.4364 4.1938 79.1324 0.0000 13.2192 0.0000
# 4 0.0000 0.0000 0.0000 11.9085 0.0000 116.2575
# 5 15.9901 -7.1366 13.2192 0.0000 34.8718 0.0000
# 6 0.0000 0.0000 0.0000 116.2575 0.0000 866.2074
#
#
#
# Elastic Compliance Matrix: (Units=1/GPa)
#
#
# Indices 1 2 3 4 5 6 
#
# 1 0.012059 -0.002486 -0.001131 0.000000 -0.005610 0.000000
# 2 -0.002486 0.008676 -0.000527 0.000000 0.003115 0.000000
# 3 -0.001131 -0.000527 0.013668 0.000000 -0.004770 0.000000
# 4 0.000000 0.000000 0.000000 -0.270644 0.000000 0.036324
# 5 -0.005610 0.003115 -0.004770 0.000000 0.033695 0.000000
# 6 0.000000 0.000000 0.000000 0.036324 0.000000 -0.003721
#
#
# Mechanical properties :
#
#
# Convention : Reuss Voigt Hill
#
# Bulk Modulus (GPa) = 38.29139 42.54738 40.41939
# Shear Modulus (GPa) = -26.41672 199.84774 86.71551
#
# Velocity S-wave (km/s) = -3.43076 9.43627 6.21583
# Velocity P-wave (km/s) = 1.16938 11.73378 8.33814
#
# Compressibility (1/GPa) = 0.02611553
#
# Stress axis : x y z
#
# Youngs Moduli (GPa) = 82.92382 115.26387 73.16236
#
# Poissons Ratio (x) = 0.28655 0.08276
# Poissons Ratio (y) = 0.20615 0.03853
# Poissons Ratio (z) = 0.09380 0.06070
#
# Static dielectric constant tensor:
#      x y z
#    x 1.850800 0.000000 0.001110 
#    y 0.000000 1.901380 0.000000 
#    z 0.001110 0.000000 1.928100 
# 
# From -- ./inp_files/110445.got.cif
#   From: 2010.05.17/outbox.cif.g08.bks.cpg/sg12_56_cif.got.tgz:110445.got - 2010.06.03 13:09:07.
