data_PCOD9192430
_publ_section_title
;
Structure prediction by ZEFSAII (Michael W. Deem and Ramdas Pophale) SiO2 
 PCOD9192430
Probable space group: C 2/M
;
_chemical_formula_sum "Si O2"
_cell_formula_units_Z 48
_cell_length_a 25.112860
_cell_length_b 9.251472
_cell_length_c 19.040507
_cell_angle_alpha 90.000000
_cell_angle_beta 32.414116
_cell_angle_gamma 90.000000
_cell_volume 2371.256341
_symmetry_space_group_name_H-M "C 2/M"
_symmetry_group_IT_number 12
_symmetry_cell_setting 'monoclinic'
loop_
_space_group_symop_operation_xyz
x,y,z
-x,y,-z
-x,-y,-z
x,-y,z
1/2+x,1/2+y,z
1/2-x,1/2+y,-z
1/2-x,1/2-y,-z
1/2+x,1/2-y,z
loop_
_atom_site_type_symbol
_atom_site_label
_atom_site_fract_x
_atom_site_fract_y
_atom_site_fract_z
Si Si1 0.122290 0.830225 0.304585
Si Si2 0.819661 0.826827 0.479503
Si Si3 0.544431 0.671788 0.248186
Si Si4 0.158576 0.332233 0.006660
Si Si5 0.585997 0.666574 0.957811
Si Si6 0.804235 0.332258 0.645030
O O1 0.046569 0.783810 0.327760
O O2 0.129057 0.738332 0.367707
O O3 0.107645 0.000000 0.338270
O O4 0.228994 0.816656 0.146359
O O5 0.750000 0.750000 0.500000
O O6 0.803320 0.759240 0.574747
O O7 0.936738 0.800640 0.334852
O O8 0.803426 0.000000 0.498161
O O9 0.562251 0.500000 0.228181
O O10 0.629501 0.747517 0.108782
O O11 0.860787 0.500000 0.960605
O O12 0.091908 0.267468 0.018527
O O13 0.568371 0.500000 0.999728
O O14 0.692011 0.671157 0.800865
O O15 0.500000 0.708702 0.000000
O O16 0.830697 0.500000 0.602697
#
# Coordination Sequence:
#
# PCOD9192430 Si02
#       6
#     8   8   8   8   8   8
#     4   9  19  38  61  87 118 152 190 233 286 344
#     4  11  25  43  61  82 113 154 197 241 285 338
#     4  10  22  39  60  83 114 159 198 229 281 350
#     4  10  20  33  55  89 121 146 183 239 290 332
#     4   9  19  35  56  80 110 152 193 229 279 345
#     4  10  21  38  60  86 116 150 190 239 288 336
#
# _framework density 20.242432999999998
#
# number of rings (size 3 to 8) (size 9 to 14) (size 15 to 20)
#    0.000    2.167    0.000    2.000    2.333    4.333 
#    0.000    3.333    0.000    0.000    0.000    0.000 
#    0.000    0.000    0.000    0.000    0.000    0.000 
#
# Total GULP energy -134087.202830 kJ/mol
# GULP energy per Si atom -5586.966785 kJ/mol
# Density = 2.019636 g / cm^3
# Si number density = 20.242433 Si / 1000 Ang^3
#
#
#
# Elastic Constant Matrix: (Units=GPa)
#
#
# Indices 1 2 3 4 5 6 
#
# 1 138.4865 60.7257 41.1646 -0.0008 -2.9745 0.0004
# 2 60.7257 72.1983 39.4972 0.0002 6.6569 -0.0001
# 3 41.1646 39.4972 59.8588 -0.0006 12.4474 0.0004
# 4 -0.0008 0.0002 -0.0006 17.8614 0.0002 10.3718
# 5 -2.9745 6.6569 12.4474 0.0002 30.5266 -0.0001
# 6 0.0004 -0.0001 0.0004 10.3718 -0.0001 36.6377
#
#
#
# Elastic Compliance Matrix: (Units=1/GPa)
#
#
# Indices 1 2 3 4 5 6 
#
# 1 0.012213 -0.008731 -0.003585 0.000001 0.004556 0.000000
# 2 -0.008731 0.027957 -0.012017 -0.000001 -0.002047 0.000001
# 3 -0.003585 -0.012017 0.029096 0.000001 -0.009593 -0.000001
# 4 0.000001 -0.000001 0.000001 0.067001 -0.000001 -0.018967
# 5 0.004556 -0.002047 -0.009593 -0.000001 0.037560 0.000000
# 6 0.000000 0.000001 -0.000001 -0.018967 0.000000 0.032664
#
#
# Mechanical properties :
#
#
# Convention : Reuss Voigt Hill
#
# Bulk Modulus (GPa) = 48.54588 61.47984 55.01286
# Shear Modulus (GPa) = 19.08224 25.61557 22.34891
#
# Velocity S-wave (km/s) = 3.07365 3.56116 3.32635
# Velocity P-wave (km/s) = 6.05233 6.88091 6.47988
#
# Compressibility (1/GPa) = 0.02059907
#
# Stress axis : x y z
#
# Youngs Moduli (GPa) = 81.88043 35.76863 34.36934
#
# Poissons Ratio (x) = 0.31230 0.12322
# Poissons Ratio (y) = 0.71490 0.41303
# Poissons Ratio (z) = 0.29354 0.42985
#
# Static dielectric constant tensor:
#      x y z
#    x 1.705500 0.000000 -0.020140 
#    y 0.000000 1.678950 0.000000 
#    z -0.020140 0.000000 1.736210 
# 
# From -- ./inp_files/327152.got.cif
#   From: 2010.05.17/outbox.cif.g08.bks.cpg/sg12_164_cif.got.tgz:327152.got - 2010.06.03 13:09:07.
