data_PCOD9192034
_publ_section_title
;
Structure prediction by ZEFSAII (Michael W. Deem and Ramdas Pophale) SiO2 
 PCOD9192034
Probable space group: C 2/M
;
_chemical_formula_sum "Si O2"
_cell_formula_units_Z 58
_cell_length_a 15.191651
_cell_length_b 7.474597
_cell_length_c 20.259825
_cell_angle_alpha 90.000000
_cell_angle_beta 101.880570
_cell_angle_gamma 90.000000
_cell_volume 2251.252845
_symmetry_space_group_name_H-M "C 2/M"
_symmetry_group_IT_number 12
_symmetry_cell_setting 'monoclinic'
loop_
_space_group_symop_operation_xyz
x,y,z
-x,y,-z
-x,-y,-z
x,-y,z
1/2+x,1/2+y,z
1/2-x,1/2+y,-z
1/2-x,1/2-y,-z
1/2+x,1/2-y,z
loop_
_atom_site_type_symbol
_atom_site_label
_atom_site_fract_x
_atom_site_fract_y
_atom_site_fract_z
Si Si1 0.975338 0.216192 0.326936
Si Si2 0.820354 0.797970 0.623249
Si Si3 0.210868 0.286279 0.092440
Si Si4 0.504496 0.718470 0.813966
Si Si5 0.113941 0.214684 0.955771
Si Si6 0.000000 0.500000 0.500000
Si Si7 0.371972 0.295229 0.442549
Si Si8 0.700068 0.202250 0.234612
O O1 0.078187 0.278911 0.356414
O O2 0.946278 0.265481 0.247718
O O3 0.910437 0.268922 0.376445
O O4 0.978625 0.000000 0.327562
O O5 0.735955 0.711523 0.573773
O O6 0.787600 0.799595 0.694736
O O7 0.828816 0.000000 0.599410
O O8 0.218988 0.500000 0.100430
O O9 0.293275 0.216317 0.061950
O O10 0.224974 0.215031 0.168114
O O11 0.121265 0.255990 0.034741
O O12 0.497291 0.500000 0.813877
O O13 0.543420 0.776493 0.890210
O O14 0.407251 0.801986 0.790958
O O15 0.111702 0.000000 0.952879
O O16 0.077685 0.657649 0.502808
O O17 0.399638 0.500000 0.456778
O O18 0.737283 0.000000 0.247663
#
# Coordination Sequence:
#
# PCOD9192034 Si02
#       8
#     8   8   8   8   8   2   8   8
#     4   8  18  37  65  92 127 167 209 257 319 376
#     4  10  20  40  65  96 131 165 209 265 315 370
#     4   9  19  33  48  68 103 145 191 246 302 363
#     4   9  18  34  54  79 109 147 193 250 302 365
#     4   9  18  32  50  69  98 143 194 244 302 365
#     4  12  26  48  68 106 140 166 222 260 296 378
#     4  11  23  44  73  98 134 178 210 259 314 366
#     4  10  20  33  52  81 111 149 195 247 304 371
#
# _framework density 25.763432999999999
#
# number of rings (size 3 to 8) (size 9 to 14) (size 15 to 20)
#    0.000    2.483    0.690    1.862    1.931    2.207 
#    6.207    3.448    0.000    0.000    0.000    0.000 
#    0.000    0.000    0.000    0.000    0.000    0.000 
#
# Total GULP energy -161666.955390 kJ/mol
# GULP energy per Si atom -5574.722600 kJ/mol
# Density = 2.570479 g / cm^3
# Si number density = 25.763433 Si / 1000 Ang^3
#
#
#
# Elastic Constant Matrix: (Units=GPa)
#
#
# Indices 1 2 3 4 5 6 
#
# 1 72.1809 0.0865 62.2505 0.0000 11.3598 0.0000
# 2 0.0865 105.6165 3.3088 0.0000 13.4522 0.0000
# 3 62.2505 3.3088 117.0896 0.0000 -2.7956 0.0000
# 4 0.0000 0.0000 0.0000 0.6934 0.0000 13.3738
# 5 11.3598 13.4522 -2.7956 0.0000 52.3146 0.0000
# 6 0.0000 0.0000 0.0000 13.3738 0.0000 10.1392
#
#
#
# Elastic Compliance Matrix: (Units=1/GPa)
#
#
# Indices 1 2 3 4 5 6 
#
# 1 0.028025 0.001373 -0.015111 0.000000 -0.007246 0.000000
# 2 0.001373 0.009869 -0.001078 0.000000 -0.002894 0.000000
# 3 -0.015111 -0.001078 0.016711 0.000000 0.004452 0.000000
# 4 0.000000 0.000000 0.000000 -0.059008 0.000000 0.077833
# 5 -0.007246 -0.002894 0.004452 0.000000 0.021671 0.000000
# 6 0.000000 0.000000 0.000000 0.077833 0.000000 -0.004036
#
#
# Mechanical properties :
#
#
# Convention : Reuss Voigt Hill
#
# Bulk Modulus (GPa) = 40.04233 47.35316 43.69774
# Shear Modulus (GPa) = 97.67556 27.91219 62.79387
#
# Velocity S-wave (km/s) = 6.16399 3.29508 4.94228
# Velocity P-wave (km/s) = 8.13854 5.73556 7.04033
#
# Compressibility (1/GPa) = 0.02497357
#
# Stress axis : x y z
#
# Youngs Moduli (GPa) = 35.68209 101.32295 59.84026
#
# Poissons Ratio (x) = -0.13916 0.90427
# Poissons Ratio (y) = -0.04901 0.06452
# Poissons Ratio (z) = 0.53921 0.10924
#
# Static dielectric constant tensor:
#      x y z
#    x 2.061210 0.000000 -0.051640 
#    y 0.000000 1.986970 0.000000 
#    z -0.051640 0.000000 2.164740 
# 
# From -- ./inp_files/314321.got.cif
#   From: 2010.05.17/outbox.cif.g08.bks.cpg/sg12_158_cif.got.tgz:314321.got - 2010.06.03 13:09:07.
