data_PCOD9192302
_publ_section_title
;
Structure prediction by ZEFSAII (Michael W. Deem and Ramdas Pophale) SiO2 
 PCOD9192302
Probable space group: C 2/M
;
_chemical_formula_sum "Si O2"
_cell_formula_units_Z 56
_cell_length_a 33.874385
_cell_length_b 14.985749
_cell_length_c 10.979321
_cell_angle_alpha 90.000000
_cell_angle_beta 26.635433
_cell_angle_gamma 90.000000
_cell_volume 2498.651507
_symmetry_space_group_name_H-M "C 2/M"
_symmetry_group_IT_number 12
_symmetry_cell_setting 'monoclinic'
loop_
_space_group_symop_operation_xyz
x,y,z
-x,y,-z
-x,-y,-z
x,-y,z
1/2+x,1/2+y,z
1/2-x,1/2+y,-z
1/2-x,1/2-y,-z
1/2+x,1/2-y,z
loop_
_atom_site_type_symbol
_atom_site_label
_atom_site_fract_x
_atom_site_fract_y
_atom_site_fract_z
Si Si1 0.905477 0.143101 0.228169
Si Si2 0.113097 0.108196 0.455061
Si Si3 0.711714 0.891269 0.154815
Si Si4 0.416212 0.600471 0.941425
Si Si5 0.562981 0.846405 0.936867
Si Si6 0.737975 0.894156 0.347011
Si Si7 0.469779 0.891377 0.449001
O O1 0.859637 0.138536 0.484134
O O2 0.923312 0.243034 0.134564
O O3 0.874121 0.095557 0.193420
O O4 0.000000 0.101154 0.000000
O O5 0.015045 0.138972 0.684246
O O6 0.109517 0.000000 0.467461
O O7 0.191525 0.137387 0.151930
O O8 0.695999 0.862174 0.336388
O O9 0.631154 0.862701 0.293718
O O10 0.711494 0.000000 0.152143
O O11 0.430440 0.500000 0.853920
O O12 0.335811 0.646395 0.092573
O O13 0.662550 0.882519 0.654967
O O14 0.500000 0.883337 0.000000
O O15 0.521993 0.860690 0.183281
O O16 0.752928 0.000000 0.295459
O O17 0.500000 0.861567 0.500000
O O18 0.474606 0.000000 0.434096
#
# Coordination Sequence:
#
# PCOD9192302 Si02
#       7
#     8   8   8   8   8   8   8
#     4   9  19  34  55  79 112 146 195 231 281 345
#     4   9  17  33  58  83 112 149 185 240 295 329
#     4   9  18  33  55  83 113 145 187 232 286 347
#     4   9  18  33  54  80 110 142 189 244 285 330
#     4  11  21  36  60  80 117 158 189 232 286 339
#     4  10  20  33  54  84 111 148 196 232 280 349
#     4  10  21  37  59  88 117 149 192 239 283 336
#
# _framework density 22.412089000000002
#
# number of rings (size 3 to 8) (size 9 to 14) (size 15 to 20)
#    0.000    2.429    1.429    0.857    0.000    4.571 
#    0.000    6.429    9.429    0.000    0.000    0.000 
#    0.000    0.000    0.000    0.000    0.000    0.000 
#
# Total GULP energy -156005.610728 kJ/mol
# GULP energy per Si atom -5571.628955 kJ/mol
# Density = 2.236108 g / cm^3
# Si number density = 22.412089 Si / 1000 Ang^3
#
#
#
# Elastic Constant Matrix: (Units=GPa)
#
#
# Indices 1 2 3 4 5 6 
#
# 1 139.4927 11.2926 65.6089 0.0000 -14.8782 0.0000
# 2 11.2926 41.9643 6.2661 0.0000 -2.7379 0.0000
# 3 65.6089 6.2661 147.9886 0.0000 -10.0101 0.0000
# 4 0.0000 0.0000 0.0000 11.0150 0.0000 5.2781
# 5 -14.8782 -2.7379 -10.0101 0.0000 33.0308 0.0000
# 6 0.0000 0.0000 0.0000 5.2781 0.0000 10.0807
#
#
#
# Elastic Compliance Matrix: (Units=1/GPa)
#
#
# Indices 1 2 3 4 5 6 
#
# 1 0.009471 -0.001771 -0.003926 0.000000 0.002930 0.000000
# 2 -0.001771 0.024408 -0.000169 0.000000 0.001174 0.000000
# 3 -0.003926 -0.000169 0.008560 0.000000 0.000812 0.000000
# 4 0.000000 0.000000 0.000000 0.121191 0.000000 -0.063454
# 5 0.002930 0.001174 0.000812 0.000000 0.031938 0.000000
# 6 0.000000 0.000000 0.000000 -0.063454 0.000000 0.132422
#
#
# Mechanical properties :
#
#
# Convention : Reuss Voigt Hill
#
# Bulk Modulus (GPa) = 32.56544 55.08676 43.82610
# Shear Modulus (GPa) = 14.28744 27.24383 20.76563
#
# Velocity S-wave (km/s) = 2.52759 3.49031 3.04721
# Velocity P-wave (km/s) = 4.80418 6.39339 5.65489
#
# Compressibility (1/GPa) = 0.03070740
#
# Stress axis : x y z
#
# Youngs Moduli (GPa) = 105.58396 40.96978 116.82569
#
# Poissons Ratio (x) = 0.07257 0.45863
# Poissons Ratio (y) = 0.18703 0.01972
# Poissons Ratio (z) = 0.41450 0.00691
#
# Static dielectric constant tensor:
#      x y z
#    x 1.889800 0.000000 0.013860 
#    y 0.000000 1.881510 0.000000 
#    z 0.013860 0.000000 1.835760 
# 
# From -- ./inp_files/113339.got.cif
#   From: 2010.05.17/outbox.cif.g08.bks.cpg/sg12_57_cif.got.tgz:113339.got - 2010.06.03 13:09:07.
