data_PCOD9192246
_publ_section_title
;
Structure prediction by ZEFSAII (Michael W. Deem and Ramdas Pophale) SiO2 
 PCOD9192246
Probable space group: C 2/M
;
_chemical_formula_sum "Si O2"
_cell_formula_units_Z 64
_cell_length_a 9.072525
_cell_length_b 32.943476
_cell_length_c 14.291279
_cell_angle_alpha 90.000000
_cell_angle_beta 50.502840
_cell_angle_gamma 90.000000
_cell_volume 3296.040146
_symmetry_space_group_name_H-M "C 2/M"
_symmetry_group_IT_number 12
_symmetry_cell_setting 'monoclinic'
loop_
_space_group_symop_operation_xyz
x,y,z
-x,y,-z
-x,-y,-z
x,-y,z
1/2+x,1/2+y,z
1/2-x,1/2+y,-z
1/2-x,1/2-y,-z
1/2+x,1/2-y,z
loop_
_atom_site_type_symbol
_atom_site_label
_atom_site_fract_x
_atom_site_fract_y
_atom_site_fract_z
Si Si1 0.837256 0.546663 0.985859
Si Si2 0.040047 0.396133 0.759694
Si Si3 0.988888 0.305579 0.270241
Si Si4 0.973598 0.889457 0.622276
Si Si5 0.796815 0.251978 0.689499
Si Si6 0.030192 0.453070 0.377214
Si Si7 0.833200 0.803608 0.436303
Si Si8 0.544819 0.547244 0.749704
O O1 0.822735 0.500000 0.957346
O O2 0.905059 0.576454 0.877814
O O3 0.637037 0.558218 0.113973
O O4 0.000000 0.547317 0.000000
O O5 0.961429 0.351318 0.773749
O O6 0.244749 0.389319 0.725981
O O7 0.067112 0.420894 0.651804
O O8 0.877293 0.279673 0.237278
O O9 0.829114 0.306933 0.418643
O O10 0.166457 0.280173 0.236396
O O11 0.050594 0.925870 0.654317
O O12 0.000000 0.893208 0.500000
O O13 0.076181 0.848006 0.613048
O O14 0.756191 0.282285 0.618981
O O15 0.990323 0.225182 0.604820
O O16 0.973296 0.500000 0.380660
O O17 0.258459 0.448952 0.273379
O O18 0.000000 0.445892 0.500000
O O19 0.523563 0.500000 0.731436
#
# Coordination Sequence:
#
# PCOD9192246 Si02
#       8
#     8   8   8   8   8   8   8   8
#     4  10  21  41  65  88 115 156 213 263 298 340
#     4  12  23  35  59  89 121 158 203 256 298 352
#     4  11  20  33  51  84 117 156 198 243 300 362
#     4  12  22  35  54  89 125 158 196 246 304 370
#     4  10  20  33  54  77 118 162 197 239 302 370
#     4  10  23  41  59  88 128 163 193 239 310 379
#     4  11  19  33  51  81 119 159 197 240 296 370
#     4  10  23  42  64  86 118 162 205 251 300 353
#
# _framework density 19.417238000000001
#
# number of rings (size 3 to 8) (size 9 to 14) (size 15 to 20)
#    0.000    1.250    3.750    4.125    1.750    1.250 
#    0.000    1.875    0.000    0.000    0.000    9.625 
#    0.000    0.000    0.000    0.000    0.000    0.000 
#
# Total GULP energy -178742.211978 kJ/mol
# GULP energy per Si atom -5585.694124 kJ/mol
# Density = 1.937304 g / cm^3
# Si number density = 19.417238 Si / 1000 Ang^3
#
#
#
# Elastic Constant Matrix: (Units=GPa)
#
#
# Indices 1 2 3 4 5 6 
#
# 1 75.2275 41.7192 12.6217 0.0000 -0.7286 0.0000
# 2 41.7192 134.9757 41.9284 0.0000 16.1328 0.0000
# 3 12.6217 41.9284 55.3089 0.0000 -7.8233 0.0000
# 4 0.0000 0.0000 0.0000 16.4172 0.0000 2.7060
# 5 -0.7286 16.1328 -7.8233 0.0000 21.4746 0.0000
# 6 0.0000 0.0000 0.0000 2.7060 0.0000 28.8193
#
#
#
# Elastic Compliance Matrix: (Units=1/GPa)
#
#
# Indices 1 2 3 4 5 6 
#
# 1 0.016620 -0.006499 0.002008 0.000000 0.006178 0.000000
# 2 -0.006499 0.015153 -0.012278 0.000000 -0.016077 0.000000
# 3 0.002008 -0.012278 0.029779 0.000000 0.020141 0.000000
# 4 0.000000 0.000000 0.000000 0.061869 0.000000 -0.005809
# 5 0.006178 -0.016077 0.020141 0.000000 0.066192 0.000000
# 6 0.000000 0.000000 0.000000 -0.005809 0.000000 0.035244
#
#
# Mechanical properties :
#
#
# Convention : Reuss Voigt Hill
#
# Bulk Modulus (GPa) = 35.69744 50.89452 43.29598
# Shear Modulus (GPa) = 18.67520 24.62508 21.65014
#
# Velocity S-wave (km/s) = 3.10463 3.56505 3.34278
# Velocity P-wave (km/s) = 5.59249 6.57374 6.10287
#
# Compressibility (1/GPa) = 0.02801321
#
# Stress axis : x y z
#
# Youngs Moduli (GPa) = 60.16739 65.99211 33.58096
#
# Poissons Ratio (x) = 0.42890 -0.06743
# Poissons Ratio (y) = 0.39105 0.41232
# Poissons Ratio (z) = -0.12082 0.81027
#
# Static dielectric constant tensor:
#      x y z
#    x 1.697920 0.000000 -0.008690 
#    y 0.000000 1.687410 0.000000 
#    z -0.008690 0.000000 1.682660 
# 
# From -- ./inp_files/201235.got.cif
#   From: 2010.05.17/outbox.cif.g08.bks.cpg/sg12_101_cif.got.tgz:201235.got - 2010.06.03 13:09:07.
