data_PCOD9192659
_publ_section_title
;
Structure prediction by ZEFSAII (Michael W. Deem and Ramdas Pophale) SiO2 
 PCOD9192659
Probable space group: C 2/M
;
_chemical_formula_sum "Si O2"
_cell_formula_units_Z 56
_cell_length_a 7.411271
_cell_length_b 31.815534
_cell_length_c 15.886396
_cell_angle_alpha 90.000000
_cell_angle_beta 47.281086
_cell_angle_gamma 90.000000
_cell_volume 2752.084913
_symmetry_space_group_name_H-M "C 2/M"
_symmetry_group_IT_number 12
_symmetry_cell_setting 'monoclinic'
loop_
_space_group_symop_operation_xyz
x,y,z
-x,y,-z
-x,-y,-z
x,-y,z
1/2+x,1/2+y,z
1/2-x,1/2+y,-z
1/2-x,1/2-y,-z
1/2+x,1/2-y,z
loop_
_atom_site_type_symbol
_atom_site_label
_atom_site_fract_x
_atom_site_fract_y
_atom_site_fract_z
Si Si1 0.471372 0.735184 0.093564
Si Si2 0.608177 0.827774 0.272228
Si Si3 0.225618 0.909196 0.863488
Si Si4 0.229833 0.818206 0.231012
Si Si5 0.808309 0.799246 0.485426
Si Si6 0.730928 0.500000 0.864023
Si Si7 0.153357 0.591809 0.865388
Si Si8 0.836268 0.500000 0.137071
O O1 0.322248 0.707003 0.205245
O O2 0.319086 0.779149 0.145541
O O3 0.500000 0.706856 0.000000
O O4 0.750000 0.750000 0.000000
O O5 0.733822 0.872220 0.215017
O O6 0.430048 0.818727 0.246040
O O7 0.436348 0.823396 0.408202
O O8 0.211709 0.955179 0.825679
O O9 0.462043 0.909791 0.848985
O O10 0.000000 0.903207 0.000000
O O11 0.223875 0.862915 0.186219
O O12 0.961843 0.810891 0.354781
O O13 0.750000 0.750000 0.500000
O O14 0.000000 0.806567 0.500000
O O15 0.973759 0.500000 0.844954
O O16 0.500000 0.500000 0.000000
O O17 0.288464 0.546227 0.821746
O O18 0.000000 0.593468 0.000000
O O19 0.000000 0.500000 0.000000
#
# Coordination Sequence:
#
# PCOD9192659 Si02
#       8
#     8   8   8   8   8   4   8   4
#     4  12  22  32  48  71  98 125 154 192 247 292
#     4  10  20  34  50  69  94 128 161 197 239 281
#     4   9  17  29  48  70  99 124 154 191 238 287
#     4  10  20  34  50  69  95 127 162 198 234 286
#     4  10  20  36  52  65  87 128 170 201 234 273
#     4   8  14  26  44  69  93 125 153 184 228 286
#     4   9  17  30  47  73  97 124 155 191 239 284
#     4   8  14  26  46  67  97 123 149 188 232 285
#
# _framework density 20.348209000000001
#
# number of rings (size 3 to 8) (size 9 to 14) (size 15 to 20)
#    0.000    2.286    2.857    0.857    2.000    0.000 
#    0.000    0.000    0.000    0.857    0.000    6.000 
#    0.000    0.000    0.000   22.286    0.000   16.000 
#
# Total GULP energy -155904.913201 kJ/mol
# GULP energy per Si atom -5568.032614 kJ/mol
# Density = 2.030190 g / cm^3
# Si number density = 20.348209 Si / 1000 Ang^3
#
#
#
# Elastic Constant Matrix: (Units=GPa)
#
#
# Indices 1 2 3 4 5 6 
#
# 1 52.6841 8.1250 17.5563 0.0000 -6.7188 0.0000
# 2 8.1250 219.8989 93.2309 0.0000 -13.6693 0.0000
# 3 17.5563 93.2309 149.0937 0.0000 -17.6644 0.0000
# 4 0.0000 0.0000 0.0000 25.8788 0.0000 13.9851
# 5 -6.7188 -13.6693 -17.6644 0.0000 23.0677 0.0000
# 6 0.0000 0.0000 0.0000 13.9851 0.0000 26.9354
#
#
#
# Elastic Compliance Matrix: (Units=1/GPa)
#
#
# Indices 1 2 3 4 5 6 
#
# 1 0.020195 0.000430 -0.002111 0.000000 0.004520 0.000000
# 2 0.000430 0.006210 -0.003830 0.000000 0.000872 0.000000
# 3 -0.002111 -0.003830 0.009908 0.000000 0.004703 0.000000
# 4 0.000000 0.000000 0.000000 0.053713 0.000000 -0.027888
# 5 0.004520 0.000872 0.004703 0.000000 0.048785 0.000000
# 6 0.000000 0.000000 0.000000 -0.027888 0.000000 0.051606
#
#
# Mechanical properties :
#
#
# Convention : Reuss Voigt Hill
#
# Bulk Modulus (GPa) = 39.54268 73.27791 56.41029
# Shear Modulus (GPa) = 23.82433 35.36069 29.59251
#
# Velocity S-wave (km/s) = 3.42545 4.17319 3.81767
# Velocity P-wave (km/s) = 5.92623 7.70135 6.87135
#
# Compressibility (1/GPa) = 0.02528913
#
# Stress axis : x y z
#
# Youngs Moduli (GPa) = 49.51781 161.03416 100.92628
#
# Poissons Ratio (x) = -0.06923 0.21309
# Poissons Ratio (y) = -0.02129 0.38660
# Poissons Ratio (z) = 0.10455 0.61684
#
# Static dielectric constant tensor:
#      x y z
#    x 1.962850 0.000000 0.011230 
#    y 0.000000 1.766630 0.000000 
#    z 0.011230 0.000000 1.658570 
# 
# From -- ./inp_files/200667.got.cif
#   From: 2010.05.17/outbox.cif.g08.bks.cpg/sg12_101_cif.got.tgz:200667.got - 2010.06.03 13:09:07.
