data_PCOD9192242
_publ_section_title
;
Structure prediction by ZEFSAII (Michael W. Deem and Ramdas Pophale) SiO2 
 PCOD9192242
Probable space group: C 2/M
;
_chemical_formula_sum "Si O2"
_cell_formula_units_Z 50
_cell_length_a 19.699659
_cell_length_b 7.709766
_cell_length_c 24.169363
_cell_angle_alpha 90.000000
_cell_angle_beta 143.155657
_cell_angle_gamma 90.000000
_cell_volume 2201.192237
_symmetry_space_group_name_H-M "C 2/M"
_symmetry_group_IT_number 12
_symmetry_cell_setting 'monoclinic'
loop_
_space_group_symop_operation_xyz
x,y,z
-x,y,-z
-x,-y,-z
x,-y,z
1/2+x,1/2+y,z
1/2-x,1/2+y,-z
1/2-x,1/2-y,-z
1/2+x,1/2-y,z
loop_
_atom_site_type_symbol
_atom_site_label
_atom_site_fract_x
_atom_site_fract_y
_atom_site_fract_z
Si Si1 0.038706 0.800540 0.131166
Si Si2 0.350263 0.290993 0.437761
Si Si3 0.088672 0.200917 0.750554
Si Si4 0.716014 0.297079 0.729664
Si Si5 0.213220 0.208641 0.038346
Si Si6 0.000000 0.500000 0.500000
Si Si7 0.105399 0.699121 0.296240
O O1 0.149605 0.722856 0.174999
O O2 0.057640 0.792946 0.210274
O O3 0.037181 0.000000 0.113427
O O4 0.915289 0.726643 0.037307
O O5 0.377172 0.500000 0.458607
O O6 0.310713 0.236914 0.349510
O O7 0.450714 0.155973 0.510063
O O8 0.234518 0.253658 0.395617
O O9 0.138724 0.280812 0.727037
O O10 0.194854 0.210283 0.861381
O O11 0.982001 0.285340 0.711002
O O12 0.056995 0.000000 0.721271
O O13 0.691234 0.500000 0.713185
O O14 0.215605 0.000000 0.047131
O O15 0.250000 0.250000 0.000000
O O16 0.113561 0.500000 0.282513
#
# Coordination Sequence:
#
# PCOD9192242 Si02
#       7
#     8   8   8   8   8   2   8
#     4  10  20  33  54  76 110 150 199 252 289 338
#     4   9  21  40  62  94 125 148 189 239 288 353
#     4  11  22  35  56  82 112 155 204 240 290 351
#     4   9  21  39  56  82 116 155 190 239 297 343
#     4  11  22  34  49  77 112 153 199 255 299 329
#     4  12  22  36  72 102 112 154 186 232 300 350
#     4  10  20  35  56  84 114 151 192 241 288 337
#
# _framework density 22.714963999999998
#
# number of rings (size 3 to 8) (size 9 to 14) (size 15 to 20)
#    0.000    1.920    1.600    3.120    5.600    3.840 
#    0.000    3.200    0.000    0.960    0.000    0.000 
#    0.000    0.000    0.000    0.000    0.000    0.000 
#
# Total GULP energy -139284.388777 kJ/mol
# GULP energy per Si atom -5571.375551 kJ/mol
# Density = 2.266326 g / cm^3
# Si number density = 22.714964 Si / 1000 Ang^3
#
#
#
# Elastic Constant Matrix: (Units=GPa)
#
#
# Indices 1 2 3 4 5 6 
#
# 1 127.5760 -2.7778 32.2620 0.0000 30.7603 0.0000
# 2 -2.7778 57.6887 3.7810 -0.0001 4.6364 0.0000
# 3 32.2620 3.7810 60.0414 0.0000 33.3550 0.0000
# 4 0.0000 -0.0001 0.0000 -5.9910 0.0000 9.7563
# 5 30.7603 4.6364 33.3550 0.0000 33.7525 0.0000
# 6 0.0000 0.0000 0.0000 9.7563 0.0000 23.6951
#
#
#
# Elastic Compliance Matrix: (Units=1/GPa)
#
#
# Indices 1 2 3 4 5 6 
#
# 1 0.010145 0.001236 -0.000662 0.000000 -0.008762 0.000000
# 2 0.001236 0.017686 0.000438 0.000000 -0.003989 0.000000
# 3 -0.000662 0.000438 0.036987 0.000000 -0.036008 0.000000
# 4 0.000000 0.000000 0.000000 -0.099919 0.000000 0.041141
# 5 -0.008762 -0.003989 -0.036008 0.000000 0.073745 0.000000
# 6 0.000000 0.000000 0.000000 0.041141 0.000000 0.025263
#
#
# Mechanical properties :
#
#
# Convention : Reuss Voigt Hill
#
# Bulk Modulus (GPa) = 14.96056 34.64850 24.80453
# Shear Modulus (GPa) = 59.40790 24.42739 41.91764
#
# Velocity S-wave (km/s) = 5.11961 3.28287 4.30044
# Velocity P-wave (km/s) = 6.44575 5.44576 5.96674
#
# Compressibility (1/GPa) = 0.06684243
#
# Stress axis : x y z
#
# Youngs Moduli (GPa) = 98.56785 56.54256 27.03645
#
# Poissons Ratio (x) = -0.06989 0.01789
# Poissons Ratio (y) = -0.12183 -0.01184
# Poissons Ratio (z) = 0.06523 -0.02476
#
# Static dielectric constant tensor:
#      x y z
#    x 1.893730 0.000000 0.001570 
#    y 0.000000 1.847190 0.000000 
#    z 0.001570 0.000000 1.931440 
# 
# From -- ./inp_files/274229.got.cif
#   From: 2010.05.17/outbox.cif.g08.bks.cpg/sg12_138_cif.got.tgz:274229.got - 2010.06.03 13:09:07.
