data_PCOD9192879
_publ_section_title
;
Structure prediction by ZEFSAII (Michael W. Deem and Ramdas Pophale) SiO2 
 PCOD9192879
Probable space group: C 2/M
;
_chemical_formula_sum "Si O2"
_cell_formula_units_Z 48
_cell_length_a 26.265475
_cell_length_b 7.424932
_cell_length_c 25.296550
_cell_angle_alpha 90.000000
_cell_angle_beta 144.277295
_cell_angle_gamma 90.000000
_cell_volume 2880.381224
_symmetry_space_group_name_H-M "C 2/M"
_symmetry_group_IT_number 12
_symmetry_cell_setting 'monoclinic'
loop_
_space_group_symop_operation_xyz
x,y,z
-x,y,-z
-x,-y,-z
x,-y,z
1/2+x,1/2+y,z
1/2-x,1/2+y,-z
1/2-x,1/2-y,-z
1/2+x,1/2-y,z
loop_
_atom_site_type_symbol
_atom_site_label
_atom_site_fract_x
_atom_site_fract_y
_atom_site_fract_z
Si Si1 0.213349 0.217119 0.212163
Si Si2 0.953397 0.000000 0.544513
Si Si3 0.569981 0.282294 0.013358
Si Si4 0.862592 0.000000 0.353779
Si Si5 0.857388 0.705888 0.529404
Si Si6 0.156443 0.781617 0.361693
Si Si7 0.570467 0.718704 0.182119
O O1 0.162674 0.272784 0.115423
O O2 0.301317 0.326741 0.293521
O O3 0.147120 0.261690 0.204722
O O4 0.225351 0.000000 0.222463
O O5 0.900418 0.000000 0.444890
O O6 0.923308 0.828936 0.553153
O O7 0.054839 0.000000 0.615487
O O8 0.573918 0.500000 0.014179
O O9 0.500000 0.237767 0.000000
O O10 0.522432 0.219341 0.919929
O O11 0.862190 0.500000 0.515537
O O12 0.871972 0.715417 0.604761
O O13 0.757354 0.771434 0.437416
O O14 0.097829 0.720641 0.263272
O O15 0.155799 0.000000 0.363212
O O16 0.567557 0.500000 0.181016
#
# Coordination Sequence:
#
# PCOD9192879 Si02
#       7
#     8   4   8   4   8   8   8
#     4   9  17  32  50  72 102 135 166 197 238 292
#     4  11  24  40  50  70 100 126 167 215 246 276
#     4   7  11  22  43  69 102 135 158 188 238 292
#     4  11  24  36  53  72  92 130 175 208 242 285
#     4  10  20  34  52  71  99 133 161 199 246 294
#     4   9  16  28  49  77 104 130 162 190 239 304
#     4   8  13  24  46  75 107 137 158 191 241 295
#
# _framework density 16.664460999999999
#
# number of rings (size 3 to 8) (size 9 to 14) (size 15 to 20)
#    0.000    3.000    0.833    3.000    1.167    2.667 
#    1.500    5.417    0.000    0.000    0.000    1.167 
#    0.000    0.000    0.000    0.000    0.000    0.000 
#
# Total GULP energy -133737.247026 kJ/mol
# GULP energy per Si atom -5572.385293 kJ/mol
# Density = 1.662653 g / cm^3
# Si number density = 16.664461 Si / 1000 Ang^3
#
#
#
# Elastic Constant Matrix: (Units=GPa)
#
#
# Indices 1 2 3 4 5 6 
#
# 1 68.2572 26.6250 40.6695 0.0000 1.1982 0.0000
# 2 26.6250 73.3382 23.6574 -0.0001 9.1416 -0.0001
# 3 40.6695 23.6574 122.9829 0.0000 -12.2579 0.0000
# 4 0.0000 -0.0001 0.0000 4.9517 0.0000 6.6258
# 5 1.1982 9.1416 -12.2579 0.0000 27.1444 0.0000
# 6 0.0000 -0.0001 0.0000 6.6258 0.0000 15.8408
#
#
#
# Elastic Compliance Matrix: (Units=1/GPa)
#
#
# Indices 1 2 3 4 5 6 
#
# 1 0.020209 -0.005227 -0.005854 0.000000 -0.001775 0.000000
# 2 -0.005227 0.017054 -0.002201 0.000000 -0.006506 0.000000
# 3 -0.005854 -0.002201 0.011089 0.000000 0.006007 0.000000
# 4 0.000000 0.000000 0.000000 0.458662 0.000000 -0.191848
# 5 -0.001775 -0.006506 0.006007 0.000000 0.041822 0.000000
# 6 0.000000 0.000000 0.000000 -0.191848 0.000000 0.143374
#
#
# Mechanical properties :
#
#
# Convention : Reuss Voigt Hill
#
# Bulk Modulus (GPa) = 45.89618 49.60911 47.75264
# Shear Modulus (GPa) = 6.88671 21.16246 14.02458
#
# Velocity S-wave (km/s) = 2.03508 3.56745 2.90416
# Velocity P-wave (km/s) = 5.75528 6.84127 6.32164
#
# Compressibility (1/GPa) = 0.02178831
#
# Stress axis : x y z
#
# Youngs Moduli (GPa) = 49.48379 58.63751 90.17736
#
# Poissons Ratio (x) = 0.30649 0.52793
# Poissons Ratio (y) = 0.25864 0.19844
# Poissons Ratio (z) = 0.28970 0.12904
#
# Static dielectric constant tensor:
#      x y z
#    x 1.518260 0.000000 -0.035550 
#    y 0.000000 1.608890 0.000000 
#    z -0.035550 0.000000 1.592760 
# 
# From -- ./inp_files/345732.got.cif
#   From: 2010.05.17/outbox.cif.g08.bks.cpg/sg12_173_cif.got.tgz:345732.got - 2010.06.03 13:09:07.
