data_PCOD9192371
_publ_section_title
;
Structure prediction by ZEFSAII (Michael W. Deem and Ramdas Pophale) SiO2 
 PCOD9192371
Probable space group: C 2/M
;
_chemical_formula_sum "Si O2"
_cell_formula_units_Z 48
_cell_length_a 16.988699
_cell_length_b 31.329526
_cell_length_c 9.499643
_cell_angle_alpha 90.000000
_cell_angle_beta 29.265403
_cell_angle_gamma 90.000000
_cell_volume 2471.735441
_symmetry_space_group_name_H-M "C 2/M"
_symmetry_group_IT_number 12
_symmetry_cell_setting 'monoclinic'
loop_
_space_group_symop_operation_xyz
x,y,z
-x,y,-z
-x,-y,-z
x,-y,z
1/2+x,1/2+y,z
1/2-x,1/2+y,-z
1/2-x,1/2-y,-z
1/2+x,1/2-y,z
loop_
_atom_site_type_symbol
_atom_site_label
_atom_site_fract_x
_atom_site_fract_y
_atom_site_fract_z
Si Si1 0.830435 0.046589 0.183767
Si Si2 0.672076 0.357609 0.812931
Si Si3 0.221726 0.723560 0.903190
Si Si4 0.831108 0.045135 0.847231
Si Si5 0.670038 0.363354 0.153646
Si Si6 0.361375 0.228126 0.440265
O O1 0.761633 0.094127 0.321899
O O2 0.750457 0.000000 0.340937
O O3 0.861997 0.046018 0.966606
O O4 0.000000 0.046223 0.000000
O O5 0.789860 0.318789 0.586997
O O6 0.500000 0.352905 0.000000
O O7 0.647825 0.355937 0.020721
O O8 0.233641 0.674763 0.928472
O O9 0.350410 0.741543 0.593832
O O10 0.250000 0.750000 0.000000
O O11 0.046690 0.729073 0.108940
O O12 0.749754 0.090405 0.945460
O O13 0.000000 0.044985 0.500000
O O14 0.747427 0.000000 0.944791
O O15 0.500000 0.363611 0.500000
O O16 0.250000 0.250000 0.500000
#
# Coordination Sequence:
#
# PCOD9192371 Si02
#       6
#     8   8   8   8   8   8
#     4   8  14  26  46  73 105 141 180 221 265 315
#     4  10  20  34  54  81 114 147 184 230 275 323
#     4  12  24  40  60  81 109 143 185 227 275 332
#     4   8  14  26  45  73 108 141 177 221 266 314
#     4  10  20  33  55  83 111 147 187 228 273 326
#     4  12  26  42  58  81 109 146 185 230 278 330
#
# _framework density 19.419554000000002
#
# number of rings (size 3 to 8) (size 9 to 14) (size 15 to 20)
#    0.000    2.000    1.667    3.000    2.333    0.000 
#    0.000    0.000    0.000    1.000    0.000    4.667 
#    0.000    2.667    0.000    0.000    0.000    0.000 
#
# Total GULP energy -133647.788453 kJ/mol
# GULP energy per Si atom -5568.657852 kJ/mol
# Density = 1.937535 g / cm^3
# Si number density = 19.419554 Si / 1000 Ang^3
#
#
#
# Elastic Constant Matrix: (Units=GPa)
#
#
# Indices 1 2 3 4 5 6 
#
# 1 42.7167 22.7507 -0.3862 0.0000 -1.3017 0.0000
# 2 22.7507 175.9587 9.5122 0.0000 0.7614 0.0000
# 3 -0.3862 9.5122 24.2198 0.0000 -1.3880 0.0000
# 4 0.0000 0.0000 0.0000 13.6634 0.0000 2.4801
# 5 -1.3017 0.7614 -1.3880 0.0000 22.6957 0.0000
# 6 0.0000 0.0000 0.0000 2.4801 0.0000 28.7624
#
#
#
# Elastic Compliance Matrix: (Units=1/GPa)
#
#
# Indices 1 2 3 4 5 6 
#
# 1 0.025274 -0.003374 0.001824 0.000000 0.001674 0.000000
# 2 -0.003374 0.006259 -0.002544 0.000000 -0.000559 0.000000
# 3 0.001824 -0.002544 0.042477 0.000000 0.002788 0.000000
# 4 0.000000 0.000000 0.000000 0.074352 0.000000 -0.006411
# 5 0.001674 -0.000559 0.002788 0.000000 0.044347 0.000000
# 6 0.000000 0.000000 0.000000 -0.006411 0.000000 0.035320
#
#
# Mechanical properties :
#
#
# Convention : Reuss Voigt Hill
#
# Bulk Modulus (GPa) = 15.19239 34.07207 24.63223
# Shear Modulus (GPa) = 19.36802 27.09220 23.23011
#
# Velocity S-wave (km/s) = 3.16150 3.73915 3.46240
# Velocity P-wave (km/s) = 4.60077 6.01872 5.35687
#
# Compressibility (1/GPa) = 0.06582244
#
# Stress axis : x y z
#
# Youngs Moduli (GPa) = 39.56575 159.76191 23.54239
#
# Poissons Ratio (x) = 0.53899 -0.04294
# Poissons Ratio (y) = 0.13348 0.05990
# Poissons Ratio (z) = -0.07217 0.40646
#
# Static dielectric constant tensor:
#      x y z
#    x 1.646390 0.000000 -0.001710 
#    y 0.000000 1.732030 0.000000 
#    z -0.001710 0.000000 1.664350 
# 
# From -- ./inp_files/80615.got.cif
#   From: 2010.05.17/outbox.cif.g08.bks.cpg/sg12_41_cif.got.tgz:80615.got - 2010.06.03 13:09:07.
