data_PCOD9192620
_publ_section_title
;
Structure prediction by ZEFSAII (Michael W. Deem and Ramdas Pophale) SiO2 
 PCOD9192620
Probable space group: C 2/M
;
_chemical_formula_sum "Si O2"
_cell_formula_units_Z 56
_cell_length_a 23.385738
_cell_length_b 24.239863
_cell_length_c 13.918517
_cell_angle_alpha 90.000000
_cell_angle_beta 23.323773
_cell_angle_gamma 90.000000
_cell_volume 3123.840333
_symmetry_space_group_name_H-M "C 2/M"
_symmetry_group_IT_number 12
_symmetry_cell_setting 'monoclinic'
loop_
_space_group_symop_operation_xyz
x,y,z
-x,y,-z
-x,-y,-z
x,-y,z
1/2+x,1/2+y,z
1/2-x,1/2+y,-z
1/2-x,1/2-y,-z
1/2+x,1/2-y,z
loop_
_atom_site_type_symbol
_atom_site_label
_atom_site_fract_x
_atom_site_fract_y
_atom_site_fract_z
Si Si1 0.769842 0.062771 0.858968
Si Si2 0.195523 0.389187 0.776879
Si Si3 0.349166 0.169400 0.681835
Si Si4 0.626203 0.065471 0.694145
Si Si5 0.427007 0.936475 0.439570
Si Si6 0.358957 0.330703 0.817064
Si Si7 0.681285 0.285369 0.324067
O O1 0.778082 0.077673 0.733400
O O2 0.861787 0.106619 0.775572
O O3 0.809782 0.000000 0.814513
O O4 0.600027 0.069890 0.152389
O O5 0.227864 0.407496 0.618091
O O6 0.223386 0.325288 0.757252
O O7 0.029746 0.406309 0.050614
O O8 0.500000 0.184783 0.500000
O O9 0.373992 0.110795 0.592854
O O10 0.310016 0.220304 0.672785
O O11 0.231970 0.168580 0.946326
O O12 0.653945 0.070708 0.537948
O O13 0.614029 0.000000 0.732882
O O14 0.405826 0.000000 0.505081
O O15 0.516163 0.305458 0.590141
O O16 0.285396 0.298247 0.840505
#
# Coordination Sequence:
#
# PCOD9192620 Si02
#       7
#     8   8   8   8   8   8   8
#     4   9  16  28  47  74 103 129 165 213 259 299
#     4   9  16  29  50  76 102 133 167 208 259 302
#     4  12  21  33  55  75 100 144 176 209 255 303
#     4   9  16  31  56  81 104 131 172 221 264 299
#     4   9  19  32  50  78 101 124 169 225 262 292
#     4  10  20  34  48  72 106 138 174 204 249 316
#     4  10  22  34  50  74 105 139 171 207 251 310
#
# _framework density 17.926653000000002
#
# number of rings (size 3 to 8) (size 9 to 14) (size 15 to 20)
#    0.000    2.286    2.857    3.000    0.000    0.857 
#    0.000    7.857    0.000    0.857    0.000    2.000 
#    0.000    0.000    0.000    0.000    0.000    0.000 
#
# Total GULP energy -156056.199400 kJ/mol
# GULP energy per Si atom -5573.435693 kJ/mol
# Density = 1.788585 g / cm^3
# Si number density = 17.926653 Si / 1000 Ang^3
#
#
#
# Elastic Constant Matrix: (Units=GPa)
#
#
# Indices 1 2 3 4 5 6 
#
# 1 57.3291 43.7812 32.0610 0.0023 3.0967 0.0001
# 2 43.7812 144.7868 33.7052 -0.0030 6.5719 -0.0012
# 3 32.0610 33.7052 47.2559 -0.0122 13.8868 -0.0027
# 4 0.0023 -0.0030 -0.0122 -1.9295 0.0101 -10.4714
# 5 3.0967 6.5719 13.8868 0.0101 15.1038 0.0024
# 6 0.0001 -0.0012 -0.0027 -10.4714 0.0024 19.1712
#
#
#
# Elastic Compliance Matrix: (Units=1/GPa)
#
#
# Indices 1 2 3 4 5 6 
#
# 1 0.034563 -0.005485 -0.024878 0.000085 0.018174 0.000040
# 2 -0.005485 0.009222 -0.002751 -0.000002 -0.000359 -0.000001
# 3 -0.024878 -0.002751 0.052275 -0.000162 -0.041765 -0.000076
# 4 0.000085 -0.000002 -0.000162 -0.130735 0.000231 -0.071408
# 5 0.018174 -0.000359 -0.041765 0.000231 0.101038 0.000108
# 6 0.000040 -0.000001 -0.000076 -0.071408 0.000108 0.013158
#
#
# Mechanical properties :
#
#
# Convention : Reuss Voigt Hill
#
# Bulk Modulus (GPa) = 33.51994 52.05184 42.78589
# Shear Modulus (GPa) = 32.11427 15.79074 23.95250
#
# Velocity S-wave (km/s) = 4.23712 2.97114 3.65929
# Velocity P-wave (km/s) = 6.53273 6.39291 6.46319
#
# Compressibility (1/GPa) = 0.02983299
#
# Stress axis : x y z
#
# Youngs Moduli (GPa) = 28.93259 108.43773 19.12946
#
# Poissons Ratio (x) = 0.59476 0.47590
# Poissons Ratio (y) = 0.15869 0.05262
# Poissons Ratio (z) = 0.71979 0.29829
#
# Static dielectric constant tensor:
#      x y z
#    x 1.653210 0.000000 0.002820 
#    y 0.000000 1.640660 0.000000 
#    z 0.002820 0.000000 1.636230 
# 
# From -- ./inp_files/242107.got.cif
#   From: 2010.05.17/outbox.cif.g08.bks.cpg/sg12_122_cif.got.tgz:242107.got - 2010.06.03 13:09:07.
