data_PCOD9192139
_publ_section_title
;
Structure prediction by ZEFSAII (Michael W. Deem and Ramdas Pophale) SiO2 
 PCOD9192139
Probable space group: C 2/M
;
_chemical_formula_sum "Si O2"
_cell_formula_units_Z 40
_cell_length_a 19.647691
_cell_length_b 9.166837
_cell_length_c 12.532223
_cell_angle_alpha 90.000000
_cell_angle_beta 95.958120
_cell_angle_gamma 90.000000
_cell_volume 2244.950343
_symmetry_space_group_name_H-M "C 2/M"
_symmetry_group_IT_number 12
_symmetry_cell_setting 'monoclinic'
loop_
_space_group_symop_operation_xyz
x,y,z
-x,y,-z
-x,-y,-z
x,-y,z
1/2+x,1/2+y,z
1/2-x,1/2+y,-z
1/2-x,1/2-y,-z
1/2+x,1/2-y,z
loop_
_atom_site_type_symbol
_atom_site_label
_atom_site_fract_x
_atom_site_fract_y
_atom_site_fract_z
Si Si1 0.231609 0.175739 0.386413
Si Si2 0.678540 0.169441 0.799125
Si Si3 0.392146 0.674217 0.776978
Si Si4 0.032432 0.330296 0.846289
Si Si5 0.358818 0.673208 0.006125
O O1 0.250000 0.250000 0.500000
O O2 0.282714 0.221623 0.299084
O O3 0.155857 0.210961 0.330426
O O4 0.236591 0.000000 0.397050
O O5 0.595892 0.176268 0.772655
O O6 0.689274 0.255194 0.911679
O O7 0.697538 0.000000 0.820172
O O8 0.405069 0.500000 0.778949
O O9 0.463262 0.758903 0.794286
O O10 0.350362 0.705599 0.879940
O O11 0.022401 0.500000 0.872404
O O12 0.067253 0.241496 0.949169
O O13 0.358999 0.500000 0.020127
#
# Coordination Sequence:
#
# PCOD9192139 Si02
#       5
#     8   8   8   8   8
#     4  10  22  41  57  73 102 139 180 222 262 305
#     4   8  18  35  53  75 108 140 168 212 262 307
#     4  10  20  33  53  80 109 140 172 212 260 307
#     4   9  18  32  52  80 111 140 169 207 257 313
#     4   9  17  30  52  81 111 139 169 206 256 314
#
# _framework density 17.817767
#
# number of rings (size 3 to 8) (size 9 to 14) (size 15 to 20)
#    1.200    1.600    0.000    1.200    0.000    6.400 
#    0.000    1.000    0.000    6.000    0.000    0.000 
#    0.000    0.000    0.000    0.000    0.000    0.000 
#
# Total GULP energy -111334.971318 kJ/mol
# GULP energy per Si atom -5566.748566 kJ/mol
# Density = 1.777721 g / cm^3
# Si number density = 17.817767 Si / 1000 Ang^3
#
#
#
# Elastic Constant Matrix: (Units=GPa)
#
#
# Indices 1 2 3 4 5 6 
#
# 1 71.8741 25.2795 48.2475 0.0000 4.7262 0.0000
# 2 25.2795 46.0239 47.3610 0.0000 4.3396 0.0000
# 3 48.2475 47.3610 125.4429 0.0000 17.6925 0.0000
# 4 0.0000 0.0000 0.0000 24.2047 0.0000 -7.4251
# 5 4.7262 4.3396 17.6925 0.0000 18.7060 0.0000
# 6 0.0000 0.0000 0.0000 -7.4251 0.0000 20.2917
#
#
#
# Elastic Compliance Matrix: (Units=1/GPa)
#
#
# Indices 1 2 3 4 5 6 
#
# 1 0.019453 -0.004732 -0.005951 0.000000 0.001811 0.000000
# 2 -0.004732 0.037116 -0.012863 0.000000 0.004751 0.000000
# 3 -0.005951 -0.012863 0.016714 0.000000 -0.011321 0.000000
# 4 0.000000 0.000000 0.000000 0.046538 0.000000 0.017029
# 5 0.001811 0.004751 -0.011321 0.000000 0.062606 0.000000
# 6 0.000000 0.000000 0.000000 0.017029 0.000000 0.055512
#
#
# Mechanical properties :
#
#
# Convention : Reuss Voigt Hill
#
# Bulk Modulus (GPa) = 38.18179 53.90186 46.04183
# Shear Modulus (GPa) = 17.02059 20.80401 18.91230
#
# Velocity S-wave (km/s) = 3.09408 3.42072 3.26149
# Velocity P-wave (km/s) = 5.85150 6.77637 6.33085
#
# Compressibility (1/GPa) = 0.02619049
#
# Stress axis : x y z
#
# Youngs Moduli (GPa) = 51.40552 26.94263 59.83098
#
# Poissons Ratio (x) = 0.12749 0.35605
# Poissons Ratio (y) = 0.24325 0.76962
# Poissons Ratio (z) = 0.30591 0.34657
#
# Static dielectric constant tensor:
#      x y z
#    x 1.665380 0.000000 -0.005360 
#    y 0.000000 1.596480 0.000000 
#    z -0.005360 0.000000 1.590630 
# 
# From -- ./inp_files/171585.got.cif
#   From: 2010.05.17/outbox.cif.g08.bks.cpg/sg12_86_cif.got.tgz:171585.got - 2010.06.03 13:09:07.
