data_PCOD9192006
_publ_section_title
;
Structure prediction by ZEFSAII (Michael W. Deem and Ramdas Pophale) SiO2 
 PCOD9192006
Probable space group: C 2/M
;
_chemical_formula_sum "Si O2"
_cell_formula_units_Z 64
_cell_length_a 16.309285
_cell_length_b 7.891353
_cell_length_c 19.736263
_cell_angle_alpha 90.000000
_cell_angle_beta 98.818396
_cell_angle_gamma 90.000000
_cell_volume 2510.076917
_symmetry_space_group_name_H-M "C 2/M"
_symmetry_group_IT_number 12
_symmetry_cell_setting 'monoclinic'
loop_
_space_group_symop_operation_xyz
x,y,z
-x,y,-z
-x,-y,-z
x,-y,z
1/2+x,1/2+y,z
1/2-x,1/2+y,-z
1/2-x,1/2-y,-z
1/2+x,1/2-y,z
loop_
_atom_site_type_symbol
_atom_site_label
_atom_site_fract_x
_atom_site_fract_y
_atom_site_fract_z
Si Si1 0.433351 0.206483 0.587031
Si Si2 0.787216 0.697723 0.837028
Si Si3 0.143382 0.303331 0.289501
Si Si4 0.354069 0.807447 0.080501
Si Si5 0.084492 0.805755 0.043414
Si Si6 0.969659 0.195819 0.211050
Si Si7 0.885965 0.703907 0.330415
Si Si8 0.821885 0.296306 0.457021
O O1 0.370611 0.272545 0.637691
O O2 0.525840 0.245474 0.622126
O O3 0.403047 0.261130 0.509639
O O4 0.428716 0.000000 0.587205
O O5 0.765116 0.500000 0.829552
O O6 0.799433 0.771271 0.762834
O O7 0.721777 0.785883 0.877570
O O8 0.874112 0.713510 0.888368
O O9 0.166431 0.500000 0.299751
O O10 0.049526 0.296752 0.247111
O O11 0.433371 0.756495 0.135665
O O12 0.359313 0.000000 0.058630
O O13 0.352332 0.698099 0.012385
O O14 0.068879 0.000000 0.061474
O O15 0.000000 0.734649 0.000000
O O16 0.896722 0.216949 0.258038
O O17 0.993262 0.000000 0.210743
O O18 0.880094 0.500000 0.320854
O O19 0.820869 0.765241 0.379157
O O20 0.825357 0.500000 0.452055
O O21 0.750000 0.250000 0.500000
#
# Coordination Sequence:
#
# PCOD9192006 Si02
#       8
#     8   8   8   8   8   8   8   8
#     4   8  15  32  57  80 103 139 188 231 268 321
#     4  11  23  39  60  88 121 155 192 233 282 339
#     4   9  19  37  61  86 113 148 189 232 281 340
#     4  12  25  41  61  85 118 155 190 233 285 341
#     4  11  24  42  64  89 117 151 193 239 283 331
#     4  11  22  37  59  86 115 147 188 237 285 338
#     4   9  18  35  57  79 105 144 193 236 278 333
#     4  10  20  33  52  79 111 146 184 231 285 340
#
# _framework density 25.497228
#
# number of rings (size 3 to 8) (size 9 to 14) (size 15 to 20)
#    0.000    1.875    0.000    5.250    0.000    7.000 
#    0.000    3.750    0.000    3.750    0.000    0.000 
#    0.000    0.000    0.000    0.000    0.000    0.000 
#
# Total GULP energy -179047.348169 kJ/mol
# GULP energy per Si atom -5595.229630 kJ/mol
# Density = 2.543919 g / cm^3
# Si number density = 25.497228 Si / 1000 Ang^3
#
#
#
# Elastic Constant Matrix: (Units=GPa)
#
#
# Indices 1 2 3 4 5 6 
#
# 1 63.4712 -0.6390 6.9620 0.0000 -15.0471 0.0000
# 2 -0.6390 69.3933 2.2895 0.0000 0.7553 0.0000
# 3 6.9620 2.2895 156.8059 0.0000 -23.2368 0.0000
# 4 0.0000 0.0000 0.0000 10.8589 0.0000 -5.4500
# 5 -15.0471 0.7553 -23.2368 0.0000 49.4178 0.0000
# 6 0.0000 0.0000 0.0000 -5.4500 0.0000 21.3384
#
#
#
# Elastic Compliance Matrix: (Units=1/GPa)
#
#
# Indices 1 2 3 4 5 6 
#
# 1 0.016982 0.000100 0.000011 0.000000 0.005175 0.000000
# 2 0.000100 0.014424 -0.000261 0.000000 -0.000313 0.000000
# 3 0.000011 -0.000261 0.006860 0.000000 0.003233 0.000000
# 4 0.000000 0.000000 0.000000 0.105631 0.000000 0.026979
# 5 0.005175 -0.000313 0.003233 0.000000 0.023336 0.000000
# 6 0.000000 0.000000 0.000000 0.026979 0.000000 0.053755
#
#
# Mechanical properties :
#
#
# Convention : Reuss Voigt Hill
#
# Bulk Modulus (GPa) = 26.34060 34.09948 30.22004
# Shear Modulus (GPa) = 21.37279 35.06021 28.21650
#
# Velocity S-wave (km/s) = 2.89838 3.71220 3.33024
# Velocity P-wave (km/s) = 4.64263 5.63709 5.16385
#
# Compressibility (1/GPa) = 0.03796421
#
# Stress axis : x y z
#
# Youngs Moduli (GPa) = 58.88708 69.33097 145.77872
#
# Poissons Ratio (x) = -0.00691 -0.00166
# Poissons Ratio (y) = -0.00587 0.03811
# Poissons Ratio (z) = -0.00067 0.01812
#
# Static dielectric constant tensor:
#      x y z
#    x 2.130620 0.000000 -0.042870 
#    y 0.000000 1.888510 0.000000 
#    z -0.042870 0.000000 2.000830 
# 
# From -- ./inp_files/314060.got.cif
#   From: 2010.05.17/outbox.cif.g08.bks.cpg/sg12_158_cif.got.tgz:314060.got - 2010.06.03 13:09:07.
