data_PCOD9192412
_publ_section_title
;
Structure prediction by ZEFSAII (Michael W. Deem and Ramdas Pophale) SiO2 
 PCOD9192412
Probable space group: C 2/M
;
_chemical_formula_sum "Si O2"
_cell_formula_units_Z 56
_cell_length_a 12.717601
_cell_length_b 21.529668
_cell_length_c 10.260555
_cell_angle_alpha 90.000000
_cell_angle_beta 64.462681
_cell_angle_gamma 90.000000
_cell_volume 2534.933628
_symmetry_space_group_name_H-M "C 2/M"
_symmetry_group_IT_number 12
_symmetry_cell_setting 'monoclinic'
loop_
_space_group_symop_operation_xyz
x,y,z
-x,y,-z
-x,-y,-z
x,-y,z
1/2+x,1/2+y,z
1/2-x,1/2+y,-z
1/2-x,1/2-y,-z
1/2+x,1/2-y,z
loop_
_atom_site_type_symbol
_atom_site_label
_atom_site_fract_x
_atom_site_fract_y
_atom_site_fract_z
Si Si1 0.849479 0.260059 0.755524
Si Si2 0.789118 0.426754 0.378942
Si Si3 0.608039 0.571297 0.700465
Si Si4 0.029640 0.389078 0.339317
Si Si5 0.910913 0.125422 0.661332
Si Si6 0.234579 0.068151 0.909335
Si Si7 0.627250 0.306200 0.988374
O O1 0.921891 0.319377 0.672772
O O2 0.879159 0.197499 0.663630
O O3 0.713206 0.278117 0.831732
O O4 0.878788 0.242135 0.889627
O O5 0.812131 0.500000 0.374274
O O6 0.712204 0.408872 0.547747
O O7 0.707580 0.411780 0.299322
O O8 0.911254 0.392019 0.320484
O O9 0.578249 0.500000 0.681573
O O10 0.493338 0.611844 0.740268
O O11 0.655392 0.571171 0.821120
O O12 0.132957 0.425792 0.211834
O O13 0.000000 0.413980 0.500000
O O14 0.000000 0.105372 0.500000
O O15 0.197936 0.132071 0.998224
O O16 0.215683 0.000000 0.980806
O O17 0.500000 0.317793 0.000000
#
# Coordination Sequence:
#
# PCOD9192412 Si02
#       7
#     8   8   8   8   8   8   8
#     4  10  23  39  56  82 112 151 199 237 288 338
#     4  10  20  33  55  86 120 158 185 224 289 351
#     4   9  17  32  54  83 119 151 181 227 282 341
#     4  11  21  36  58  90 121 153 187 231 291 357
#     4  10  20  36  55  85 118 152 190 233 284 353
#     4  10  20  35  59  88 116 147 189 240 291 342
#     4  10  22  40  59  78 107 151 196 245 289 328
#
# _framework density 22.091307
#
# number of rings (size 3 to 8) (size 9 to 14) (size 15 to 20)
#    0.000    2.000    1.429    2.143    2.000    2.571 
#    0.000    3.571    0.000    0.000    0.000    4.000 
#    0.000    0.000    0.000    0.000    0.000    0.000 
#
# Total GULP energy -156410.982240 kJ/mol
# GULP energy per Si atom -5586.106509 kJ/mol
# Density = 2.204103 g / cm^3
# Si number density = 22.091307 Si / 1000 Ang^3
#
#
#
# Elastic Constant Matrix: (Units=GPa)
#
#
# Indices 1 2 3 4 5 6 
#
# 1 119.8973 14.3421 24.6801 0.0000 -34.9215 0.0000
# 2 14.3421 70.3887 -0.2567 0.0000 -17.2273 0.0000
# 3 24.6801 -0.2567 46.1149 0.0000 -20.3195 0.0000
# 4 0.0000 0.0000 0.0000 20.3931 0.0000 4.0897
# 5 -34.9215 -17.2273 -20.3195 0.0000 32.4392 0.0000
# 6 0.0000 0.0000 0.0000 4.0897 0.0000 23.7203
#
#
#
# Elastic Compliance Matrix: (Units=1/GPa)
#
#
# Indices 1 2 3 4 5 6 
#
# 1 0.012213 0.000695 -0.000796 0.000000 0.013017 0.000000
# 2 0.000695 0.017405 0.005701 0.000000 0.013562 0.000000
# 3 -0.000796 0.005701 0.031905 0.000000 0.022155 0.000000
# 4 0.000000 0.000000 0.000000 0.050793 0.000000 -0.008757
# 5 0.013017 0.013562 0.022155 0.000000 0.065920 0.000000
# 6 0.000000 0.000000 0.000000 -0.008757 0.000000 0.043668
#
#
# Mechanical properties :
#
#
# Convention : Reuss Voigt Hill
#
# Bulk Modulus (GPa) = 13.75109 34.88133 24.31621
# Shear Modulus (GPa) = 21.28147 28.48621 24.88384
#
# Velocity S-wave (km/s) = 3.10714 3.59482 3.35984
# Velocity P-wave (km/s) = 4.37157 5.74928 5.10710
#
# Compressibility (1/GPa) = 0.07272149
#
# Stress axis : x y z
#
# Youngs Moduli (GPa) = 81.88153 57.45361 31.34288
#
# Poissons Ratio (x) = -0.03991 0.02496
# Poissons Ratio (y) = -0.05687 -0.17869
# Poissons Ratio (z) = 0.06522 -0.32754
#
# Static dielectric constant tensor:
#      x y z
#    x 1.785560 0.000000 0.028200 
#    y 0.000000 1.813870 0.000000 
#    z 0.028200 0.000000 1.877500 
# 
# From -- ./inp_files/135274.got.cif
#   From: 2010.05.17/outbox.cif.g08.bks.cpg/sg12_68_cif.got.tgz:135274.got - 2010.06.03 13:09:07.
