data_PCOD9192750
_publ_section_title
;
Structure prediction by ZEFSAII (Michael W. Deem and Ramdas Pophale) SiO2 
 PCOD9192750
Probable space group: C 2/M
;
_chemical_formula_sum "Si O2"
_cell_formula_units_Z 56
_cell_length_a 23.375654
_cell_length_b 7.575529
_cell_length_c 20.169181
_cell_angle_alpha 90.000000
_cell_angle_beta 60.424454
_cell_angle_gamma 90.000000
_cell_volume 3106.256381
_symmetry_space_group_name_H-M "C 2/M"
_symmetry_group_IT_number 12
_symmetry_cell_setting 'monoclinic'
loop_
_space_group_symop_operation_xyz
x,y,z
-x,y,-z
-x,-y,-z
x,-y,z
1/2+x,1/2+y,z
1/2-x,1/2+y,-z
1/2-x,1/2-y,-z
1/2+x,1/2-y,z
loop_
_atom_site_type_symbol
_atom_site_label
_atom_site_fract_x
_atom_site_fract_y
_atom_site_fract_z
Si Si1 0.821802 0.289646 0.685070
Si Si2 0.455039 0.708471 0.085355
Si Si3 0.010098 0.000000 0.603510
Si Si4 0.109552 0.000000 0.434308
Si Si5 0.935575 0.712760 0.876694
Si Si6 0.308298 0.295075 0.170387
Si Si7 0.695520 0.789850 0.976313
Si Si8 0.439547 0.791015 0.721885
O O1 0.820384 0.500000 0.671476
O O2 0.750764 0.224463 0.751006
O O3 0.873354 0.266039 0.716481
O O4 0.848797 0.172553 0.609436
O O5 0.446963 0.500000 0.075518
O O6 0.496892 0.729679 0.127974
O O7 0.381570 0.784203 0.132308
O O8 0.500000 0.783655 0.000000
O O9 0.078441 0.000000 0.525041
O O10 0.952557 0.000000 0.580726
O O11 0.995489 0.827978 0.656128
O O12 0.933109 0.500000 0.879274
O O13 0.929133 0.765433 0.803868
O O14 0.874530 0.777341 0.956106
O O15 0.313631 0.500000 0.186854
O O16 0.288300 0.286963 0.104645
O O17 0.691144 0.000000 0.970549
O O18 0.750000 0.750000 0.000000
O O19 0.455168 0.000000 0.711518
#
# Coordination Sequence:
#
# PCOD9192750 Si02
#       8
#     8   8   4   4   8   8   8   8
#     4   9  18  33  52  74 109 142 167 213 260 310
#     4  10  20  34  51  71  97 134 176 224 264 299
#     4   9  18  32  52  82 109 136 162 212 254 321
#     4   9  18  32  52  82 111 130 174 200 256 331
#     4  10  21  35  49  70 102 135 176 219 259 308
#     4  10  20  35  50  70 102 134 176 218 257 305
#     4  11  22  33  48  70  98 137 177 214 257 304
#     4   9  18  33  51  75 107 140 171 209 262 314
#
# _framework density 18.028131999999999
#
# number of rings (size 3 to 8) (size 9 to 14) (size 15 to 20)
#    0.000    2.286    1.429    1.286    2.000    4.286 
#    2.571    2.857    0.000    0.000    0.000    1.000 
#    0.000    0.000    0.000    0.000    0.000    0.000 
#
# Total GULP energy -156196.897298 kJ/mol
# GULP energy per Si atom -5578.460618 kJ/mol
# Density = 1.798710 g / cm^3
# Si number density = 18.028132 Si / 1000 Ang^3
#
#
#
# Elastic Constant Matrix: (Units=GPa)
#
#
# Indices 1 2 3 4 5 6 
#
# 1 52.9968 7.5756 15.3100 -0.0007 -23.5795 -0.0004
# 2 7.5756 60.6148 38.3553 -0.0019 -11.4391 -0.0028
# 3 15.3100 38.3553 122.7661 0.0006 -33.4671 0.0001
# 4 -0.0007 -0.0019 0.0006 16.1079 0.0001 4.3547
# 5 -23.5795 -11.4391 -33.4671 0.0001 22.8361 -0.0003
# 6 -0.0004 -0.0028 0.0001 4.3547 -0.0003 9.5702
#
#
#
# Elastic Compliance Matrix: (Units=1/GPa)
#
#
# Indices 1 2 3 4 5 6 
#
# 1 0.042401 -0.001223 0.011428 0.000000 0.059917 0.000003
# 2 -0.001223 0.020628 -0.006361 0.000001 -0.000252 0.000006
# 3 0.011428 -0.006361 0.018412 -0.000001 0.035597 0.000000
# 4 0.000000 0.000001 -0.000001 0.070790 -0.000002 -0.032211
# 5 0.059917 -0.000252 0.035597 -0.000002 0.157701 0.000007
# 6 0.000003 0.000006 0.000000 -0.032211 0.000007 0.119148
#
#
# Mechanical properties :
#
#
# Convention : Reuss Voigt Hill
#
# Bulk Modulus (GPa) = 11.21973 39.87328 25.54651
# Shear Modulus (GPa) = 11.08401 21.37861 16.23131
#
# Velocity S-wave (km/s) = 2.48224 3.44735 3.00381
# Velocity P-wave (km/s) = 3.80162 6.16530 5.12168
#
# Compressibility (1/GPa) = 0.08912869
#
# Stress axis : x y z
#
# Youngs Moduli (GPa) = 23.58441 48.47798 54.31305
#
# Poissons Ratio (x) = 0.05931 -0.62071
# Poissons Ratio (y) = 0.02885 0.34548
# Poissons Ratio (z) = -0.26953 0.30837
#
# Static dielectric constant tensor:
#      x y z
#    x 1.610020 0.000000 -0.026860 
#    y 0.000000 1.581190 0.000000 
#    z -0.026860 0.000000 1.613700 
# 
# From -- ./inp_files/323594.got.cif
#   From: 2010.05.17/outbox.cif.g08.bks.cpg/sg12_162_cif.got.tgz:323594.got - 2010.06.03 13:09:07.
