data_PCOD9192450
_publ_section_title
;
Structure prediction by ZEFSAII (Michael W. Deem and Ramdas Pophale) SiO2 
 PCOD9192450
Probable space group: C 2/M
;
_chemical_formula_sum "Si O2"
_cell_formula_units_Z 64
_cell_length_a 18.405438
_cell_length_b 14.510224
_cell_length_c 25.040303
_cell_angle_alpha 90.000000
_cell_angle_beta 151.143895
_cell_angle_gamma 90.000000
_cell_volume 3227.435365
_symmetry_space_group_name_H-M "C 2/M"
_symmetry_group_IT_number 12
_symmetry_cell_setting 'monoclinic'
loop_
_space_group_symop_operation_xyz
x,y,z
-x,y,-z
-x,-y,-z
x,-y,z
1/2+x,1/2+y,z
1/2-x,1/2+y,-z
1/2-x,1/2-y,-z
1/2+x,1/2-y,z
loop_
_atom_site_type_symbol
_atom_site_label
_atom_site_fract_x
_atom_site_fract_y
_atom_site_fract_z
Si Si1 0.081895 0.889462 0.110487
Si Si2 0.575018 0.733378 0.491060
Si Si3 0.656358 0.734454 0.993698
Si Si4 0.179382 0.890040 0.719452
Si Si5 0.443502 0.893145 0.339546
Si Si6 0.158458 0.396981 0.072219
Si Si7 0.601874 0.897217 0.808678
Si Si8 0.680225 0.893125 0.302500
O O1 0.262844 0.870479 0.227485
O O2 0.996206 0.826307 0.099404
O O3 0.064821 0.000000 0.108832
O O4 0.000000 0.870070 0.000000
O O5 0.500000 0.752437 0.500000
O O6 0.473925 0.657336 0.396251
O O7 0.551421 0.825574 0.441829
O O8 0.730177 0.682816 0.605488
O O9 0.750000 0.750000 0.000000
O O10 0.637047 0.832612 0.008437
O O11 0.770292 0.676638 0.103651
O O12 0.233875 0.857051 0.812279
O O13 0.292781 0.873330 0.742696
O O14 0.165137 0.000000 0.714344
O O15 0.481648 0.886324 0.301310
O O16 0.460050 0.000000 0.366585
O O17 0.207753 0.500000 0.088636
O O18 0.000000 0.404114 0.000000
O O19 0.489084 0.890899 0.785653
O O20 0.670204 0.000000 0.851475
O O21 0.734693 0.000000 0.346270
#
# Coordination Sequence:
#
# PCOD9192450 Si02
#       8
#     8   8   8   8   8   8   8   8
#     4  10  20  39  64  86 110 150 201 245 283 335
#     4  10  20  33  56  83 111 144 190 244 291 350
#     4  12  25  35  57  87 121 155 192 239 294 349
#     4   9  18  34  57  81 108 148 192 234 281 342
#     4  10  21  37  59  83 110 148 195 244 289 342
#     4  10  23  39  56  82 117 157 193 230 284 351
#     4  10  21  38  57  83 115 150 196 245 293 344
#     4   9  19  35  57  84 116 148 188 242 296 347
#
# _framework density 19.829986999999999
#
# number of rings (size 3 to 8) (size 9 to 14) (size 15 to 20)
#    0.000    2.000    1.250    1.875    3.500    4.250 
#    0.000    0.000    0.000    0.750    0.000    0.000 
#    0.000    0.000    0.000    0.000    0.000    0.000 
#
# Total GULP energy -178500.310604 kJ/mol
# GULP energy per Si atom -5578.134706 kJ/mol
# Density = 1.978485 g / cm^3
# Si number density = 19.829987 Si / 1000 Ang^3
#
#
#
# Elastic Constant Matrix: (Units=GPa)
#
#
# Indices 1 2 3 4 5 6 
#
# 1 71.9770 38.5542 -1.0883 0.0018 0.4068 -0.0013
# 2 38.5542 87.2373 33.9412 0.0011 -5.0978 -0.0008
# 3 -1.0883 33.9412 36.5934 0.0056 -11.3597 -0.0040
# 4 0.0018 0.0011 0.0056 -6.9699 0.0013 51.4193
# 5 0.4068 -5.0978 -11.3597 0.0013 16.4048 -0.0015
# 6 -0.0013 -0.0008 -0.0040 51.4193 -0.0015 -66.0183
#
#
#
# Elastic Compliance Matrix: (Units=1/GPa)
#
#
# Indices 1 2 3 4 5 6 
#
# 1 0.023415 -0.017316 0.018989 -0.000002 0.007187 -0.000003
# 2 -0.017316 0.031511 -0.033845 0.000003 -0.013215 0.000004
# 3 0.018989 -0.033845 0.071172 -0.000005 0.038296 -0.000009
# 4 -0.000002 0.000003 -0.000005 0.030231 -0.000003 0.023546
# 5 0.007187 -0.013215 0.038296 -0.000003 0.083192 -0.000007
# 6 -0.000003 0.000004 -0.000009 0.023546 -0.000007 0.003192
#
#
# Mechanical properties :
#
#
# Convention : Reuss Voigt Hill
#
# Bulk Modulus (GPa) = 16.19327 37.62466 26.90896
# Shear Modulus (GPa) = 15.26054 -3.02332 6.11861
#
# Velocity S-wave (km/s) = 2.77712 -1.23610 1.75847
# Velocity P-wave (km/s) = 4.29732 4.12038 4.20978
#
# Compressibility (1/GPa) = 0.06175405
#
# Stress axis : x y z
#
# Youngs Moduli (GPa) = 42.70753 31.73446 14.05042
#
# Poissons Ratio (x) = 0.54952 -0.26680
# Poissons Ratio (y) = 0.73953 0.47554
# Poissons Ratio (z) = -0.81095 1.07405
#
# Static dielectric constant tensor:
#      x y z
#    x 1.699760 0.000000 -0.017860 
#    y 0.000000 1.740470 0.000000 
#    z -0.017860 0.000000 1.749870 
# 
# From -- ./inp_files/183746.got.cif
#   From: 2010.05.17/outbox.cif.g08.bks.cpg/sg12_92_cif.got.tgz:183746.got - 2010.06.03 13:09:07.
