data_PCOD9192959
_publ_section_title
;
Structure prediction by ZEFSAII (Michael W. Deem and Ramdas Pophale) SiO2 
 PCOD9192959
Probable space group: C 2/M
;
_chemical_formula_sum "Si O2"
_cell_formula_units_Z 58
_cell_length_a 22.386299
_cell_length_b 9.770025
_cell_length_c 18.244023
_cell_angle_alpha 90.000000
_cell_angle_beta 39.631679
_cell_angle_gamma 90.000000
_cell_volume 2545.171700
_symmetry_space_group_name_H-M "C 2/M"
_symmetry_group_IT_number 12
_symmetry_cell_setting 'monoclinic'
loop_
_space_group_symop_operation_xyz
x,y,z
-x,y,-z
-x,-y,-z
x,-y,z
1/2+x,1/2+y,z
1/2-x,1/2+y,-z
1/2-x,1/2-y,-z
1/2+x,1/2-y,z
loop_
_atom_site_type_symbol
_atom_site_label
_atom_site_fract_x
_atom_site_fract_y
_atom_site_fract_z
Si Si1 0.000000 0.000000 0.000000
Si Si2 0.821298 0.653501 0.799015
Si Si3 0.947431 0.257644 0.953084
Si Si4 0.862517 0.654619 0.294810
Si Si5 0.090373 0.156741 0.618858
Si Si6 0.032257 0.345172 0.548660
Si Si7 0.128237 0.155438 0.122458
Si Si8 0.213803 0.344376 0.790917
O O1 0.010276 0.120189 0.052619
O O2 0.781821 0.500000 0.839699
O O3 0.932545 0.640034 0.682534
O O4 0.816909 0.743444 0.876064
O O5 0.778104 0.735225 0.771449
O O6 0.878839 0.210531 0.953065
O O7 0.031160 0.340696 0.837030
O O8 0.886323 0.332363 0.072733
O O9 0.843730 0.500000 0.338273
O O10 0.857373 0.762882 0.365272
O O11 0.801268 0.685238 0.280530
O O12 0.092628 0.244383 0.541796
O O13 0.980881 0.151936 0.747293
O O14 0.121374 0.000000 0.580087
O O15 0.072308 0.500000 0.501621
O O16 0.000000 0.290379 0.500000
O O17 0.163574 0.000000 0.094351
O O18 0.248685 0.500000 0.766345
#
# Coordination Sequence:
#
# PCOD9192959 Si02
#       8
#     2   8   8   8   8   8   8   8
#     4  12  20  32  50  84 104 132 182 240 266 304
#     4  10  22  36  54  77 102 135 173 211 260 315
#     4  11  21  32  54  74 105 138 183 225 266 298
#     4  10  20  34  52  74 103 140 182 218 258 304
#     4   9  18  30  52  82 108 133 167 214 260 304
#     4   9  18  36  60  84 108 133 164 206 260 321
#     4   9  18  33  50  71 101 137 171 213 260 303
#     4  11  23  36  51  72 105 143 180 221 263 307
#
# _framework density 22.788246999999998
#
# number of rings (size 3 to 8) (size 9 to 14) (size 15 to 20)
#    0.000    2.069    2.069    1.241    1.931    6.897 
#    0.000    0.000    0.000    0.828    0.000    0.000 
#    0.000    0.000    0.000    0.000    0.000    0.000 
#
# Total GULP energy -161853.066713 kJ/mol
# GULP energy per Si atom -5581.140231 kJ/mol
# Density = 2.273638 g / cm^3
# Si number density = 22.788247 Si / 1000 Ang^3
#
#
#
# Elastic Constant Matrix: (Units=GPa)
#
#
# Indices 1 2 3 4 5 6 
#
# 1 117.4753 109.9014 27.9644 0.0000 44.5152 -0.0001
# 2 109.9014 195.9679 28.5342 0.0000 44.6013 -0.0002
# 3 27.9644 28.5342 54.8411 0.0000 10.3975 0.0000
# 4 0.0000 0.0000 0.0000 7.2590 0.0000 6.0648
# 5 44.5152 44.6013 10.3975 0.0000 54.9748 0.0000
# 6 -0.0001 -0.0002 0.0000 6.0648 0.0000 13.4200
#
#
#
# Elastic Compliance Matrix: (Units=1/GPa)
#
#
# Indices 1 2 3 4 5 6 
#
# 1 0.022093 -0.009636 -0.004504 0.000000 -0.009220 0.000000
# 2 -0.009636 0.010775 -0.000534 0.000000 -0.000839 0.000000
# 3 -0.004504 -0.000534 0.020781 0.000000 0.000150 0.000000
# 4 0.000000 0.000000 0.000000 0.221328 0.000000 -0.100023
# 5 -0.009220 -0.000839 0.000150 0.000000 0.026308 0.000000
# 6 0.000000 0.000000 0.000000 -0.100023 0.000000 0.119719
#
#
# Mechanical properties :
#
#
# Convention : Reuss Voigt Hill
#
# Bulk Modulus (GPa) = 41.14994 77.89825 59.52410
# Shear Modulus (GPa) = 10.90629 28.58972 19.74801
#
# Velocity S-wave (km/s) = 2.19005 3.54585 2.94698
# Velocity P-wave (km/s) = 4.94892 7.14295 6.14466
#
# Compressibility (1/GPa) = 0.02430137
#
# Stress axis : x y z
#
# Youngs Moduli (GPa) = 45.26359 92.80434 48.12190
#
# Poissons Ratio (x) = 0.89424 0.21674
# Poissons Ratio (y) = 0.43615 0.02570
# Poissons Ratio (z) = 0.20386 0.04956
#
# Static dielectric constant tensor:
#      x y z
#    x 1.830740 0.000000 -0.040680 
#    y 0.000000 1.805840 0.000000 
#    z -0.040680 0.000000 1.915370 
# 
# From -- ./inp_files/282130.got.cif
#   From: 2010.05.17/outbox.cif.g08.bks.cpg/sg12_142_cif.got.tgz:282130.got - 2010.06.03 13:09:07.
