data_PCOD9192063
_publ_section_title
;
Structure prediction by ZEFSAII (Michael W. Deem and Ramdas Pophale) SiO2 
 PCOD9192063
Probable space group: C 2/M
;
_chemical_formula_sum "Si O2"
_cell_formula_units_Z 46
_cell_length_a 15.997237
_cell_length_b 11.406566
_cell_length_c 10.643676
_cell_angle_alpha 90.000000
_cell_angle_beta 85.571563
_cell_angle_gamma 90.000000
_cell_volume 1936.390930
_symmetry_space_group_name_H-M "C 2/M"
_symmetry_group_IT_number 12
_symmetry_cell_setting 'monoclinic'
loop_
_space_group_symop_operation_xyz
x,y,z
-x,y,-z
-x,-y,-z
x,-y,z
1/2+x,1/2+y,z
1/2-x,1/2+y,-z
1/2-x,1/2-y,-z
1/2+x,1/2-y,z
loop_
_atom_site_type_symbol
_atom_site_label
_atom_site_fract_x
_atom_site_fract_y
_atom_site_fract_z
Si Si1 0.049152 0.364085 0.214859
Si Si2 0.636826 0.308395 0.394107
Si Si3 0.666628 0.626674 0.912799
Si Si4 0.500000 0.286580 0.000000
Si Si5 0.257941 0.127413 0.170710
Si Si6 0.000000 0.000000 0.500000
Si Si7 0.085797 0.630677 0.575611
O O1 0.071255 0.500000 0.206237
O O2 0.108840 0.292147 0.299156
O O3 0.954953 0.354665 0.282788
O O4 0.051395 0.299873 0.083067
O O5 0.710838 0.369911 0.309923
O O6 0.561728 0.398053 0.431345
O O7 0.645472 0.233989 0.521798
O O8 0.694606 0.500000 0.855672
O O9 0.566261 0.634830 0.919665
O O10 0.698099 0.746676 0.847717
O O11 0.696452 0.626405 0.055475
O O12 0.303511 0.000000 0.156378
O O13 0.121261 0.500000 0.557002
O O14 0.000000 0.632568 0.500000
#
# Coordination Sequence:
#
# PCOD9192063 Si02
#       7
#     8   8   8   4   8   2   8
#     4  10  20  33  52  84 121 154 195 246 303 359
#     4  11  18  33  55  89 119 153 192 255 303 355
#     4  10  23  41  58  85 118 165 205 248 305 370
#     4  12  22  38  60  90 119 161 204 254 299 364
#     4  10  21  38  60  85 122 157 200 252 307 360
#     4  12  20  28  58  94 124 146 208 254 304 358
#     4   8  15  29  48  75 109 143 186 240 296 344
#
# _framework density 23.755534000000001
#
# number of rings (size 3 to 8) (size 9 to 14) (size 15 to 20)
#    0.000    1.913    5.217    2.087    0.000    2.783 
#    1.565    0.000    0.000    1.043    0.000    0.000 
#    0.000    0.000    0.000    0.000    0.000    0.000 
#
# Total GULP energy -128100.361716 kJ/mol
# GULP energy per Si atom -5569.580944 kJ/mol
# Density = 2.370147 g / cm^3
# Si number density = 23.755534 Si / 1000 Ang^3
#
#
#
# Elastic Constant Matrix: (Units=GPa)
#
#
# Indices 1 2 3 4 5 6 
#
# 1 44.5678 40.6538 6.5503 0.0000 -8.7194 0.0000
# 2 40.6538 233.8883 31.1211 0.0000 -19.1424 0.0000
# 3 6.5503 31.1211 42.1364 0.0000 -15.6436 0.0000
# 4 0.0000 0.0000 0.0000 21.9914 0.0000 -9.1966
# 5 -8.7194 -19.1424 -15.6436 0.0000 35.8650 0.0000
# 6 0.0000 0.0000 0.0000 -9.1966 0.0000 17.7981
#
#
#
# Elastic Compliance Matrix: (Units=1/GPa)
#
#
# Indices 1 2 3 4 5 6 
#
# 1 0.027301 -0.004471 0.000760 0.000000 0.004582 0.000000
# 2 -0.004471 0.005517 -0.003210 0.000000 0.000458 0.000000
# 3 0.000760 -0.003210 0.030329 0.000000 0.011700 0.000000
# 4 0.000000 0.000000 0.000000 0.058007 0.000000 0.029973
# 5 0.004582 0.000458 0.011700 0.000000 0.034344 0.000000
# 6 0.000000 0.000000 0.000000 0.029973 0.000000 0.071673
#
#
# Mechanical properties :
#
#
# Convention : Reuss Voigt Hill
#
# Bulk Modulus (GPa) = 20.28234 53.02701 36.65467
# Shear Modulus (GPa) = 19.42122 31.28207 25.35165
#
# Velocity S-wave (km/s) = 2.86238 3.63276 3.27033
# Velocity P-wave (km/s) = 4.41370 6.32189 5.45193
#
# Compressibility (1/GPa) = 0.04930397
#
# Stress axis : x y z
#
# Youngs Moduli (GPa) = 36.62821 181.24681 32.97167
#
# Poissons Ratio (x) = 0.81044 -0.02505
# Poissons Ratio (y) = 0.16378 0.10584
# Poissons Ratio (z) = -0.02782 0.58180
#
# Static dielectric constant tensor:
#      x y z
#    x 1.975050 0.000000 -0.003170 
#    y 0.000000 1.893010 0.000000 
#    z -0.003170 0.000000 1.973990 
# 
# From -- ./inp_files/153611.got.cif
#   From: 2010.05.17/outbox.cif.g08.bks.cpg/sg12_77_cif.got.tgz:153611.got - 2010.06.03 13:09:07.
