data_PCOD9192318
_publ_section_title
;
Structure prediction by ZEFSAII (Michael W. Deem and Ramdas Pophale) SiO2 
 PCOD9192318
Probable space group: C 2/M
;
_chemical_formula_sum "Si O2"
_cell_formula_units_Z 56
_cell_length_a 9.212021
_cell_length_b 27.003329
_cell_length_c 13.742378
_cell_angle_alpha 90.000000
_cell_angle_beta 117.628418
_cell_angle_gamma 90.000000
_cell_volume 3028.690798
_symmetry_space_group_name_H-M "C 2/M"
_symmetry_group_IT_number 12
_symmetry_cell_setting 'monoclinic'
loop_
_space_group_symop_operation_xyz
x,y,z
-x,y,-z
-x,-y,-z
x,-y,z
1/2+x,1/2+y,z
1/2-x,1/2+y,-z
1/2-x,1/2-y,-z
1/2+x,1/2-y,z
loop_
_atom_site_type_symbol
_atom_site_label
_atom_site_fract_x
_atom_site_fract_y
_atom_site_fract_z
Si Si1 0.294431 0.056540 0.224714
Si Si2 0.473617 0.711832 0.650933
Si Si3 0.726318 0.191979 0.399092
Si Si4 0.563566 0.444755 0.410941
Si Si5 0.833428 0.943973 0.013699
Si Si6 0.910024 0.404724 0.567298
Si Si7 0.001716 0.879801 0.783005
O O1 0.462582 0.062353 0.333970
O O2 0.166629 0.096280 0.228128
O O3 0.232639 0.000000 0.218865
O O4 0.303937 0.064473 0.111287
O O5 0.420481 0.768363 0.651868
O O6 0.327146 0.694398 0.532752
O O7 0.641183 0.705116 0.642405
O O8 0.484367 0.677781 0.750559
O O9 0.653879 0.137303 0.379726
O O10 0.500000 0.439969 0.500000
O O11 0.531529 0.500000 0.364897
O O12 0.756767 0.434742 0.477561
O O13 0.478190 0.405559 0.315322
O O14 0.860789 0.901194 0.101424
O O15 0.816171 0.000000 0.049076
O O16 0.000000 0.944002 0.000000
O O17 0.000000 0.382290 0.500000
#
# Coordination Sequence:
#
# PCOD9192318 Si02
#       7
#     8   8   8   8   8   8   8
#     4  10  20  33  54  85 117 147 186 230 273 328
#     4  10  21  35  56  77 109 141 189 227 281 326
#     4  10  22  36  53  79 111 144 180 234 275 339
#     4  11  22  33  48  75 113 150 181 220 274 336
#     4   8  16  31  52  80 110 144 187 231 270 321
#     4  12  22  33  54  81 116 147 182 222 287 334
#     4  11  18  32  55  79 108 146 186 228 278 330
#
# _framework density 18.489836
#
# number of rings (size 3 to 8) (size 9 to 14) (size 15 to 20)
#    0.000    1.714    2.857    3.429    6.000    0.571 
#    0.000    0.000    0.000    4.286    0.000   10.000 
#    0.000    0.000    0.000    0.000    0.000    0.000 
#
# Total GULP energy -156112.804731 kJ/mol
# GULP energy per Si atom -5575.457312 kJ/mol
# Density = 1.844775 g / cm^3
# Si number density = 18.489836 Si / 1000 Ang^3
#
#
#
# Elastic Constant Matrix: (Units=GPa)
#
#
# Indices 1 2 3 4 5 6 
#
# 1 47.2973 3.4485 7.5076 0.0000 -2.1853 0.0000
# 2 3.4485 58.8274 21.3700 0.0000 -4.8798 0.0000
# 3 7.5076 21.3700 87.2970 0.0000 5.0348 0.0000
# 4 0.0000 0.0000 0.0000 25.2770 0.0000 0.0818
# 5 -2.1853 -4.8798 5.0348 0.0000 9.0600 0.0000
# 6 0.0000 0.0000 0.0000 0.0818 0.0000 16.6103
#
#
#
# Elastic Compliance Matrix: (Units=1/GPa)
#
#
# Indices 1 2 3 4 5 6 
#
# 1 0.021801 0.000095 -0.002277 0.000000 0.006575 0.000000
# 2 0.000095 0.020270 -0.005787 0.000000 0.014156 0.000000
# 3 -0.002277 -0.005787 0.013719 0.000000 -0.011290 0.000000
# 4 0.000000 0.000000 0.000000 0.039562 0.000000 -0.000195
# 5 0.006575 0.014156 -0.011290 0.000000 0.125860 0.000000
# 6 0.000000 0.000000 0.000000 -0.000195 0.000000 0.060205
#
#
# Mechanical properties :
#
#
# Convention : Reuss Voigt Hill
#
# Bulk Modulus (GPa) = 25.09332 28.67485 26.88409
# Shear Modulus (GPa) = 16.09587 20.92916 18.51252
#
# Velocity S-wave (km/s) = 2.95367 3.36806 3.16765
# Velocity P-wave (km/s) = 5.02325 5.53780 5.28679
#
# Compressibility (1/GPa) = 0.03985124
#
# Stress axis : x y z
#
# Youngs Moduli (GPa) = 45.86899 49.33489 72.89343
#
# Poissons Ratio (x) = -0.00467 0.16600
# Poissons Ratio (y) = -0.00434 0.42180
# Poissons Ratio (z) = 0.10446 0.28548
#
# Static dielectric constant tensor:
#      x y z
#    x 1.666440 0.000000 -0.012240 
#    y 0.000000 1.640900 0.000000 
#    z -0.012240 0.000000 1.665230 
# 
# From -- ./inp_files/124331.got.cif
#   From: 2010.05.17/outbox.cif.g08.bks.cpg/sg12_63_cif.got.tgz:124331.got - 2010.06.03 13:09:07.
