data_PCOD9192984
_publ_section_title
;
Structure prediction by ZEFSAII (Michael W. Deem and Ramdas Pophale) SiO2 
 PCOD9192984
Probable space group: C 2/M
;
_chemical_formula_sum "Si O2"
_cell_formula_units_Z 44
_cell_length_a 8.229512
_cell_length_b 12.352022
_cell_length_c 28.335385
_cell_angle_alpha 90.000000
_cell_angle_beta 52.851148
_cell_angle_gamma 90.000000
_cell_volume 2295.817458
_symmetry_space_group_name_H-M "C 2/M"
_symmetry_group_IT_number 12
_symmetry_cell_setting 'monoclinic'
loop_
_space_group_symop_operation_xyz
x,y,z
-x,y,-z
-x,-y,-z
x,-y,z
1/2+x,1/2+y,z
1/2-x,1/2+y,-z
1/2-x,1/2-y,-z
1/2+x,1/2-y,z
loop_
_atom_site_type_symbol
_atom_site_label
_atom_site_fract_x
_atom_site_fract_y
_atom_site_fract_z
Si Si1 0.049799 0.209089 0.362678
Si Si2 0.897478 0.122725 0.292056
Si Si3 0.756847 0.878786 0.845968
Si Si4 0.201402 0.123037 0.433435
Si Si5 0.420583 0.690232 0.913664
Si Si6 0.000000 0.181636 0.000000
O O1 0.225241 0.288656 0.312318
O O2 0.139519 0.139585 0.389645
O O3 0.962137 0.139954 0.335031
O O4 0.873224 0.288068 0.413399
O O5 0.092314 0.138640 0.224354
O O6 0.823175 0.000000 0.297733
O O7 0.585094 0.786417 0.878000
O O8 0.892137 0.872815 0.869947
O O9 0.666731 0.000000 0.858524
O O10 0.000000 0.139984 0.500000
O O11 0.273571 0.000000 0.428837
O O12 0.199722 0.744040 0.960441
O O13 0.477386 0.628194 0.952279
#
# Coordination Sequence:
#
# PCOD9192984 Si02
#       6
#     8   8   8   8   8   4
#     4  10  20  34  53  75 100 134 168 204 250 296
#     4  10  20  34  52  75 101 130 167 207 247 295
#     4  10  20  34  53  75 100 132 166 203 250 296
#     4  10  20  34  52  75 103 133 167 207 248 294
#     4   9  17  34  53  73 102 131 163 206 246 292
#     4   8  16  32  52  72 102 132 160 206 248 286
#
# _framework density 19.165285000000001
#
# number of rings (size 3 to 8) (size 9 to 14) (size 15 to 20)
#    0.000    2.364    0.000    2.727    0.000    0.000 
#    0.000   20.909    0.000   24.000    0.000    0.000 
#    0.000    0.000    0.000    0.000    0.000    0.000 
#
# Total GULP energy -122633.340103 kJ/mol
# GULP energy per Si atom -5574.242732 kJ/mol
# Density = 1.912166 g / cm^3
# Si number density = 19.165285 Si / 1000 Ang^3
#
#
#
# Elastic Constant Matrix: (Units=GPa)
#
#
# Indices 1 2 3 4 5 6 
#
# 1 38.7148 2.5882 -3.1991 0.0000 -2.8112 0.0000
# 2 2.5882 73.3839 30.1500 0.0000 -12.6781 0.0000
# 3 -3.1991 30.1500 70.9812 0.0003 -7.1610 -0.0001
# 4 0.0000 0.0000 0.0003 -104.4412 -0.0001 31.5240
# 5 -2.8112 -12.6781 -7.1610 -0.0001 25.2055 0.0000
# 6 0.0000 0.0000 -0.0001 31.5240 0.0000 9.3548
#
#
#
# Elastic Compliance Matrix: (Units=1/GPa)
#
#
# Indices 1 2 3 4 5 6 
#
# 1 0.026288 -0.001256 0.002008 0.000000 0.002871 0.000000
# 2 -0.001256 0.017670 -0.006877 0.000000 0.006794 0.000000
# 3 0.002008 -0.006877 0.017268 0.000000 0.001671 0.000000
# 4 0.000000 0.000000 0.000000 -0.004747 0.000000 0.015996
# 5 0.002871 0.006794 0.001671 0.000000 0.043886 0.000000
# 6 0.000000 0.000000 0.000000 0.015996 0.000000 0.052995
#
#
# Mechanical properties :
#
#
# Convention : Reuss Voigt Hill
#
# Bulk Modulus (GPa) = 20.41783 26.90646 23.66215
# Shear Modulus (GPa) = 27.48202 -3.74013 11.87094
#
# Velocity S-wave (km/s) = 3.79086 -1.39848 2.49147
# Velocity P-wave (km/s) = 5.46237 3.38555 4.54420
#
# Compressibility (1/GPa) = 0.04897680
#
# Stress axis : x y z
#
# Youngs Moduli (GPa) = 38.03983 56.59163 57.90942
#
# Poissons Ratio (x) = 0.07109 -0.11628
# Poissons Ratio (y) = 0.04779 0.39824
# Poissons Ratio (z) = -0.07638 0.38917
#
# Static dielectric constant tensor:
#      x y z
#    x 1.662420 0.000000 0.025000 
#    y 0.000000 1.649920 0.000000 
#    z 0.025000 0.000000 1.661700 
# 
# From -- ./inp_files/299363.got.cif
#   From: 2010.05.17/outbox.cif.g08.bks.cpg/sg12_150_cif.got.tgz:299363.got - 2010.06.03 13:09:07.
