data_PCOD9192803
_publ_section_title
;
Structure prediction by ZEFSAII (Michael W. Deem and Ramdas Pophale) SiO2 
 PCOD9192803
Probable space group: C 2/M
;
_chemical_formula_sum "Si O2"
_cell_formula_units_Z 64
_cell_length_a 14.509958
_cell_length_b 8.708254
_cell_length_c 29.026281
_cell_angle_alpha 90.000000
_cell_angle_beta 91.966960
_cell_angle_gamma 90.000000
_cell_volume 3665.495332
_symmetry_space_group_name_H-M "C 2/M"
_symmetry_group_IT_number 12
_symmetry_cell_setting 'monoclinic'
loop_
_space_group_symop_operation_xyz
x,y,z
-x,y,-z
-x,-y,-z
x,-y,z
1/2+x,1/2+y,z
1/2-x,1/2+y,-z
1/2-x,1/2-y,-z
1/2+x,1/2-y,z
loop_
_atom_site_type_symbol
_atom_site_label
_atom_site_fract_x
_atom_site_fract_y
_atom_site_fract_z
Si Si1 0.096213 0.184752 0.872446
Si Si2 0.750400 0.815179 0.697350
Si Si3 0.389480 0.185057 0.629091
Si Si4 0.761163 0.183906 0.449388
Si Si5 0.760898 0.314999 0.196574
Si Si6 0.891275 0.684811 0.873551
Si Si7 0.751352 0.184196 0.050980
Si Si8 0.400279 0.814367 0.380621
O O1 0.151409 0.248795 0.829334
O O2 0.158659 0.229895 0.917760
O O3 0.994053 0.250982 0.873969
O O4 0.093883 0.000000 0.870140
O O5 0.840473 0.749605 0.673720
O O6 0.740066 0.767420 0.750037
O O7 0.663376 0.769245 0.664049
O O8 0.755374 0.000000 0.696547
O O9 0.324956 0.230191 0.584802
O O10 0.494530 0.235775 0.624215
O O11 0.388872 0.000000 0.631713
O O12 0.750000 0.250000 0.500000
O O13 0.851475 0.246299 0.424849
O O14 0.764115 0.000000 0.451237
O O15 0.762174 0.500000 0.194058
O O16 0.670979 0.251650 0.168733
O O17 0.891832 0.500000 0.870566
O O18 0.837024 0.729079 0.919540
O O19 0.751611 0.000000 0.048159
O O20 0.750000 0.250000 0.000000
O O21 0.398835 0.000000 0.383942
#
# Coordination Sequence:
#
# PCOD9192803 Si02
#       8
#     8   8   8   8   8   8   8   8
#     4  10  21  37  55  79 108 140 177 219 265 314
#     4   9  19  34  53  77 104 132 167 208 254 303
#     4   9  19  34  53  75 101 134 171 208 252 303
#     4  10  20  34  51  74 101 132 169 209 253 302
#     4  10  20  35  54  79 109 141 175 215 261 314
#     4  10  21  37  55  78 106 140 179 219 262 311
#     4   9  20  36  54  77 106 138 175 216 262 313
#     4   9  18  35  54  73 100 133 166 206 251 300
#
# _framework density 17.460124
#
# number of rings (size 3 to 8) (size 9 to 14) (size 15 to 20)
#    0.000    2.500    0.000    2.250    0.000    7.000 
#    0.000    6.250    0.000    0.000    0.000    0.000 
#    0.000    0.000    0.000    0.000    0.000    0.000 
#
# Total GULP energy -178543.143935 kJ/mol
# GULP energy per Si atom -5579.473248 kJ/mol
# Density = 1.742038 g / cm^3
# Si number density = 17.460124 Si / 1000 Ang^3
#
#
#
# Elastic Constant Matrix: (Units=GPa)
#
#
# Indices 1 2 3 4 5 6 
#
# 1 177.3718 39.7673 83.0115 0.0000 -10.4995 0.0000
# 2 39.7673 35.9629 39.3408 0.0000 -4.0373 0.0000
# 3 83.0115 39.3408 163.2619 0.0000 -21.8265 0.0000
# 4 0.0000 0.0000 0.0000 30.9611 0.0000 -5.0728
# 5 -10.4995 -4.0373 -21.8265 0.0000 9.5044 0.0000
# 6 0.0000 0.0000 0.0000 -5.0728 0.0000 28.4555
#
#
#
# Elastic Compliance Matrix: (Units=1/GPa)
#
#
# Indices 1 2 3 4 5 6 
#
# 1 0.008306 -0.006217 -0.002672 0.000000 0.000399 0.000000
# 2 -0.006217 0.042740 -0.008123 0.000000 -0.007366 0.000000
# 3 -0.002672 -0.008123 0.012388 0.000000 0.022048 0.000000
# 4 0.000000 0.000000 0.000000 0.033270 0.000000 0.005931
# 5 0.000399 -0.007366 0.022048 0.000000 0.153159 0.000000
# 6 0.000000 0.000000 0.000000 0.005931 0.000000 0.036200
#
#
# Mechanical properties :
#
#
# Convention : Reuss Voigt Hill
#
# Bulk Modulus (GPa) = 34.00050 77.87065 55.93557
# Shear Modulus (GPa) = 15.15659 28.08265 21.61962
#
# Velocity S-wave (km/s) = 2.94950 4.01482 3.52266
# Velocity P-wave (km/s) = 5.57807 8.13558 6.97505
#
# Compressibility (1/GPa) = 0.02941133
#
# Stress axis : x y z
#
# Youngs Moduli (GPa) = 120.39909 23.39752 80.72053
#
# Poissons Ratio (x) = 0.14546 0.21566
# Poissons Ratio (y) = 0.74851 0.65566
# Poissons Ratio (z) = 0.32166 0.19005
#
# Static dielectric constant tensor:
#      x y z
#    x 1.574670 0.000000 0.009330 
#    y 0.000000 1.588100 0.000000 
#    z 0.009330 0.000000 1.574630 
# 
# From -- ./inp_files/359883.got.cif
#   From: 2010.05.17/outbox.cif.g08.bks.cpg/sg12_180_cif.got.tgz:359883.got - 2010.06.03 13:09:07.
