data_PCOD9192376
_publ_section_title
;
Structure prediction by ZEFSAII (Michael W. Deem and Ramdas Pophale) SiO2 
 PCOD9192376
Probable space group: C 2/M
;
_chemical_formula_sum "Si O2"
_cell_formula_units_Z 58
_cell_length_a 24.861690
_cell_length_b 9.271596
_cell_length_c 14.401272
_cell_angle_alpha 90.000000
_cell_angle_beta 86.976112
_cell_angle_gamma 90.000000
_cell_volume 3314.979740
_symmetry_space_group_name_H-M "C 2/M"
_symmetry_group_IT_number 12
_symmetry_cell_setting 'monoclinic'
loop_
_space_group_symop_operation_xyz
x,y,z
-x,y,-z
-x,-y,-z
x,-y,z
1/2+x,1/2+y,z
1/2-x,1/2+y,-z
1/2-x,1/2-y,-z
1/2+x,1/2-y,z
loop_
_atom_site_type_symbol
_atom_site_label
_atom_site_fract_x
_atom_site_fract_y
_atom_site_fract_z
Si Si1 0.975770 0.326820 0.603767
Si Si2 0.063245 0.171529 0.714086
Si Si3 0.500000 0.000000 0.000000
Si Si4 0.284894 0.171882 0.075233
Si Si5 0.746829 0.827733 0.264118
Si Si6 0.148870 0.672719 0.394533
Si Si7 0.595011 0.158487 0.892233
Si Si8 0.668057 0.670678 0.581472
O O1 0.979610 0.500000 0.615408
O O2 0.913212 0.284475 0.612515
O O3 0.000000 0.291619 0.500000
O O4 0.010654 0.249283 0.678872
O O5 0.079636 0.231859 0.812873
O O6 0.111897 0.204321 0.638261
O O7 0.056298 0.000000 0.717594
O O8 0.544779 0.876307 0.963560
O O9 0.266207 0.236158 0.175429
O O10 0.349376 0.199247 0.062240
O O11 0.276648 0.000000 0.070980
O O12 0.250000 0.250000 0.000000
O O13 0.686634 0.793034 0.303717
O O14 0.785225 0.798716 0.348767
O O15 0.750615 0.000000 0.243157
O O16 0.150447 0.500000 0.406231
O O17 0.171422 0.743574 0.485872
O O18 0.606277 0.000000 0.845399
O O19 0.669357 0.500000 0.561416
#
# Coordination Sequence:
#
# PCOD9192376 Si02
#       8
#     8   8   2   8   8   8   8   8
#     4  10  20  35  53  77 112 156 204 241 277 335
#     4  11  21  34  58  88 114 152 192 237 296 350
#     4   8  20  44  70  92 110 144 202 250 294 348
#     4  11  23  40  64  91 117 152 193 242 301 362
#     4  10  21  39  58  84 118 153 196 242 292 350
#     4  10  21  36  55  82 115 160 203 243 285 337
#     4   9  20  41  66  88 112 146 194 241 289 355
#     4  10  20  33  55  83 119 153 189 241 294 340
#
# _framework density 17.496335999999999
#
# number of rings (size 3 to 8) (size 9 to 14) (size 15 to 20)
#    0.414    1.517    2.759    1.241    0.000    3.034 
#    2.483    0.345    0.000    0.000    0.000    0.000 
#    0.000    0.000    0.000    0.000    0.000    0.000 
#
# Total GULP energy -161484.585583 kJ/mol
# GULP energy per Si atom -5568.433986 kJ/mol
# Density = 1.745651 g / cm^3
# Si number density = 17.496336 Si / 1000 Ang^3
#
#
#
# Elastic Constant Matrix: (Units=GPa)
#
#
# Indices 1 2 3 4 5 6 
#
# 1 128.7708 45.6488 65.6559 0.0000 -6.7641 0.0000
# 2 45.6488 39.6182 40.1538 0.0000 2.8414 0.0000
# 3 65.6559 40.1538 68.8018 0.0000 1.3630 0.0000
# 4 0.0000 0.0000 0.0000 36.4309 0.0000 4.6585
# 5 -6.7641 2.8414 1.3630 0.0000 27.7971 0.0000
# 6 0.0000 0.0000 0.0000 4.6585 0.0000 19.6178
#
#
#
# Elastic Compliance Matrix: (Units=1/GPa)
#
#
# Indices 1 2 3 4 5 6 
#
# 1 0.016706 -0.008258 -0.011231 0.000000 0.005460 0.000000
# 2 -0.008258 0.066453 -0.030758 0.000000 -0.007294 0.000000
# 3 -0.011231 -0.030758 0.043237 0.000000 -0.001709 0.000000
# 4 0.000000 0.000000 0.000000 0.028309 0.000000 -0.006722
# 5 0.005460 -0.007294 -0.001709 0.000000 0.038133 0.000000
# 6 0.000000 0.000000 0.000000 -0.006722 0.000000 0.052570
#
#
# Mechanical properties :
#
#
# Convention : Reuss Voigt Hill
#
# Bulk Modulus (GPa) = 38.60746 60.01198 49.30972
# Shear Modulus (GPa) = 14.10291 22.48464 18.29378
#
# Velocity S-wave (km/s) = 2.84218 3.58873 3.23705
# Velocity P-wave (km/s) = 5.73451 7.17956 6.49734
#
# Compressibility (1/GPa) = 0.02590173
#
# Stress axis : x y z
#
# Youngs Moduli (GPa) = 59.85743 15.04824 23.12840
#
# Poissons Ratio (x) = 0.12427 0.25976
# Poissons Ratio (y) = 0.49430 0.71139
# Poissons Ratio (z) = 0.67227 0.46286
#
# Static dielectric constant tensor:
#      x y z
#    x 1.616240 0.000000 -0.006180 
#    y 0.000000 1.583360 0.000000 
#    z -0.006180 0.000000 1.561740 
# 
# From -- ./inp_files/237667.got.cif
#   From: 2010.05.17/outbox.cif.g08.bks.cpg/sg12_119_cif.got.tgz:237667.got - 2010.06.03 13:09:07.
