data_PCOD9192107
_publ_section_title
;
Structure prediction by ZEFSAII (Michael W. Deem and Ramdas Pophale) SiO2 
 PCOD9192107
Probable space group: C 2/M
;
_chemical_formula_sum "Si O2"
_cell_formula_units_Z 58
_cell_length_a 23.405746
_cell_length_b 7.577286
_cell_length_c 15.252306
_cell_angle_alpha 90.000000
_cell_angle_beta 78.848633
_cell_angle_gamma 90.000000
_cell_volume 2653.955641
_symmetry_space_group_name_H-M "C 2/M"
_symmetry_group_IT_number 12
_symmetry_cell_setting 'monoclinic'
loop_
_space_group_symop_operation_xyz
x,y,z
-x,y,-z
-x,-y,-z
x,-y,z
1/2+x,1/2+y,z
1/2-x,1/2+y,-z
1/2-x,1/2-y,-z
1/2+x,1/2-y,z
loop_
_atom_site_type_symbol
_atom_site_label
_atom_site_fract_x
_atom_site_fract_y
_atom_site_fract_z
Si Si1 0.661247 0.788818 0.364532
Si Si2 0.394635 0.786131 0.796318
Si Si3 0.709598 0.283455 0.649167
Si Si4 0.631144 0.298785 0.827050
Si Si5 0.916032 0.793708 0.975429
Si Si6 0.606037 0.709410 0.555530
Si Si7 0.000000 0.500000 0.000000
Si Si8 0.526993 0.795149 0.733279
O O1 0.644039 0.723571 0.273470
O O2 0.724269 0.721971 0.377428
O O3 0.612664 0.750406 0.451750
O O4 0.666082 0.000000 0.357357
O O5 0.378908 0.721359 0.897907
O O6 0.461424 0.728514 0.759321
O O7 0.393208 0.000000 0.796439
O O8 0.708836 0.500000 0.648787
O O9 0.680936 0.222606 0.749600
O O10 0.665209 0.225301 0.586495
O O11 0.648448 0.500000 0.839514
O O12 0.573226 0.296388 0.784059
O O13 0.615337 0.224028 0.926647
O O14 0.932472 0.000000 0.982834
O O15 0.969167 0.657688 0.950040
O O16 0.603811 0.500000 0.566726
O O17 0.552319 0.781252 0.627391
O O18 0.528591 0.000000 0.757916
#
# Coordination Sequence:
#
# PCOD9192107 Si02
#       8
#     8   8   8   8   8   8   2   8
#     4  10  20  36  59  80 108 153 194 236 295 347
#     4  10  22  38  54  80 118 155 197 241 284 356
#     4   8  16  34  58  83 111 143 187 246 295 345
#     4   9  19  35  56  85 114 144 189 238 295 346
#     4  11  23  37  59  87 122 162 195 243 297 342
#     4  10  20  35  55  81 112 141 185 247 296 345
#     4  12  22  36  60  86 124 146 210 236 288 346
#     4  10  20  33  53  78 109 146 184 233 288 345
#
# _framework density 21.854171000000001
#
# number of rings (size 3 to 8) (size 9 to 14) (size 15 to 20)
#    0.000    2.207    0.690    3.103    2.897    3.310 
#    0.000    6.207    0.000    0.000    0.000    0.000 
#    0.000    0.000    0.000    0.000    0.000    0.000 
#
# Total GULP energy -161663.310730 kJ/mol
# GULP energy per Si atom -5574.596922 kJ/mol
# Density = 2.180443 g / cm^3
# Si number density = 21.854171 Si / 1000 Ang^3
#
#
#
# Elastic Constant Matrix: (Units=GPa)
#
#
# Indices 1 2 3 4 5 6 
#
# 1 9.4044 -1.0195 -2.2762 0.0000 -8.0195 0.0000
# 2 -1.0195 76.0509 16.5694 0.0000 0.7440 0.0000
# 3 -2.2762 16.5694 55.6400 0.0000 10.1017 0.0000
# 4 0.0000 0.0000 0.0000 -275.6842 0.0000 -74.6587
# 5 -8.0195 0.7440 10.1017 0.0000 23.4761 0.0000
# 6 0.0000 0.0000 0.0000 -74.6587 0.0000 -12.8279
#
#
#
# Elastic Compliance Matrix: (Units=1/GPa)
#
#
# Indices 1 2 3 4 5 6 
#
# 1 0.151064 0.002424 -0.004227 0.000000 0.053346 0.000000
# 2 0.002424 0.014147 -0.004537 0.000000 0.002332 0.000000
# 3 -0.004227 -0.004537 0.021030 0.000000 -0.010349 0.000000
# 4 0.000000 0.000000 0.000000 0.006296 0.000000 -0.036643
# 5 0.053346 0.002332 -0.010349 0.000000 0.065199 0.000000
# 6 0.000000 0.000000 0.000000 -0.036643 0.000000 0.135307
#
#
# Mechanical properties :
#
#
# Convention : Reuss Voigt Hill
#
# Bulk Modulus (GPa) = 5.76169 18.62697 12.19433
# Shear Modulus (GPa) = 10.78569 -44.48578 -16.85004
#
# Velocity S-wave (km/s) = 2.22396 -4.51663 -2.77974
# Velocity P-wave (km/s) = 3.03922 4.31950 2.17040
#
# Compressibility (1/GPa) = 0.17356025
#
# Stress axis : x y z
#
# Youngs Moduli (GPa) = 6.61972 70.68479 47.55142
#
# Poissons Ratio (x) = -0.17135 0.20101
# Poissons Ratio (y) = -0.01605 0.21575
# Poissons Ratio (z) = 0.02798 0.32071
#
# Static dielectric constant tensor:
#      x y z
#    x 1.799430 0.000000 -0.021980 
#    y 0.000000 1.805500 0.000000 
#    z -0.021980 0.000000 1.859100 
# 
# From -- ./inp_files/237532.got.cif
#   From: 2010.05.17/outbox.cif.g08.bks.cpg/sg12_119_cif.got.tgz:237532.got - 2010.06.03 13:09:07.
